MODEL 1
REMARK VINA RESULT:      -5.2      0.000      0.000
REMARK  Name = *****
REMARK                            x       y       z     vdW  Elec       q    Type
REMARK                         _______ _______ _______ _____ _____    ______ ____
ROOT
ATOM      1  C   LIG    1       21.015 -31.207  12.380  0.00  0.00    +0.204 A 
ATOM      2  C   LIG    1       22.238 -31.601  11.778  0.00  0.00    +0.173 A 
ATOM      3  C   LIG    1       23.245 -30.626  11.566  0.00  0.00    +0.031 A 
ATOM      4  C   LIG    1       24.201 -30.719  10.429  0.00  0.00    -0.009 A 
ATOM      5  C   LIG    1       25.658 -30.542  10.492  0.00  0.00    -0.016 A 
ATOM      6  C   LIG    1       26.246 -30.095  11.843  0.00  0.00    +0.104 C 
ATOM      7  C   LIG    1       25.618 -28.897  12.600  0.00  0.00    +0.032 C 
ATOM      8  C   LIG    1       24.272 -28.369  12.121  0.00  0.00    +0.038 C 
ATOM      9  C   LIG    1       26.432 -30.918   9.445  0.00  0.00    +0.058 A 
ATOM     10  C   LIG    1       26.100 -31.575   8.132  0.00  0.00    +0.193 A 
ATOM     11  O   LIG    1       26.986 -31.606   7.275  0.00  0.00    -0.287 OA
ATOM     12  C   LIG    1       24.756 -32.205   7.882  0.00  0.00    +0.054 A 
ATOM     13  C   LIG    1       23.610 -31.712   8.376  0.00  0.00    +0.019 A 
ATOM     14  C   LIG    1       23.559 -30.539   9.249  0.00  0.00    +0.010 A 
ATOM     15  C   LIG    1       23.173 -29.392  12.231  0.00  0.00    -0.032 A 
ATOM     16  C   LIG    1       22.002 -29.056  12.910  0.00  0.00    +0.054 A 
ATOM     17  C   LIG    1       20.879 -29.887  12.868  0.00  0.00    +0.169 A 
ENDROOT
BRANCH   6  18
ATOM     18  N   LIG    1       27.687 -29.827  11.728  0.00  0.00    -0.309 N 
ATOM     19  H   LIG    1       28.067 -29.677  10.802  0.00  0.00    +0.149 HD
ATOM     20  C   LIG    1       28.559 -29.894  12.788  0.00  0.00    +0.210 C 
ATOM     21  O   LIG    1       28.214 -30.210  13.928  0.00  0.00    -0.276 OA
ATOM     22  C   LIG    1       29.975 -29.513  12.463  0.00  0.00    +0.109 C 
ENDBRANCH   6  18
BRANCH   1  24
ATOM     23  C   LIG    1       19.733 -32.857  13.543  0.00  0.00    +0.277 C 
ATOM     24  O   LIG    1       19.870 -31.968  12.440  0.00  0.00    -0.488 OA
ENDBRANCH   1  24
BRANCH   2  25
ATOM     25  O   LIG    1       22.366 -32.884  11.291  0.00  0.00    -0.491 OA
ATOM     26  C   LIG    1       23.103 -33.789  12.125  0.00  0.00    +0.277 C 
ENDBRANCH   2  25
BRANCH  12  27
ATOM     27  S   LIG    1       24.731 -33.632   6.888  0.00  0.00    -0.125 S 
ATOM     28  C   LIG    1       23.064 -33.485   6.208  0.00  0.00    +0.090 C 
ENDBRANCH  12  27
BRANCH  17  29
ATOM     29  O   LIG    1       19.636 -29.434  13.300  0.00  0.00    -0.457 OA
BRANCH  29  30
ATOM     30  C   LIG    1       19.666 -28.759  14.580  0.00  0.00    +0.339 C 
ATOM     31  C   LIG    1       19.554 -27.219  14.467  0.00  0.00    +0.214 C 
ATOM     32  C   LIG    1       18.140 -26.675  14.693  0.00  0.00    +0.180 C 
ATOM     33  C   LIG    1       17.059 -27.734  14.499  0.00  0.00    +0.177 C 
ATOM     34  C   LIG    1       17.354 -28.980  15.343  0.00  0.00    +0.179 C 
ATOM     35  O   LIG    1       18.730 -29.331  15.499  0.00  0.00    -0.331 OA
BRANCH  31  36
ATOM     36  O   LIG    1       20.387 -26.624  15.500  0.00  0.00    -0.383 OA
ATOM     37  H   LIG    1       21.309 -26.885  15.337  0.00  0.00    +0.210 HD
ENDBRANCH  31  36
BRANCH  32  38
ATOM     38  O   LIG    1       17.896 -25.577  13.801  0.00  0.00    -0.386 OA
ATOM     39  H   LIG    1       17.032 -25.185  14.007  0.00  0.00    +0.210 HD
ENDBRANCH  32  38
BRANCH  33  40
ATOM     40  O   LIG    1       15.775 -27.212  14.897  0.00  0.00    -0.387 OA
ATOM     41  H   LIG    1       15.889 -26.707  15.720  0.00  0.00    +0.210 HD
ENDBRANCH  33  40
BRANCH  34  42
ATOM     42  C   LIG    1       16.531 -30.184  14.854  0.00  0.00    +0.190 C 
BRANCH  42  43
ATOM     43  O   LIG    1       17.004 -30.691  13.613  0.00  0.00    -0.392 OA
ATOM     44  H   LIG    1       16.501 -31.504  13.423  0.00  0.00    +0.209 HD
ENDBRANCH  42  43
ENDBRANCH  34  42
ENDBRANCH  29  30
ENDBRANCH  17  29
TORSDOF 11
ENDMDL
MODEL 2
REMARK VINA RESULT:      -5.2      3.276      9.132
REMARK  Name = *****
REMARK                            x       y       z     vdW  Elec       q    Type
REMARK                         _______ _______ _______ _____ _____    ______ ____
ROOT
ATOM      1  C   LIG    1       24.029 -31.806  10.842  0.00  0.00    +0.204 A 
ATOM      2  C   LIG    1       23.346 -31.234  11.946  0.00  0.00    +0.173 A 
ATOM      3  C   LIG    1       21.983 -30.877  11.800  0.00  0.00    +0.031 A 
ATOM      4  C   LIG    1       21.384 -29.742  12.553  0.00  0.00    -0.009 A 
ATOM      5  C   LIG    1       20.111 -29.750  13.287  0.00  0.00    -0.016 A 
ATOM      6  C   LIG    1       19.248 -31.020  13.167  0.00  0.00    +0.104 C 
ATOM      7  C   LIG    1       18.962 -31.629  11.771  0.00  0.00    +0.032 C 
ATOM      8  C   LIG    1       19.765 -31.114  10.582  0.00  0.00    +0.038 C 
ATOM      9  C   LIG    1       19.817 -28.744  14.147  0.00  0.00    +0.058 A 
ATOM     10  C   LIG    1       20.598 -27.533  14.585  0.00  0.00    +0.193 A 
ATOM     11  O   LIG    1       19.992 -26.669  15.220  0.00  0.00    -0.287 OA
ATOM     12  C   LIG    1       22.069 -27.396  14.295  0.00  0.00    +0.054 A 
ATOM     13  C   LIG    1       22.641 -27.847  13.168  0.00  0.00    +0.019 A 
ATOM     14  C   LIG    1       21.899 -28.562  12.130  0.00  0.00    +0.010 A 
ATOM     15  C   LIG    1       21.240 -31.379  10.720  0.00  0.00    -0.032 A 
ATOM     16  C   LIG    1       21.909 -32.034   9.686  0.00  0.00    +0.054 A 
ATOM     17  C   LIG    1       23.304 -32.123   9.670  0.00  0.00    +0.169 A 
ENDROOT
BRANCH   6  18
ATOM     18  N   LIG    1       17.950 -30.840  13.834  0.00  0.00    -0.309 N 
ATOM     19  H   LIG    1       17.537 -29.916  13.825  0.00  0.00    +0.149 HD
ATOM     20  C   LIG    1       17.335 -31.821  14.573  0.00  0.00    +0.210 C 
ATOM     21  O   LIG    1       17.828 -32.934  14.763  0.00  0.00    -0.276 OA
ATOM     22  C   LIG    1       15.981 -31.449  15.109  0.00  0.00    +0.109 C 
ENDBRANCH   6  18
BRANCH   1  24
ATOM     23  C   LIG    1       26.197 -30.826  10.597  0.00  0.00    +0.277 C 
ATOM     24  O   LIG    1       25.390 -31.989  10.747  0.00  0.00    -0.488 OA
ENDBRANCH   1  24
BRANCH   2  25
ATOM     25  O   LIG    1       24.056 -30.914  13.083  0.00  0.00    -0.491 OA
ATOM     26  C   LIG    1       24.330 -32.010  13.968  0.00  0.00    +0.277 C 
ENDBRANCH   2  25
BRANCH  12  27
ATOM     27  S   LIG    1       23.034 -26.595  15.500  0.00  0.00    -0.125 S 
ATOM     28  C   LIG    1       24.331 -25.924  14.435  0.00  0.00    +0.090 C 
ENDBRANCH  12  27
BRANCH  17  29
ATOM     29  O   LIG    1       23.983 -32.519   8.522  0.00  0.00    -0.457 OA
BRANCH  29  30
ATOM     30  C   LIG    1       24.188 -31.458   7.560  0.00  0.00    +0.339 C 
ATOM     31  C   LIG    1       25.681 -31.194   7.242  0.00  0.00    +0.214 C 
ATOM     32  C   LIG    1       26.178 -31.871   5.962  0.00  0.00    +0.180 C 
ATOM     33  C   LIG    1       25.294 -33.035   5.525  0.00  0.00    +0.177 C 
ATOM     34  C   LIG    1       23.826 -32.603   5.430  0.00  0.00    +0.179 C 
ATOM     35  O   LIG    1       23.383 -31.643   6.391  0.00  0.00    -0.331 OA
BRANCH  31  36
ATOM     36  O   LIG    1       25.858 -29.765   7.040  0.00  0.00    -0.383 OA
ATOM     37  H   LIG    1       24.995 -29.331   7.149  0.00  0.00    +0.210 HD
ENDBRANCH  31  36
BRANCH  32  38
ATOM     38  O   LIG    1       27.522 -32.341   6.155  0.00  0.00    -0.386 OA
ATOM     39  H   LIG    1       28.141 -31.614   5.982  0.00  0.00    +0.210 HD
ENDBRANCH  32  38
BRANCH  33  40
ATOM     40  O   LIG    1       25.708 -33.513   4.228  0.00  0.00    -0.387 OA
ATOM     41  H   LIG    1       25.100 -33.157   3.558  0.00  0.00    +0.210 HD
ENDBRANCH  33  40
BRANCH  34  42
ATOM     42  C   LIG    1       22.893 -33.825   5.403  0.00  0.00    +0.190 C 
BRANCH  42  43
ATOM     43  O   LIG    1       21.956 -33.762   4.335  0.00  0.00    -0.392 OA
ATOM     44  H   LIG    1       22.405 -33.336   3.582  0.00  0.00    +0.209 HD
ENDBRANCH  42  43
ENDBRANCH  34  42
ENDBRANCH  29  30
ENDBRANCH  17  29
TORSDOF 11
ENDMDL
MODEL 3
REMARK VINA RESULT:      -2.9      2.097      2.899
REMARK  Name = *****
REMARK                            x       y       z     vdW  Elec       q    Type
REMARK                         _______ _______ _______ _____ _____    ______ ____
ROOT
ATOM      1  C   LIG    1       21.020 -32.722  11.075  0.00  0.00    +0.204 A 
ATOM      2  C   LIG    1       22.349 -32.304  10.809  0.00  0.00    +0.173 A 
ATOM      3  C   LIG    1       22.767 -31.023  11.247  0.00  0.00    +0.031 A 
ATOM      4  C   LIG    1       23.794 -30.237  10.509  0.00  0.00    -0.009 A 
ATOM      5  C   LIG    1       24.952 -29.544  11.090  0.00  0.00    -0.016 A 
ATOM      6  C   LIG    1       25.051 -29.523  12.626  0.00  0.00    +0.104 C 
ATOM      7  C   LIG    1       23.818 -29.117  13.473  0.00  0.00    +0.032 C 
ATOM      8  C   LIG    1       22.467 -29.015  12.775  0.00  0.00    +0.038 C 
ATOM      9  C   LIG    1       25.949 -29.099  10.285  0.00  0.00    +0.058 A 
ATOM     10  C   LIG    1       26.168 -29.207   8.800  0.00  0.00    +0.193 A 
ATOM     11  O   LIG    1       27.065 -28.518   8.310  0.00  0.00    -0.287 OA
ATOM     12  C   LIG    1       25.356 -30.145   7.948  0.00  0.00    +0.054 A 
ATOM     13  C   LIG    1       24.059 -30.406   8.174  0.00  0.00    +0.019 A 
ATOM     14  C   LIG    1       23.318 -29.841   9.303  0.00  0.00    +0.010 A 
ATOM     15  C   LIG    1       22.008 -30.329  12.201  0.00  0.00    -0.032 A 
ATOM     16  C   LIG    1       20.741 -30.807  12.536  0.00  0.00    +0.054 A 
ATOM     17  C   LIG    1       20.188 -31.909  11.878  0.00  0.00    +0.169 A 
ENDROOT
BRANCH   6  18
ATOM     18  N   LIG    1       26.175 -28.686  13.071  0.00  0.00    -0.309 N 
ATOM     19  H   LIG    1       26.357 -27.830  12.563  0.00  0.00    +0.149 HD
ATOM     20  C   LIG    1       27.062 -29.065  14.049  0.00  0.00    +0.210 C 
ATOM     21  O   LIG    1       27.009 -30.153  14.626  0.00  0.00    -0.276 OA
ATOM     22  C   LIG    1       28.093 -28.029  14.398  0.00  0.00    +0.109 C 
ENDBRANCH   6  18
BRANCH   1  24
ATOM     23  C   LIG    1       19.970 -33.718   9.170  0.00  0.00    +0.277 C 
ATOM     24  O   LIG    1       20.399 -33.820  10.524  0.00  0.00    -0.488 OA
ENDBRANCH   1  24
BRANCH   2  25
ATOM     25  O   LIG    1       23.156 -33.091  10.016  0.00  0.00    -0.491 OA
ATOM     26  C   LIG    1       24.363 -33.557  10.634  0.00  0.00    +0.277 C 
ENDBRANCH   2  25
BRANCH  12  27
ATOM     27  S   LIG    1       26.172 -30.894   6.607  0.00  0.00    -0.125 S 
ATOM     28  C   LIG    1       26.815 -32.362   7.441  0.00  0.00    +0.090 C 
ENDBRANCH  12  27
BRANCH  17  29
ATOM     29  O   LIG    1       18.836 -32.214  12.005  0.00  0.00    -0.457 OA
BRANCH  29  30
ATOM     30  C   LIG    1       18.456 -32.676  13.323  0.00  0.00    +0.339 C 
ATOM     31  C   LIG    1       19.374 -32.143  14.451  0.00  0.00    +0.214 C 
ATOM     32  C   LIG    1       18.817 -30.919  15.185  0.00  0.00    +0.180 C 
ATOM     33  C   LIG    1       17.752 -30.179  14.382  0.00  0.00    +0.177 C 
ATOM     34  C   LIG    1       16.650 -31.139  13.918  0.00  0.00    +0.179 C 
ATOM     35  O   LIG    1       17.064 -32.463  13.576  0.00  0.00    -0.331 OA
BRANCH  31  36
ATOM     36  O   LIG    1       19.519 -33.186  15.453  0.00  0.00    -0.383 OA
ATOM     37  H   LIG    1       19.808 -32.774  16.284  0.00  0.00    +0.210 HD
ENDBRANCH  31  36
BRANCH  32  38
ATOM     38  O   LIG    1       19.889 -30.016  15.500  0.00  0.00    -0.386 OA
ATOM     39  H   LIG    1       19.607 -29.107  15.307  0.00  0.00    +0.210 HD
ENDBRANCH  32  38
BRANCH  33  40
ATOM     40  O   LIG    1       17.144 -29.153  15.192  0.00  0.00    -0.387 OA
ATOM     41  H   LIG    1       17.825 -28.771  15.772  0.00  0.00    +0.210 HD
ENDBRANCH  33  40
BRANCH  34  42
ATOM     42  C   LIG    1       15.816 -30.514  12.787  0.00  0.00    +0.190 C 
BRANCH  42  43
ATOM     43  O   LIG    1       16.424 -30.683  11.513  0.00  0.00    -0.392 OA
ATOM     44  H   LIG    1       15.925 -31.378  11.045  0.00  0.00    +0.209 HD
ENDBRANCH  42  43
ENDBRANCH  34  42
ENDBRANCH  29  30
ENDBRANCH  17  29
TORSDOF 11
ENDMDL
MODEL 4
REMARK VINA RESULT:      -2.8      3.965      7.244
REMARK  Name = *****
REMARK                            x       y       z     vdW  Elec       q    Type
REMARK                         _______ _______ _______ _____ _____    ______ ____
ROOT
ATOM      1  C   LIG    1       24.458 -30.454  13.559  0.00  0.00    +0.204 A 
ATOM      2  C   LIG    1       23.778 -31.419  12.771  0.00  0.00    +0.173 A 
ATOM      3  C   LIG    1       23.712 -31.237  11.368  0.00  0.00    +0.031 A 
ATOM      4  C   LIG    1       22.558 -31.728  10.566  0.00  0.00    -0.009 A 
ATOM      5  C   LIG    1       22.623 -32.482   9.307  0.00  0.00    -0.016 A 
ATOM      6  C   LIG    1       24.019 -32.682   8.688  0.00  0.00    +0.104 C 
ATOM      7  C   LIG    1       24.974 -31.472   8.532  0.00  0.00    +0.032 C 
ATOM      8  C   LIG    1       24.613 -30.174   9.243  0.00  0.00    +0.038 C 
ATOM      9  C   LIG    1       21.514 -33.098   8.827  0.00  0.00    +0.058 A 
ATOM     10  C   LIG    1       20.117 -33.223   9.372  0.00  0.00    +0.193 A 
ATOM     11  O   LIG    1       19.251 -33.663   8.613  0.00  0.00    -0.287 OA
ATOM     12  C   LIG    1       19.791 -32.865  10.797  0.00  0.00    +0.054 A 
ATOM     13  C   LIG    1       20.380 -31.854  11.455  0.00  0.00    +0.019 A 
ATOM     14  C   LIG    1       21.435 -31.030  10.865  0.00  0.00    +0.010 A 
ATOM     15  C   LIG    1       24.572 -30.323  10.740  0.00  0.00    -0.032 A 
ATOM     16  C   LIG    1       25.319 -29.446  11.528  0.00  0.00    +0.054 A 
ATOM     17  C   LIG    1       25.159 -29.409  12.916  0.00  0.00    +0.169 A 
ENDROOT
BRANCH   6  18
ATOM     18  N   LIG    1       23.923 -33.330   7.371  0.00  0.00    -0.309 N 
ATOM     19  H   LIG    1       24.108 -34.324   7.319  0.00  0.00    +0.149 HD
ATOM     20  C   LIG    1       23.725 -32.642   6.199  0.00  0.00    +0.210 C 
ATOM     21  O   LIG    1       23.632 -31.414   6.144  0.00  0.00    -0.276 OA
ATOM     22  C   LIG    1       23.588 -33.505   4.977  0.00  0.00    +0.109 C 
ENDBRANCH   6  18
BRANCH   1  24
ATOM     23  C   LIG    1       23.616 -29.324  15.492  0.00  0.00    +0.277 C 
ATOM     24  O   LIG    1       24.412 -30.363  14.931  0.00  0.00    -0.488 OA
ENDBRANCH   1  24
BRANCH   2  25
ATOM     25  O   LIG    1       23.083 -32.430  13.399  0.00  0.00    -0.491 OA
ATOM     26  C   LIG    1       23.746 -33.702  13.437  0.00  0.00    +0.277 C 
ENDBRANCH   2  25
BRANCH  12  27
ATOM     27  S   LIG    1       18.575 -33.825  11.589  0.00  0.00    -0.125 S 
ATOM     28  C   LIG    1       18.955 -33.417  13.308  0.00  0.00    +0.090 C 
ENDBRANCH  12  27
BRANCH  17  29
ATOM     29  O   LIG    1       25.683 -28.361  13.668  0.00  0.00    -0.457 OA
BRANCH  29  30
ATOM     30  C   LIG    1       26.464 -27.415  12.900  0.00  0.00    +0.339 C 
ATOM     31  C   LIG    1       26.496 -25.996  13.521  0.00  0.00    +0.214 C 
ATOM     32  C   LIG    1       27.748 -25.706  14.354  0.00  0.00    +0.180 C 
ATOM     33  C   LIG    1       28.462 -26.972  14.816  0.00  0.00    +0.177 C 
ATOM     34  C   LIG    1       28.746 -27.904  13.631  0.00  0.00    +0.179 C 
ATOM     35  O   LIG    1       27.764 -27.931  12.594  0.00  0.00    -0.331 OA
BRANCH  31  36
ATOM     36  O   LIG    1       26.494 -25.026  12.439  0.00  0.00    -0.383 OA
ATOM     37  H   LIG    1       27.416 -24.845  12.189  0.00  0.00    +0.210 HD
ENDBRANCH  31  36
BRANCH  32  38
ATOM     38  O   LIG    1       27.394 -24.915  15.500  0.00  0.00    -0.386 OA
ATOM     39  H   LIG    1       26.594 -25.285  15.907  0.00  0.00    +0.210 HD
ENDBRANCH  32  38
BRANCH  33  40
ATOM     40  O   LIG    1       29.719 -26.636  15.437  0.00  0.00    -0.387 OA
ATOM     41  H   LIG    1       29.718 -25.685  15.642  0.00  0.00    +0.210 HD
ENDBRANCH  33  40
BRANCH  34  42
ATOM     42  C   LIG    1       29.073 -29.327  14.116  0.00  0.00    +0.190 C 
BRANCH  42  43
ATOM     43  O   LIG    1       28.149 -30.289  13.622  0.00  0.00    -0.392 OA
ATOM     44  H   LIG    1       28.616 -31.144  13.584  0.00  0.00    +0.209 HD
ENDBRANCH  42  43
ENDBRANCH  34  42
ENDBRANCH  29  30
ENDBRANCH  17  29
TORSDOF 11
ENDMDL
MODEL 5
REMARK VINA RESULT:      -2.7      6.134      8.575
REMARK  Name = *****
REMARK                            x       y       z     vdW  Elec       q    Type
REMARK                         _______ _______ _______ _____ _____    ______ ____
ROOT
ATOM      1  C   LIG    1       24.769 -26.089   6.129  0.00  0.00    +0.204 A 
ATOM      2  C   LIG    1       24.479 -27.430   6.488  0.00  0.00    +0.173 A 
ATOM      3  C   LIG    1       25.271 -28.064   7.477  0.00  0.00    +0.031 A 
ATOM      4  C   LIG    1       25.521 -29.531   7.462  0.00  0.00    -0.009 A 
ATOM      5  C   LIG    1       25.414 -30.451   8.602  0.00  0.00    -0.016 A 
ATOM      6  C   LIG    1       25.134 -29.821   9.979  0.00  0.00    +0.104 C 
ATOM      7  C   LIG    1       25.975 -28.611  10.459  0.00  0.00    +0.032 C 
ATOM      8  C   LIG    1       26.869 -27.908   9.446  0.00  0.00    +0.038 C 
ATOM      9  C   LIG    1       25.404 -31.791   8.394  0.00  0.00    +0.058 A 
ATOM     10  C   LIG    1       25.440 -32.614   7.134  0.00  0.00    +0.193 A 
ATOM     11  O   LIG    1       25.636 -33.825   7.256  0.00  0.00    -0.287 OA
ATOM     12  C   LIG    1       25.206 -31.997   5.782  0.00  0.00    +0.054 A 
ATOM     13  C   LIG    1       25.618 -30.762   5.456  0.00  0.00    +0.019 A 
ATOM     14  C   LIG    1       26.294 -29.874   6.402  0.00  0.00    +0.010 A 
ATOM     15  C   LIG    1       26.093 -27.293   8.314  0.00  0.00    -0.032 A 
ATOM     16  C   LIG    1       26.290 -25.945   8.012  0.00  0.00    +0.054 A 
ATOM     17  C   LIG    1       25.753 -25.378   6.853  0.00  0.00    +0.169 A 
ENDROOT
BRANCH   6  18
ATOM     18  N   LIG    1       25.187 -30.835  11.044  0.00  0.00    -0.309 N 
ATOM     19  H   LIG    1       25.925 -31.525  11.001  0.00  0.00    +0.149 HD
ATOM     20  C   LIG    1       24.221 -30.970  12.011  0.00  0.00    +0.210 C 
ATOM     21  O   LIG    1       23.210 -30.268  12.060  0.00  0.00    -0.276 OA
ATOM     22  C   LIG    1       24.508 -32.023  13.043  0.00  0.00    +0.109 C 
ENDBRANCH   6  18
BRANCH   1  24
ATOM     23  C   LIG    1       25.111 -25.238   3.920  0.00  0.00    +0.277 C 
ATOM     24  O   LIG    1       24.254 -25.420   5.042  0.00  0.00    -0.488 OA
ENDBRANCH   1  24
BRANCH   2  25
ATOM     25  O   LIG    1       23.528 -28.127   5.773  0.00  0.00    -0.491 OA
ATOM     26  C   LIG    1       23.916 -28.518   4.449  0.00  0.00    +0.277 C 
ENDBRANCH   2  25
BRANCH  12  27
ATOM     27  S   LIG    1       24.370 -32.972   4.608  0.00  0.00    -0.125 S 
ATOM     28  C   LIG    1       25.533 -32.832   3.232  0.00  0.00    +0.090 C 
ENDBRANCH  12  27
BRANCH  17  29
ATOM     29  O   LIG    1       26.173 -24.128   6.407  0.00  0.00    -0.457 OA
BRANCH  29  30
ATOM     30  C   LIG    1       26.118 -23.092   7.416  0.00  0.00    +0.339 C 
ATOM     31  C   LIG    1       27.107 -21.928   7.158  0.00  0.00    +0.214 C 
ATOM     32  C   LIG    1       26.476 -20.709   6.479  0.00  0.00    +0.180 C 
ATOM     33  C   LIG    1       25.172 -21.039   5.759  0.00  0.00    +0.177 C 
ATOM     34  C   LIG    1       24.197 -21.761   6.696  0.00  0.00    +0.179 C 
ATOM     35  O   LIG    1       24.775 -22.655   7.649  0.00  0.00    -0.331 OA
BRANCH  31  36
ATOM     36  O   LIG    1       27.609 -21.464   8.441  0.00  0.00    -0.383 OA
ATOM     37  H   LIG    1       28.129 -20.657   8.292  0.00  0.00    +0.210 HD
ENDBRANCH  31  36
BRANCH  32  38
ATOM     38  O   LIG    1       27.406 -20.142   5.542  0.00  0.00    -0.386 OA
ATOM     39  H   LIG    1       28.267 -20.029   5.976  0.00  0.00    +0.210 HD
ENDBRANCH  32  38
BRANCH  33  40
ATOM     40  O   LIG    1       24.540 -19.827   5.297  0.00  0.00    -0.387 OA
ATOM     41  H   LIG    1       23.609 -19.838   5.578  0.00  0.00    +0.210 HD
ENDBRANCH  33  40
BRANCH  34  42
ATOM     42  C   LIG    1       23.080 -22.456   5.898  0.00  0.00    +0.190 C 
BRANCH  42  43
ATOM     43  O   LIG    1       22.522 -23.559   6.602  0.00  0.00    -0.392 OA
ATOM     44  H   LIG    1       22.038 -23.197   7.367  0.00  0.00    +0.209 HD
ENDBRANCH  42  43
ENDBRANCH  34  42
ENDBRANCH  29  30
ENDBRANCH  17  29
TORSDOF 11
ENDMDL
MODEL 6
REMARK VINA RESULT:      -2.4      3.684      6.830
REMARK  Name = *****
REMARK                            x       y       z     vdW  Elec       q    Type
REMARK                         _______ _______ _______ _____ _____    ______ ____
ROOT
ATOM      1  C   LIG    1       26.151 -29.672  12.543  0.00  0.00    +0.204 A 
ATOM      2  C   LIG    1       25.369 -30.741  12.032  0.00  0.00    +0.173 A 
ATOM      3  C   LIG    1       24.792 -30.614  10.744  0.00  0.00    +0.031 A 
ATOM      4  C   LIG    1       23.505 -31.274  10.392  0.00  0.00    -0.009 A 
ATOM      5  C   LIG    1       23.222 -32.054   9.180  0.00  0.00    -0.016 A 
ATOM      6  C   LIG    1       24.325 -32.096   8.107  0.00  0.00    +0.104 C 
ATOM      7  C   LIG    1       24.999 -30.780   7.642  0.00  0.00    +0.032 C 
ATOM      8  C   LIG    1       24.745 -29.515   8.453  0.00  0.00    +0.038 C 
ATOM      9  C   LIG    1       22.105 -32.821   9.113  0.00  0.00    +0.058 A 
ATOM     10  C   LIG    1       21.017 -33.105  10.113  0.00  0.00    +0.193 A 
ATOM     11  O   LIG    1       20.005 -33.675   9.701  0.00  0.00    -0.287 OA
ATOM     12  C   LIG    1       21.168 -32.744  11.566  0.00  0.00    +0.054 A 
ATOM     13  C   LIG    1       21.813 -31.646  11.989  0.00  0.00    +0.019 A 
ATOM     14  C   LIG    1       22.478 -30.714  11.078  0.00  0.00    +0.010 A 
ATOM     15  C   LIG    1       25.251 -29.620   9.867  0.00  0.00    -0.032 A 
ATOM     16  C   LIG    1       26.106 -28.630  10.354  0.00  0.00    +0.054 A 
ATOM     17  C   LIG    1       26.440 -28.568  11.709  0.00  0.00    +0.169 A 
ENDROOT
BRANCH   6  18
ATOM     18  N   LIG    1       23.859 -32.793   6.898  0.00  0.00    -0.309 N 
ATOM     19  H   LIG    1       22.913 -33.152   6.895  0.00  0.00    +0.149 HD
ATOM     20  C   LIG    1       24.674 -33.092   5.834  0.00  0.00    +0.210 C 
ATOM     21  O   LIG    1       25.877 -32.824   5.806  0.00  0.00    -0.276 OA
ATOM     22  C   LIG    1       23.978 -33.745   4.673  0.00  0.00    +0.109 C 
ENDBRANCH   6  18
BRANCH   1  24
ATOM     23  C   LIG    1       27.721 -30.296  14.236  0.00  0.00    +0.277 C 
ATOM     24  O   LIG    1       26.578 -29.543  13.845  0.00  0.00    -0.488 OA
ENDBRANCH   1  24
BRANCH   2  25
ATOM     25  O   LIG    1       25.077 -31.811  12.849  0.00  0.00    -0.491 OA
ATOM     26  C   LIG    1       25.390 -33.103  12.310  0.00  0.00    +0.277 C 
ENDBRANCH   2  25
BRANCH  12  27
ATOM     27  S   LIG    1       20.443 -33.824  12.722  0.00  0.00    -0.125 S 
ATOM     28  C   LIG    1       18.829 -33.029  12.891  0.00  0.00    +0.090 C 
ENDBRANCH  12  27
BRANCH  17  29
ATOM     29  O   LIG    1       27.053 -27.439  12.244  0.00  0.00    -0.457 OA
BRANCH  29  30
ATOM     30  C   LIG    1       27.053 -27.396  13.691  0.00  0.00    +0.339 C 
ATOM     31  C   LIG    1       28.032 -26.347  14.275  0.00  0.00    +0.214 C 
ATOM     32  C   LIG    1       27.372 -25.020  14.660  0.00  0.00    +0.180 C 
ATOM     33  C   LIG    1       26.031 -24.801  13.966  0.00  0.00    +0.177 C 
ATOM     34  C   LIG    1       25.103 -26.003  14.174  0.00  0.00    +0.179 C 
ATOM     35  O   LIG    1       25.726 -27.288  14.215  0.00  0.00    -0.331 OA
BRANCH  31  36
ATOM     36  O   LIG    1       28.601 -26.888  15.500  0.00  0.00    -0.383 OA
ATOM     37  H   LIG    1       28.744 -27.841  15.376  0.00  0.00    +0.210 HD
ENDBRANCH  31  36
BRANCH  32  38
ATOM     38  O   LIG    1       28.254 -23.932  14.345  0.00  0.00    -0.386 OA
ATOM     39  H   LIG    1       29.005 -23.941  14.960  0.00  0.00    +0.210 HD
ENDBRANCH  32  38
BRANCH  33  40
ATOM     40  O   LIG    1       25.380 -23.630  14.501  0.00  0.00    -0.387 OA
ATOM     41  H   LIG    1       26.058 -22.959  14.691  0.00  0.00    +0.210 HD
ENDBRANCH  33  40
BRANCH  34  42
ATOM     42  C   LIG    1       23.944 -25.986  13.163  0.00  0.00    +0.190 C 
BRANCH  42  43
ATOM     43  O   LIG    1       23.377 -27.276  12.973  0.00  0.00    -0.392 OA
ATOM     44  H   LIG    1       24.110 -27.919  12.990  0.00  0.00    +0.209 HD
ENDBRANCH  42  43
ENDBRANCH  34  42
ENDBRANCH  29  30
ENDBRANCH  17  29
TORSDOF 11
ENDMDL
