MODEL 1
REMARK VINA RESULT:      -3.5      0.000      0.000
REMARK  Name = *****
REMARK                            x       y       z     vdW  Elec       q    Type
REMARK                         _______ _______ _______ _____ _____    ______ ____
ROOT
ATOM      1  S   LIG    1       22.645 -18.612   4.262  0.00  0.00    +0.075 S 
ATOM      2  O   LIG    1       21.534 -18.565   3.330  0.00  0.00    -0.150 OA
ATOM      3  O   LIG    1       22.403 -18.764   5.679  0.00  0.00    -0.150 OA
ENDROOT
BRANCH   1   7
ATOM      4  C   LIG    1       25.133 -14.814   3.760  0.00  0.00    +0.025 A 
ATOM      5  C   LIG    1       25.630 -16.049   3.332  0.00  0.00    +0.024 A 
ATOM      6  C   LIG    1       24.887 -17.218   3.504  0.00  0.00    +0.030 A 
ATOM      7  C   LIG    1       23.614 -17.142   4.071  0.00  0.00    +0.109 A 
ATOM      8  C   LIG    1       23.069 -15.909   4.434  0.00  0.00    +0.030 A 
ATOM      9  C   LIG    1       23.828 -14.748   4.261  0.00  0.00    +0.024 A 
BRANCH   4  10
ATOM     10  N   LIG    1       25.835 -13.637   3.474  0.00  0.00    -0.358 N 
ATOM     11  H   LIG    1       25.404 -12.802   3.860  0.00  0.00    +0.142 HD
ATOM     12  H   LIG    1       26.066 -13.529   2.491  0.00  0.00    +0.142 HD
ENDBRANCH   4  10
ENDBRANCH   1   7
BRANCH   1  13
ATOM     13  N   LIG    1       23.705 -19.839   3.843  0.00  0.00    -0.184 N 
ATOM     14  H   LIG    1       24.358 -19.492   3.147  0.00  0.00    +0.177 HD
BRANCH  13  15
ATOM     15  C   LIG    1       24.375 -20.384   4.930  0.00  0.00    +0.235 A 
ATOM     16  N   LIG    1       23.675 -21.115   5.801  0.00  0.00    -0.222 NA
ATOM     17  C   LIG    1       24.379 -21.572   6.853  0.00  0.00    +0.116 A 
ATOM     18  C   LIG    1       25.712 -21.285   7.057  0.00  0.00    +0.039 A 
ATOM     19  C   LIG    1       26.310 -20.508   6.091  0.00  0.00    +0.116 A 
ATOM     20  N   LIG    1       25.669 -20.063   4.997  0.00  0.00    -0.222 NA
ENDBRANCH  13  15
ENDBRANCH   1  13
TORSDOF 4
ENDMDL
MODEL 2
REMARK VINA RESULT:      -3.4      1.912      5.216
REMARK  Name = *****
REMARK                            x       y       z     vdW  Elec       q    Type
REMARK                         _______ _______ _______ _____ _____    ______ ____
ROOT
ATOM      1  S   LIG    1       23.629 -20.290   4.936  0.00  0.00    +0.075 S 
ATOM      2  O   LIG    1       22.806 -19.700   5.974  0.00  0.00    -0.150 OA
ATOM      3  O   LIG    1       23.264 -21.559   4.347  0.00  0.00    -0.150 OA
ENDROOT
BRANCH   1   7
ATOM      4  C   LIG    1       27.890 -20.776   6.511  0.00  0.00    +0.025 A 
ATOM      5  C   LIG    1       26.841 -21.520   7.062  0.00  0.00    +0.024 A 
ATOM      6  C   LIG    1       25.533 -21.359   6.603  0.00  0.00    +0.030 A 
ATOM      7  C   LIG    1       25.280 -20.477   5.552  0.00  0.00    +0.109 A 
ATOM      8  C   LIG    1       26.324 -19.783   4.938  0.00  0.00    +0.030 A 
ATOM      9  C   LIG    1       27.628 -19.949   5.413  0.00  0.00    +0.024 A 
BRANCH   4  10
ATOM     10  N   LIG    1       29.210 -21.033   6.897  0.00  0.00    -0.358 N 
ATOM     11  H   LIG    1       29.433 -22.023   6.950  0.00  0.00    +0.142 HD
ATOM     12  H   LIG    1       29.496 -20.532   7.732  0.00  0.00    +0.142 HD
ENDBRANCH   4  10
ENDBRANCH   1   7
BRANCH   1  13
ATOM     13  N   LIG    1       23.806 -19.224   3.656  0.00  0.00    -0.184 N 
ATOM     14  H   LIG    1       23.207 -19.519   2.891  0.00  0.00    +0.177 HD
BRANCH  13  15
ATOM     15  C   LIG    1       23.562 -17.902   4.003  0.00  0.00    +0.235 A 
ATOM     16  N   LIG    1       22.366 -17.593   4.510  0.00  0.00    -0.222 NA
ATOM     17  C   LIG    1       22.186 -16.287   4.780  0.00  0.00    +0.116 A 
ATOM     18  C   LIG    1       23.133 -15.320   4.521  0.00  0.00    +0.039 A 
ATOM     19  C   LIG    1       24.316 -15.772   3.983  0.00  0.00    +0.116 A 
ATOM     20  N   LIG    1       24.569 -17.068   3.736  0.00  0.00    -0.222 NA
ENDBRANCH  13  15
ENDBRANCH   1  13
TORSDOF 4
ENDMDL
MODEL 3
REMARK VINA RESULT:      -3.4      0.362      1.227
REMARK  Name = *****
REMARK                            x       y       z     vdW  Elec       q    Type
REMARK                         _______ _______ _______ _____ _____    ______ ____
ROOT
ATOM      1  S   LIG    1       22.549 -18.319   4.299  0.00  0.00    +0.075 S 
ATOM      2  O   LIG    1       21.405 -18.280   3.408  0.00  0.00    -0.150 OA
ATOM      3  O   LIG    1       22.359 -18.457   5.726  0.00  0.00    -0.150 OA
ENDROOT
BRANCH   1   7
ATOM      4  C   LIG    1       25.041 -14.539   3.687  0.00  0.00    +0.025 A 
ATOM      5  C   LIG    1       23.767 -14.464   4.261  0.00  0.00    +0.024 A 
ATOM      6  C   LIG    1       22.990 -15.611   4.429  0.00  0.00    +0.030 A 
ATOM      7  C   LIG    1       23.511 -16.851   4.058  0.00  0.00    +0.109 A 
ATOM      8  C   LIG    1       24.809 -16.956   3.555  0.00  0.00    +0.030 A 
ATOM      9  C   LIG    1       25.573 -15.799   3.386  0.00  0.00    +0.024 A 
BRANCH   4  10
ATOM     10  N   LIG    1       25.855 -13.402   3.634  0.00  0.00    -0.358 N 
ATOM     11  H   LIG    1       26.359 -13.303   2.757  0.00  0.00    +0.142 HD
ATOM     12  H   LIG    1       26.464 -13.299   4.439  0.00  0.00    +0.142 HD
ENDBRANCH   4  10
ENDBRANCH   1   7
BRANCH   1  13
ATOM     13  N   LIG    1       23.593 -19.551   3.854  0.00  0.00    -0.184 N 
ATOM     14  H   LIG    1       24.337 -19.166   3.280  0.00  0.00    +0.177 HD
BRANCH  13  15
ATOM     15  C   LIG    1       24.107 -20.256   4.934  0.00  0.00    +0.235 A 
ATOM     16  N   LIG    1       23.258 -20.952   5.694  0.00  0.00    -0.222 NA
ATOM     17  C   LIG    1       23.820 -21.571   6.749  0.00  0.00    +0.116 A 
ATOM     18  C   LIG    1       25.159 -21.475   7.062  0.00  0.00    +0.039 A 
ATOM     19  C   LIG    1       25.919 -20.713   6.204  0.00  0.00    +0.116 A 
ATOM     20  N   LIG    1       25.421 -20.110   5.111  0.00  0.00    -0.222 NA
ENDBRANCH  13  15
ENDBRANCH   1  13
TORSDOF 4
ENDMDL
MODEL 4
REMARK VINA RESULT:      -3.2      1.201      2.071
REMARK  Name = *****
REMARK                            x       y       z     vdW  Elec       q    Type
REMARK                         _______ _______ _______ _____ _____    ______ ____
ROOT
ATOM      1  S   LIG    1       23.998 -18.963   3.949  0.00  0.00    +0.075 S 
ATOM      2  O   LIG    1       23.061 -19.298   2.893  0.00  0.00    -0.150 OA
ATOM      3  O   LIG    1       23.658 -19.210   5.333  0.00  0.00    -0.150 OA
ENDROOT
BRANCH   1   7
ATOM      4  C   LIG    1       25.050 -14.527   3.650  0.00  0.00    +0.025 A 
ATOM      5  C   LIG    1       23.811 -14.929   4.162  0.00  0.00    +0.024 A 
ATOM      6  C   LIG    1       23.473 -16.281   4.234  0.00  0.00    +0.030 A 
ATOM      7  C   LIG    1       24.401 -17.242   3.829  0.00  0.00    +0.109 A 
ATOM      8  C   LIG    1       25.670 -16.863   3.388  0.00  0.00    +0.030 A 
ATOM      9  C   LIG    1       25.992 -15.506   3.315  0.00  0.00    +0.024 A 
BRANCH   4  10
ATOM     10  N   LIG    1       25.422 -13.179   3.695  0.00  0.00    -0.358 N 
ATOM     11  H   LIG    1       25.835 -12.842   2.829  0.00  0.00    +0.142 HD
ATOM     12  H   LIG    1       25.983 -12.937   4.505  0.00  0.00    +0.142 HD
ENDBRANCH   4  10
ENDBRANCH   1   7
BRANCH   1  13
ATOM     13  N   LIG    1       25.464 -19.729   3.691  0.00  0.00    -0.184 N 
ATOM     14  H   LIG    1       26.073 -19.113   3.161  0.00  0.00    +0.177 HD
BRANCH  13  15
ATOM     15  C   LIG    1       26.078 -20.153   4.863  0.00  0.00    +0.235 A 
ATOM     16  N   LIG    1       27.270 -19.638   5.174  0.00  0.00    -0.222 NA
ATOM     17  C   LIG    1       27.823 -20.129   6.298  0.00  0.00    +0.116 A 
ATOM     18  C   LIG    1       27.242 -21.117   7.062  0.00  0.00    +0.039 A 
ATOM     19  C   LIG    1       26.020 -21.572   6.621  0.00  0.00    +0.116 A 
ATOM     20  N   LIG    1       25.398 -21.086   5.533  0.00  0.00    -0.222 NA
ENDBRANCH  13  15
ENDBRANCH   1  13
TORSDOF 4
ENDMDL
MODEL 5
REMARK VINA RESULT:      -2.9      1.894      2.440
REMARK  Name = *****
REMARK                            x       y       z     vdW  Elec       q    Type
REMARK                         _______ _______ _______ _____ _____    ______ ____
ROOT
ATOM      1  S   LIG    1       25.450 -18.340   3.482  0.00  0.00    +0.075 S 
ATOM      2  O   LIG    1       26.394 -18.696   4.524  0.00  0.00    -0.150 OA
ATOM      3  O   LIG    1       25.772 -18.579   2.093  0.00  0.00    -0.150 OA
ENDROOT
BRANCH   1   7
ATOM      4  C   LIG    1       24.480 -13.891   3.852  0.00  0.00    +0.025 A 
ATOM      5  C   LIG    1       23.537 -14.856   4.222  0.00  0.00    +0.024 A 
ATOM      6  C   LIG    1       23.816 -16.217   4.089  0.00  0.00    +0.030 A 
ATOM      7  C   LIG    1       25.069 -16.615   3.622  0.00  0.00    +0.109 A 
ATOM      8  C   LIG    1       26.051 -15.670   3.320  0.00  0.00    +0.030 A 
ATOM      9  C   LIG    1       25.754 -14.310   3.452  0.00  0.00    +0.024 A 
BRANCH   4  10
ATOM     10  N   LIG    1       24.233 -12.537   4.102  0.00  0.00    -0.358 N 
ATOM     11  H   LIG    1       23.469 -12.376   4.753  0.00  0.00    +0.142 HD
ATOM     12  H   LIG    1       24.144 -11.976   3.261  0.00  0.00    +0.142 HD
ENDBRANCH   4  10
ENDBRANCH   1   7
BRANCH   1  13
ATOM     13  N   LIG    1       23.977 -19.091   3.748  0.00  0.00    -0.184 N 
ATOM     14  H   LIG    1       23.688 -19.569   2.900  0.00  0.00    +0.177 HD
BRANCH  13  15
ATOM     15  C   LIG    1       23.988 -19.957   4.834  0.00  0.00    +0.235 A 
ATOM     16  N   LIG    1       23.010 -19.850   5.736  0.00  0.00    -0.222 NA
ATOM     17  C   LIG    1       23.111 -20.690   6.783  0.00  0.00    +0.116 A 
ATOM     18  C   LIG    1       24.157 -21.572   6.951  0.00  0.00    +0.039 A 
ATOM     19  C   LIG    1       25.106 -21.569   5.954  0.00  0.00    +0.116 A 
ATOM     20  N   LIG    1       25.033 -20.786   4.864  0.00  0.00    -0.222 NA
ENDBRANCH  13  15
ENDBRANCH   1  13
TORSDOF 4
ENDMDL
MODEL 6
REMARK VINA RESULT:      -2.9      2.641      5.944
REMARK  Name = *****
REMARK                            x       y       z     vdW  Elec       q    Type
REMARK                         _______ _______ _______ _____ _____    ______ ____
ROOT
ATOM      1  S   LIG    1       25.930 -18.037   3.315  0.00  0.00    +0.075 S 
ATOM      2  O   LIG    1       26.017 -18.648   2.002  0.00  0.00    -0.150 OA
ATOM      3  O   LIG    1       27.131 -17.656   4.024  0.00  0.00    -0.150 OA
ENDROOT
BRANCH   1   7
ATOM      4  C   LIG    1       23.607 -20.820   6.094  0.00  0.00    +0.025 A 
ATOM      5  C   LIG    1       25.005 -20.847   6.071  0.00  0.00    +0.024 A 
ATOM      6  C   LIG    1       25.721 -20.018   5.207  0.00  0.00    +0.030 A 
ATOM      7  C   LIG    1       25.031 -19.121   4.390  0.00  0.00    +0.109 A 
ATOM      8  C   LIG    1       23.640 -19.025   4.454  0.00  0.00    +0.030 A 
ATOM      9  C   LIG    1       22.936 -19.867   5.319  0.00  0.00    +0.024 A 
BRANCH   4  10
ATOM     10  N   LIG    1       22.907 -21.568   7.047  0.00  0.00    -0.358 N 
ATOM     11  H   LIG    1       23.446 -22.336   7.438  0.00  0.00    +0.142 HD
ATOM     12  H   LIG    1       21.987 -21.866   6.737  0.00  0.00    +0.142 HD
ENDBRANCH   4  10
ENDBRANCH   1   7
BRANCH   1  13
ATOM     13  N   LIG    1       24.976 -16.662   3.256  0.00  0.00    -0.184 N 
ATOM     14  H   LIG    1       24.211 -16.758   3.917  0.00  0.00    +0.177 HD
BRANCH  13  15
ATOM     15  C   LIG    1       25.685 -15.489   3.476  0.00  0.00    +0.235 A 
ATOM     16  N   LIG    1       26.839 -15.317   2.826  0.00  0.00    -0.222 NA
ATOM     17  C   LIG    1       27.493 -14.180   3.123  0.00  0.00    +0.116 A 
ATOM     18  C   LIG    1       27.046 -13.267   4.055  0.00  0.00    +0.039 A 
ATOM     19  C   LIG    1       25.850 -13.574   4.664  0.00  0.00    +0.116 A 
ATOM     20  N   LIG    1       25.131 -14.671   4.373  0.00  0.00    -0.222 NA
ENDBRANCH  13  15
ENDBRANCH   1  13
TORSDOF 4
ENDMDL
MODEL 7
REMARK VINA RESULT:      -2.8      2.319      6.325
REMARK  Name = *****
REMARK                            x       y       z     vdW  Elec       q    Type
REMARK                         _______ _______ _______ _____ _____    ______ ____
ROOT
ATOM      1  S   LIG    1       22.947 -15.735   4.438  0.00  0.00    +0.075 S 
ATOM      2  O   LIG    1       22.347 -15.496   5.737  0.00  0.00    -0.150 OA
ATOM      3  O   LIG    1       22.265 -15.323   3.232  0.00  0.00    -0.150 OA
ENDROOT
BRANCH   1   7
ATOM      4  C   LIG    1       23.774 -20.208   4.016  0.00  0.00    +0.025 A 
ATOM      5  C   LIG    1       24.715 -19.269   3.582  0.00  0.00    +0.024 A 
ATOM      6  C   LIG    1       24.460 -17.901   3.684  0.00  0.00    +0.030 A 
ATOM      7  C   LIG    1       23.268 -17.469   4.269  0.00  0.00    +0.109 A 
ATOM      8  C   LIG    1       22.350 -18.390   4.778  0.00  0.00    +0.030 A 
ATOM      9  C   LIG    1       22.616 -19.757   4.662  0.00  0.00    +0.024 A 
BRANCH   4  10
ATOM     10  N   LIG    1       24.092 -21.571   4.018  0.00  0.00    -0.358 N 
ATOM     11  H   LIG    1       23.313 -22.171   3.758  0.00  0.00    +0.142 HD
ATOM     12  H   LIG    1       24.547 -21.883   4.869  0.00  0.00    +0.142 HD
ENDBRANCH   4  10
ENDBRANCH   1   7
BRANCH   1  13
ATOM     13  N   LIG    1       24.471 -15.044   4.364  0.00  0.00    -0.184 N 
ATOM     14  H   LIG    1       25.112 -15.698   3.924  0.00  0.00    +0.177 HD
BRANCH  13  15
ATOM     15  C   LIG    1       24.488 -13.814   3.720  0.00  0.00    +0.235 A 
ATOM     16  N   LIG    1       23.862 -12.789   4.302  0.00  0.00    -0.222 NA
ATOM     17  C   LIG    1       23.880 -11.641   3.600  0.00  0.00    +0.116 A 
ATOM     18  C   LIG    1       24.459 -11.522   2.355  0.00  0.00    +0.039 A 
ATOM     19  C   LIG    1       25.057 -12.660   1.863  0.00  0.00    +0.116 A 
ATOM     20  N   LIG    1       25.110 -13.820   2.540  0.00  0.00    -0.222 NA
ENDBRANCH  13  15
ENDBRANCH   1  13
TORSDOF 4
ENDMDL
MODEL 8
REMARK VINA RESULT:      -2.8      3.359      6.872
REMARK  Name = *****
REMARK                            x       y       z     vdW  Elec       q    Type
REMARK                         _______ _______ _______ _____ _____    ______ ____
ROOT
ATOM      1  S   LIG    1       27.023 -15.173   3.464  0.00  0.00    +0.075 S 
ATOM      2  O   LIG    1       26.805 -14.862   2.064  0.00  0.00    -0.150 OA
ATOM      3  O   LIG    1       28.312 -14.932   4.073  0.00  0.00    -0.150 OA
ENDROOT
BRANCH   1   7
ATOM      4  C   LIG    1       26.050 -19.581   4.166  0.00  0.00    +0.025 A 
ATOM      5  C   LIG    1       27.245 -19.034   4.646  0.00  0.00    +0.024 A 
ATOM      6  C   LIG    1       27.561 -17.694   4.414  0.00  0.00    +0.030 A 
ATOM      7  C   LIG    1       26.651 -16.885   3.733  0.00  0.00    +0.109 A 
ATOM      8  C   LIG    1       25.421 -17.393   3.313  0.00  0.00    +0.030 A 
ATOM      9  C   LIG    1       25.121 -18.738   3.546  0.00  0.00    +0.024 A 
BRANCH   4  10
ATOM     10  N   LIG    1       25.692 -20.891   4.507  0.00  0.00    -0.358 N 
ATOM     11  H   LIG    1       25.095 -21.341   3.819  0.00  0.00    +0.142 HD
ATOM     12  H   LIG    1       25.326 -20.981   5.449  0.00  0.00    +0.142 HD
ENDBRANCH   4  10
ENDBRANCH   1   7
BRANCH   1  13
ATOM     13  N   LIG    1       25.906 -14.373   4.420  0.00  0.00    -0.184 N 
ATOM     14  H   LIG    1       26.381 -13.972   5.224  0.00  0.00    +0.177 HD
BRANCH  13  15
ATOM     15  C   LIG    1       25.183 -13.407   3.732  0.00  0.00    +0.235 A 
ATOM     16  N   LIG    1       25.454 -13.218   2.439  0.00  0.00    -0.222 NA
ATOM     17  C   LIG    1       24.747 -12.236   1.849  0.00  0.00    +0.116 A 
ATOM     18  C   LIG    1       23.838 -11.447   2.520  0.00  0.00    +0.039 A 
ATOM     19  C   LIG    1       23.665 -11.738   3.854  0.00  0.00    +0.116 A 
ATOM     20  N   LIG    1       24.308 -12.736   4.484  0.00  0.00    -0.222 NA
ENDBRANCH  13  15
ENDBRANCH   1  13
TORSDOF 4
ENDMDL
MODEL 9
REMARK VINA RESULT:      -2.8      3.380      6.629
REMARK  Name = *****
REMARK                            x       y       z     vdW  Elec       q    Type
REMARK                         _______ _______ _______ _____ _____    ______ ____
ROOT
ATOM      1  S   LIG    1       26.763 -15.230   3.497  0.00  0.00    +0.075 S 
ATOM      2  O   LIG    1       26.796 -14.761   2.125  0.00  0.00    -0.150 OA
ATOM      3  O   LIG    1       27.971 -15.703   4.137  0.00  0.00    -0.150 OA
ENDROOT
BRANCH   1   7
ATOM      4  C   LIG    1       23.708 -18.610   3.837  0.00  0.00    +0.025 A 
ATOM      5  C   LIG    1       25.033 -18.885   3.485  0.00  0.00    +0.024 A 
ATOM      6  C   LIG    1       25.967 -17.856   3.354  0.00  0.00    +0.030 A 
ATOM      7  C   LIG    1       25.579 -16.542   3.623  0.00  0.00    +0.109 A 
ATOM      8  C   LIG    1       24.281 -16.257   4.051  0.00  0.00    +0.030 A 
ATOM      9  C   LIG    1       23.356 -17.297   4.170  0.00  0.00    +0.024 A 
BRANCH   4  10
ATOM     10  N   LIG    1       22.814 -19.659   4.080  0.00  0.00    -0.358 N 
ATOM     11  H   LIG    1       22.672 -20.266   3.277  0.00  0.00    +0.142 HD
ATOM     12  H   LIG    1       21.937 -19.361   4.494  0.00  0.00    +0.142 HD
ENDBRANCH   4  10
ENDBRANCH   1   7
BRANCH   1  13
ATOM     13  N   LIG    1       26.144 -14.044   4.504  0.00  0.00    -0.184 N 
ATOM     14  H   LIG    1       26.909 -13.588   4.992  0.00  0.00    +0.177 HD
BRANCH  13  15
ATOM     15  C   LIG    1       25.349 -13.118   3.841  0.00  0.00    +0.235 A 
ATOM     16  N   LIG    1       24.347 -12.549   4.515  0.00  0.00    -0.222 NA
ATOM     17  C   LIG    1       23.593 -11.697   3.796  0.00  0.00    +0.116 A 
ATOM     18  C   LIG    1       23.795 -11.449   2.456  0.00  0.00    +0.039 A 
ATOM     19  C   LIG    1       24.854 -12.113   1.879  0.00  0.00    +0.116 A 
ATOM     20  N   LIG    1       25.669 -12.938   2.558  0.00  0.00    -0.222 NA
ENDBRANCH  13  15
ENDBRANCH   1  13
TORSDOF 4
ENDMDL
