MODEL 1
REMARK VINA RESULT:      -6.5      0.000      0.000
REMARK  Name = *****
REMARK                            x       y       z     vdW  Elec       q    Type
REMARK                         _______ _______ _______ _____ _____    ______ ____
ROOT
ATOM      1  C   LIG    1       24.750 -23.640   5.735  0.00  0.00    +0.105 C 
ATOM      2  N   LIG    1       25.464 -22.552   6.392  0.00  0.00    -0.298 NA
ATOM      3  C   LIG    1       24.566 -21.477   6.857  0.00  0.00    +0.088 C 
ATOM      4  C   LIG    1       25.394 -20.754   7.931  0.00  0.00    +0.025 C 
ATOM      5  C   LIG    1       26.535 -21.705   8.274  0.00  0.00    +0.017 C 
ATOM      6  C   LIG    1       26.168 -23.009   7.591  0.00  0.00    +0.085 C 
ENDROOT
BRANCH   3   7
ATOM      7  C   LIG    1       24.108 -20.534   5.773  0.00  0.00    -0.012 A 
ATOM      8  C   LIG    1       24.976 -20.168   4.747  0.00  0.00    +0.115 A 
ATOM      9  N   LIG    1       24.648 -19.347   3.722  0.00  0.00    -0.263 NA
ATOM     10  C   LIG    1       23.387 -18.867   3.714  0.00  0.00    +0.111 A 
ATOM     11  C   LIG    1       22.440 -19.171   4.676  0.00  0.00    +0.020 A 
ATOM     12  C   LIG    1       22.808 -20.020   5.716  0.00  0.00    +0.008 A 
ENDBRANCH   3   7
TORSDOF 1
ENDMDL
MODEL 2
REMARK VINA RESULT:      -6.3      5.824      7.634
REMARK  Name = *****
REMARK                            x       y       z     vdW  Elec       q    Type
REMARK                         _______ _______ _______ _____ _____    ______ ____
ROOT
ATOM      1  C   LIG    1       30.646 -21.550   8.847  0.00  0.00    +0.105 C 
ATOM      2  N   LIG    1       29.772 -20.562   8.226  0.00  0.00    -0.298 NA
ATOM      3  C   LIG    1       30.508 -19.400   7.693  0.00  0.00    +0.088 C 
ATOM      4  C   LIG    1       29.537 -18.796   6.667  0.00  0.00    +0.025 C 
ATOM      5  C   LIG    1       28.494 -19.877   6.409  0.00  0.00    +0.017 C 
ATOM      6  C   LIG    1       29.051 -21.119   7.079  0.00  0.00    +0.085 C 
ENDROOT
BRANCH   3   7
ATOM      7  C   LIG    1       30.922 -18.392   8.735  0.00  0.00    -0.012 A 
ATOM      8  C   LIG    1       32.228 -17.906   8.762  0.00  0.00    +0.115 A 
ATOM      9  N   LIG    1       32.685 -16.987   9.644  0.00  0.00    -0.263 NA
ATOM     10  C   LIG    1       31.795 -16.522  10.546  0.00  0.00    +0.111 A 
ATOM     11  C   LIG    1       30.473 -16.927  10.604  0.00  0.00    +0.020 A 
ATOM     12  C   LIG    1       30.034 -17.872   9.682  0.00  0.00    +0.008 A 
ENDBRANCH   3   7
TORSDOF 1
ENDMDL
MODEL 3
REMARK VINA RESULT:      -6.2      0.852      1.867
REMARK  Name = *****
REMARK                            x       y       z     vdW  Elec       q    Type
REMARK                         _______ _______ _______ _____ _____    ______ ____
ROOT
ATOM      1  C   LIG    1       26.411 -20.556   7.805  0.00  0.00    +0.105 C 
ATOM      2  N   LIG    1       25.505 -21.606   7.352  0.00  0.00    -0.298 NA
ATOM      3  C   LIG    1       25.390 -21.668   5.883  0.00  0.00    +0.088 C 
ATOM      4  C   LIG    1       24.867 -23.088   5.620  0.00  0.00    +0.025 C 
ATOM      5  C   LIG    1       25.101 -23.853   6.919  0.00  0.00    +0.017 C 
ATOM      6  C   LIG    1       25.969 -22.934   7.757  0.00  0.00    +0.085 C 
ENDROOT
BRANCH   3   7
ATOM      7  C   LIG    1       24.488 -20.619   5.283  0.00  0.00    -0.012 A 
ATOM      8  C   LIG    1       24.892 -19.907   4.155  0.00  0.00    +0.115 A 
ATOM      9  N   LIG    1       24.145 -18.965   3.535  0.00  0.00    -0.263 NA
ATOM     10  C   LIG    1       22.927 -18.718   4.062  0.00  0.00    +0.111 A 
ATOM     11  C   LIG    1       22.421 -19.371   5.173  0.00  0.00    +0.020 A 
ATOM     12  C   LIG    1       23.214 -20.336   5.786  0.00  0.00    +0.008 A 
ENDBRANCH   3   7
TORSDOF 1
ENDMDL
MODEL 4
REMARK VINA RESULT:      -6.1      2.197      5.001
REMARK  Name = *****
REMARK                            x       y       z     vdW  Elec       q    Type
REMARK                         _______ _______ _______ _____ _____    ______ ____
ROOT
ATOM      1  C   LIG    1       26.928 -21.833   7.238  0.00  0.00    +0.105 C 
ATOM      2  N   LIG    1       25.576 -21.919   6.699  0.00  0.00    -0.298 NA
ATOM      3  C   LIG    1       24.847 -23.113   7.169  0.00  0.00    +0.088 C 
ATOM      4  C   LIG    1       23.372 -22.746   6.947  0.00  0.00    +0.025 C 
ATOM      5  C   LIG    1       23.355 -21.236   6.740  0.00  0.00    +0.017 C 
ATOM      6  C   LIG    1       24.754 -20.780   7.109  0.00  0.00    +0.085 C 
ENDROOT
BRANCH   3   7
ATOM      7  C   LIG    1       25.220 -24.391   6.463  0.00  0.00    -0.012 A 
ATOM      8  C   LIG    1       25.000 -24.527   5.094  0.00  0.00    +0.115 A 
ATOM      9  N   LIG    1       25.321 -25.625   4.371  0.00  0.00    -0.263 NA
ATOM     10  C   LIG    1       25.896 -26.644   5.045  0.00  0.00    +0.111 A 
ATOM     11  C   LIG    1       26.169 -26.613   6.402  0.00  0.00    +0.020 A 
ATOM     12  C   LIG    1       25.829 -25.468   7.116  0.00  0.00    +0.008 A 
ENDBRANCH   3   7
TORSDOF 1
ENDMDL
MODEL 5
REMARK VINA RESULT:      -6.1      3.316      4.647
REMARK  Name = *****
REMARK                            x       y       z     vdW  Elec       q    Type
REMARK                         _______ _______ _______ _____ _____    ______ ____
ROOT
ATOM      1  C   LIG    1       29.272 -18.366   5.500  0.00  0.00    +0.105 C 
ATOM      2  N   LIG    1       29.471 -19.074   6.759  0.00  0.00    -0.298 NA
ATOM      3  C   LIG    1       28.924 -20.444   6.738  0.00  0.00    +0.088 C 
ATOM      4  C   LIG    1       29.675 -21.152   7.875  0.00  0.00    +0.025 C 
ATOM      5  C   LIG    1       30.865 -20.254   8.196  0.00  0.00    +0.017 C 
ATOM      6  C   LIG    1       30.891 -19.232   7.075  0.00  0.00    +0.085 C 
ENDROOT
BRANCH   3   7
ATOM      7  C   LIG    1       27.429 -20.523   6.918  0.00  0.00    -0.012 A 
ATOM      8  C   LIG    1       26.587 -20.528   5.809  0.00  0.00    +0.115 A 
ATOM      9  N   LIG    1       25.238 -20.617   5.870  0.00  0.00    -0.263 NA
ATOM     10  C   LIG    1       24.696 -20.710   7.103  0.00  0.00    +0.111 A 
ATOM     11  C   LIG    1       25.437 -20.724   8.272  0.00  0.00    +0.020 A 
ATOM     12  C   LIG    1       26.822 -20.632   8.174  0.00  0.00    +0.008 A 
ENDBRANCH   3   7
TORSDOF 1
ENDMDL
MODEL 6
REMARK VINA RESULT:      -6.0      2.370      4.178
REMARK  Name = *****
REMARK                            x       y       z     vdW  Elec       q    Type
REMARK                         _______ _______ _______ _____ _____    ______ ____
ROOT
ATOM      1  C   LIG    1       25.789 -24.132   6.470  0.00  0.00    +0.105 C 
ATOM      2  N   LIG    1       25.126 -22.969   7.046  0.00  0.00    -0.298 NA
ATOM      3  C   LIG    1       25.482 -21.710   6.363  0.00  0.00    +0.088 C 
ATOM      4  C   LIG    1       24.336 -20.758   6.737  0.00  0.00    +0.025 C 
ATOM      5  C   LIG    1       23.223 -21.653   7.271  0.00  0.00    +0.017 C 
ATOM      6  C   LIG    1       23.669 -23.065   6.938  0.00  0.00    +0.085 C 
ENDROOT
BRANCH   3   7
ATOM      7  C   LIG    1       26.827 -21.148   6.752  0.00  0.00    -0.012 A 
ATOM      8  C   LIG    1       27.460 -21.581   7.915  0.00  0.00    +0.115 A 
ATOM      9  N   LIG    1       28.673 -21.152   8.333  0.00  0.00    -0.263 NA
ATOM     10  C   LIG    1       29.294 -20.245   7.550  0.00  0.00    +0.111 A 
ATOM     11  C   LIG    1       28.763 -19.752   6.370  0.00  0.00    +0.020 A 
ATOM     12  C   LIG    1       27.514 -20.216   5.967  0.00  0.00    +0.008 A 
ENDBRANCH   3   7
TORSDOF 1
ENDMDL
MODEL 7
REMARK VINA RESULT:      -6.0      2.059      4.433
REMARK  Name = *****
REMARK                            x       y       z     vdW  Elec       q    Type
REMARK                         _______ _______ _______ _____ _____    ______ ____
ROOT
ATOM      1  C   LIG    1       23.373 -21.725   7.184  0.00  0.00    +0.105 C 
ATOM      2  N   LIG    1       23.631 -20.598   6.295  0.00  0.00    -0.298 NA
ATOM      3  C   LIG    1       24.861 -20.768   5.498  0.00  0.00    +0.088 C 
ATOM      4  C   LIG    1       24.663 -19.804   4.318  0.00  0.00    +0.025 C 
ATOM      5  C   LIG    1       23.178 -19.458   4.322  0.00  0.00    +0.017 C 
ATOM      6  C   LIG    1       22.559 -20.423   5.315  0.00  0.00    +0.085 C 
ENDROOT
BRANCH   3   7
ATOM      7  C   LIG    1       26.136 -20.480   6.249  0.00  0.00    -0.012 A 
ATOM      8  C   LIG    1       26.166 -20.559   7.640  0.00  0.00    +0.115 A 
ATOM      9  N   LIG    1       27.266 -20.340   8.397  0.00  0.00    -0.263 NA
ATOM     10  C   LIG    1       28.401 -20.029   7.736  0.00  0.00    +0.111 A 
ATOM     11  C   LIG    1       28.488 -19.933   6.357  0.00  0.00    +0.020 A 
ATOM     12  C   LIG    1       27.339 -20.166   5.608  0.00  0.00    +0.008 A 
ENDBRANCH   3   7
TORSDOF 1
ENDMDL
MODEL 8
REMARK VINA RESULT:      -6.0      1.304      1.770
REMARK  Name = *****
REMARK                            x       y       z     vdW  Elec       q    Type
REMARK                         _______ _______ _______ _____ _____    ______ ____
ROOT
ATOM      1  C   LIG    1       27.752 -20.118   6.073  0.00  0.00    +0.105 C 
ATOM      2  N   LIG    1       26.699 -20.627   6.944  0.00  0.00    -0.298 NA
ATOM      3  C   LIG    1       25.665 -21.382   6.211  0.00  0.00    +0.088 C 
ATOM      4  C   LIG    1       25.001 -22.238   7.301  0.00  0.00    +0.025 C 
ATOM      5  C   LIG    1       25.959 -22.200   8.486  0.00  0.00    +0.017 C 
ATOM      6  C   LIG    1       27.223 -21.561   7.941  0.00  0.00    +0.085 C 
ENDROOT
BRANCH   3   7
ATOM      7  C   LIG    1       24.662 -20.523   5.483  0.00  0.00    -0.012 A 
ATOM      8  C   LIG    1       24.995 -19.932   4.266  0.00  0.00    +0.115 A 
ATOM      9  N   LIG    1       24.157 -19.165   3.532  0.00  0.00    -0.263 NA
ATOM     10  C   LIG    1       22.918 -18.977   4.032  0.00  0.00    +0.111 A 
ATOM     11  C   LIG    1       22.477 -19.522   5.226  0.00  0.00    +0.020 A 
ATOM     12  C   LIG    1       23.363 -20.309   5.956  0.00  0.00    +0.008 A 
ENDBRANCH   3   7
TORSDOF 1
ENDMDL
MODEL 9
REMARK VINA RESULT:      -5.9      0.977      4.546
REMARK  Name = *****
REMARK                            x       y       z     vdW  Elec       q    Type
REMARK                         _______ _______ _______ _____ _____    ______ ____
ROOT
ATOM      1  C   LIG    1       25.801 -19.657   3.906  0.00  0.00    +0.105 C 
ATOM      2  N   LIG    1       24.448 -20.074   4.256  0.00  0.00    -0.298 NA
ATOM      3  C   LIG    1       24.297 -20.380   5.691  0.00  0.00    +0.088 C 
ATOM      4  C   LIG    1       22.783 -20.267   5.928  0.00  0.00    +0.025 C 
ATOM      5  C   LIG    1       22.236 -19.525   4.713  0.00  0.00    +0.017 C 
ATOM      6  C   LIG    1       23.467 -19.023   3.981  0.00  0.00    +0.085 C 
ENDROOT
BRANCH   3   7
ATOM      7  C   LIG    1       24.830 -21.729   6.103  0.00  0.00    -0.012 A 
ATOM      8  C   LIG    1       24.664 -22.833   5.270  0.00  0.00    +0.115 A 
ATOM      9  N   LIG    1       25.125 -24.076   5.543  0.00  0.00    -0.263 NA
ATOM     10  C   LIG    1       25.792 -24.229   6.706  0.00  0.00    +0.111 A 
ATOM     11  C   LIG    1       26.022 -23.201   7.604  0.00  0.00    +0.020 A 
ATOM     12  C   LIG    1       25.537 -21.934   7.292  0.00  0.00    +0.008 A 
ENDBRANCH   3   7
TORSDOF 1
ENDMDL
