MODEL 1
REMARK VINA RESULT:      -7.5      0.000      0.000
REMARK  Name = *****
REMARK                            x       y       z     vdW  Elec       q    Type
REMARK                         _______ _______ _______ _____ _____    ______ ____
ROOT
ATOM      1  N   LIG    1       23.255 -20.220   6.001  0.00  0.00    -0.295 NA
ATOM      2  C   LIG    1       23.190 -21.367   6.928  0.00  0.00    +0.069 C 
ATOM      3  C   LIG    1       24.574 -21.590   7.628  0.00  0.00    +0.043 C 
ATOM      4  C   LIG    1       25.499 -22.136   6.533  0.00  0.00    +0.048 C 
ATOM      5  C   LIG    1       26.962 -22.438   6.928  0.00  0.00    +0.217 C 
ATOM      6  O   LIG    1       27.152 -23.895   7.047  0.00  0.00    -0.481 OA
ATOM      7  C   LIG    1       25.968 -24.449   6.639  0.00  0.00    +0.166 A 
ATOM      8  C   LIG    1       25.655 -25.790   6.615  0.00  0.00    +0.159 A 
ATOM      9  C   LIG    1       24.340 -26.176   6.345  0.00  0.00    +0.049 A 
ATOM     10  C   LIG    1       23.333 -25.205   6.174  0.00  0.00    +0.008 A 
ATOM     11  C   LIG    1       23.658 -23.850   6.236  0.00  0.00    -0.038 A 
ATOM     12  C   LIG    1       27.415 -21.709   8.223  0.00  0.00    +0.178 C 
ATOM     13  C   LIG    1       26.555 -20.540   8.640  0.00  0.00    +0.004 C 
ATOM     14  C   LIG    1       24.997 -23.521   6.369  0.00  0.00    +0.012 A 
ATOM     15  C   LIG    1       25.388 -21.344   5.201  0.00  0.00    +0.031 C 
ATOM     16  C   LIG    1       25.246 -20.456   8.352  0.00  0.00    -0.023 C 
ATOM     17  C   LIG    1       22.653 -22.725   6.287  0.00  0.00    +0.055 C 
ATOM     18  C   LIG    1       24.529 -20.075   5.293  0.00  0.00    +0.086 C 
ENDROOT
BRANCH   8  19
ATOM     19  O   LIG    1       26.590 -26.740   6.888  0.00  0.00    -0.503 OA
ATOM     20  H   LIG    1       27.311 -26.276   7.355  0.00  0.00    +0.292 HD
ENDBRANCH   8  19
BRANCH  12  21
ATOM     21  O   LIG    1       28.743 -21.203   8.038  0.00  0.00    -0.384 OA
ATOM     22  H   LIG    1       28.725 -20.252   8.239  0.00  0.00    +0.210 HD
ENDBRANCH  12  21
BRANCH   1  23
ATOM     23  C   LIG    1       22.098 -19.975   5.139  0.00  0.00    +0.111 C 
BRANCH  23  25
ATOM     24  C   LIG    1       22.119 -17.524   4.579  0.00  0.00    +0.005 C 
ATOM     25  C   LIG    1       22.264 -18.802   4.210  0.00  0.00    -0.019 C 
ENDBRANCH  23  25
ENDBRANCH   1  23
TORSDOF 4
ENDMDL
MODEL 2
REMARK VINA RESULT:      -7.2      2.682      5.568
REMARK  Name = *****
REMARK                            x       y       z     vdW  Elec       q    Type
REMARK                         _______ _______ _______ _____ _____    ______ ____
ROOT
ATOM      1  N   LIG    1       24.175 -23.503   6.770  0.00  0.00    -0.295 NA
ATOM      2  C   LIG    1       24.807 -22.331   7.407  0.00  0.00    +0.069 C 
ATOM      3  C   LIG    1       24.422 -21.015   6.648  0.00  0.00    +0.043 C 
ATOM      4  C   LIG    1       25.177 -21.081   5.315  0.00  0.00    +0.048 C 
ATOM      5  C   LIG    1       24.975 -19.909   4.328  0.00  0.00    +0.217 C 
ATOM      6  O   LIG    1       26.171 -19.046   4.332  0.00  0.00    -0.481 OA
ATOM      7  C   LIG    1       27.076 -19.686   5.136  0.00  0.00    +0.166 A 
ATOM      8  C   LIG    1       28.333 -19.238   5.474  0.00  0.00    +0.159 A 
ATOM      9  C   LIG    1       29.059 -19.923   6.451  0.00  0.00    +0.049 A 
ATOM     10  C   LIG    1       28.482 -21.013   7.134  0.00  0.00    +0.008 A 
ATOM     11  C   LIG    1       27.194 -21.434   6.805  0.00  0.00    -0.038 A 
ATOM     12  C   LIG    1       23.690 -19.082   4.606  0.00  0.00    +0.178 C 
ATOM     13  C   LIG    1       22.659 -19.764   5.473  0.00  0.00    +0.004 C 
ATOM     14  C   LIG    1       26.572 -20.809   5.737  0.00  0.00    +0.012 A 
ATOM     15  C   LIG    1       25.067 -22.470   4.627  0.00  0.00    +0.031 C 
ATOM     16  C   LIG    1       22.976 -20.678   6.405  0.00  0.00    -0.023 C 
ATOM     17  C   LIG    1       26.387 -22.434   7.597  0.00  0.00    +0.055 C 
ATOM     18  C   LIG    1       24.085 -23.433   5.310  0.00  0.00    +0.086 C 
ENDROOT
BRANCH   8  19
ATOM     19  O   LIG    1       28.863 -18.121   4.905  0.00  0.00    -0.503 OA
ATOM     20  H   LIG    1       29.766 -18.368   4.629  0.00  0.00    +0.292 HD
ENDBRANCH   8  19
BRANCH  12  21
ATOM     21  O   LIG    1       23.049 -18.775   3.362  0.00  0.00    -0.384 OA
ATOM     22  H   LIG    1       22.108 -19.001   3.453  0.00  0.00    +0.210 HD
ENDBRANCH  12  21
BRANCH   1  23
ATOM     23  C   LIG    1       24.563 -24.830   7.250  0.00  0.00    +0.111 C 
BRANCH  23  25
ATOM     24  C   LIG    1       26.245 -26.291   6.085  0.00  0.00    +0.005 C 
ATOM     25  C   LIG    1       25.016 -25.766   6.162  0.00  0.00    -0.019 C 
ENDBRANCH  23  25
ENDBRANCH   1  23
TORSDOF 4
ENDMDL
MODEL 3
REMARK VINA RESULT:      -6.9      1.719      4.222
REMARK  Name = *****
REMARK                            x       y       z     vdW  Elec       q    Type
REMARK                         _______ _______ _______ _____ _____    ______ ____
ROOT
ATOM      1  N   LIG    1       23.050 -20.720   4.539  0.00  0.00    -0.295 NA
ATOM      2  C   LIG    1       24.428 -20.894   4.039  0.00  0.00    +0.069 C 
ATOM      3  C   LIG    1       25.132 -22.091   4.766  0.00  0.00    +0.043 C 
ATOM      4  C   LIG    1       25.386 -21.602   6.198  0.00  0.00    +0.048 C 
ATOM      5  C   LIG    1       26.063 -22.591   7.173  0.00  0.00    +0.217 C 
ATOM      6  O   LIG    1       27.470 -22.200   7.378  0.00  0.00    -0.481 OA
ATOM      7  C   LIG    1       27.618 -21.016   6.706  0.00  0.00    +0.166 A 
ATOM      8  C   LIG    1       28.778 -20.285   6.579  0.00  0.00    +0.159 A 
ATOM      9  C   LIG    1       28.801 -19.194   5.707  0.00  0.00    +0.049 A 
ATOM     10  C   LIG    1       27.676 -18.892   4.914  0.00  0.00    +0.008 A 
ATOM     11  C   LIG    1       26.520 -19.663   5.028  0.00  0.00    -0.038 A 
ATOM     12  C   LIG    1       25.956 -24.074   6.722  0.00  0.00    +0.178 C 
ATOM     13  C   LIG    1       24.894 -24.359   5.688  0.00  0.00    +0.004 C 
ATOM     14  C   LIG    1       26.502 -20.646   6.004  0.00  0.00    +0.012 A 
ATOM     15  C   LIG    1       24.151 -20.895   6.821  0.00  0.00    +0.031 C 
ATOM     16  C   LIG    1       24.482 -23.446   4.792  0.00  0.00    -0.023 C 
ATOM     17  C   LIG    1       25.337 -19.583   4.094  0.00  0.00    +0.055 C 
ATOM     18  C   LIG    1       22.878 -20.985   5.969  0.00  0.00    +0.086 C 
ENDROOT
BRANCH   8  19
ATOM     19  O   LIG    1       29.909 -20.628   7.253  0.00  0.00    -0.503 OA
ATOM     20  H   LIG    1       29.624 -21.252   7.948  0.00  0.00    +0.292 HD
ENDBRANCH   8  19
BRANCH  12  21
ATOM     21  O   LIG    1       25.658 -24.892   7.860  0.00  0.00    -0.384 OA
ATOM     22  H   LIG    1       25.161 -25.666   7.544  0.00  0.00    +0.210 HD
ENDBRANCH  12  21
BRANCH   1  23
ATOM     23  C   LIG    1       22.305 -19.544   4.088  0.00  0.00    +0.111 C 
BRANCH  23  25
ATOM     24  C   LIG    1       22.277 -17.105   4.699  0.00  0.00    +0.005 C 
ATOM     25  C   LIG    1       22.333 -18.393   5.058  0.00  0.00    -0.019 C 
ENDBRANCH  23  25
ENDBRANCH   1  23
TORSDOF 4
ENDMDL
MODEL 4
REMARK VINA RESULT:      -5.9      8.249      9.186
REMARK  Name = *****
REMARK                            x       y       z     vdW  Elec       q    Type
REMARK                         _______ _______ _______ _____ _____    ______ ____
ROOT
ATOM      1  N   LIG    1       24.857 -28.111  14.381  0.00  0.00    -0.295 NA
ATOM      2  C   LIG    1       24.778 -29.403  13.672  0.00  0.00    +0.069 C 
ATOM      3  C   LIG    1       26.183 -29.812  13.110  0.00  0.00    +0.043 C 
ATOM      4  C   LIG    1       26.452 -28.844  11.951  0.00  0.00    +0.048 C 
ATOM      5  C   LIG    1       27.796 -28.994  11.202  0.00  0.00    +0.217 C 
ATOM      6  O   LIG    1       27.564 -29.630   9.892  0.00  0.00    -0.481 OA
ATOM      7  C   LIG    1       26.205 -29.744   9.779  0.00  0.00    +0.166 A 
ATOM      8  C   LIG    1       25.514 -30.317   8.736  0.00  0.00    +0.159 A 
ATOM      9  C   LIG    1       24.137 -30.517   8.862  0.00  0.00    +0.049 A 
ATOM     10  C   LIG    1       23.478 -30.204  10.068  0.00  0.00    +0.008 A 
ATOM     11  C   LIG    1       24.198 -29.657  11.129  0.00  0.00    -0.038 A 
ATOM     12  C   LIG    1       28.873 -29.764  12.015  0.00  0.00    +0.178 C 
ATOM     13  C   LIG    1       28.611 -29.867  13.498  0.00  0.00    +0.004 C 
ATOM     14  C   LIG    1       25.531 -29.351  10.906  0.00  0.00    +0.012 A 
ATOM     15  C   LIG    1       26.126 -27.369  12.309  0.00  0.00    +0.031 C 
ATOM     16  C   LIG    1       27.375 -29.865  14.025  0.00  0.00    -0.023 C 
ATOM     17  C   LIG    1       23.666 -29.482  12.531  0.00  0.00    +0.055 C 
ATOM     18  C   LIG    1       25.780 -27.142  13.788  0.00  0.00    +0.086 C 
ENDROOT
BRANCH   8  19
ATOM     19  O   LIG    1       26.150 -30.728   7.606  0.00  0.00    -0.503 OA
ATOM     20  H   LIG    1       25.447 -30.883   6.947  0.00  0.00    +0.292 HD
ENDBRANCH   8  19
BRANCH  12  21
ATOM     21  O   LIG    1       30.137 -29.109  11.860  0.00  0.00    -0.384 OA
ATOM     22  H   LIG    1       30.830 -29.788  11.922  0.00  0.00    +0.210 HD
ENDBRANCH  12  21
BRANCH   1  23
ATOM     23  C   LIG    1       23.603 -27.499  14.823  0.00  0.00    +0.111 C 
BRANCH  23  25
ATOM     24  C   LIG    1       21.978 -26.426  13.233  0.00  0.00    +0.005 C 
ATOM     25  C   LIG    1       23.117 -26.386  13.934  0.00  0.00    -0.019 C 
ENDBRANCH  23  25
ENDBRANCH   1  23
TORSDOF 4
ENDMDL
MODEL 5
REMARK VINA RESULT:      -5.8      6.581      9.907
REMARK  Name = *****
REMARK                            x       y       z     vdW  Elec       q    Type
REMARK                         _______ _______ _______ _____ _____    ______ ____
ROOT
ATOM      1  N   LIG    1       27.039 -30.237  11.037  0.00  0.00    -0.295 NA
ATOM      2  C   LIG    1       26.008 -29.298  10.553  0.00  0.00    +0.069 C 
ATOM      3  C   LIG    1       24.760 -30.079  10.012  0.00  0.00    +0.043 C 
ATOM      4  C   LIG    1       25.224 -30.725   8.701  0.00  0.00    +0.048 C 
ATOM      5  C   LIG    1       24.197 -31.590   7.937  0.00  0.00    +0.217 C 
ATOM      6  O   LIG    1       23.707 -30.852   6.758  0.00  0.00    -0.481 OA
ATOM      7  C   LIG    1       24.448 -29.702   6.717  0.00  0.00    +0.166 A 
ATOM      8  C   LIG    1       24.320 -28.675   5.809  0.00  0.00    +0.159 A 
ATOM      9  C   LIG    1       25.031 -27.491   6.017  0.00  0.00    +0.049 A 
ATOM     10  C   LIG    1       25.809 -27.322   7.180  0.00  0.00    +0.008 A 
ATOM     11  C   LIG    1       25.901 -28.357   8.110  0.00  0.00    -0.038 A 
ATOM     12  C   LIG    1       23.016 -32.075   8.823  0.00  0.00    +0.178 C 
ATOM     13  C   LIG    1       23.254 -32.001  10.312  0.00  0.00    +0.004 C 
ATOM     14  C   LIG    1       25.290 -29.559   7.789  0.00  0.00    +0.012 A 
ATOM     15  C   LIG    1       26.612 -31.411   8.825  0.00  0.00    +0.031 C 
ATOM     16  C   LIG    1       24.077 -31.102  10.877  0.00  0.00    -0.023 C 
ATOM     17  C   LIG    1       26.515 -28.229   9.483  0.00  0.00    +0.055 C 
ATOM     18  C   LIG    1       27.159 -31.472  10.258  0.00  0.00    +0.086 C 
ENDROOT
BRANCH   8  19
ATOM     19  O   LIG    1       23.487 -28.778   4.737  0.00  0.00    -0.503 OA
ATOM     20  H   LIG    1       24.063 -28.739   3.950  0.00  0.00    +0.292 HD
ENDBRANCH   8  19
BRANCH  12  21
ATOM     21  O   LIG    1       22.727 -33.443   8.515  0.00  0.00    -0.384 OA
ATOM     22  H   LIG    1       22.983 -33.978   9.286  0.00  0.00    +0.210 HD
ENDBRANCH  12  21
BRANCH   1  23
ATOM     23  C   LIG    1       28.338 -29.682  11.420  0.00  0.00    +0.111 C 
BRANCH  23  25
ATOM     24  C   LIG    1       27.771 -29.998  13.849  0.00  0.00    +0.005 C 
ATOM     25  C   LIG    1       28.462 -29.374  12.889  0.00  0.00    -0.019 C 
ENDBRANCH  23  25
ENDBRANCH   1  23
TORSDOF 4
ENDMDL
MODEL 6
REMARK VINA RESULT:      -5.8      8.314     10.184
REMARK  Name = *****
REMARK                            x       y       z     vdW  Elec       q    Type
REMARK                         _______ _______ _______ _____ _____    ______ ____
ROOT
ATOM      1  N   LIG    1       20.505 -28.579  14.033  0.00  0.00    -0.295 NA
ATOM      2  C   LIG    1       21.286 -27.787  13.061  0.00  0.00    +0.069 C 
ATOM      3  C   LIG    1       22.277 -28.707  12.269  0.00  0.00    +0.043 C 
ATOM      4  C   LIG    1       23.360 -29.101  13.281  0.00  0.00    +0.048 C 
ATOM      5  C   LIG    1       24.484 -30.038  12.785  0.00  0.00    +0.217 C 
ATOM      6  O   LIG    1       25.724 -29.264  12.590  0.00  0.00    -0.481 OA
ATOM      7  C   LIG    1       25.440 -28.004  13.044  0.00  0.00    +0.166 A 
ATOM      8  C   LIG    1       26.284 -26.917  13.028  0.00  0.00    +0.159 A 
ATOM      9  C   LIG    1       25.777 -25.658  13.361  0.00  0.00    +0.049 A 
ATOM     10  C   LIG    1       24.404 -25.492  13.635  0.00  0.00    +0.008 A 
ATOM     11  C   LIG    1       23.554 -26.598  13.613  0.00  0.00    -0.038 A 
ATOM     12  C   LIG    1       24.110 -30.825  11.498  0.00  0.00    +0.178 C 
ATOM     13  C   LIG    1       22.634 -30.887  11.186  0.00  0.00    +0.004 C 
ATOM     14  C   LIG    1       24.130 -27.842  13.414  0.00  0.00    +0.012 A 
ATOM     15  C   LIG    1       22.774 -29.540  14.651  0.00  0.00    +0.031 C 
ATOM     16  C   LIG    1       21.767 -29.929  11.557  0.00  0.00    -0.023 C 
ATOM     17  C   LIG    1       22.048 -26.526  13.674  0.00  0.00    +0.055 C 
ATOM     18  C   LIG    1       21.244 -29.672  14.668  0.00  0.00    +0.086 C 
ENDROOT
BRANCH   8  19
ATOM     19  O   LIG    1       27.588 -27.038  12.658  0.00  0.00    -0.503 OA
ATOM     20  H   LIG    1       27.765 -26.283  12.065  0.00  0.00    +0.292 HD
ENDBRANCH   8  19
BRANCH  12  21
ATOM     21  O   LIG    1       24.565 -32.177  11.624  0.00  0.00    -0.384 OA
ATOM     22  H   LIG    1       23.864 -32.756  11.280  0.00  0.00    +0.210 HD
ENDBRANCH  12  21
BRANCH   1  23
ATOM     23  C   LIG    1       19.652 -27.852  14.974  0.00  0.00    +0.111 C 
BRANCH  23  25
ATOM     24  C   LIG    1       18.148 -26.094  13.989  0.00  0.00    +0.005 C 
ATOM     25  C   LIG    1       18.362 -27.358  14.374  0.00  0.00    -0.019 C 
ENDBRANCH  23  25
ENDBRANCH   1  23
TORSDOF 4
ENDMDL
MODEL 7
REMARK VINA RESULT:      -5.8      6.863      9.573
REMARK  Name = *****
REMARK                            x       y       z     vdW  Elec       q    Type
REMARK                         _______ _______ _______ _____ _____    ______ ____
ROOT
ATOM      1  N   LIG    1       24.913 -29.941  10.262  0.00  0.00    -0.295 NA
ATOM      2  C   LIG    1       26.159 -30.069   9.480  0.00  0.00    +0.069 C 
ATOM      3  C   LIG    1       25.942 -29.574   8.009  0.00  0.00    +0.043 C 
ATOM      4  C   LIG    1       25.056 -30.639   7.350  0.00  0.00    +0.048 C 
ATOM      5  C   LIG    1       24.651 -30.409   5.877  0.00  0.00    +0.217 C 
ATOM      6  O   LIG    1       25.431 -31.305   5.003  0.00  0.00    -0.481 OA
ATOM      7  C   LIG    1       26.150 -32.103   5.852  0.00  0.00    +0.166 A 
ATOM      8  C   LIG    1       27.056 -33.075   5.493  0.00  0.00    +0.159 A 
ATOM      9  C   LIG    1       27.839 -33.673   6.483  0.00  0.00    +0.049 A 
ATOM     10  C   LIG    1       27.755 -33.234   7.820  0.00  0.00    +0.008 A 
ATOM     11  C   LIG    1       26.857 -32.224   8.163  0.00  0.00    -0.038 A 
ATOM     12  C   LIG    1       24.787 -28.929   5.422  0.00  0.00    +0.178 C 
ATOM     13  C   LIG    1       24.872 -27.916   6.539  0.00  0.00    +0.004 C 
ATOM     14  C   LIG    1       26.007 -31.762   7.171  0.00  0.00    +0.012 A 
ATOM     15  C   LIG    1       23.858 -31.064   8.243  0.00  0.00    +0.031 C 
ATOM     16  C   LIG    1       25.379 -28.203   7.749  0.00  0.00    -0.023 C 
ATOM     17  C   LIG    1       26.822 -31.520   9.498  0.00  0.00    +0.055 C 
ATOM     18  C   LIG    1       23.687 -30.216   9.511  0.00  0.00    +0.086 C 
ENDROOT
BRANCH   8  19
ATOM     19  O   LIG    1       27.232 -33.434   4.192  0.00  0.00    -0.503 OA
ATOM     20  H   LIG    1       27.407 -32.603   3.710  0.00  0.00    +0.292 HD
ENDBRANCH   8  19
BRANCH  12  21
ATOM     21  O   LIG    1       23.651 -28.575   4.625  0.00  0.00    -0.384 OA
ATOM     22  H   LIG    1       23.181 -27.859   5.085  0.00  0.00    +0.210 HD
ENDBRANCH  12  21
BRANCH   1  23
ATOM     23  C   LIG    1       24.893 -30.513  11.608  0.00  0.00    +0.111 C 
BRANCH  23  25
ATOM     24  C   LIG    1       25.164 -28.188  12.527  0.00  0.00    +0.005 C 
ATOM     25  C   LIG    1       24.899 -29.487  12.710  0.00  0.00    -0.019 C 
ENDBRANCH  23  25
ENDBRANCH   1  23
TORSDOF 4
ENDMDL
MODEL 8
REMARK VINA RESULT:      -5.6      8.582     10.149
REMARK  Name = *****
REMARK                            x       y       z     vdW  Elec       q    Type
REMARK                         _______ _______ _______ _____ _____    ______ ____
ROOT
ATOM      1  N   LIG    1       23.546 -31.856  11.152  0.00  0.00    -0.295 NA
ATOM      2  C   LIG    1       23.332 -30.438  10.801  0.00  0.00    +0.069 C 
ATOM      3  C   LIG    1       24.700 -29.679  10.708  0.00  0.00    +0.043 C 
ATOM      4  C   LIG    1       25.198 -29.564  12.154  0.00  0.00    +0.048 C 
ATOM      5  C   LIG    1       26.558 -28.867  12.381  0.00  0.00    +0.217 C 
ATOM      6  O   LIG    1       26.337 -27.516  12.930  0.00  0.00    -0.481 OA
ATOM      7  C   LIG    1       24.989 -27.430  13.149  0.00  0.00    +0.166 A 
ATOM      8  C   LIG    1       24.303 -26.334  13.622  0.00  0.00    +0.159 A 
ATOM      9  C   LIG    1       22.906 -26.351  13.613  0.00  0.00    +0.049 A 
ATOM     10  C   LIG    1       22.210 -27.444  13.059  0.00  0.00    +0.008 A 
ATOM     11  C   LIG    1       22.919 -28.532  12.551  0.00  0.00    -0.038 A 
ATOM     12  C   LIG    1       27.445 -28.812  11.105  0.00  0.00    +0.178 C 
ATOM     13  C   LIG    1       27.057 -29.775  10.009  0.00  0.00    +0.004 C 
ATOM     14  C   LIG    1       24.295 -28.527  12.709  0.00  0.00    +0.012 A 
ATOM     15  C   LIG    1       25.066 -30.894  12.945  0.00  0.00    +0.031 C 
ATOM     16  C   LIG    1       25.798 -30.207   9.826  0.00  0.00    -0.023 C 
ATOM     17  C   LIG    1       22.312 -29.654  11.745  0.00  0.00    +0.055 C 
ATOM     18  C   LIG    1       24.646 -32.096  12.088  0.00  0.00    +0.086 C 
ENDROOT
BRANCH   8  19
ATOM     19  O   LIG    1       24.957 -25.223  14.058  0.00  0.00    -0.503 OA
ATOM     20  H   LIG    1       24.520 -24.469  13.619  0.00  0.00    +0.292 HD
ENDBRANCH   8  19
BRANCH  12  21
ATOM     21  O   LIG    1       28.800 -29.110  11.460  0.00  0.00    -0.384 OA
ATOM     22  H   LIG    1       29.212 -29.554  10.700  0.00  0.00    +0.210 HD
ENDBRANCH  12  21
BRANCH   1  23
ATOM     23  C   LIG    1       22.366 -32.670  11.443  0.00  0.00    +0.111 C 
BRANCH  23  25
ATOM     24  C   LIG    1       20.171 -32.440  10.238  0.00  0.00    +0.005 C 
ATOM     25  C   LIG    1       21.443 -32.855  10.268  0.00  0.00    -0.019 C 
ENDBRANCH  23  25
ENDBRANCH   1  23
TORSDOF 4
ENDMDL
MODEL 9
REMARK VINA RESULT:      -5.5      8.482      9.696
REMARK  Name = *****
REMARK                            x       y       z     vdW  Elec       q    Type
REMARK                         _______ _______ _______ _____ _____    ______ ____
ROOT
ATOM      1  N   LIG    1       26.380 -27.132  14.505  0.00  0.00    -0.295 NA
ATOM      2  C   LIG    1       26.042 -26.871  13.092  0.00  0.00    +0.069 C 
ATOM      3  C   LIG    1       24.501 -27.031  12.854  0.00  0.00    +0.043 C 
ATOM      4  C   LIG    1       24.228 -28.536  12.960  0.00  0.00    +0.048 C 
ATOM      5  C   LIG    1       22.766 -29.004  12.787  0.00  0.00    +0.217 C 
ATOM      6  O   LIG    1       22.599 -29.626  11.460  0.00  0.00    -0.481 OA
ATOM      7  C   LIG    1       23.855 -29.663  10.916  0.00  0.00    +0.166 A 
ATOM      8  C   LIG    1       24.194 -30.124   9.664  0.00  0.00    +0.159 A 
ATOM      9  C   LIG    1       25.493 -29.921   9.194  0.00  0.00    +0.049 A 
ATOM     10  C   LIG    1       26.423 -29.189   9.961  0.00  0.00    +0.008 A 
ATOM     11  C   LIG    1       26.054 -28.697  11.213  0.00  0.00    -0.038 A 
ATOM     12  C   LIG    1       21.724 -27.872  13.007  0.00  0.00    +0.178 C 
ATOM     13  C   LIG    1       22.237 -26.658  13.743  0.00  0.00    +0.004 C 
ATOM     14  C   LIG    1       24.801 -29.043  11.691  0.00  0.00    +0.012 A 
ATOM     15  C   LIG    1       24.926 -29.190  14.184  0.00  0.00    +0.031 C 
ATOM     16  C   LIG    1       23.523 -26.268  13.705  0.00  0.00    -0.023 C 
ATOM     17  C   LIG    1       26.871 -27.726  12.030  0.00  0.00    +0.055 C 
ATOM     18  C   LIG    1       25.589 -28.188  15.140  0.00  0.00    +0.086 C 
ENDROOT
BRANCH   8  19
ATOM     19  O   LIG    1       23.279 -30.735   8.864  0.00  0.00    -0.503 OA
ATOM     20  H   LIG    1       23.796 -31.205   8.182  0.00  0.00    +0.292 HD
ENDBRANCH   8  19
BRANCH  12  21
ATOM     21  O   LIG    1       20.625 -28.386  13.768  0.00  0.00    -0.384 OA
ATOM     22  H   LIG    1       20.105 -27.627  14.083  0.00  0.00    +0.210 HD
ENDBRANCH  12  21
BRANCH   1  23
ATOM     23  C   LIG    1       27.796 -27.190  14.866  0.00  0.00    +0.111 C 
BRANCH  23  25
ATOM     24  C   LIG    1       28.179 -24.706  14.863  0.00  0.00    +0.005 C 
ATOM     25  C   LIG    1       28.337 -25.905  15.434  0.00  0.00    -0.019 C 
ENDBRANCH  23  25
ENDBRANCH   1  23
TORSDOF 4
ENDMDL
