MODEL 1
REMARK VINA RESULT:       3.1      0.000      0.000
REMARK  Name = *****
REMARK                            x       y       z     vdW  Elec       q    Type
REMARK                         _______ _______ _______ _____ _____    ______ ____
ROOT
ATOM      1  C   LIG    1       26.740 -13.259   3.433  0.00  0.00    +0.132 C 
ATOM      2  C   LIG    1       26.371 -14.535   4.261  0.00  0.00    +0.014 C 
ATOM      3  C   LIG    1       24.802 -14.521   4.259  0.00  0.00    +0.002 C 
ATOM      4  C   LIG    1       24.055 -15.486   3.294  0.00  0.00    -0.003 C 
ATOM      5  C   LIG    1       24.760 -16.849   3.108  0.00  0.00    -0.000 C 
ATOM      6  C   LIG    1       26.181 -16.566   2.620  0.00  0.00    +0.005 C 
ATOM      7  C   LIG    1       24.647 -17.722   4.389  0.00  0.00    +0.019 C 
ATOM      8  C   LIG    1       23.172 -17.894   4.713  0.00  0.00    -0.064 C 
ATOM      9  C   LIG    1       22.533 -19.076   4.728  0.00  0.00    +0.026 C 
ATOM     10  C   LIG    1       23.239 -20.323   4.318  0.00  0.00    +0.080 C 
ATOM     11  C   LIG    1       24.570 -20.144   3.613  0.00  0.00    +0.059 C 
ATOM     12  N   LIG    1       22.798 -21.535   4.465  0.00  0.00    -0.092 NA
ATOM     13  C   LIG    1       22.437 -16.604   4.958  0.00  0.00    +0.031 C 
ATOM     14  C   LIG    1       25.380 -19.074   4.326  0.00  0.00    +0.014 C 
ATOM     15  C   LIG    1       22.585 -15.688   3.738  0.00  0.00    +0.008 C 
ATOM     16  C   LIG    1       24.382 -13.057   3.964  0.00  0.00    +0.008 C 
ATOM     17  C   LIG    1       27.011 -15.825   3.656  0.00  0.00    +0.011 C 
ATOM     18  C   LIG    1       25.653 -12.238   3.771  0.00  0.00    +0.049 C 
ENDROOT
BRANCH   1  20
ATOM     19  C   LIG    1       29.178 -12.289   3.948  0.00  0.00    +0.007 C 
ATOM     20  C   LIG    1       28.084 -12.726   3.716  0.00  0.00    -0.070 C 
ENDBRANCH   1  20
BRANCH   1  21
ATOM     21  O   LIG    1       26.680 -13.523   2.031  0.00  0.00    -0.376 OA
ATOM     22  H   LIG    1       26.637 -14.483   1.898  0.00  0.00    +0.211 HD
ENDBRANCH   1  21
BRANCH  12  23
ATOM     23  O   LIG    1       21.561 -21.567   5.120  0.00  0.00    -0.409 OA
ATOM     24  H   LIG    1       20.990 -21.070   4.507  0.00  0.00    +0.328 HD
ENDBRANCH  12  23
BRANCH   2  25
ATOM     25  C   LIG    1       26.883 -14.501   5.755  0.00  0.00    +0.007 C 
ATOM     26  C   LIG    1       26.486 -13.344   6.663  0.00  0.00    +0.004 C 
ENDBRANCH   2  25
TORSDOF 4
ENDMDL
