MODEL 1
REMARK VINA RESULT:      -5.7      0.000      0.000
REMARK  Name = *****
REMARK                            x       y       z     vdW  Elec       q    Type
REMARK                         _______ _______ _______ _____ _____    ______ ____
ROOT
ATOM      1  O   LIG    1       25.929 -16.783   3.142  0.00  0.00    -0.489 OA
ENDROOT
BRANCH   1   2
ATOM      2  C   LIG    1       25.440 -15.611   3.652  0.00  0.00    +0.126 A 
ATOM      3  C   LIG    1       26.405 -14.661   4.030  0.00  0.00    +0.016 A 
ATOM      4  C   LIG    1       27.879 -14.909   3.843  0.00  0.00    +0.050 C 
ATOM      5  C   LIG    1       28.650 -13.607   3.701  0.00  0.00    +0.101 C 
ATOM      6  C   LIG    1       28.284 -12.607   4.773  0.00  0.00    +0.217 C 
ATOM      7  N   LIG    1       26.964 -12.583   5.146  0.00  0.00    -0.285 N 
ATOM      8  H   LIG    1       26.699 -11.821   5.756  0.00  0.00    +0.155 HD
ATOM      9  O   LIG    1       29.074 -11.784   5.203  0.00  0.00    -0.276 OA
ATOM     10  C   LIG    1       26.004 -13.493   4.694  0.00  0.00    +0.040 A 
ATOM     11  C   LIG    1       24.656 -13.230   4.920  0.00  0.00    +0.024 A 
ATOM     12  C   LIG    1       23.697 -14.114   4.430  0.00  0.00    +0.005 A 
ATOM     13  C   LIG    1       24.086 -15.301   3.796  0.00  0.00    +0.046 A 
ENDBRANCH   1   2
BRANCH   1  14
ATOM     14  C   LIG    1       25.197 -18.003   3.334  0.00  0.00    +0.261 C 
BRANCH  14  15
ATOM     15  C   LIG    1       26.090 -19.188   3.792  0.00  0.00    +0.166 C 
BRANCH  15  16
ATOM     16  O   LIG    1       27.244 -18.683   4.483  0.00  0.00    -0.387 OA
ATOM     17  H   LIG    1       26.919 -18.056   5.152  0.00  0.00    +0.210 HD
ENDBRANCH  15  16
BRANCH  15  18
ATOM     18  C   LIG    1       25.349 -20.218   4.685  0.00  0.00    +0.116 C 
BRANCH  18  19
ATOM     19  N   LIG    1       24.007 -20.586   4.181  0.00  0.00    -0.309 NA
ATOM     20  H   LIG    1       24.045 -21.564   3.880  0.00  0.00    +0.122 HD
BRANCH  19  22
ATOM     21  C   LIG    1       22.314 -18.969   4.947  0.00  0.00    +0.027 C 
ATOM     22  C   LIG    1       22.885 -20.395   5.132  0.00  0.00    +0.011 C 
ATOM     23  C   LIG    1       21.735 -21.393   4.894  0.00  0.00    +0.027 C 
ATOM     24  C   LIG    1       23.364 -20.503   6.592  0.00  0.00    +0.027 C 
ENDBRANCH  19  22
ENDBRANCH  18  19
ENDBRANCH  15  18
ENDBRANCH  14  15
ENDBRANCH   1  14
TORSDOF 7
ENDMDL
MODEL 2
REMARK VINA RESULT:      -5.2      2.109      6.891
REMARK  Name = *****
REMARK                            x       y       z     vdW  Elec       q    Type
REMARK                         _______ _______ _______ _____ _____    ______ ____
ROOT
ATOM      1  O   LIG    1       27.581 -16.778   3.680  0.00  0.00    -0.489 OA
ENDROOT
BRANCH   1   2
ATOM      2  C   LIG    1       27.777 -17.893   4.448  0.00  0.00    +0.126 A 
ATOM      3  C   LIG    1       26.708 -18.807   4.478  0.00  0.00    +0.016 A 
ATOM      4  C   LIG    1       25.451 -18.585   3.679  0.00  0.00    +0.050 C 
ATOM      5  C   LIG    1       24.761 -19.898   3.348  0.00  0.00    +0.101 C 
ATOM      6  C   LIG    1       24.619 -20.790   4.560  0.00  0.00    +0.217 C 
ATOM      7  N   LIG    1       25.668 -20.772   5.444  0.00  0.00    -0.285 N 
ATOM      8  H   LIG    1       25.632 -21.471   6.174  0.00  0.00    +0.155 HD
ATOM      9  O   LIG    1       23.694 -21.572   4.697  0.00  0.00    -0.276 OA
ATOM     10  C   LIG    1       26.760 -19.905   5.348  0.00  0.00    +0.040 A 
ATOM     11  C   LIG    1       27.886 -20.139   6.133  0.00  0.00    +0.024 A 
ATOM     12  C   LIG    1       28.992 -19.302   6.005  0.00  0.00    +0.005 A 
ATOM     13  C   LIG    1       28.940 -18.182   5.164  0.00  0.00    +0.046 A 
ENDBRANCH   1   2
BRANCH   1  14
ATOM     14  C   LIG    1       27.582 -15.481   4.297  0.00  0.00    +0.261 C 
BRANCH  14  15
ATOM     15  C   LIG    1       27.598 -14.315   3.271  0.00  0.00    +0.166 C 
BRANCH  15  16
ATOM     16  O   LIG    1       26.844 -14.688   2.105  0.00  0.00    -0.387 OA
ATOM     17  H   LIG    1       27.438 -14.582   1.342  0.00  0.00    +0.210 HD
ENDBRANCH  15  16
BRANCH  15  18
ATOM     18  C   LIG    1       27.062 -12.975   3.840  0.00  0.00    +0.116 C 
BRANCH  18  19
ATOM     19  N   LIG    1       25.917 -13.137   4.763  0.00  0.00    -0.309 NA
ATOM     20  H   LIG    1       26.034 -12.464   5.526  0.00  0.00    +0.122 HD
BRANCH  19  22
ATOM     21  C   LIG    1       23.778 -11.932   4.970  0.00  0.00    +0.027 C 
ATOM     22  C   LIG    1       24.572 -12.982   4.157  0.00  0.00    +0.011 C 
ATOM     23  C   LIG    1       24.637 -12.490   2.698  0.00  0.00    +0.027 C 
ATOM     24  C   LIG    1       23.775 -14.298   4.219  0.00  0.00    +0.027 C 
ENDBRANCH  19  22
ENDBRANCH  18  19
ENDBRANCH  15  18
ENDBRANCH  14  15
ENDBRANCH   1  14
TORSDOF 7
ENDMDL
MODEL 3
REMARK VINA RESULT:      -5.0      2.227      6.883
REMARK  Name = *****
REMARK                            x       y       z     vdW  Elec       q    Type
REMARK                         _______ _______ _______ _____ _____    ______ ____
ROOT
ATOM      1  O   LIG    1       24.202 -19.093   3.628  0.00  0.00    -0.489 OA
ENDROOT
BRANCH   1   2
ATOM      2  C   LIG    1       24.148 -19.816   4.788  0.00  0.00    +0.126 A 
ATOM      3  C   LIG    1       25.390 -20.186   5.335  0.00  0.00    +0.016 A 
ATOM      4  C   LIG    1       26.691 -19.771   4.700  0.00  0.00    +0.050 C 
ATOM      5  C   LIG    1       27.813 -19.702   5.723  0.00  0.00    +0.101 C 
ATOM      6  C   LIG    1       27.872 -20.939   6.590  0.00  0.00    +0.217 C 
ATOM      7  N   LIG    1       26.662 -21.485   6.937  0.00  0.00    -0.285 N 
ATOM      8  H   LIG    1       26.702 -22.223   7.629  0.00  0.00    +0.155 HD
ATOM      9  O   LIG    1       28.913 -21.365   7.060  0.00  0.00    -0.276 OA
ATOM     10  C   LIG    1       25.432 -21.048   6.439  0.00  0.00    +0.040 A 
ATOM     11  C   LIG    1       24.258 -21.488   7.044  0.00  0.00    +0.024 A 
ATOM     12  C   LIG    1       23.032 -21.017   6.577  0.00  0.00    +0.005 A 
ATOM     13  C   LIG    1       22.976 -20.182   5.454  0.00  0.00    +0.046 A 
ENDBRANCH   1   2
BRANCH   1  14
ATOM     14  C   LIG    1       24.089 -17.662   3.676  0.00  0.00    +0.261 C 
BRANCH  14  15
ATOM     15  C   LIG    1       25.463 -16.941   3.719  0.00  0.00    +0.166 C 
BRANCH  15  16
ATOM     16  O   LIG    1       26.325 -17.483   2.704  0.00  0.00    -0.387 OA
ATOM     17  H   LIG    1       27.212 -17.551   3.097  0.00  0.00    +0.210 HD
ENDBRANCH  15  16
BRANCH  15  18
ATOM     18  C   LIG    1       25.364 -15.400   3.559  0.00  0.00    +0.116 C 
BRANCH  18  19
ATOM     19  N   LIG    1       26.576 -14.784   2.974  0.00  0.00    -0.309 NA
ATOM     20  H   LIG    1       26.455 -14.764   1.957  0.00  0.00    +0.122 HD
BRANCH  19  22
ATOM     21  C   LIG    1       26.327 -13.255   4.889  0.00  0.00    +0.027 C 
ATOM     22  C   LIG    1       26.913 -13.426   3.468  0.00  0.00    +0.011 C 
ATOM     23  C   LIG    1       28.434 -13.194   3.560  0.00  0.00    +0.027 C 
ATOM     24  C   LIG    1       26.281 -12.336   2.584  0.00  0.00    +0.027 C 
ENDBRANCH  19  22
ENDBRANCH  18  19
ENDBRANCH  15  18
ENDBRANCH  14  15
ENDBRANCH   1  14
TORSDOF 7
ENDMDL
MODEL 4
REMARK VINA RESULT:      -4.9      2.136      7.042
REMARK  Name = *****
REMARK                            x       y       z     vdW  Elec       q    Type
REMARK                         _______ _______ _______ _____ _____    ______ ____
ROOT
ATOM      1  O   LIG    1       27.575 -18.115   4.026  0.00  0.00    -0.489 OA
ENDROOT
BRANCH   1   2
ATOM      2  C   LIG    1       27.421 -19.091   4.973  0.00  0.00    +0.126 A 
ATOM      3  C   LIG    1       26.153 -19.696   5.024  0.00  0.00    +0.016 A 
ATOM      4  C   LIG    1       25.054 -19.319   4.064  0.00  0.00    +0.050 C 
ATOM      5  C   LIG    1       24.072 -20.462   3.864  0.00  0.00    +0.101 C 
ATOM      6  C   LIG    1       23.620 -21.062   5.176  0.00  0.00    +0.217 C 
ATOM      7  N   LIG    1       24.574 -21.144   6.158  0.00  0.00    -0.285 N 
ATOM      8  H   LIG    1       24.307 -21.673   6.979  0.00  0.00    +0.155 HD
ATOM      9  O   LIG    1       22.516 -21.557   5.327  0.00  0.00    -0.276 OA
ATOM     10  C   LIG    1       25.858 -20.601   6.053  0.00  0.00    +0.040 A 
ATOM     11  C   LIG    1       26.827 -20.960   6.985  0.00  0.00    +0.024 A 
ATOM     12  C   LIG    1       28.119 -20.454   6.854  0.00  0.00    +0.005 A 
ATOM     13  C   LIG    1       28.417 -19.523   5.850  0.00  0.00    +0.046 A 
ENDBRANCH   1   2
BRANCH   1  14
ATOM     14  C   LIG    1       27.949 -16.788   4.425  0.00  0.00    +0.261 C 
BRANCH  14  15
ATOM     15  C   LIG    1       27.183 -15.678   3.655  0.00  0.00    +0.166 C 
BRANCH  15  16
ATOM     16  O   LIG    1       26.117 -16.267   2.893  0.00  0.00    -0.387 OA
ATOM     17  H   LIG    1       25.935 -17.136   3.291  0.00  0.00    +0.210 HD
ENDBRANCH  15  16
BRANCH  15  18
ATOM     18  C   LIG    1       26.622 -14.558   4.570  0.00  0.00    +0.116 C 
BRANCH  18  19
ATOM     19  N   LIG    1       26.126 -13.377   3.829  0.00  0.00    -0.309 NA
ATOM     20  H   LIG    1       26.495 -13.431   2.875  0.00  0.00    +0.122 HD
BRANCH  19  22
ATOM     21  C   LIG    1       24.218 -12.966   2.325  0.00  0.00    +0.027 C 
ATOM     22  C   LIG    1       24.652 -13.211   3.790  0.00  0.00    +0.011 C 
ATOM     23  C   LIG    1       23.905 -14.461   4.294  0.00  0.00    +0.027 C 
ATOM     24  C   LIG    1       24.205 -11.983   4.604  0.00  0.00    +0.027 C 
ENDBRANCH  19  22
ENDBRANCH  18  19
ENDBRANCH  15  18
ENDBRANCH  14  15
ENDBRANCH   1  14
TORSDOF 7
ENDMDL
MODEL 5
REMARK VINA RESULT:      -4.9      2.716      6.557
REMARK  Name = *****
REMARK                            x       y       z     vdW  Elec       q    Type
REMARK                         _______ _______ _______ _____ _____    ______ ____
ROOT
ATOM      1  O   LIG    1       23.511 -18.981   3.953  0.00  0.00    -0.489 OA
ENDROOT
BRANCH   1   2
ATOM      2  C   LIG    1       23.777 -19.781   5.031  0.00  0.00    +0.126 A 
ATOM      3  C   LIG    1       25.138 -20.018   5.292  0.00  0.00    +0.016 A 
ATOM      4  C   LIG    1       26.226 -19.392   4.461  0.00  0.00    +0.050 C 
ATOM      5  C   LIG    1       27.517 -19.244   5.251  0.00  0.00    +0.101 C 
ATOM      6  C   LIG    1       27.893 -20.517   5.973  0.00  0.00    +0.217 C 
ATOM      7  N   LIG    1       26.851 -21.241   6.494  0.00  0.00    -0.285 N 
ATOM      8  H   LIG    1       27.116 -22.012   7.094  0.00  0.00    +0.155 HD
ATOM      9  O   LIG    1       29.050 -20.831   6.193  0.00  0.00    -0.276 OA
ATOM     10  C   LIG    1       25.503 -20.939   6.284  0.00  0.00    +0.040 A 
ATOM     11  C   LIG    1       24.535 -21.570   7.060  0.00  0.00    +0.024 A 
ATOM     12  C   LIG    1       23.194 -21.236   6.882  0.00  0.00    +0.005 A 
ATOM     13  C   LIG    1       22.814 -20.343   5.872  0.00  0.00    +0.046 A 
ENDBRANCH   1   2
BRANCH   1  14
ATOM     14  C   LIG    1       22.318 -18.181   3.938  0.00  0.00    +0.261 C 
BRANCH  14  15
ATOM     15  C   LIG    1       22.588 -16.673   4.187  0.00  0.00    +0.166 C 
BRANCH  15  16
ATOM     16  O   LIG    1       22.094 -16.302   5.484  0.00  0.00    -0.387 OA
ATOM     17  H   LIG    1       21.912 -17.129   5.962  0.00  0.00    +0.210 HD
ENDBRANCH  15  16
BRANCH  15  18
ATOM     18  C   LIG    1       24.084 -16.278   4.059  0.00  0.00    +0.116 C 
BRANCH  18  19
ATOM     19  N   LIG    1       24.308 -14.818   3.973  0.00  0.00    -0.309 NA
ATOM     20  H   LIG    1       24.009 -14.404   4.862  0.00  0.00    +0.122 HD
BRANCH  19  22
ATOM     21  C   LIG    1       26.242 -13.572   4.853  0.00  0.00    +0.027 C 
ATOM     22  C   LIG    1       25.695 -14.394   3.662  0.00  0.00    +0.011 C 
ATOM     23  C   LIG    1       26.642 -15.591   3.448  0.00  0.00    +0.027 C 
ATOM     24  C   LIG    1       25.737 -13.479   2.425  0.00  0.00    +0.027 C 
ENDBRANCH  19  22
ENDBRANCH  18  19
ENDBRANCH  15  18
ENDBRANCH  14  15
ENDBRANCH   1  14
TORSDOF 7
ENDMDL
MODEL 6
REMARK VINA RESULT:      -4.2      2.230      7.339
REMARK  Name = *****
REMARK                            x       y       z     vdW  Elec       q    Type
REMARK                         _______ _______ _______ _____ _____    ______ ____
ROOT
ATOM      1  O   LIG    1       23.398 -15.696   3.928  0.00  0.00    -0.489 OA
ENDROOT
BRANCH   1   2
ATOM      2  C   LIG    1       24.111 -16.855   3.788  0.00  0.00    +0.126 A 
ATOM      3  C   LIG    1       23.429 -18.036   4.134  0.00  0.00    +0.016 A 
ATOM      4  C   LIG    1       21.993 -18.019   4.587  0.00  0.00    +0.050 C 
ATOM      5  C   LIG    1       21.299 -19.338   4.289  0.00  0.00    +0.101 C 
ATOM      6  C   LIG    1       22.115 -20.527   4.741  0.00  0.00    +0.217 C 
ATOM      7  N   LIG    1       23.473 -20.417   4.583  0.00  0.00    -0.285 N 
ATOM      8  H   LIG    1       23.999 -21.265   4.753  0.00  0.00    +0.155 HD
ATOM      9  O   LIG    1       21.606 -21.571   5.112  0.00  0.00    -0.276 OA
ATOM     10  C   LIG    1       24.122 -19.254   4.161  0.00  0.00    +0.040 A 
ATOM     11  C   LIG    1       25.460 -19.320   3.783  0.00  0.00    +0.024 A 
ATOM     12  C   LIG    1       26.096 -18.170   3.320  0.00  0.00    +0.005 A 
ATOM     13  C   LIG    1       25.424 -16.940   3.320  0.00  0.00    +0.046 A 
ENDBRANCH   1   2
BRANCH   1  14
ATOM     14  C   LIG    1       24.073 -14.486   4.302  0.00  0.00    +0.261 C 
BRANCH  14  15
ATOM     15  C   LIG    1       24.212 -13.475   3.132  0.00  0.00    +0.166 C 
BRANCH  15  16
ATOM     16  O   LIG    1       23.925 -12.148   3.603  0.00  0.00    -0.387 OA
ATOM     17  H   LIG    1       24.487 -11.541   3.091  0.00  0.00    +0.210 HD
ENDBRANCH  15  16
BRANCH  15  18
ATOM     18  C   LIG    1       25.603 -13.503   2.446  0.00  0.00    +0.116 C 
BRANCH  18  19
ATOM     19  N   LIG    1       26.616 -12.659   3.120  0.00  0.00    -0.309 NA
ATOM     20  H   LIG    1       26.119 -11.913   3.616  0.00  0.00    +0.122 HD
BRANCH  19  22
ATOM     21  C   LIG    1       28.937 -12.739   3.939  0.00  0.00    +0.027 C 
ATOM     22  C   LIG    1       27.527 -13.365   4.053  0.00  0.00    +0.011 C 
ATOM     23  C   LIG    1       27.079 -13.240   5.522  0.00  0.00    +0.027 C 
ATOM     24  C   LIG    1       27.663 -14.854   3.684  0.00  0.00    +0.027 C 
ENDBRANCH  19  22
ENDBRANCH  18  19
ENDBRANCH  15  18
ENDBRANCH  14  15
ENDBRANCH   1  14
TORSDOF 7
ENDMDL
MODEL 7
REMARK VINA RESULT:      -4.1      1.644      2.777
REMARK  Name = *****
REMARK                            x       y       z     vdW  Elec       q    Type
REMARK                         _______ _______ _______ _____ _____    ______ ____
ROOT
ATOM      1  O   LIG    1       26.067 -16.919   3.393  0.00  0.00    -0.489 OA
ENDROOT
BRANCH   1   2
ATOM      2  C   LIG    1       26.610 -15.683   3.611  0.00  0.00    +0.126 A 
ATOM      3  C   LIG    1       25.689 -14.632   3.770  0.00  0.00    +0.016 A 
ATOM      4  C   LIG    1       24.202 -14.870   3.744  0.00  0.00    +0.050 C 
ATOM      5  C   LIG    1       23.454 -13.811   4.538  0.00  0.00    +0.101 C 
ATOM      6  C   LIG    1       23.900 -12.411   4.185  0.00  0.00    +0.217 C 
ATOM      7  N   LIG    1       25.239 -12.255   3.929  0.00  0.00    -0.285 N 
ATOM      8  H   LIG    1       25.554 -11.298   3.834  0.00  0.00    +0.155 HD
ATOM      9  O   LIG    1       23.153 -11.449   4.239  0.00  0.00    -0.276 OA
ATOM     10  C   LIG    1       26.152 -13.312   3.853  0.00  0.00    +0.040 A 
ATOM     11  C   LIG    1       27.515 -13.033   3.850  0.00  0.00    +0.024 A 
ATOM     12  C   LIG    1       28.426 -14.088   3.820  0.00  0.00    +0.005 A 
ATOM     13  C   LIG    1       27.976 -15.409   3.703  0.00  0.00    +0.046 A 
ENDBRANCH   1   2
BRANCH   1  14
ATOM     14  C   LIG    1       26.705 -18.083   3.941  0.00  0.00    +0.261 C 
BRANCH  14  15
ATOM     15  C   LIG    1       26.039 -19.413   3.495  0.00  0.00    +0.166 C 
BRANCH  15  16
ATOM     16  O   LIG    1       26.407 -20.465   4.403  0.00  0.00    -0.387 OA
ATOM     17  H   LIG    1       26.056 -21.292   4.030  0.00  0.00    +0.210 HD
ENDBRANCH  15  16
BRANCH  15  18
ATOM     18  C   LIG    1       24.494 -19.330   3.382  0.00  0.00    +0.116 C 
BRANCH  18  19
ATOM     19  N   LIG    1       23.794 -20.523   3.908  0.00  0.00    -0.309 NA
ATOM     20  H   LIG    1       24.502 -21.154   4.294  0.00  0.00    +0.122 HD
BRANCH  19  22
ATOM     21  C   LIG    1       22.293 -18.786   4.803  0.00  0.00    +0.027 C 
ATOM     22  C   LIG    1       22.744 -20.261   4.923  0.00  0.00    +0.011 C 
ATOM     23  C   LIG    1       21.499 -21.147   4.725  0.00  0.00    +0.027 C 
ATOM     24  C   LIG    1       23.287 -20.452   6.351  0.00  0.00    +0.027 C 
ENDBRANCH  19  22
ENDBRANCH  18  19
ENDBRANCH  15  18
ENDBRANCH  14  15
ENDBRANCH   1  14
TORSDOF 7
ENDMDL
MODEL 8
REMARK VINA RESULT:      -3.5      1.743      2.717
REMARK  Name = *****
REMARK                            x       y       z     vdW  Elec       q    Type
REMARK                         _______ _______ _______ _____ _____    ______ ____
ROOT
ATOM      1  O   LIG    1       25.280 -16.952   3.356  0.00  0.00    -0.489 OA
ENDROOT
BRANCH   1   2
ATOM      2  C   LIG    1       24.949 -15.694   3.779  0.00  0.00    +0.126 A 
ATOM      3  C   LIG    1       26.031 -14.830   4.025  0.00  0.00    +0.016 A 
ATOM      4  C   LIG    1       27.457 -15.257   3.793  0.00  0.00    +0.050 C 
ATOM      5  C   LIG    1       28.355 -14.067   3.497  0.00  0.00    +0.101 C 
ATOM      6  C   LIG    1       28.160 -12.944   4.490  0.00  0.00    +0.217 C 
ATOM      7  N   LIG    1       26.873 -12.740   4.919  0.00  0.00    -0.285 N 
ATOM      8  H   LIG    1       26.727 -11.904   5.470  0.00  0.00    +0.155 HD
ATOM      9  O   LIG    1       29.058 -12.182   4.805  0.00  0.00    -0.276 OA
ATOM     10  C   LIG    1       25.797 -13.572   4.597  0.00  0.00    +0.040 A 
ATOM     11  C   LIG    1       24.500 -13.140   4.861  0.00  0.00    +0.024 A 
ATOM     12  C   LIG    1       23.425 -13.948   4.498  0.00  0.00    +0.005 A 
ATOM     13  C   LIG    1       23.647 -15.221   3.957  0.00  0.00    +0.046 A 
ENDBRANCH   1   2
BRANCH   1  14
ATOM     14  C   LIG    1       24.433 -18.061   3.693  0.00  0.00    +0.261 C 
BRANCH  14  15
ATOM     15  C   LIG    1       25.095 -19.440   3.429  0.00  0.00    +0.166 C 
BRANCH  15  16
ATOM     16  O   LIG    1       26.116 -19.301   2.427  0.00  0.00    -0.387 OA
ATOM     17  H   LIG    1       26.650 -18.527   2.677  0.00  0.00    +0.210 HD
ENDBRANCH  15  16
BRANCH  15  18
ATOM     18  C   LIG    1       25.690 -20.101   4.701  0.00  0.00    +0.116 C 
BRANCH  18  19
ATOM     19  N   LIG    1       27.160 -20.265   4.654  0.00  0.00    -0.309 NA
ATOM     20  H   LIG    1       27.526 -19.600   3.965  0.00  0.00    +0.122 HD
BRANCH  19  22
ATOM     21  C   LIG    1       26.826 -19.852   7.059  0.00  0.00    +0.027 C 
ATOM     22  C   LIG    1       27.871 -20.095   5.945  0.00  0.00    +0.011 C 
ATOM     23  C   LIG    1       28.687 -21.342   6.336  0.00  0.00    +0.027 C 
ATOM     24  C   LIG    1       28.796 -18.865   5.917  0.00  0.00    +0.027 C 
ENDBRANCH  19  22
ENDBRANCH  18  19
ENDBRANCH  15  18
ENDBRANCH  14  15
ENDBRANCH   1  14
TORSDOF 7
ENDMDL
MODEL 9
REMARK VINA RESULT:      -3.3      1.877      2.616
REMARK  Name = *****
REMARK                            x       y       z     vdW  Elec       q    Type
REMARK                         _______ _______ _______ _____ _____    ______ ____
ROOT
ATOM      1  O   LIG    1       23.961 -15.968   4.253  0.00  0.00    -0.489 OA
ENDROOT
BRANCH   1   2
ATOM      2  C   LIG    1       24.240 -14.757   3.681  0.00  0.00    +0.126 A 
ATOM      3  C   LIG    1       25.591 -14.368   3.709  0.00  0.00    +0.016 A 
ATOM      4  C   LIG    1       26.661 -15.254   4.292  0.00  0.00    +0.050 C 
ATOM      5  C   LIG    1       28.019 -14.972   3.670  0.00  0.00    +0.101 C 
ATOM      6  C   LIG    1       28.337 -13.495   3.637  0.00  0.00    +0.217 C 
ATOM      7  N   LIG    1       27.279 -12.660   3.378  0.00  0.00    -0.285 N 
ATOM      8  H   LIG    1       27.522 -11.691   3.217  0.00  0.00    +0.155 HD
ATOM      9  O   LIG    1       29.475 -13.065   3.712  0.00  0.00    -0.276 OA
ATOM     10  C   LIG    1       25.951 -13.083   3.278  0.00  0.00    +0.040 A 
ATOM     11  C   LIG    1       24.997 -12.213   2.759  0.00  0.00    +0.024 A 
ATOM     12  C   LIG    1       23.681 -12.650   2.617  0.00  0.00    +0.005 A 
ATOM     13  C   LIG    1       23.303 -13.919   3.074  0.00  0.00    +0.046 A 
ENDBRANCH   1   2
BRANCH   1  14
ATOM     14  C   LIG    1       22.595 -16.369   4.440  0.00  0.00    +0.261 C 
BRANCH  14  15
ATOM     15  C   LIG    1       22.408 -17.909   4.484  0.00  0.00    +0.166 C 
BRANCH  15  16
ATOM     16  O   LIG    1       21.106 -18.252   3.983  0.00  0.00    -0.387 OA
ATOM     17  H   LIG    1       21.237 -18.949   3.317  0.00  0.00    +0.210 HD
ENDBRANCH  15  16
BRANCH  15  18
ATOM     18  C   LIG    1       23.497 -18.692   3.703  0.00  0.00    +0.116 C 
BRANCH  18  19
ATOM     19  N   LIG    1       24.635 -19.126   4.544  0.00  0.00    -0.309 NA
ATOM     20  H   LIG    1       24.791 -18.405   5.255  0.00  0.00    +0.122 HD
BRANCH  19  22
ATOM     21  C   LIG    1       24.226 -21.515   4.101  0.00  0.00    +0.027 C 
ATOM     22  C   LIG    1       24.489 -20.452   5.194  0.00  0.00    +0.011 C 
ATOM     23  C   LIG    1       25.758 -20.875   5.959  0.00  0.00    +0.027 C 
ATOM     24  C   LIG    1       23.282 -20.477   6.149  0.00  0.00    +0.027 C 
ENDBRANCH  19  22
ENDBRANCH  18  19
ENDBRANCH  15  18
ENDBRANCH  14  15
ENDBRANCH   1  14
TORSDOF 7
ENDMDL
