MODEL 1
REMARK VINA RESULT:      -8.9      0.000      0.000
REMARK  Name = *****
REMARK                            x       y       z     vdW  Elec       q    Type
REMARK                         _______ _______ _______ _____ _____    ______ ____
ROOT
ATOM      1  C   LIG    1       23.294 -18.886   4.018  0.00  0.00    +0.001 C 
ENDROOT
BRANCH   1   2
ATOM      2  C   LIG    1       22.261 -19.465   4.994  0.00  0.00    +0.001 C 
BRANCH   2   3
ATOM      3  C   LIG    1       22.645 -20.819   5.608  0.00  0.00    +0.015 C 
BRANCH   3   4
ATOM      4  C   LIG    1       23.363 -20.723   6.962  0.00  0.00    +0.081 C 
BRANCH   4   5
ATOM      5  N   LIG    1       24.589 -21.524   7.050  0.00  0.00    -0.313 NA
ATOM      6  H   LIG    1       25.169 -21.375   6.226  0.00  0.00    +0.122 HD
BRANCH   5   7
ATOM      7  C   LIG    1       24.353 -22.965   7.250  0.00  0.00    +0.117 C 
BRANCH   7   8
ATOM      8  C   LIG    1       24.346 -23.778   5.920  0.00  0.00    +0.158 C 
BRANCH   8   9
ATOM      9  C   LIG    1       24.697 -25.240   6.151  0.00  0.00    -0.014 A 
ATOM     10  C   LIG    1       23.976 -26.287   5.553  0.00  0.00    +0.055 A 
ATOM     11  C   LIG    1       24.357 -27.606   5.766  0.00  0.00    +0.159 A 
ATOM     12  C   LIG    1       25.448 -27.914   6.573  0.00  0.00    +0.158 A 
ATOM     13  C   LIG    1       26.171 -26.900   7.185  0.00  0.00    +0.049 A 
ATOM     14  C   LIG    1       25.798 -25.568   6.970  0.00  0.00    +0.010 A 
BRANCH  12  15
ATOM     15  O   LIG    1       25.775 -29.232   6.724  0.00  0.00    -0.503 OA
ATOM     16  H   LIG    1       26.193 -29.538   5.901  0.00  0.00    +0.292 HD
ENDBRANCH  12  15
BRANCH  11  17
ATOM     17  O   LIG    1       23.651 -28.607   5.162  0.00  0.00    -0.503 OA
ATOM     18  H   LIG    1       22.720 -28.317   5.216  0.00  0.00    +0.292 HD
ENDBRANCH  11  17
ENDBRANCH   8   9
BRANCH   8  19
ATOM     19  O   LIG    1       25.216 -23.213   4.940  0.00  0.00    -0.386 OA
ATOM     20  H   LIG    1       26.024 -22.929   5.397  0.00  0.00    +0.210 HD
ENDBRANCH   8  19
ENDBRANCH   7   8
ENDBRANCH   5   7
ENDBRANCH   4   5
ENDBRANCH   3   4
ENDBRANCH   2   3
ENDBRANCH   1   2
BRANCH   1  21
ATOM     21  C   LIG    1       24.327 -19.923   3.536  0.00  0.00    +0.015 C 
BRANCH  21  22
ATOM     22  C   LIG    1       25.758 -19.542   3.935  0.00  0.00    +0.081 C 
BRANCH  22  23
ATOM     23  N   LIG    1       26.354 -20.470   4.909  0.00  0.00    -0.313 NA
ATOM     24  H   LIG    1       26.696 -21.299   4.418  0.00  0.00    +0.122 HD
BRANCH  23  25
ATOM     25  C   LIG    1       27.493 -19.802   5.584  0.00  0.00    +0.117 C 
BRANCH  25  26
ATOM     26  C   LIG    1       28.407 -20.791   6.360  0.00  0.00    +0.158 C 
BRANCH  26  30
ATOM     27  C   LIG    1       31.302 -18.973   9.044  0.00  0.00    +0.158 A 
ATOM     28  C   LIG    1       31.325 -20.352   8.802  0.00  0.00    +0.159 A 
ATOM     29  C   LIG    1       30.391 -20.922   7.939  0.00  0.00    +0.055 A 
ATOM     30  C   LIG    1       29.410 -20.141   7.303  0.00  0.00    -0.014 A 
ATOM     31  C   LIG    1       29.428 -18.751   7.538  0.00  0.00    +0.010 A 
ATOM     32  C   LIG    1       30.359 -18.180   8.408  0.00  0.00    +0.049 A 
BRANCH  27  33
ATOM     33  O   LIG    1       32.211 -18.428   9.899  0.00  0.00    -0.503 OA
ATOM     34  H   LIG    1       31.844 -18.450  10.802  0.00  0.00    +0.292 HD
ENDBRANCH  27  33
BRANCH  28  35
ATOM     35  O   LIG    1       32.264 -21.118   9.422  0.00  0.00    -0.503 OA
ATOM     36  H   LIG    1       32.971 -21.317   8.782  0.00  0.00    +0.292 HD
ENDBRANCH  28  35
ENDBRANCH  26  30
BRANCH  26  37
ATOM     37  O   LIG    1       27.583 -21.684   7.123  0.00  0.00    -0.386 OA
ATOM     38  H   LIG    1       26.667 -21.525   6.826  0.00  0.00    +0.210 HD
ENDBRANCH  26  37
ENDBRANCH  25  26
ENDBRANCH  23  25
ENDBRANCH  22  23
ENDBRANCH  21  22
ENDBRANCH   1  21
TORSDOF 19
ENDMDL
MODEL 2
REMARK VINA RESULT:      -8.7      1.294      8.159
REMARK  Name = *****
REMARK                            x       y       z     vdW  Elec       q    Type
REMARK                         _______ _______ _______ _____ _____    ______ ____
ROOT
ATOM      1  C   LIG    1       23.317 -20.628   6.471  0.00  0.00    +0.001 C 
ENDROOT
BRANCH   1   2
ATOM      2  C   LIG    1       22.758 -20.842   5.058  0.00  0.00    +0.001 C 
BRANCH   2   3
ATOM      3  C   LIG    1       23.740 -20.519   3.923  0.00  0.00    +0.015 C 
BRANCH   3   4
ATOM      4  C   LIG    1       24.917 -19.622   4.334  0.00  0.00    +0.081 C 
BRANCH   4   5
ATOM      5  N   LIG    1       26.224 -20.286   4.286  0.00  0.00    -0.313 NA
ATOM      6  H   LIG    1       26.120 -21.287   4.448  0.00  0.00    +0.122 HD
BRANCH   5   7
ATOM      7  C   LIG    1       27.219 -19.723   5.215  0.00  0.00    +0.117 C 
BRANCH   7   8
ATOM      8  C   LIG    1       27.245 -20.441   6.598  0.00  0.00    +0.158 C 
BRANCH   8   9
ATOM      9  C   LIG    1       28.604 -20.321   7.271  0.00  0.00    -0.014 A 
ATOM     10  C   LIG    1       29.349 -19.131   7.249  0.00  0.00    +0.055 A 
ATOM     11  C   LIG    1       30.570 -19.061   7.908  0.00  0.00    +0.159 A 
ATOM     12  C   LIG    1       31.078 -20.159   8.593  0.00  0.00    +0.158 A 
ATOM     13  C   LIG    1       30.368 -21.351   8.622  0.00  0.00    +0.049 A 
ATOM     14  C   LIG    1       29.133 -21.428   7.967  0.00  0.00    +0.010 A 
BRANCH  12  15
ATOM     15  O   LIG    1       32.277 -20.012   9.233  0.00  0.00    -0.503 OA
ATOM     16  H   LIG    1       32.935 -20.560   8.772  0.00  0.00    +0.292 HD
ENDBRANCH  12  15
BRANCH  11  17
ATOM     17  O   LIG    1       31.270 -17.887   7.886  0.00  0.00    -0.503 OA
ATOM     18  H   LIG    1       31.118 -17.494   8.767  0.00  0.00    +0.292 HD
ENDBRANCH  11  17
ENDBRANCH   8   9
BRANCH   8  19
ATOM     19  O   LIG    1       26.865 -21.813   6.499  0.00  0.00    -0.386 OA
ATOM     20  H   LIG    1       27.295 -22.288   7.229  0.00  0.00    +0.210 HD
ENDBRANCH   8  19
ENDBRANCH   7   8
ENDBRANCH   5   7
ENDBRANCH   4   5
ENDBRANCH   3   4
ENDBRANCH   2   3
ENDBRANCH   1   2
BRANCH   1  21
ATOM     21  C   LIG    1       23.370 -21.921   7.308  0.00  0.00    +0.015 C 
BRANCH  21  22
ATOM     22  C   LIG    1       22.450 -23.013   6.745  0.00  0.00    +0.081 C 
BRANCH  22  23
ATOM     23  N   LIG    1       23.120 -24.314   6.599  0.00  0.00    -0.313 NA
ATOM     24  H   LIG    1       22.824 -24.749   5.721  0.00  0.00    +0.122 HD
BRANCH  23  25
ATOM     25  C   LIG    1       24.588 -24.106   6.566  0.00  0.00    +0.117 C 
BRANCH  25  26
ATOM     26  C   LIG    1       25.339 -25.187   5.740  0.00  0.00    +0.158 C 
BRANCH  26  30
ATOM     27  C   LIG    1       24.852 -29.276   7.130  0.00  0.00    +0.158 A 
ATOM     28  C   LIG    1       24.113 -28.804   6.038  0.00  0.00    +0.159 A 
ATOM     29  C   LIG    1       24.279 -27.490   5.603  0.00  0.00    +0.055 A 
ATOM     30  C   LIG    1       25.174 -26.615   6.243  0.00  0.00    -0.014 A 
ATOM     31  C   LIG    1       25.930 -27.124   7.319  0.00  0.00    +0.010 A 
ATOM     32  C   LIG    1       25.760 -28.438   7.760  0.00  0.00    +0.049 A 
BRANCH  27  33
ATOM     33  O   LIG    1       24.673 -30.558   7.555  0.00  0.00    -0.503 OA
ATOM     34  H   LIG    1       24.978 -30.628   8.478  0.00  0.00    +0.292 HD
ENDBRANCH  27  33
BRANCH  28  35
ATOM     35  O   LIG    1       23.236 -29.641   5.420  0.00  0.00    -0.503 OA
ATOM     36  H   LIG    1       23.064 -30.397   6.010  0.00  0.00    +0.292 HD
ENDBRANCH  28  35
ENDBRANCH  26  30
BRANCH  26  37
ATOM     37  O   LIG    1       24.884 -25.132   4.380  0.00  0.00    -0.386 OA
ATOM     38  H   LIG    1       25.682 -25.221   3.825  0.00  0.00    +0.210 HD
ENDBRANCH  26  37
ENDBRANCH  25  26
ENDBRANCH  23  25
ENDBRANCH  22  23
ENDBRANCH  21  22
ENDBRANCH   1  21
TORSDOF 19
ENDMDL
MODEL 3
REMARK VINA RESULT:      -8.5      1.452      2.016
REMARK  Name = *****
REMARK                            x       y       z     vdW  Elec       q    Type
REMARK                         _______ _______ _______ _____ _____    ______ ____
ROOT
ATOM      1  C   LIG    1       23.251 -20.858   5.641  0.00  0.00    +0.001 C 
ENDROOT
BRANCH   1   2
ATOM      2  C   LIG    1       23.398 -21.692   6.921  0.00  0.00    +0.001 C 
BRANCH   2   3
ATOM      3  C   LIG    1       22.674 -23.045   6.893  0.00  0.00    +0.015 C 
BRANCH   3   4
ATOM      4  C   LIG    1       23.578 -24.245   6.575  0.00  0.00    +0.081 C 
BRANCH   4   5
ATOM      5  N   LIG    1       25.009 -23.987   6.768  0.00  0.00    -0.313 NA
ATOM      6  H   LIG    1       25.310 -23.206   6.187  0.00  0.00    +0.122 HD
BRANCH   5   7
ATOM      7  C   LIG    1       25.870 -25.159   6.527  0.00  0.00    +0.117 C 
BRANCH   7   8
ATOM      8  C   LIG    1       25.245 -26.188   5.537  0.00  0.00    +0.158 C 
BRANCH   8   9
ATOM      9  C   LIG    1       25.006 -27.536   6.201  0.00  0.00    -0.014 A 
ATOM     10  C   LIG    1       24.227 -28.539   5.601  0.00  0.00    +0.055 A 
ATOM     11  C   LIG    1       24.066 -29.767   6.231  0.00  0.00    +0.159 A 
ATOM     12  C   LIG    1       24.664 -30.024   7.460  0.00  0.00    +0.158 A 
ATOM     13  C   LIG    1       25.430 -29.047   8.081  0.00  0.00    +0.049 A 
ATOM     14  C   LIG    1       25.603 -27.809   7.450  0.00  0.00    +0.010 A 
BRANCH  12  15
ATOM     15  O   LIG    1       24.477 -31.260   8.013  0.00  0.00    -0.503 OA
ATOM     16  H   LIG    1       25.348 -31.676   8.128  0.00  0.00    +0.292 HD
ENDBRANCH  12  15
BRANCH  11  17
ATOM     17  O   LIG    1       23.317 -30.733   5.621  0.00  0.00    -0.503 OA
ATOM     18  H   LIG    1       22.450 -30.309   5.467  0.00  0.00    +0.292 HD
ENDBRANCH  11  17
ENDBRANCH   8   9
BRANCH   8  19
ATOM     19  O   LIG    1       26.038 -26.354   4.362  0.00  0.00    -0.386 OA
ATOM     20  H   LIG    1       26.292 -27.289   4.312  0.00  0.00    +0.210 HD
ENDBRANCH   8  19
ENDBRANCH   7   8
ENDBRANCH   5   7
ENDBRANCH   4   5
ENDBRANCH   3   4
ENDBRANCH   2   3
ENDBRANCH   1   2
BRANCH   1  21
ATOM     21  C   LIG    1       24.299 -21.201   4.565  0.00  0.00    +0.015 C 
BRANCH  21  22
ATOM     22  C   LIG    1       25.287 -20.050   4.333  0.00  0.00    +0.081 C 
BRANCH  22  23
ATOM     23  N   LIG    1       26.654 -20.363   4.778  0.00  0.00    -0.313 NA
ATOM     24  H   LIG    1       27.305 -19.688   4.368  0.00  0.00    +0.122 HD
BRANCH  23  25
ATOM     25  C   LIG    1       26.721 -20.265   6.256  0.00  0.00    +0.117 C 
BRANCH  25  26
ATOM     26  C   LIG    1       27.734 -21.259   6.889  0.00  0.00    +0.158 C 
BRANCH  26  30
ATOM     27  C   LIG    1       31.197 -19.464   8.804  0.00  0.00    +0.158 A 
ATOM     28  C   LIG    1       31.033 -20.854   8.791  0.00  0.00    +0.159 A 
ATOM     29  C   LIG    1       29.918 -21.417   8.173  0.00  0.00    +0.055 A 
ATOM     30  C   LIG    1       28.938 -20.616   7.562  0.00  0.00    -0.014 A 
ATOM     31  C   LIG    1       29.141 -19.220   7.561  0.00  0.00    +0.010 A 
ATOM     32  C   LIG    1       30.255 -18.655   8.186  0.00  0.00    +0.049 A 
BRANCH  27  33
ATOM     33  O   LIG    1       32.284 -18.924   9.422  0.00  0.00    -0.503 OA
ATOM     34  H   LIG    1       32.474 -19.438  10.229  0.00  0.00    +0.292 HD
ENDBRANCH  27  33
BRANCH  28  35
ATOM     35  O   LIG    1       31.973 -21.638   9.389  0.00  0.00    -0.503 OA
ATOM     36  H   LIG    1       32.220 -21.228  10.238  0.00  0.00    +0.292 HD
ENDBRANCH  28  35
ENDBRANCH  26  30
BRANCH  26  37
ATOM     37  O   LIG    1       27.049 -22.063   7.861  0.00  0.00    -0.386 OA
ATOM     38  H   LIG    1       27.691 -22.221   8.580  0.00  0.00    +0.210 HD
ENDBRANCH  26  37
ENDBRANCH  25  26
ENDBRANCH  23  25
ENDBRANCH  22  23
ENDBRANCH  21  22
ENDBRANCH   1  21
TORSDOF 19
ENDMDL
MODEL 4
REMARK VINA RESULT:      -8.3      1.839      8.773
REMARK  Name = *****
REMARK                            x       y       z     vdW  Elec       q    Type
REMARK                         _______ _______ _______ _____ _____    ______ ____
ROOT
ATOM      1  C   LIG    1       22.928 -22.775   6.477  0.00  0.00    +0.001 C 
ENDROOT
BRANCH   1   2
ATOM      2  C   LIG    1       23.253 -21.822   7.635  0.00  0.00    +0.001 C 
BRANCH   2   3
ATOM      3  C   LIG    1       24.108 -20.607   7.248  0.00  0.00    +0.015 C 
BRANCH   3   4
ATOM      4  C   LIG    1       24.708 -20.675   5.836  0.00  0.00    +0.081 C 
BRANCH   4   5
ATOM      5  N   LIG    1       26.084 -21.180   5.791  0.00  0.00    -0.313 NA
ATOM      6  H   LIG    1       26.098 -22.187   5.952  0.00  0.00    +0.122 HD
BRANCH   5   7
ATOM      7  C   LIG    1       27.004 -20.505   6.724  0.00  0.00    +0.117 C 
BRANCH   7   8
ATOM      8  C   LIG    1       28.395 -20.188   6.095  0.00  0.00    +0.158 C 
BRANCH   8   9
ATOM      9  C   LIG    1       29.405 -19.758   7.149  0.00  0.00    -0.014 A 
ATOM     10  C   LIG    1       30.224 -20.681   7.821  0.00  0.00    +0.055 A 
ATOM     11  C   LIG    1       31.156 -20.236   8.750  0.00  0.00    +0.159 A 
ATOM     12  C   LIG    1       31.294 -18.882   9.034  0.00  0.00    +0.158 A 
ATOM     13  C   LIG    1       30.490 -17.950   8.394  0.00  0.00    +0.049 A 
ATOM     14  C   LIG    1       29.553 -18.389   7.450  0.00  0.00    +0.010 A 
BRANCH  12  15
ATOM     15  O   LIG    1       32.243 -18.516   9.947  0.00  0.00    -0.503 OA
ATOM     16  H   LIG    1       33.022 -19.084   9.819  0.00  0.00    +0.292 HD
ENDBRANCH  12  15
BRANCH  11  17
ATOM     17  O   LIG    1       31.952 -21.150   9.381  0.00  0.00    -0.503 OA
ATOM     18  H   LIG    1       32.688 -20.622   9.748  0.00  0.00    +0.292 HD
ENDBRANCH  11  17
ENDBRANCH   8   9
BRANCH   8  19
ATOM     19  O   LIG    1       28.307 -19.200   5.068  0.00  0.00    -0.386 OA
ATOM     20  H   LIG    1       29.151 -18.721   5.053  0.00  0.00    +0.210 HD
ENDBRANCH   8  19
ENDBRANCH   7   8
ENDBRANCH   5   7
ENDBRANCH   4   5
ENDBRANCH   3   4
ENDBRANCH   2   3
ENDBRANCH   1   2
BRANCH   1  21
ATOM     21  C   LIG    1       23.585 -24.161   6.626  0.00  0.00    +0.015 C 
BRANCH  21  22
ATOM     22  C   LIG    1       25.077 -24.060   6.969  0.00  0.00    +0.081 C 
BRANCH  22  23
ATOM     23  N   LIG    1       25.955 -24.340   5.822  0.00  0.00    -0.313 NA
ATOM     24  H   LIG    1       26.927 -24.365   6.140  0.00  0.00    +0.122 HD
BRANCH  23  25
ATOM     25  C   LIG    1       25.599 -25.660   5.246  0.00  0.00    +0.117 C 
BRANCH  25  26
ATOM     26  C   LIG    1       26.469 -26.822   5.801  0.00  0.00    +0.158 C 
BRANCH  26  30
ATOM     27  C   LIG    1       24.255 -30.033   7.719  0.00  0.00    +0.158 A 
ATOM     28  C   LIG    1       24.135 -29.810   6.341  0.00  0.00    +0.159 A 
ATOM     29  C   LIG    1       24.850 -28.777   5.739  0.00  0.00    +0.055 A 
ATOM     30  C   LIG    1       25.694 -27.938   6.488  0.00  0.00    -0.014 A 
ATOM     31  C   LIG    1       25.823 -28.202   7.867  0.00  0.00    +0.010 A 
ATOM     32  C   LIG    1       25.101 -29.233   8.473  0.00  0.00    +0.049 A 
BRANCH  27  33
ATOM     33  O   LIG    1       23.541 -31.037   8.299  0.00  0.00    -0.503 OA
ATOM     34  H   LIG    1       23.153 -30.706   9.130  0.00  0.00    +0.292 HD
ENDBRANCH  27  33
BRANCH  28  35
ATOM     35  O   LIG    1       23.312 -30.611   5.610  0.00  0.00    -0.503 OA
ATOM     36  H   LIG    1       23.068 -31.381   6.155  0.00  0.00    +0.292 HD
ENDBRANCH  28  35
ENDBRANCH  26  30
BRANCH  26  37
ATOM     37  O   LIG    1       27.223 -27.393   4.722  0.00  0.00    -0.386 OA
ATOM     38  H   LIG    1       28.125 -27.027   4.801  0.00  0.00    +0.210 HD
ENDBRANCH  26  37
ENDBRANCH  25  26
ENDBRANCH  23  25
ENDBRANCH  22  23
ENDBRANCH  21  22
ENDBRANCH   1  21
TORSDOF 19
ENDMDL
MODEL 5
REMARK VINA RESULT:      -8.0      2.334      4.110
REMARK  Name = *****
REMARK                            x       y       z     vdW  Elec       q    Type
REMARK                         _______ _______ _______ _____ _____    ______ ____
ROOT
ATOM      1  C   LIG    1       23.345 -23.533   6.850  0.00  0.00    +0.001 C 
ENDROOT
BRANCH   1   2
ATOM      2  C   LIG    1       23.978 -24.841   6.357  0.00  0.00    +0.001 C 
BRANCH   2   3
ATOM      3  C   LIG    1       25.466 -25.004   6.698  0.00  0.00    +0.015 C 
BRANCH   3   4
ATOM      4  C   LIG    1       26.195 -26.075   5.874  0.00  0.00    +0.081 C 
BRANCH   4   5
ATOM      5  N   LIG    1       25.334 -26.798   4.932  0.00  0.00    -0.313 NA
ATOM      6  H   LIG    1       24.390 -26.415   4.950  0.00  0.00    +0.122 HD
BRANCH   5   7
ATOM      7  C   LIG    1       25.295 -28.255   5.150  0.00  0.00    +0.117 C 
BRANCH   7   8
ATOM      8  C   LIG    1       24.212 -28.694   6.181  0.00  0.00    +0.158 C 
BRANCH   8   9
ATOM      9  C   LIG    1       24.829 -29.379   7.391  0.00  0.00    -0.014 A 
ATOM     10  C   LIG    1       25.808 -28.759   8.185  0.00  0.00    +0.055 A 
ATOM     11  C   LIG    1       26.317 -29.412   9.301  0.00  0.00    +0.159 A 
ATOM     12  C   LIG    1       25.874 -30.684   9.649  0.00  0.00    +0.158 A 
ATOM     13  C   LIG    1       24.917 -31.325   8.876  0.00  0.00    +0.049 A 
ATOM     14  C   LIG    1       24.393 -30.671   7.754  0.00  0.00    +0.010 A 
BRANCH  12  15
ATOM     15  O   LIG    1       26.407 -31.259  10.769  0.00  0.00    -0.503 OA
ATOM     16  H   LIG    1       26.756 -30.550  11.336  0.00  0.00    +0.292 HD
ENDBRANCH  12  15
BRANCH  11  17
ATOM     17  O   LIG    1       27.256 -28.783  10.067  0.00  0.00    -0.503 OA
ATOM     18  H   LIG    1       26.788 -28.014  10.447  0.00  0.00    +0.292 HD
ENDBRANCH  11  17
ENDBRANCH   8   9
BRANCH   8  19
ATOM     19  O   LIG    1       23.220 -29.536   5.594  0.00  0.00    -0.386 OA
ATOM     20  H   LIG    1       22.515 -28.962   5.254  0.00  0.00    +0.210 HD
ENDBRANCH   8  19
ENDBRANCH   7   8
ENDBRANCH   5   7
ENDBRANCH   4   5
ENDBRANCH   3   4
ENDBRANCH   2   3
ENDBRANCH   1   2
BRANCH   1  21
ATOM     21  C   LIG    1       24.012 -22.273   6.264  0.00  0.00    +0.015 C 
BRANCH  21  22
ATOM     22  C   LIG    1       24.068 -21.123   7.279  0.00  0.00    +0.081 C 
BRANCH  22  23
ATOM     23  N   LIG    1       25.381 -20.462   7.331  0.00  0.00    -0.313 NA
ATOM     24  H   LIG    1       25.675 -20.372   8.307  0.00  0.00    +0.122 HD
BRANCH  23  25
ATOM     25  C   LIG    1       26.373 -21.288   6.601  0.00  0.00    +0.117 C 
BRANCH  25  26
ATOM     26  C   LIG    1       27.534 -21.788   7.505  0.00  0.00    +0.158 C 
BRANCH  26  30
ATOM     27  C   LIG    1       31.058 -19.248   7.628  0.00  0.00    +0.158 A 
ATOM     28  C   LIG    1       31.000 -20.421   8.392  0.00  0.00    +0.159 A 
ATOM     29  C   LIG    1       29.863 -21.226   8.343  0.00  0.00    +0.055 A 
ATOM     30  C   LIG    1       28.759 -20.885   7.543  0.00  0.00    -0.014 A 
ATOM     31  C   LIG    1       28.855 -19.716   6.759  0.00  0.00    +0.010 A 
ATOM     32  C   LIG    1       29.990 -18.905   6.813  0.00  0.00    +0.049 A 
BRANCH  27  33
ATOM     33  O   LIG    1       32.169 -18.462   7.694  0.00  0.00    -0.503 OA
ATOM     34  H   LIG    1       32.453 -18.245   6.787  0.00  0.00    +0.292 HD
ENDBRANCH  27  33
BRANCH  28  35
ATOM     35  O   LIG    1       32.061 -20.753   9.178  0.00  0.00    -0.503 OA
ATOM     36  H   LIG    1       31.744 -21.332   9.894  0.00  0.00    +0.292 HD
ENDBRANCH  28  35
ENDBRANCH  26  30
BRANCH  26  37
ATOM     37  O   LIG    1       27.045 -21.943   8.846  0.00  0.00    -0.386 OA
ATOM     38  H   LIG    1       26.082 -22.083   8.767  0.00  0.00    +0.210 HD
ENDBRANCH  26  37
ENDBRANCH  25  26
ENDBRANCH  23  25
ENDBRANCH  22  23
ENDBRANCH  21  22
ENDBRANCH   1  21
TORSDOF 19
ENDMDL
MODEL 6
REMARK VINA RESULT:      -7.9      2.244      3.804
REMARK  Name = *****
REMARK                            x       y       z     vdW  Elec       q    Type
REMARK                         _______ _______ _______ _____ _____    ______ ____
ROOT
ATOM      1  C   LIG    1       22.998 -23.284   6.676  0.00  0.00    +0.001 C 
ENDROOT
BRANCH   1   2
ATOM      2  C   LIG    1       23.679 -24.649   6.513  0.00  0.00    +0.001 C 
BRANCH   2   3
ATOM      3  C   LIG    1       25.183 -24.658   6.819  0.00  0.00    +0.015 C 
BRANCH   3   4
ATOM      4  C   LIG    1       25.963 -25.801   6.153  0.00  0.00    +0.081 C 
BRANCH   4   5
ATOM      5  N   LIG    1       25.259 -26.437   5.035  0.00  0.00    -0.313 NA
ATOM      6  H   LIG    1       24.293 -26.113   4.993  0.00  0.00    +0.122 HD
BRANCH   5   7
ATOM      7  C   LIG    1       25.299 -27.910   5.058  0.00  0.00    +0.117 C 
BRANCH   7   8
ATOM      8  C   LIG    1       24.327 -28.535   6.104  0.00  0.00    +0.158 C 
BRANCH   8   9
ATOM      9  C   LIG    1       25.073 -29.339   7.158  0.00  0.00    -0.014 A 
ATOM     10  C   LIG    1       25.257 -30.727   7.051  0.00  0.00    +0.055 A 
ATOM     11  C   LIG    1       25.976 -31.411   8.023  0.00  0.00    +0.159 A 
ATOM     12  C   LIG    1       26.521 -30.742   9.114  0.00  0.00    +0.158 A 
ATOM     13  C   LIG    1       26.345 -29.373   9.251  0.00  0.00    +0.049 A 
ATOM     14  C   LIG    1       25.627 -28.674   8.272  0.00  0.00    +0.010 A 
BRANCH  12  15
ATOM     15  O   LIG    1       27.231 -31.477  10.022  0.00  0.00    -0.503 OA
ATOM     16  H   LIG    1       27.205 -32.409   9.744  0.00  0.00    +0.292 HD
ENDBRANCH  12  15
BRANCH  11  17
ATOM     17  O   LIG    1       26.156 -32.759   7.890  0.00  0.00    -0.503 OA
ATOM     18  H   LIG    1       25.531 -33.154   8.530  0.00  0.00    +0.292 HD
ENDBRANCH  11  17
ENDBRANCH   8   9
BRANCH   8  19
ATOM     19  O   LIG    1       23.324 -29.345   5.489  0.00  0.00    -0.386 OA
ATOM     20  H   LIG    1       22.504 -29.226   5.995  0.00  0.00    +0.210 HD
ENDBRANCH   8  19
ENDBRANCH   7   8
ENDBRANCH   5   7
ENDBRANCH   4   5
ENDBRANCH   3   4
ENDBRANCH   2   3
ENDBRANCH   1   2
BRANCH   1  21
ATOM     21  C   LIG    1       23.993 -22.109   6.736  0.00  0.00    +0.015 C 
BRANCH  21  22
ATOM     22  C   LIG    1       24.537 -21.741   5.350  0.00  0.00    +0.081 C 
BRANCH  22  23
ATOM     23  N   LIG    1       25.896 -21.179   5.392  0.00  0.00    -0.313 NA
ATOM     24  H   LIG    1       25.950 -20.378   4.758  0.00  0.00    +0.122 HD
BRANCH  23  25
ATOM     25  C   LIG    1       26.192 -20.724   6.773  0.00  0.00    +0.117 C 
BRANCH  25  26
ATOM     26  C   LIG    1       27.399 -21.464   7.414  0.00  0.00    +0.158 C 
BRANCH  26  30
ATOM     27  C   LIG    1       31.111 -19.212   7.604  0.00  0.00    +0.158 A 
ATOM     28  C   LIG    1       30.953 -20.387   8.349  0.00  0.00    +0.159 A 
ATOM     29  C   LIG    1       29.758 -21.099   8.279  0.00  0.00    +0.055 A 
ATOM     30  C   LIG    1       28.691 -20.661   7.475  0.00  0.00    -0.014 A 
ATOM     31  C   LIG    1       28.886 -19.493   6.710  0.00  0.00    +0.010 A 
ATOM     32  C   LIG    1       30.081 -18.774   6.785  0.00  0.00    +0.049 A 
BRANCH  27  33
ATOM     33  O   LIG    1       32.280 -18.517   7.690  0.00  0.00    -0.503 OA
ATOM     34  H   LIG    1       32.553 -18.251   6.793  0.00  0.00    +0.292 HD
ENDBRANCH  27  33
BRANCH  28  35
ATOM     35  O   LIG    1       31.978 -20.814   9.138  0.00  0.00    -0.503 OA
ATOM     36  H   LIG    1       32.681 -20.140   9.120  0.00  0.00    +0.292 HD
ENDBRANCH  28  35
ENDBRANCH  26  30
BRANCH  26  37
ATOM     37  O   LIG    1       27.048 -21.857   8.748  0.00  0.00    -0.386 OA
ATOM     38  H   LIG    1       27.779 -22.422   9.064  0.00  0.00    +0.210 HD
ENDBRANCH  26  37
ENDBRANCH  25  26
ENDBRANCH  23  25
ENDBRANCH  22  23
ENDBRANCH  21  22
ENDBRANCH   1  21
TORSDOF 19
ENDMDL
MODEL 7
REMARK VINA RESULT:      -7.9      2.042      3.163
REMARK  Name = *****
REMARK                            x       y       z     vdW  Elec       q    Type
REMARK                         _______ _______ _______ _____ _____    ______ ____
ROOT
ATOM      1  C   LIG    1       25.528 -21.535   7.994  0.00  0.00    +0.001 C 
ENDROOT
BRANCH   1   2
ATOM      2  C   LIG    1       24.191 -21.252   7.296  0.00  0.00    +0.001 C 
BRANCH   2   3
ATOM      3  C   LIG    1       24.291 -21.040   5.779  0.00  0.00    +0.015 C 
BRANCH   3   4
ATOM      4  C   LIG    1       24.718 -22.285   4.988  0.00  0.00    +0.081 C 
BRANCH   4   5
ATOM      5  N   LIG    1       24.251 -23.551   5.561  0.00  0.00    -0.313 NA
ATOM      6  H   LIG    1       24.366 -23.546   6.574  0.00  0.00    +0.122 HD
BRANCH   5   7
ATOM      7  C   LIG    1       24.892 -24.746   4.984  0.00  0.00    +0.117 C 
BRANCH   7   8
ATOM      8  C   LIG    1       25.897 -25.435   5.956  0.00  0.00    +0.158 C 
BRANCH   8   9
ATOM      9  C   LIG    1       25.418 -26.815   6.378  0.00  0.00    -0.014 A 
ATOM     10  C   LIG    1       24.440 -27.521   5.659  0.00  0.00    +0.055 A 
ATOM     11  C   LIG    1       24.060 -28.794   6.064  0.00  0.00    +0.159 A 
ATOM     12  C   LIG    1       24.632 -29.390   7.183  0.00  0.00    +0.158 A 
ATOM     13  C   LIG    1       25.593 -28.711   7.919  0.00  0.00    +0.049 A 
ATOM     14  C   LIG    1       25.987 -27.430   7.514  0.00  0.00    +0.010 A 
BRANCH  12  15
ATOM     15  O   LIG    1       24.222 -30.651   7.513  0.00  0.00    -0.503 OA
ATOM     16  H   LIG    1       23.283 -30.609   7.764  0.00  0.00    +0.292 HD
ENDBRANCH  12  15
BRANCH  11  17
ATOM     17  O   LIG    1       23.117 -29.468   5.340  0.00  0.00    -0.503 OA
ATOM     18  H   LIG    1       23.415 -29.384   4.413  0.00  0.00    +0.292 HD
ENDBRANCH  11  17
ENDBRANCH   8   9
BRANCH   8  19
ATOM     19  O   LIG    1       26.165 -24.635   7.108  0.00  0.00    -0.386 OA
ATOM     20  H   LIG    1       25.311 -24.346   7.467  0.00  0.00    +0.210 HD
ENDBRANCH   8  19
ENDBRANCH   7   8
ENDBRANCH   5   7
ENDBRANCH   4   5
ENDBRANCH   3   4
ENDBRANCH   2   3
ENDBRANCH   1   2
BRANCH   1  21
ATOM     21  C   LIG    1       26.465 -20.312   8.036  0.00  0.00    +0.015 C 
BRANCH  21  22
ATOM     22  C   LIG    1       27.868 -20.641   7.508  0.00  0.00    +0.081 C 
BRANCH  22  23
ATOM     23  N   LIG    1       28.703 -21.352   8.488  0.00  0.00    -0.313 NA
ATOM     24  H   LIG    1       28.528 -22.357   8.413  0.00  0.00    +0.122 HD
BRANCH  23  25
ATOM     25  C   LIG    1       30.132 -21.086   8.195  0.00  0.00    +0.117 C 
BRANCH  25  26
ATOM     26  C   LIG    1       30.385 -19.655   7.643  0.00  0.00    +0.158 C 
BRANCH  26  30
ATOM     27  C   LIG    1       31.488 -16.659  10.592  0.00  0.00    +0.158 A 
ATOM     28  C   LIG    1       32.087 -16.665   9.326  0.00  0.00    +0.159 A 
ATOM     29  C   LIG    1       31.724 -17.631   8.390  0.00  0.00    +0.055 A 
ATOM     30  C   LIG    1       30.767 -18.616   8.689  0.00  0.00    -0.014 A 
ATOM     31  C   LIG    1       30.155 -18.570   9.959  0.00  0.00    +0.010 A 
ATOM     32  C   LIG    1       30.524 -17.607  10.900  0.00  0.00    +0.049 A 
BRANCH  27  33
ATOM     33  O   LIG    1       31.860 -15.718  11.504  0.00  0.00    -0.503 OA
ATOM     34  H   LIG    1       31.094 -15.511  12.070  0.00  0.00    +0.292 HD
ENDBRANCH  27  33
BRANCH  28  35
ATOM     35  O   LIG    1       33.023 -15.721   9.031  0.00  0.00    -0.503 OA
ATOM     36  H   LIG    1       33.732 -15.772   9.697  0.00  0.00    +0.292 HD
ENDBRANCH  28  35
ENDBRANCH  26  30
BRANCH  26  37
ATOM     37  O   LIG    1       31.432 -19.714   6.662  0.00  0.00    -0.386 OA
ATOM     38  H   LIG    1       32.237 -19.986   7.144  0.00  0.00    +0.210 HD
ENDBRANCH  26  37
ENDBRANCH  25  26
ENDBRANCH  23  25
ENDBRANCH  22  23
ENDBRANCH  21  22
ENDBRANCH   1  21
TORSDOF 19
ENDMDL
MODEL 8
REMARK VINA RESULT:      -7.9      2.274      8.782
REMARK  Name = *****
REMARK                            x       y       z     vdW  Elec       q    Type
REMARK                         _______ _______ _______ _____ _____    ______ ____
ROOT
ATOM      1  C   LIG    1       23.590 -23.829   6.502  0.00  0.00    +0.001 C 
ENDROOT
BRANCH   1   2
ATOM      2  C   LIG    1       23.767 -22.537   7.310  0.00  0.00    +0.001 C 
BRANCH   2   3
ATOM      3  C   LIG    1       23.517 -21.245   6.521  0.00  0.00    +0.015 C 
BRANCH   3   4
ATOM      4  C   LIG    1       24.432 -21.055   5.303  0.00  0.00    +0.081 C 
BRANCH   4   5
ATOM      5  N   LIG    1       25.840 -21.385   5.552  0.00  0.00    -0.313 NA
ATOM      6  H   LIG    1       25.912 -22.250   6.085  0.00  0.00    +0.122 HD
BRANCH   5   7
ATOM      7  C   LIG    1       26.599 -20.313   6.220  0.00  0.00    +0.117 C 
BRANCH   7   8
ATOM      8  C   LIG    1       27.978 -20.027   5.552  0.00  0.00    +0.158 C 
BRANCH   8   9
ATOM      9  C   LIG    1       29.124 -20.162   6.543  0.00  0.00    -0.014 A 
ATOM     10  C   LIG    1       30.148 -19.205   6.639  0.00  0.00    +0.055 A 
ATOM     11  C   LIG    1       31.155 -19.354   7.585  0.00  0.00    +0.159 A 
ATOM     12  C   LIG    1       31.172 -20.446   8.446  0.00  0.00    +0.158 A 
ATOM     13  C   LIG    1       30.179 -21.412   8.366  0.00  0.00    +0.049 A 
ATOM     14  C   LIG    1       29.156 -21.266   7.420  0.00  0.00    +0.010 A 
BRANCH  12  15
ATOM     15  O   LIG    1       32.183 -20.519   9.362  0.00  0.00    -0.503 OA
ATOM     16  H   LIG    1       32.520 -21.431   9.370  0.00  0.00    +0.292 HD
ENDBRANCH  12  15
BRANCH  11  17
ATOM     17  O   LIG    1       32.132 -18.403   7.669  0.00  0.00    -0.503 OA
ATOM     18  H   LIG    1       32.461 -18.471   8.587  0.00  0.00    +0.292 HD
ENDBRANCH  11  17
ENDBRANCH   8   9
BRANCH   8  19
ATOM     19  O   LIG    1       28.017 -18.744   4.927  0.00  0.00    -0.386 OA
ATOM     20  H   LIG    1       27.114 -18.389   4.935  0.00  0.00    +0.210 HD
ENDBRANCH   8  19
ENDBRANCH   7   8
ENDBRANCH   5   7
ENDBRANCH   4   5
ENDBRANCH   3   4
ENDBRANCH   2   3
ENDBRANCH   1   2
BRANCH   1  21
ATOM     21  C   LIG    1       24.879 -24.668   6.401  0.00  0.00    +0.015 C 
BRANCH  21  22
ATOM     22  C   LIG    1       25.117 -25.194   4.980  0.00  0.00    +0.081 C 
BRANCH  22  23
ATOM     23  N   LIG    1       25.399 -26.637   4.937  0.00  0.00    -0.313 NA
ATOM     24  H   LIG    1       26.317 -26.813   5.353  0.00  0.00    +0.122 HD
BRANCH  23  25
ATOM     25  C   LIG    1       24.366 -27.359   5.720  0.00  0.00    +0.117 C 
BRANCH  25  26
ATOM     26  C   LIG    1       24.487 -28.904   5.610  0.00  0.00    +0.158 C 
BRANCH  26  30
ATOM     27  C   LIG    1       26.333 -30.822   9.045  0.00  0.00    +0.158 A 
ATOM     28  C   LIG    1       26.056 -29.450   9.061  0.00  0.00    +0.159 A 
ATOM     29  C   LIG    1       25.463 -28.847   7.952  0.00  0.00    +0.055 A 
ATOM     30  C   LIG    1       25.140 -29.589   6.803  0.00  0.00    -0.014 A 
ATOM     31  C   LIG    1       25.400 -30.975   6.823  0.00  0.00    +0.010 A 
ATOM     32  C   LIG    1       25.999 -31.578   7.931  0.00  0.00    +0.049 A 
BRANCH  27  33
ATOM     33  O   LIG    1       26.924 -31.398  10.129  0.00  0.00    -0.503 OA
ATOM     34  H   LIG    1       26.749 -30.845  10.913  0.00  0.00    +0.292 HD
ENDBRANCH  27  33
BRANCH  28  35
ATOM     35  O   LIG    1       26.376 -28.722  10.166  0.00  0.00    -0.503 OA
ATOM     36  H   LIG    1       25.572 -28.614  10.707  0.00  0.00    +0.292 HD
ENDBRANCH  28  35
ENDBRANCH  26  30
BRANCH  26  37
ATOM     37  O   LIG    1       23.176 -29.461   5.432  0.00  0.00    -0.386 OA
ATOM     38  H   LIG    1       23.312 -30.385   5.146  0.00  0.00    +0.210 HD
ENDBRANCH  26  37
ENDBRANCH  25  26
ENDBRANCH  23  25
ENDBRANCH  22  23
ENDBRANCH  21  22
ENDBRANCH   1  21
TORSDOF 19
ENDMDL
MODEL 9
REMARK VINA RESULT:      -7.9      2.190      9.704
REMARK  Name = *****
REMARK                            x       y       z     vdW  Elec       q    Type
REMARK                         _______ _______ _______ _____ _____    ______ ____
ROOT
ATOM      1  C   LIG    1       23.625 -20.721   7.367  0.00  0.00    +0.001 C 
ENDROOT
BRANCH   1   2
ATOM      2  C   LIG    1       25.099 -20.732   7.792  0.00  0.00    +0.001 C 
BRANCH   2   3
ATOM      3  C   LIG    1       26.096 -20.441   6.661  0.00  0.00    +0.015 C 
BRANCH   3   4
ATOM      4  C   LIG    1       27.548 -20.828   6.977  0.00  0.00    +0.081 C 
BRANCH   4   5
ATOM      5  N   LIG    1       28.270 -19.841   7.787  0.00  0.00    -0.313 NA
ATOM      6  H   LIG    1       27.648 -19.080   8.056  0.00  0.00    +0.122 HD
BRANCH   5   7
ATOM      7  C   LIG    1       29.480 -19.302   7.142  0.00  0.00    +0.117 C 
BRANCH   7   8
ATOM      8  C   LIG    1       30.790 -19.625   7.923  0.00  0.00    +0.158 C 
BRANCH   8   9
ATOM      9  C   LIG    1       31.112 -18.550   8.951  0.00  0.00    -0.014 A 
ATOM     10  C   LIG    1       31.966 -17.473   8.666  0.00  0.00    +0.055 A 
ATOM     11  C   LIG    1       32.203 -16.497   9.627  0.00  0.00    +0.159 A 
ATOM     12  C   LIG    1       31.607 -16.570  10.881  0.00  0.00    +0.158 A 
ATOM     13  C   LIG    1       30.768 -17.630  11.194  0.00  0.00    +0.049 A 
ATOM     14  C   LIG    1       30.519 -18.613  10.229  0.00  0.00    +0.010 A 
BRANCH  12  15
ATOM     15  O   LIG    1       31.872 -15.567  11.771  0.00  0.00    -0.503 OA
ATOM     16  H   LIG    1       31.089 -15.447  12.335  0.00  0.00    +0.292 HD
ENDBRANCH  12  15
BRANCH  11  17
ATOM     17  O   LIG    1       33.025 -15.450   9.322  0.00  0.00    -0.503 OA
ATOM     18  H   LIG    1       33.844 -15.869   8.993  0.00  0.00    +0.292 HD
ENDBRANCH  11  17
ENDBRANCH   8   9
BRANCH   8  19
ATOM     19  O   LIG    1       31.903 -19.818   7.050  0.00  0.00    -0.386 OA
ATOM     20  H   LIG    1       32.414 -18.993   7.042  0.00  0.00    +0.210 HD
ENDBRANCH   8  19
ENDBRANCH   7   8
ENDBRANCH   5   7
ENDBRANCH   4   5
ENDBRANCH   3   4
ENDBRANCH   2   3
ENDBRANCH   1   2
BRANCH   1  21
ATOM     21  C   LIG    1       22.922 -22.078   7.568  0.00  0.00    +0.015 C 
BRANCH  21  22
ATOM     22  C   LIG    1       22.949 -22.937   6.296  0.00  0.00    +0.081 C 
BRANCH  22  23
ATOM     23  N   LIG    1       23.394 -24.318   6.541  0.00  0.00    -0.313 NA
ATOM     24  H   LIG    1       23.052 -24.920   5.788  0.00  0.00    +0.122 HD
BRANCH  23  25
ATOM     25  C   LIG    1       24.877 -24.357   6.557  0.00  0.00    +0.117 C 
BRANCH  25  26
ATOM     26  C   LIG    1       25.465 -25.531   5.725  0.00  0.00    +0.158 C 
BRANCH  26  30
ATOM     27  C   LIG    1       24.732 -29.509   7.314  0.00  0.00    +0.158 A 
ATOM     28  C   LIG    1       24.093 -29.082   6.143  0.00  0.00    +0.159 A 
ATOM     29  C   LIG    1       24.338 -27.804   5.644  0.00  0.00    +0.055 A 
ATOM     30  C   LIG    1       25.213 -26.919   6.297  0.00  0.00    -0.014 A 
ATOM     31  C   LIG    1       25.868 -27.383   7.457  0.00  0.00    +0.010 A 
ATOM     32  C   LIG    1       25.618 -28.661   7.961  0.00  0.00    +0.049 A 
BRANCH  27  33
ATOM     33  O   LIG    1       24.476 -30.755   7.799  0.00  0.00    -0.503 OA
ATOM     34  H   LIG    1       24.930 -30.858   8.656  0.00  0.00    +0.292 HD
ENDBRANCH  27  33
BRANCH  28  35
ATOM     35  O   LIG    1       23.236 -29.929   5.509  0.00  0.00    -0.503 OA
ATOM     36  H   LIG    1       22.448 -29.424   5.239  0.00  0.00    +0.292 HD
ENDBRANCH  28  35
ENDBRANCH  26  30
BRANCH  26  37
ATOM     37  O   LIG    1       24.916 -25.482   4.400  0.00  0.00    -0.386 OA
ATOM     38  H   LIG    1       24.018 -25.861   4.467  0.00  0.00    +0.210 HD
ENDBRANCH  26  37
ENDBRANCH  25  26
ENDBRANCH  23  25
ENDBRANCH  22  23
ENDBRANCH  21  22
ENDBRANCH   1  21
TORSDOF 19
ENDMDL
