MODEL 1
REMARK VINA RESULT:      -4.0      0.000      0.000
REMARK  Name = *****
REMARK                            x       y       z     vdW  Elec       q    Type
REMARK                         _______ _______ _______ _____ _____    ______ ____
ROOT
ATOM      1  C   LIG    1       25.561 -16.845   3.570  0.00  0.00    +0.009 A 
ATOM      2  C   LIG    1       24.184 -17.042   3.757  0.00  0.00    +0.033 A 
ATOM      3  C   LIG    1       23.638 -18.336   3.813  0.00  0.00    +0.094 A 
ATOM      4  C   LIG    1       24.469 -19.455   3.673  0.00  0.00    +0.138 A 
ATOM      5  C   LIG    1       25.847 -19.259   3.526  0.00  0.00    +0.048 A 
ATOM      6  C   LIG    1       26.386 -17.971   3.487  0.00  0.00    +0.014 A 
ENDROOT
BRANCH   1  11
ATOM      7  C   LIG    1       25.965 -12.124   2.251  0.00  0.00    +0.067 C 
ATOM      8  C   LIG    1       26.421 -13.367   2.929  0.00  0.00    +0.060 A 
ATOM      9  C   LIG    1       27.568 -13.539   3.686  0.00  0.00    +0.119 A 
ATOM     10  S   LIG    1       27.635 -15.145   4.276  0.00  0.00    -0.060 S 
ATOM     11  C   LIG    1       26.163 -15.510   3.473  0.00  0.00    +0.109 A 
ATOM     12  N   LIG    1       25.609 -14.490   2.849  0.00  0.00    -0.243 NA
BRANCH   9  13
ATOM     13  C   LIG    1       28.621 -12.595   3.968  0.00  0.00    +0.345 C 
ATOM     14  O   LIG    1       28.788 -12.008   5.027  0.00  0.00    -0.244 OA
BRANCH  13  15
ATOM     15  O   LIG    1       29.474 -12.441   2.921  0.00  0.00    -0.477 OA
ATOM     16  H   LIG    1       29.292 -13.074   2.199  0.00  0.00    +0.295 HD
ENDBRANCH  13  15
ENDBRANCH   9  13
ENDBRANCH   1  11
BRANCH   3  17
ATOM     17  C   LIG    1       22.219 -18.457   4.031  0.00  0.00    +0.103 C 
ATOM     18  N   LIG    1       21.070 -18.571   4.122  0.00  0.00    -0.191 NA
ENDBRANCH   3  17
BRANCH   4  19
ATOM     19  O   LIG    1       23.872 -20.690   3.680  0.00  0.00    -0.490 OA
BRANCH  19  20
ATOM     20  C   LIG    1       24.228 -21.572   4.751  0.00  0.00    +0.232 C 
BRANCH  20  21
ATOM     21  C   LIG    1       24.152 -20.824   6.085  0.00  0.00    +0.020 C 
ATOM     22  C   LIG    1       25.518 -20.815   6.771  0.00  0.00    +0.010 C 
ATOM     23  C   LIG    1       23.098 -21.458   6.996  0.00  0.00    +0.010 C 
ENDBRANCH  20  21
ENDBRANCH  19  20
ENDBRANCH   4  19
TORSDOF 7
ENDMDL
MODEL 2
REMARK VINA RESULT:      -3.0      2.001      2.671
REMARK  Name = *****
REMARK                            x       y       z     vdW  Elec       q    Type
REMARK                         _______ _______ _______ _____ _____    ______ ____
ROOT
ATOM      1  C   LIG    1       26.492 -17.278   3.910  0.00  0.00    +0.009 A 
ATOM      2  C   LIG    1       27.229 -18.137   4.740  0.00  0.00    +0.033 A 
ATOM      3  C   LIG    1       26.844 -19.476   4.921  0.00  0.00    +0.094 A 
ATOM      4  C   LIG    1       25.704 -19.972   4.276  0.00  0.00    +0.138 A 
ATOM      5  C   LIG    1       24.992 -19.126   3.418  0.00  0.00    +0.048 A 
ATOM      6  C   LIG    1       25.389 -17.800   3.229  0.00  0.00    +0.014 A 
ENDROOT
BRANCH   1  11
ATOM      7  C   LIG    1       26.126 -12.692   2.169  0.00  0.00    +0.067 C 
ATOM      8  C   LIG    1       26.747 -13.764   2.992  0.00  0.00    +0.060 A 
ATOM      9  C   LIG    1       27.840 -13.652   3.834  0.00  0.00    +0.119 A 
ATOM     10  S   LIG    1       28.153 -15.161   4.580  0.00  0.00    -0.060 S 
ATOM     11  C   LIG    1       26.843 -15.865   3.723  0.00  0.00    +0.109 A 
ATOM     12  N   LIG    1       26.165 -15.024   2.969  0.00  0.00    -0.243 NA
BRANCH   9  13
ATOM     13  C   LIG    1       28.676 -12.504   4.091  0.00  0.00    +0.345 C 
ATOM     14  O   LIG    1       29.263 -11.846   3.244  0.00  0.00    -0.244 OA
BRANCH  13  15
ATOM     15  O   LIG    1       28.720 -12.178   5.410  0.00  0.00    -0.477 OA
ATOM     16  H   LIG    1       28.049 -12.659   5.933  0.00  0.00    +0.295 HD
ENDBRANCH  13  15
ENDBRANCH   9  13
ENDBRANCH   1  11
BRANCH   3  17
ATOM     17  C   LIG    1       27.665 -20.302   5.770  0.00  0.00    +0.103 C 
ATOM     18  N   LIG    1       28.286 -20.928   6.519  0.00  0.00    -0.191 NA
ENDBRANCH   3  17
BRANCH   4  19
ATOM     19  O   LIG    1       25.345 -21.270   4.535  0.00  0.00    -0.490 OA
BRANCH  19  20
ATOM     20  C   LIG    1       23.944 -21.568   4.512  0.00  0.00    +0.232 C 
BRANCH  20  21
ATOM     21  C   LIG    1       23.328 -21.269   5.881  0.00  0.00    +0.020 C 
ATOM     22  C   LIG    1       22.712 -19.869   5.896  0.00  0.00    +0.010 C 
ATOM     23  C   LIG    1       24.379 -21.403   6.984  0.00  0.00    +0.010 C 
ENDBRANCH  20  21
ENDBRANCH  19  20
ENDBRANCH   4  19
TORSDOF 7
ENDMDL
MODEL 3
REMARK VINA RESULT:      -1.5      2.327      7.574
REMARK  Name = *****
REMARK                            x       y       z     vdW  Elec       q    Type
REMARK                         _______ _______ _______ _____ _____    ______ ____
ROOT
ATOM      1  C   LIG    1       25.189 -16.725   3.658  0.00  0.00    +0.009 A 
ATOM      2  C   LIG    1       24.461 -15.525   3.696  0.00  0.00    +0.033 A 
ATOM      3  C   LIG    1       25.083 -14.292   3.437  0.00  0.00    +0.094 A 
ATOM      4  C   LIG    1       26.452 -14.244   3.143  0.00  0.00    +0.138 A 
ATOM      5  C   LIG    1       27.169 -15.444   3.068  0.00  0.00    +0.048 A 
ATOM      6  C   LIG    1       26.542 -16.668   3.310  0.00  0.00    +0.014 A 
ENDROOT
BRANCH   1  11
ATOM      7  C   LIG    1       24.994 -21.572   4.473  0.00  0.00    +0.067 C 
ATOM      8  C   LIG    1       24.403 -20.212   4.346  0.00  0.00    +0.060 A 
ATOM      9  C   LIG    1       23.078 -19.850   4.520  0.00  0.00    +0.119 A 
ATOM     10  S   LIG    1       22.904 -18.162   4.293  0.00  0.00    -0.060 S 
ATOM     11  C   LIG    1       24.582 -18.028   3.956  0.00  0.00    +0.109 A 
ATOM     12  N   LIG    1       25.256 -19.154   4.063  0.00  0.00    -0.243 NA
BRANCH   9  13
ATOM     13  C   LIG    1       21.939 -20.686   4.814  0.00  0.00    +0.345 C 
ATOM     14  O   LIG    1       20.870 -20.668   4.222  0.00  0.00    -0.244 OA
BRANCH  13  15
ATOM     15  O   LIG    1       22.185 -21.564   5.822  0.00  0.00    -0.477 OA
ATOM     16  H   LIG    1       21.594 -22.342   5.787  0.00  0.00    +0.295 HD
ENDBRANCH  13  15
ENDBRANCH   9  13
ENDBRANCH   1  11
BRANCH   3  17
ATOM     17  C   LIG    1       24.264 -13.106   3.472  0.00  0.00    +0.103 C 
ATOM     18  N   LIG    1       23.674 -12.111   3.473  0.00  0.00    -0.191 NA
ENDBRANCH   3  17
BRANCH   4  19
ATOM     19  O   LIG    1       27.015 -13.007   2.955  0.00  0.00    -0.490 OA
BRANCH  19  20
ATOM     20  C   LIG    1       28.294 -12.784   3.560  0.00  0.00    +0.232 C 
BRANCH  20  21
ATOM     21  C   LIG    1       28.110 -12.232   4.976  0.00  0.00    +0.020 C 
ATOM     22  C   LIG    1       29.437 -11.704   5.521  0.00  0.00    +0.010 C 
ATOM     23  C   LIG    1       27.541 -13.309   5.902  0.00  0.00    +0.010 C 
ENDBRANCH  20  21
ENDBRANCH  19  20
ENDBRANCH   4  19
TORSDOF 7
ENDMDL
