MODEL 1
REMARK VINA RESULT:      -6.8      0.000      0.000
REMARK  Name = *****
REMARK                            x       y       z     vdW  Elec       q    Type
REMARK                         _______ _______ _______ _____ _____    ______ ____
ROOT
ATOM      1  C   LIG    1       28.180 -19.966   6.072  0.00  0.00    +0.113 C 
ENDROOT
BRANCH   1   2
ATOM      2  C   LIG    1       29.441 -19.149   6.400  0.00  0.00    +0.233 C 
BRANCH   2   3
ATOM      3  N   LIG    1       29.780 -19.164   7.820  0.00  0.00    -0.233 N 
ATOM      4  H   LIG    1       28.988 -19.054   8.462  0.00  0.00    +0.291 HD
BRANCH   3   5
ATOM      5  C   LIG    1       30.995 -19.389   8.410  0.00  0.00    +0.326 C 
ATOM      6  C   LIG    1       31.709 -18.452   9.094  0.00  0.00    +0.474 C 
BRANCH   5   8
ATOM      7  C   LIG    1       31.131 -21.817   9.104  0.00  0.00    +0.273 C 
ATOM      8  N   LIG    1       31.526 -20.671   8.315  0.00  0.00    -0.236 N 
ATOM      9  H   LIG    1       31.590 -20.919   7.326  0.00  0.00    +0.291 HD
ENDBRANCH   5   8
BRANCH   6  10
ATOM     10  N   LIG    1       31.352 -17.063   9.208  0.00  0.00    +0.080 N 
ATOM     11  O   LIG    1       32.231 -16.251   8.852  0.00  0.00    -0.576 OA
ATOM     12  O   LIG    1       30.232 -16.756   9.601  0.00  0.00    +0.041 OA
ENDBRANCH   6  10
ENDBRANCH   3   5
ENDBRANCH   2   3
ENDBRANCH   1   2
BRANCH   1  13
ATOM     13  S   LIG    1       27.613 -21.061   7.435  0.00  0.00    -0.151 S 
BRANCH  13  14
ATOM     14  C   LIG    1       25.857 -20.593   7.509  0.00  0.00    +0.125 C 
BRANCH  14  15
ATOM     15  C   LIG    1       24.969 -21.727   7.122  0.00  0.00    +0.059 A 
ATOM     16  N   LIG    1       25.534 -22.809   6.473  0.00  0.00    -0.247 NA
ATOM     17  C   LIG    1       24.625 -23.719   6.182  0.00  0.00    +0.092 A 
ATOM     18  S   LIG    1       23.043 -23.350   6.752  0.00  0.00    -0.079 S 
ATOM     19  C   LIG    1       23.608 -21.836   7.327  0.00  0.00    +0.071 A 
BRANCH  17  20
ATOM     20  C   LIG    1       24.866 -24.970   5.356  0.00  0.00    +0.146 C 
BRANCH  20  21
ATOM     21  N   LIG    1       25.219 -26.209   6.090  0.00  0.00    -0.302 NA
ATOM     22  C   LIG    1       26.635 -26.530   5.962  0.00  0.00    +0.105 C 
ATOM     23  C   LIG    1       24.369 -27.341   5.726  0.00  0.00    +0.105 C 
ENDBRANCH  20  21
ENDBRANCH  17  20
ENDBRANCH  14  15
ENDBRANCH  13  14
ENDBRANCH   1  13
TORSDOF 10
ENDMDL
MODEL 2
REMARK VINA RESULT:      -6.7      2.018      3.419
REMARK  Name = *****
REMARK                            x       y       z     vdW  Elec       q    Type
REMARK                         _______ _______ _______ _____ _____    ______ ____
ROOT
ATOM      1  C   LIG    1       29.323 -20.215   6.406  0.00  0.00    +0.113 C 
ENDROOT
BRANCH   1   2
ATOM      2  C   LIG    1       30.256 -19.007   6.593  0.00  0.00    +0.233 C 
BRANCH   2   3
ATOM      3  N   LIG    1       31.444 -19.318   7.383  0.00  0.00    -0.233 N 
ATOM      4  H   LIG    1       32.325 -19.348   6.857  0.00  0.00    +0.291 HD
BRANCH   3   5
ATOM      5  C   LIG    1       31.554 -19.492   8.736  0.00  0.00    +0.326 C 
ATOM      6  C   LIG    1       31.375 -18.507   9.661  0.00  0.00    +0.474 C 
BRANCH   5   8
ATOM      7  C   LIG    1       30.958 -21.906   9.195  0.00  0.00    +0.273 C 
ATOM      8  N   LIG    1       31.853 -20.770   9.196  0.00  0.00    -0.236 N 
ATOM      9  H   LIG    1       32.771 -21.034   8.833  0.00  0.00    +0.291 HD
ENDBRANCH   5   8
BRANCH   6  10
ATOM     10  N   LIG    1       31.154 -17.119   9.356  0.00  0.00    +0.080 N 
ATOM     11  O   LIG    1       32.086 -16.544   8.758  0.00  0.00    -0.576 OA
ATOM     12  O   LIG    1       30.085 -16.596   9.655  0.00  0.00    +0.041 OA
ENDBRANCH   6  10
ENDBRANCH   3   5
ENDBRANCH   2   3
ENDBRANCH   1   2
BRANCH   1  13
ATOM     13  S   LIG    1       27.889 -20.247   7.556  0.00  0.00    -0.151 S 
BRANCH  13  14
ATOM     14  C   LIG    1       27.420 -22.000   7.429  0.00  0.00    +0.125 C 
BRANCH  14  15
ATOM     15  C   LIG    1       25.978 -22.160   7.088  0.00  0.00    +0.059 A 
ATOM     16  N   LIG    1       25.315 -21.086   6.524  0.00  0.00    -0.247 NA
ATOM     17  C   LIG    1       24.048 -21.373   6.296  0.00  0.00    +0.092 A 
ATOM     18  S   LIG    1       23.607 -22.994   6.676  0.00  0.00    -0.079 S 
ATOM     19  C   LIG    1       25.188 -23.278   7.275  0.00  0.00    +0.071 A 
BRANCH  17  20
ATOM     20  C   LIG    1       22.997 -20.391   5.809  0.00  0.00    +0.146 C 
BRANCH  20  21
ATOM     21  N   LIG    1       23.402 -19.431   4.756  0.00  0.00    -0.302 NA
ATOM     22  C   LIG    1       22.306 -18.548   4.375  0.00  0.00    +0.105 C 
ATOM     23  C   LIG    1       24.002 -20.087   3.595  0.00  0.00    +0.105 C 
ENDBRANCH  20  21
ENDBRANCH  17  20
ENDBRANCH  14  15
ENDBRANCH  13  14
ENDBRANCH   1  13
TORSDOF 10
ENDMDL
MODEL 3
REMARK VINA RESULT:      -6.5      1.917      2.396
REMARK  Name = *****
REMARK                            x       y       z     vdW  Elec       q    Type
REMARK                         _______ _______ _______ _____ _____    ______ ____
ROOT
ATOM      1  C   LIG    1       28.083 -20.208   6.167  0.00  0.00    +0.113 C 
ENDROOT
BRANCH   1   2
ATOM      2  C   LIG    1       29.399 -19.415   6.250  0.00  0.00    +0.233 C 
BRANCH   2   3
ATOM      3  N   LIG    1       30.391 -20.041   7.119  0.00  0.00    -0.233 N 
ATOM      4  H   LIG    1       30.691 -20.981   6.837  0.00  0.00    +0.291 HD
BRANCH   3   5
ATOM      5  C   LIG    1       31.033 -19.515   8.208  0.00  0.00    +0.326 C 
ATOM      6  C   LIG    1       31.560 -20.250   9.226  0.00  0.00    +0.474 C 
BRANCH   5   8
ATOM      7  C   LIG    1       31.992 -17.394   9.196  0.00  0.00    +0.273 C 
ATOM      8  N   LIG    1       31.168 -18.132   8.265  0.00  0.00    -0.236 N 
ATOM      9  H   LIG    1       31.299 -17.783   7.313  0.00  0.00    +0.291 HD
ENDBRANCH   5   8
BRANCH   6  10
ATOM     10  N   LIG    1       31.428 -21.675   9.371  0.00  0.00    +0.080 N 
ATOM     11  O   LIG    1       32.175 -22.361   8.642  0.00  0.00    -0.576 OA
ATOM     12  O   LIG    1       30.645 -22.130  10.197  0.00  0.00    +0.041 OA
ENDBRANCH   6  10
ENDBRANCH   3   5
ENDBRANCH   2   3
ENDBRANCH   1   2
BRANCH   1  13
ATOM     13  S   LIG    1       27.639 -21.098   7.713  0.00  0.00    -0.151 S 
BRANCH  13  14
ATOM     14  C   LIG    1       25.881 -20.648   7.844  0.00  0.00    +0.125 C 
BRANCH  14  15
ATOM     15  C   LIG    1       24.996 -21.733   7.332  0.00  0.00    +0.059 A 
ATOM     16  N   LIG    1       25.584 -22.815   6.702  0.00  0.00    -0.247 NA
ATOM     17  C   LIG    1       24.676 -23.679   6.291  0.00  0.00    +0.092 A 
ATOM     18  S   LIG    1       23.059 -23.268   6.719  0.00  0.00    -0.079 S 
ATOM     19  C   LIG    1       23.618 -21.797   7.401  0.00  0.00    +0.071 A 
BRANCH  17  20
ATOM     20  C   LIG    1       24.952 -24.911   5.448  0.00  0.00    +0.146 C 
BRANCH  20  21
ATOM     21  N   LIG    1       25.318 -26.155   6.165  0.00  0.00    -0.302 NA
ATOM     22  C   LIG    1       26.667 -26.596   5.833  0.00  0.00    +0.105 C 
ATOM     23  C   LIG    1       24.336 -27.222   5.981  0.00  0.00    +0.105 C 
ENDBRANCH  20  21
ENDBRANCH  17  20
ENDBRANCH  14  15
ENDBRANCH  13  14
ENDBRANCH   1  13
TORSDOF 10
ENDMDL
MODEL 4
REMARK VINA RESULT:      -6.3      1.378      1.876
REMARK  Name = *****
REMARK                            x       y       z     vdW  Elec       q    Type
REMARK                         _______ _______ _______ _____ _____    ______ ____
ROOT
ATOM      1  C   LIG    1       28.128 -20.181   8.041  0.00  0.00    +0.113 C 
ENDROOT
BRANCH   1   2
ATOM      2  C   LIG    1       29.271 -21.202   7.909  0.00  0.00    +0.233 C 
BRANCH   2   3
ATOM      3  N   LIG    1       30.579 -20.578   7.732  0.00  0.00    -0.233 N 
ATOM      4  H   LIG    1       31.384 -21.207   7.833  0.00  0.00    +0.291 HD
BRANCH   3   5
ATOM      5  C   LIG    1       30.874 -19.291   7.369  0.00  0.00    +0.326 C 
ATOM      6  C   LIG    1       31.357 -18.339   8.215  0.00  0.00    +0.474 C 
BRANCH   5   8
ATOM      7  C   LIG    1       29.493 -18.329   5.481  0.00  0.00    +0.273 C 
ATOM      8  N   LIG    1       30.680 -18.941   6.037  0.00  0.00    -0.236 N 
ATOM      9  H   LIG    1       31.521 -18.464   5.705  0.00  0.00    +0.291 HD
ENDBRANCH   5   8
BRANCH   6  10
ATOM     10  N   LIG    1       31.526 -18.504   9.634  0.00  0.00    +0.080 N 
ATOM     11  O   LIG    1       32.511 -17.919  10.130  0.00  0.00    -0.576 OA
ATOM     12  O   LIG    1       30.706 -19.157  10.269  0.00  0.00    +0.041 OA
ENDBRANCH   6  10
ENDBRANCH   3   5
ENDBRANCH   2   3
ENDBRANCH   1   2
BRANCH   1  13
ATOM     13  S   LIG    1       26.641 -20.579   7.037  0.00  0.00    -0.151 S 
BRANCH  13  14
ATOM     14  C   LIG    1       25.700 -21.566   8.241  0.00  0.00    +0.125 C 
BRANCH  14  15
ATOM     15  C   LIG    1       24.683 -22.426   7.572  0.00  0.00    +0.059 A 
ATOM     16  N   LIG    1       25.071 -23.678   7.131  0.00  0.00    -0.247 NA
ATOM     17  C   LIG    1       24.072 -24.310   6.548  0.00  0.00    +0.092 A 
ATOM     18  S   LIG    1       22.578 -23.454   6.574  0.00  0.00    -0.079 S 
ATOM     19  C   LIG    1       23.360 -22.122   7.319  0.00  0.00    +0.071 A 
BRANCH  17  20
ATOM     20  C   LIG    1       24.174 -25.645   5.832  0.00  0.00    +0.146 C 
BRANCH  20  21
ATOM     21  N   LIG    1       25.098 -26.653   6.404  0.00  0.00    -0.302 NA
ATOM     22  C   LIG    1       26.414 -26.598   5.778  0.00  0.00    +0.105 C 
ATOM     23  C   LIG    1       24.542 -28.004   6.384  0.00  0.00    +0.105 C 
ENDBRANCH  20  21
ENDBRANCH  17  20
ENDBRANCH  14  15
ENDBRANCH  13  14
ENDBRANCH   1  13
TORSDOF 10
ENDMDL
MODEL 5
REMARK VINA RESULT:      -6.2      2.539      3.888
REMARK  Name = *****
REMARK                            x       y       z     vdW  Elec       q    Type
REMARK                         _______ _______ _______ _____ _____    ______ ____
ROOT
ATOM      1  C   LIG    1       25.706 -21.871   8.121  0.00  0.00    +0.113 C 
ENDROOT
BRANCH   1   2
ATOM      2  C   LIG    1       26.731 -20.727   8.193  0.00  0.00    +0.233 C 
BRANCH   2   3
ATOM      3  N   LIG    1       28.059 -21.118   7.728  0.00  0.00    -0.233 N 
ATOM      4  H   LIG    1       28.274 -22.118   7.805  0.00  0.00    +0.291 HD
BRANCH   3   5
ATOM      5  C   LIG    1       29.020 -20.348   7.129  0.00  0.00    +0.326 C 
ATOM      6  C   LIG    1       30.313 -20.258   7.548  0.00  0.00    +0.474 C 
BRANCH   5   8
ATOM      7  C   LIG    1       29.231 -18.371   5.566  0.00  0.00    +0.273 C 
ATOM      8  N   LIG    1       28.648 -19.620   6.003  0.00  0.00    -0.236 N 
ATOM      9  H   LIG    1       28.554 -20.268   5.219  0.00  0.00    +0.291 HD
ENDBRANCH   5   8
BRANCH   6  10
ATOM     10  N   LIG    1       30.838 -20.867   8.740  0.00  0.00    +0.080 N 
ATOM     11  O   LIG    1       31.879 -20.349   9.196  0.00  0.00    -0.576 OA
ATOM     12  O   LIG    1       30.241 -21.807   9.253  0.00  0.00    +0.041 OA
ENDBRANCH   6  10
ENDBRANCH   3   5
ENDBRANCH   2   3
ENDBRANCH   1   2
BRANCH   1  13
ATOM     13  S   LIG    1       25.284 -22.401   6.412  0.00  0.00    -0.151 S 
BRANCH  13  14
ATOM     14  C   LIG    1       24.198 -23.815   6.777  0.00  0.00    +0.125 C 
BRANCH  14  15
ATOM     15  C   LIG    1       24.791 -25.099   6.305  0.00  0.00    +0.059 A 
ATOM     16  N   LIG    1       23.956 -26.192   6.161  0.00  0.00    -0.247 NA
ATOM     17  C   LIG    1       24.624 -27.253   5.755  0.00  0.00    +0.092 A 
ATOM     18  S   LIG    1       26.294 -26.965   5.445  0.00  0.00    -0.079 S 
ATOM     19  C   LIG    1       26.112 -25.350   5.991  0.00  0.00    +0.071 A 
BRANCH  17  20
ATOM     20  C   LIG    1       24.054 -28.653   5.620  0.00  0.00    +0.146 C 
BRANCH  20  21
ATOM     21  N   LIG    1       24.678 -29.722   6.435  0.00  0.00    -0.302 NA
ATOM     22  C   LIG    1       24.089 -31.027   6.163  0.00  0.00    +0.105 C 
ATOM     23  C   LIG    1       24.679 -29.412   7.864  0.00  0.00    +0.105 C 
ENDBRANCH  20  21
ENDBRANCH  17  20
ENDBRANCH  14  15
ENDBRANCH  13  14
ENDBRANCH   1  13
TORSDOF 10
ENDMDL
MODEL 6
REMARK VINA RESULT:      -6.1      3.621      8.726
REMARK  Name = *****
REMARK                            x       y       z     vdW  Elec       q    Type
REMARK                         _______ _______ _______ _____ _____    ______ ____
ROOT
ATOM      1  C   LIG    1       26.397 -21.283   8.078  0.00  0.00    +0.113 C 
ENDROOT
BRANCH   1   2
ATOM      2  C   LIG    1       25.508 -20.610   7.017  0.00  0.00    +0.233 C 
BRANCH   2   3
ATOM      3  N   LIG    1       25.637 -21.216   5.695  0.00  0.00    -0.233 N 
ATOM      4  H   LIG    1       26.592 -21.251   5.320  0.00  0.00    +0.291 HD
BRANCH   3   5
ATOM      5  C   LIG    1       24.675 -21.816   4.928  0.00  0.00    +0.326 C 
ATOM      6  C   LIG    1       23.679 -21.153   4.277  0.00  0.00    +0.474 C 
BRANCH   5   8
ATOM      7  C   LIG    1       24.911 -24.152   5.868  0.00  0.00    +0.273 C 
ATOM      8  N   LIG    1       24.733 -23.199   4.795  0.00  0.00    -0.236 N 
ATOM      9  H   LIG    1       23.976 -23.493   4.174  0.00  0.00    +0.291 HD
ENDBRANCH   5   8
BRANCH   6  10
ATOM     10  N   LIG    1       23.420 -19.742   4.383  0.00  0.00    +0.080 N 
ATOM     11  O   LIG    1       24.226 -19.001   3.784  0.00  0.00    -0.576 OA
ATOM     12  O   LIG    1       22.436 -19.352   5.002  0.00  0.00    +0.041 OA
ENDBRANCH   6  10
ENDBRANCH   3   5
ENDBRANCH   2   3
ENDBRANCH   1   2
BRANCH   1  13
ATOM     13  S   LIG    1       28.152 -21.489   7.573  0.00  0.00    -0.151 S 
BRANCH  13  14
ATOM     14  C   LIG    1       28.510 -19.807   6.978  0.00  0.00    +0.125 C 
BRANCH  14  15
ATOM     15  C   LIG    1       29.675 -19.209   7.691  0.00  0.00    +0.059 A 
ATOM     16  N   LIG    1       29.453 -18.593   8.908  0.00  0.00    -0.247 NA
ATOM     17  C   LIG    1       30.569 -18.099   9.405  0.00  0.00    +0.092 A 
ATOM     18  S   LIG    1       31.972 -18.426   8.461  0.00  0.00    -0.079 S 
ATOM     19  C   LIG    1       30.992 -19.181   7.274  0.00  0.00    +0.071 A 
BRANCH  17  20
ATOM     20  C   LIG    1       30.674 -17.246  10.656  0.00  0.00    +0.146 C 
BRANCH  20  21
ATOM     21  N   LIG    1       32.035 -16.945  11.160  0.00  0.00    -0.302 NA
ATOM     22  C   LIG    1       32.063 -16.831  12.613  0.00  0.00    +0.105 C 
ATOM     23  C   LIG    1       32.632 -15.779  10.511  0.00  0.00    +0.105 C 
ENDBRANCH  20  21
ENDBRANCH  17  20
ENDBRANCH  14  15
ENDBRANCH  13  14
ENDBRANCH   1  13
TORSDOF 10
ENDMDL
MODEL 7
REMARK VINA RESULT:      -6.0      3.918      8.606
REMARK  Name = *****
REMARK                            x       y       z     vdW  Elec       q    Type
REMARK                         _______ _______ _______ _____ _____    ______ ____
ROOT
ATOM      1  C   LIG    1       25.562 -20.908   5.332  0.00  0.00    +0.113 C 
ENDROOT
BRANCH   1   2
ATOM      2  C   LIG    1       24.578 -21.995   4.867  0.00  0.00    +0.233 C 
BRANCH   2   3
ATOM      3  N   LIG    1       24.941 -23.331   5.330  0.00  0.00    -0.233 N 
ATOM      4  H   LIG    1       25.935 -23.571   5.244  0.00  0.00    +0.291 HD
BRANCH   3   5
ATOM      5  C   LIG    1       24.153 -24.272   5.937  0.00  0.00    +0.326 C 
ATOM      6  C   LIG    1       24.513 -25.571   6.138  0.00  0.00    +0.474 C 
BRANCH   5   8
ATOM      7  C   LIG    1       22.636 -22.714   7.228  0.00  0.00    +0.273 C 
ATOM      8  N   LIG    1       22.904 -23.864   6.393  0.00  0.00    -0.236 N 
ATOM      9  H   LIG    1       22.249 -23.901   5.610  0.00  0.00    +0.291 HD
ENDBRANCH   5   8
BRANCH   6  10
ATOM     10  N   LIG    1       25.722 -26.178   5.650  0.00  0.00    +0.080 N 
ATOM     11  O   LIG    1       25.851 -26.197   4.409  0.00  0.00    -0.576 OA
ATOM     12  O   LIG    1       26.554 -26.597   6.448  0.00  0.00    +0.041 OA
ENDBRANCH   6  10
ENDBRANCH   3   5
ENDBRANCH   2   3
ENDBRANCH   1   2
BRANCH   1  13
ATOM     13  S   LIG    1       25.743 -20.784   7.157  0.00  0.00    -0.151 S 
BRANCH  13  14
ATOM     14  C   LIG    1       27.346 -21.616   7.374  0.00  0.00    +0.125 C 
BRANCH  14  15
ATOM     15  C   LIG    1       28.483 -20.659   7.250  0.00  0.00    +0.059 A 
ATOM     16  N   LIG    1       29.299 -20.464   8.349  0.00  0.00    -0.247 NA
ATOM     17  C   LIG    1       30.244 -19.582   8.091  0.00  0.00    +0.092 A 
ATOM     18  S   LIG    1       30.247 -18.996   6.472  0.00  0.00    -0.079 S 
ATOM     19  C   LIG    1       28.834 -19.909   6.144  0.00  0.00    +0.071 A 
BRANCH  17  20
ATOM     20  C   LIG    1       31.232 -19.029   9.104  0.00  0.00    +0.146 C 
BRANCH  20  21
ATOM     21  N   LIG    1       31.065 -17.614   9.511  0.00  0.00    -0.302 NA
ATOM     22  C   LIG    1       32.327 -16.885   9.469  0.00  0.00    +0.105 C 
ATOM     23  C   LIG    1       30.399 -17.475  10.805  0.00  0.00    +0.105 C 
ENDBRANCH  20  21
ENDBRANCH  17  20
ENDBRANCH  14  15
ENDBRANCH  13  14
ENDBRANCH   1  13
TORSDOF 10
ENDMDL
MODEL 8
REMARK VINA RESULT:      -6.0      3.882      6.181
REMARK  Name = *****
REMARK                            x       y       z     vdW  Elec       q    Type
REMARK                         _______ _______ _______ _____ _____    ______ ____
ROOT
ATOM      1  C   LIG    1       23.626 -24.229   6.687  0.00  0.00    +0.113 C 
ENDROOT
BRANCH   1   2
ATOM      2  C   LIG    1       23.072 -22.795   6.731  0.00  0.00    +0.233 C 
BRANCH   2   3
ATOM      3  N   LIG    1       24.013 -21.834   7.301  0.00  0.00    -0.233 N 
ATOM      4  H   LIG    1       24.115 -21.872   8.321  0.00  0.00    +0.291 HD
BRANCH   3   5
ATOM      5  C   LIG    1       24.835 -20.951   6.654  0.00  0.00    +0.326 C 
ATOM      6  C   LIG    1       26.028 -20.507   7.137  0.00  0.00    +0.474 C 
BRANCH   5   8
ATOM      7  C   LIG    1       25.290 -20.140   4.302  0.00  0.00    +0.273 C 
ATOM      8  N   LIG    1       24.425 -20.490   5.407  0.00  0.00    -0.236 N 
ATOM      9  H   LIG    1       23.651 -21.075   5.088  0.00  0.00    +0.291 HD
ENDBRANCH   5   8
BRANCH   6  10
ATOM     10  N   LIG    1       26.555 -20.810   8.442  0.00  0.00    +0.080 N 
ATOM     11  O   LIG    1       27.693 -21.321   8.457  0.00  0.00    -0.576 OA
ATOM     12  O   LIG    1       25.900 -20.527   9.439  0.00  0.00    +0.041 OA
ENDBRANCH   6  10
ENDBRANCH   3   5
ENDBRANCH   2   3
ENDBRANCH   1   2
BRANCH   1  13
ATOM     13  S   LIG    1       25.064 -24.449   5.563  0.00  0.00    -0.151 S 
BRANCH  13  14
ATOM     14  C   LIG    1       26.003 -25.700   6.491  0.00  0.00    +0.125 C 
BRANCH  14  15
ATOM     15  C   LIG    1       25.379 -27.050   6.381  0.00  0.00    +0.059 A 
ATOM     16  N   LIG    1       25.447 -27.894   7.475  0.00  0.00    -0.247 NA
ATOM     17  C   LIG    1       24.869 -29.051   7.220  0.00  0.00    +0.092 A 
ATOM     18  S   LIG    1       24.137 -29.154   5.665  0.00  0.00    -0.079 S 
ATOM     19  C   LIG    1       24.728 -27.589   5.289  0.00  0.00    +0.071 A 
BRANCH  17  20
ATOM     20  C   LIG    1       24.873 -30.258   8.142  0.00  0.00    +0.146 C 
BRANCH  20  21
ATOM     21  N   LIG    1       23.557 -30.795   8.563  0.00  0.00    -0.302 NA
ATOM     22  C   LIG    1       23.164 -30.300   9.877  0.00  0.00    +0.105 C 
ATOM     23  C   LIG    1       23.493 -32.253   8.488  0.00  0.00    +0.105 C 
ENDBRANCH  20  21
ENDBRANCH  17  20
ENDBRANCH  14  15
ENDBRANCH  13  14
ENDBRANCH   1  13
TORSDOF 10
ENDMDL
MODEL 9
REMARK VINA RESULT:      -6.0      3.772      6.067
REMARK  Name = *****
REMARK                            x       y       z     vdW  Elec       q    Type
REMARK                         _______ _______ _______ _____ _____    ______ ____
ROOT
ATOM      1  C   LIG    1       24.087 -24.027   6.468  0.00  0.00    +0.113 C 
ENDROOT
BRANCH   1   2
ATOM      2  C   LIG    1       24.192 -22.533   6.114  0.00  0.00    +0.233 C 
BRANCH   2   3
ATOM      3  N   LIG    1       25.542 -22.128   5.733  0.00  0.00    -0.233 N 
ATOM      4  H   LIG    1       26.127 -22.871   5.336  0.00  0.00    +0.291 HD
BRANCH   3   5
ATOM      5  C   LIG    1       26.103 -20.880   5.758  0.00  0.00    +0.326 C 
ATOM      6  C   LIG    1       26.585 -20.269   6.876  0.00  0.00    +0.474 C 
BRANCH   5   8
ATOM      7  C   LIG    1       25.107 -19.577   3.832  0.00  0.00    +0.273 C 
ATOM      8  N   LIG    1       26.199 -20.197   4.550  0.00  0.00    -0.236 N 
ATOM      9  H   LIG    1       27.001 -19.566   4.602  0.00  0.00    +0.291 HD
ENDBRANCH   5   8
BRANCH   6  10
ATOM     10  N   LIG    1       26.480 -20.791   8.212  0.00  0.00    +0.080 N 
ATOM     11  O   LIG    1       25.376 -20.627   8.769  0.00  0.00    -0.576 OA
ATOM     12  O   LIG    1       27.434 -21.382   8.707  0.00  0.00    +0.041 OA
ENDBRANCH   6  10
ENDBRANCH   3   5
ENDBRANCH   2   3
ENDBRANCH   1   2
BRANCH   1  13
ATOM     13  S   LIG    1       25.703 -24.900   6.543  0.00  0.00    -0.151 S 
BRANCH  13  14
ATOM     14  C   LIG    1       25.465 -26.122   5.216  0.00  0.00    +0.125 C 
BRANCH  14  15
ATOM     15  C   LIG    1       25.132 -27.469   5.762  0.00  0.00    +0.059 A 
ATOM     16  N   LIG    1       25.431 -27.732   7.086  0.00  0.00    -0.247 NA
ATOM     17  C   LIG    1       25.096 -28.963   7.416  0.00  0.00    +0.092 A 
ATOM     18  S   LIG    1       24.322 -29.850   6.159  0.00  0.00    -0.079 S 
ATOM     19  C   LIG    1       24.553 -28.528   5.091  0.00  0.00    +0.071 A 
BRANCH  17  20
ATOM     20  C   LIG    1       25.400 -29.631   8.745  0.00  0.00    +0.146 C 
BRANCH  20  21
ATOM     21  N   LIG    1       26.732 -29.379   9.342  0.00  0.00    -0.302 NA
ATOM     22  C   LIG    1       27.317 -30.593   9.899  0.00  0.00    +0.105 C 
ATOM     23  C   LIG    1       26.717 -28.287  10.314  0.00  0.00    +0.105 C 
ENDBRANCH  20  21
ENDBRANCH  17  20
ENDBRANCH  14  15
ENDBRANCH  13  14
ENDBRANCH   1  13
TORSDOF 10
ENDMDL
