MODEL 1
REMARK VINA RESULT:      -8.5      0.000      0.000
REMARK  Name = *****
REMARK                            x       y       z     vdW  Elec       q    Type
REMARK                         _______ _______ _______ _____ _____    ______ ____
ROOT
ATOM      1  C   LIG    1       27.131 -21.377   7.260  0.00  0.00    +0.110 A 
ATOM      2  S   LIG    1       25.593 -20.606   7.353  0.00  0.00    -0.067 S 
ATOM      3  C   LIG    1       24.803 -22.103   7.053  0.00  0.00    +0.043 A 
ATOM      4  C   LIG    1       25.768 -23.098   6.902  0.00  0.00    +0.079 A 
ATOM      5  C   LIG    1       25.347 -24.419   6.645  0.00  0.00    +0.032 A 
ATOM      6  C   LIG    1       23.982 -24.710   6.548  0.00  0.00    +0.047 A 
ATOM      7  C   LIG    1       23.048 -23.695   6.704  0.00  0.00    +0.118 A 
ATOM      8  C   LIG    1       23.431 -22.378   6.958  0.00  0.00    +0.062 A 
ATOM      9  N   LIG    1       27.079 -22.673   7.022  0.00  0.00    -0.239 NA
ENDROOT
BRANCH   1  14
ATOM     10  C   LIG    1       30.876 -19.271   7.858  0.00  0.00    +0.063 A 
ATOM     11  C   LIG    1       30.629 -20.545   8.392  0.00  0.00    +0.145 A 
ATOM     12  F   LIG    1       31.579 -21.141   9.132  0.00  0.00    -0.203 F 
ATOM     13  C   LIG    1       29.419 -21.210   8.202  0.00  0.00    +0.050 A 
ATOM     14  C   LIG    1       28.397 -20.632   7.436  0.00  0.00    +0.010 A 
ATOM     15  C   LIG    1       28.648 -19.371   6.870  0.00  0.00    +0.012 A 
ATOM     16  C   LIG    1       29.871 -18.710   7.069  0.00  0.00    +0.026 A 
BRANCH  10  18
ATOM     17  C   LIG    1       32.288 -17.555   8.915  0.00  0.00    +0.125 C 
ATOM     18  N   LIG    1       32.142 -18.689   8.023  0.00  0.00    -0.345 N 
ATOM     19  H   LIG    1       32.850 -19.411   8.168  0.00  0.00    +0.146 HD
ENDBRANCH  10  18
ENDBRANCH   1  14
BRANCH   7  20
ATOM     20  O   LIG    1       21.710 -23.948   6.614  0.00  0.00    -0.507 OA
ATOM     21  H   LIG    1       21.346 -24.038   7.510  0.00  0.00    +0.292 HD
ENDBRANCH   7  20
TORSDOF 3
ENDMDL
MODEL 2
REMARK VINA RESULT:      -8.1      5.718      7.385
REMARK  Name = *****
REMARK                            x       y       z     vdW  Elec       q    Type
REMARK                         _______ _______ _______ _____ _____    ______ ____
ROOT
ATOM      1  C   LIG    1       24.289 -23.292   5.729  0.00  0.00    +0.110 A 
ATOM      2  S   LIG    1       23.063 -22.454   6.602  0.00  0.00    -0.067 S 
ATOM      3  C   LIG    1       23.227 -21.094   5.565  0.00  0.00    +0.043 A 
ATOM      4  C   LIG    1       24.209 -21.369   4.615  0.00  0.00    +0.079 A 
ATOM      5  C   LIG    1       24.517 -20.386   3.651  0.00  0.00    +0.032 A 
ATOM      6  C   LIG    1       23.838 -19.162   3.660  0.00  0.00    +0.047 A 
ATOM      7  C   LIG    1       22.865 -18.923   4.620  0.00  0.00    +0.118 A 
ATOM      8  C   LIG    1       22.537 -19.872   5.587  0.00  0.00    +0.062 A 
ATOM      9  N   LIG    1       24.801 -22.615   4.719  0.00  0.00    -0.239 NA
ENDROOT
BRANCH   1  14
ATOM     10  C   LIG    1       25.456 -27.344   6.749  0.00  0.00    +0.063 A 
ATOM     11  C   LIG    1       24.394 -27.057   5.878  0.00  0.00    +0.145 A 
ATOM     12  F   LIG    1       23.694 -28.071   5.343  0.00  0.00    -0.203 F 
ATOM     13  C   LIG    1       24.020 -25.752   5.564  0.00  0.00    +0.050 A 
ATOM     14  C   LIG    1       24.721 -24.660   6.094  0.00  0.00    +0.010 A 
ATOM     15  C   LIG    1       25.807 -24.937   6.940  0.00  0.00    +0.012 A 
ATOM     16  C   LIG    1       26.174 -26.257   7.251  0.00  0.00    +0.026 A 
BRANCH  10  18
ATOM     17  C   LIG    1       25.109 -29.463   7.950  0.00  0.00    +0.125 C 
ATOM     18  N   LIG    1       25.829 -28.679   6.965  0.00  0.00    -0.345 N 
ATOM     19  H   LIG    1       25.951 -29.163   6.074  0.00  0.00    +0.146 HD
ENDBRANCH  10  18
ENDBRANCH   1  14
BRANCH   7  20
ATOM     20  O   LIG    1       22.186 -17.739   4.655  0.00  0.00    -0.507 OA
ATOM     21  H   LIG    1       21.314 -17.863   4.244  0.00  0.00    +0.292 HD
ENDBRANCH   7  20
TORSDOF 3
ENDMDL
MODEL 3
REMARK VINA RESULT:      -7.7      4.301      7.403
REMARK  Name = *****
REMARK                            x       y       z     vdW  Elec       q    Type
REMARK                         _______ _______ _______ _____ _____    ______ ____
ROOT
ATOM      1  C   LIG    1       26.980 -20.549   6.769  0.00  0.00    +0.110 A 
ATOM      2  S   LIG    1       27.394 -21.757   7.924  0.00  0.00    -0.067 S 
ATOM      3  C   LIG    1       29.007 -21.168   7.992  0.00  0.00    +0.043 A 
ATOM      4  C   LIG    1       29.125 -20.083   7.126  0.00  0.00    +0.079 A 
ATOM      5  C   LIG    1       30.373 -19.434   7.014  0.00  0.00    +0.032 A 
ATOM      6  C   LIG    1       31.463 -19.884   7.769  0.00  0.00    +0.047 A 
ATOM      7  C   LIG    1       31.309 -20.967   8.622  0.00  0.00    +0.118 A 
ATOM      8  C   LIG    1       30.090 -21.631   8.755  0.00  0.00    +0.062 A 
ATOM      9  N   LIG    1       27.972 -19.744   6.441  0.00  0.00    -0.239 NA
ENDROOT
BRANCH   1  14
ATOM     10  C   LIG    1       23.035 -20.174   5.004  0.00  0.00    +0.063 A 
ATOM     11  C   LIG    1       24.215 -19.983   4.270  0.00  0.00    +0.145 A 
ATOM     12  F   LIG    1       24.132 -19.658   2.969  0.00  0.00    -0.203 F 
ATOM     13  C   LIG    1       25.479 -20.097   4.848  0.00  0.00    +0.050 A 
ATOM     14  C   LIG    1       25.618 -20.437   6.200  0.00  0.00    +0.010 A 
ATOM     15  C   LIG    1       24.443 -20.663   6.935  0.00  0.00    +0.012 A 
ATOM     16  C   LIG    1       23.175 -20.545   6.343  0.00  0.00    +0.026 A 
BRANCH  10  18
ATOM     17  C   LIG    1       21.272 -18.830   3.935  0.00  0.00    +0.125 C 
ATOM     18  N   LIG    1       21.797 -20.119   4.345  0.00  0.00    -0.345 N 
ATOM     19  H   LIG    1       21.754 -20.826   3.610  0.00  0.00    +0.146 HD
ENDBRANCH  10  18
ENDBRANCH   1  14
BRANCH   7  20
ATOM     20  O   LIG    1       32.353 -21.428   9.370  0.00  0.00    -0.507 OA
ATOM     21  H   LIG    1       32.913 -21.996   8.814  0.00  0.00    +0.292 HD
ENDBRANCH   7  20
TORSDOF 3
ENDMDL
MODEL 4
REMARK VINA RESULT:      -7.7      1.132      1.634
REMARK  Name = *****
REMARK                            x       y       z     vdW  Elec       q    Type
REMARK                         _______ _______ _______ _____ _____    ______ ____
ROOT
ATOM      1  C   LIG    1       26.931 -20.876   6.962  0.00  0.00    +0.110 A 
ATOM      2  S   LIG    1       26.569 -22.464   7.523  0.00  0.00    -0.067 S 
ATOM      3  C   LIG    1       24.965 -22.332   6.921  0.00  0.00    +0.043 A 
ATOM      4  C   LIG    1       24.809 -21.081   6.328  0.00  0.00    +0.079 A 
ATOM      5  C   LIG    1       23.562 -20.747   5.761  0.00  0.00    +0.032 A 
ATOM      6  C   LIG    1       22.508 -21.669   5.801  0.00  0.00    +0.047 A 
ATOM      7  C   LIG    1       22.699 -22.906   6.399  0.00  0.00    +0.118 A 
ATOM      8  C   LIG    1       23.919 -23.267   6.969  0.00  0.00    +0.062 A 
ATOM      9  N   LIG    1       25.929 -20.269   6.358  0.00  0.00    -0.239 NA
ENDROOT
BRANCH   1  14
ATOM     10  C   LIG    1       30.850 -19.133   7.612  0.00  0.00    +0.063 A 
ATOM     11  C   LIG    1       30.385 -20.242   8.334  0.00  0.00    +0.145 A 
ATOM     12  F   LIG    1       31.170 -20.786   9.277  0.00  0.00    -0.203 F 
ATOM     13  C   LIG    1       29.120 -20.790   8.125  0.00  0.00    +0.050 A 
ATOM     14  C   LIG    1       28.263 -20.259   7.150  0.00  0.00    +0.010 A 
ATOM     15  C   LIG    1       28.733 -19.170   6.399  0.00  0.00    +0.012 A 
ATOM     16  C   LIG    1       30.009 -18.625   6.619  0.00  0.00    +0.026 A 
BRANCH  10  18
ATOM     17  C   LIG    1       32.397 -17.617   8.779  0.00  0.00    +0.125 C 
ATOM     18  N   LIG    1       32.161 -18.677   7.818  0.00  0.00    -0.345 N 
ATOM     19  H   LIG    1       32.800 -19.467   7.923  0.00  0.00    +0.146 HD
ENDBRANCH  10  18
ENDBRANCH   1  14
BRANCH   7  20
ATOM     20  O   LIG    1       21.691 -23.825   6.453  0.00  0.00    -0.507 OA
ATOM     21  H   LIG    1       21.811 -24.467   5.734  0.00  0.00    +0.292 HD
ENDBRANCH   7  20
TORSDOF 3
ENDMDL
MODEL 5
REMARK VINA RESULT:      -7.6      3.960      7.567
REMARK  Name = *****
REMARK                            x       y       z     vdW  Elec       q    Type
REMARK                         _______ _______ _______ _____ _____    ______ ____
ROOT
ATOM      1  C   LIG    1       28.249 -20.114   7.450  0.00  0.00    +0.110 A 
ATOM      2  S   LIG    1       29.665 -19.828   6.510  0.00  0.00    -0.067 S 
ATOM      3  C   LIG    1       30.310 -18.828   7.749  0.00  0.00    +0.043 A 
ATOM      4  C   LIG    1       29.401 -18.778   8.805  0.00  0.00    +0.079 A 
ATOM      5  C   LIG    1       29.721 -18.008   9.942  0.00  0.00    +0.032 A 
ATOM      6  C   LIG    1       30.935 -17.314   9.996  0.00  0.00    +0.047 A 
ATOM      7  C   LIG    1       31.817 -17.387   8.927  0.00  0.00    +0.118 A 
ATOM      8  C   LIG    1       31.531 -18.138   7.788  0.00  0.00    +0.062 A 
ATOM      9  N   LIG    1       28.241 -19.510   8.622  0.00  0.00    -0.239 NA
ENDROOT
BRANCH   1  14
ATOM     10  C   LIG    1       25.060 -22.718   6.084  0.00  0.00    +0.063 A 
ATOM     11  C   LIG    1       26.035 -23.132   7.005  0.00  0.00    +0.145 A 
ATOM     12  F   LIG    1       25.997 -24.388   7.480  0.00  0.00    -0.203 F 
ATOM     13  C   LIG    1       27.062 -22.291   7.431  0.00  0.00    +0.050 A 
ATOM     14  C   LIG    1       27.144 -20.971   6.967  0.00  0.00    +0.010 A 
ATOM     15  C   LIG    1       26.153 -20.537   6.071  0.00  0.00    +0.012 A 
ATOM     16  C   LIG    1       25.123 -21.394   5.648  0.00  0.00    +0.026 A 
BRANCH  10  18
ATOM     17  C   LIG    1       22.887 -23.718   6.663  0.00  0.00    +0.125 C 
ATOM     18  N   LIG    1       24.011 -23.590   5.755  0.00  0.00    -0.345 N 
ATOM     19  H   LIG    1       23.731 -23.458   4.782  0.00  0.00    +0.146 HD
ENDBRANCH  10  18
ENDBRANCH   1  14
BRANCH   7  20
ATOM     20  O   LIG    1       33.009 -16.721   8.950  0.00  0.00    -0.507 OA
ATOM     21  H   LIG    1       33.666 -17.267   9.411  0.00  0.00    +0.292 HD
ENDBRANCH   7  20
TORSDOF 3
ENDMDL
MODEL 6
REMARK VINA RESULT:      -7.5      1.601      1.875
REMARK  Name = *****
REMARK                            x       y       z     vdW  Elec       q    Type
REMARK                         _______ _______ _______ _____ _____    ______ ____
ROOT
ATOM      1  C   LIG    1       26.614 -20.454   6.307  0.00  0.00    +0.110 A 
ATOM      2  S   LIG    1       25.791 -19.952   4.879  0.00  0.00    -0.067 S 
ATOM      3  C   LIG    1       24.390 -20.825   5.356  0.00  0.00    +0.043 A 
ATOM      4  C   LIG    1       24.641 -21.444   6.579  0.00  0.00    +0.079 A 
ATOM      5  C   LIG    1       23.624 -22.224   7.169  0.00  0.00    +0.032 A 
ATOM      6  C   LIG    1       22.389 -22.362   6.525  0.00  0.00    +0.047 A 
ATOM      7  C   LIG    1       22.172 -21.730   5.308  0.00  0.00    +0.118 A 
ATOM      8  C   LIG    1       23.157 -20.954   4.698  0.00  0.00    +0.062 A 
ATOM      9  N   LIG    1       25.902 -21.226   7.105  0.00  0.00    -0.239 NA
ENDROOT
BRANCH   1  14
ATOM     10  C   LIG    1       30.687 -19.310   7.266  0.00  0.00    +0.063 A 
ATOM     11  C   LIG    1       29.979 -20.276   7.996  0.00  0.00    +0.145 A 
ATOM     12  F   LIG    1       30.572 -20.869   9.045  0.00  0.00    -0.203 F 
ATOM     13  C   LIG    1       28.667 -20.631   7.686  0.00  0.00    +0.050 A 
ATOM     14  C   LIG    1       28.005 -20.043   6.599  0.00  0.00    +0.010 A 
ATOM     15  C   LIG    1       28.717 -19.099   5.842  0.00  0.00    +0.012 A 
ATOM     16  C   LIG    1       30.039 -18.748   6.164  0.00  0.00    +0.026 A 
BRANCH  10  18
ATOM     17  C   LIG    1       32.339 -18.069   8.603  0.00  0.00    +0.125 C 
ATOM     18  N   LIG    1       32.029 -19.054   7.583  0.00  0.00    -0.345 N 
ATOM     19  H   LIG    1       32.541 -19.930   7.698  0.00  0.00    +0.146 HD
ENDBRANCH  10  18
ENDBRANCH   1  14
BRANCH   7  20
ATOM     20  O   LIG    1       20.979 -21.846   4.656  0.00  0.00    -0.507 OA
ATOM     21  H   LIG    1       20.621 -22.737   4.809  0.00  0.00    +0.292 HD
ENDBRANCH   7  20
TORSDOF 3
ENDMDL
MODEL 7
REMARK VINA RESULT:      -7.4      4.165      7.782
REMARK  Name = *****
REMARK                            x       y       z     vdW  Elec       q    Type
REMARK                         _______ _______ _______ _____ _____    ______ ____
ROOT
ATOM      1  C   LIG    1       28.439 -19.964   7.692  0.00  0.00    +0.110 A 
ATOM      2  S   LIG    1       29.846 -19.639   6.753  0.00  0.00    -0.067 S 
ATOM      3  C   LIG    1       30.435 -18.576   7.967  0.00  0.00    +0.043 A 
ATOM      4  C   LIG    1       29.518 -18.539   9.016  0.00  0.00    +0.079 A 
ATOM      5  C   LIG    1       29.794 -17.724  10.134  0.00  0.00    +0.032 A 
ATOM      6  C   LIG    1       30.974 -16.972  10.174  0.00  0.00    +0.047 A 
ATOM      7  C   LIG    1       31.866 -17.033   9.113  0.00  0.00    +0.118 A 
ATOM      8  C   LIG    1       31.623 -17.828   7.993  0.00  0.00    +0.062 A 
ATOM      9  N   LIG    1       28.395 -19.329   8.847  0.00  0.00    -0.239 NA
ENDROOT
BRANCH   1  14
ATOM     10  C   LIG    1       25.280 -22.573   6.269  0.00  0.00    +0.063 A 
ATOM     11  C   LIG    1       25.494 -21.288   5.748  0.00  0.00    +0.145 A 
ATOM     12  F   LIG    1       24.685 -20.831   4.779  0.00  0.00    -0.203 F 
ATOM     13  C   LIG    1       26.506 -20.453   6.219  0.00  0.00    +0.050 A 
ATOM     14  C   LIG    1       27.378 -20.885   7.227  0.00  0.00    +0.010 A 
ATOM     15  C   LIG    1       27.193 -22.182   7.731  0.00  0.00    +0.012 A 
ATOM     16  C   LIG    1       26.168 -23.015   7.251  0.00  0.00    +0.026 A 
BRANCH  10  18
ATOM     17  C   LIG    1       23.683 -24.431   6.507  0.00  0.00    +0.125 C 
ATOM     18  N   LIG    1       24.292 -23.391   5.700  0.00  0.00    -0.345 N 
ATOM     19  H   LIG    1       23.611 -22.825   5.190  0.00  0.00    +0.146 HD
ENDBRANCH  10  18
ENDBRANCH   1  14
BRANCH   7  20
ATOM     20  O   LIG    1       33.025 -16.312   9.124  0.00  0.00    -0.507 OA
ATOM     21  H   LIG    1       32.821 -15.385   8.916  0.00  0.00    +0.292 HD
ENDBRANCH   7  20
TORSDOF 3
ENDMDL
MODEL 8
REMARK VINA RESULT:      -7.4      4.122      7.495
REMARK  Name = *****
REMARK                            x       y       z     vdW  Elec       q    Type
REMARK                         _______ _______ _______ _____ _____    ______ ____
ROOT
ATOM      1  C   LIG    1       26.938 -20.751   6.611  0.00  0.00    +0.110 A 
ATOM      2  S   LIG    1       27.508 -21.691   7.937  0.00  0.00    -0.067 S 
ATOM      3  C   LIG    1       29.031 -20.898   7.870  0.00  0.00    +0.043 A 
ATOM      4  C   LIG    1       29.005 -19.962   6.838  0.00  0.00    +0.079 A 
ATOM      5  C   LIG    1       30.157 -19.186   6.594  0.00  0.00    +0.032 A 
ATOM      6  C   LIG    1       31.298 -19.363   7.385  0.00  0.00    +0.047 A 
ATOM      7  C   LIG    1       31.289 -20.303   8.406  0.00  0.00    +0.118 A 
ATOM      8  C   LIG    1       30.167 -21.087   8.672  0.00  0.00    +0.062 A 
ATOM      9  N   LIG    1       27.816 -19.890   6.135  0.00  0.00    -0.239 NA
ENDROOT
BRANCH   1  14
ATOM     10  C   LIG    1       22.913 -21.297   5.088  0.00  0.00    +0.063 A 
ATOM     11  C   LIG    1       23.352 -21.869   6.291  0.00  0.00    +0.145 A 
ATOM     12  F   LIG    1       22.505 -22.631   7.003  0.00  0.00    -0.203 F 
ATOM     13  C   LIG    1       24.651 -21.696   6.768  0.00  0.00    +0.050 A 
ATOM     14  C   LIG    1       25.572 -20.908   6.064  0.00  0.00    +0.010 A 
ATOM     15  C   LIG    1       25.131 -20.304   4.876  0.00  0.00    +0.012 A 
ATOM     16  C   LIG    1       23.821 -20.486   4.404  0.00  0.00    +0.026 A 
BRANCH  10  18
ATOM     17  C   LIG    1       20.860 -20.307   4.159  0.00  0.00    +0.125 C 
ATOM     18  N   LIG    1       21.572 -21.448   4.703  0.00  0.00    -0.345 N 
ATOM     19  H   LIG    1       21.454 -22.299   4.151  0.00  0.00    +0.146 HD
ENDBRANCH  10  18
ENDBRANCH   1  14
BRANCH   7  20
ATOM     20  O   LIG    1       32.386 -20.499   9.194  0.00  0.00    -0.507 OA
ATOM     21  H   LIG    1       32.378 -21.413   9.523  0.00  0.00    +0.292 HD
ENDBRANCH   7  20
TORSDOF 3
ENDMDL
MODEL 9
REMARK VINA RESULT:      -7.0      1.509      2.197
REMARK  Name = *****
REMARK                            x       y       z     vdW  Elec       q    Type
REMARK                         _______ _______ _______ _____ _____    ______ ____
ROOT
ATOM      1  C   LIG    1       27.001 -21.107   7.403  0.00  0.00    +0.110 A 
ATOM      2  S   LIG    1       26.500 -22.712   7.783  0.00  0.00    -0.067 S 
ATOM      3  C   LIG    1       24.956 -22.415   7.091  0.00  0.00    +0.043 A 
ATOM      4  C   LIG    1       24.922 -21.107   6.612  0.00  0.00    +0.079 A 
ATOM      5  C   LIG    1       23.742 -20.637   5.998  0.00  0.00    +0.032 A 
ATOM      6  C   LIG    1       22.633 -21.484   5.878  0.00  0.00    +0.047 A 
ATOM      7  C   LIG    1       22.702 -22.781   6.366  0.00  0.00    +0.118 A 
ATOM      8  C   LIG    1       23.853 -23.276   6.979  0.00  0.00    +0.062 A 
ATOM      9  N   LIG    1       26.084 -20.380   6.795  0.00  0.00    -0.239 NA
ENDROOT
BRANCH   1  14
ATOM     10  C   LIG    1       30.929 -19.525   8.341  0.00  0.00    +0.063 A 
ATOM     11  C   LIG    1       29.863 -18.712   7.931  0.00  0.00    +0.145 A 
ATOM     12  F   LIG    1       30.057 -17.388   7.807  0.00  0.00    -0.203 F 
ATOM     13  C   LIG    1       28.606 -19.230   7.623  0.00  0.00    +0.050 A 
ATOM     14  C   LIG    1       28.351 -20.604   7.738  0.00  0.00    +0.010 A 
ATOM     15  C   LIG    1       29.404 -21.422   8.180  0.00  0.00    +0.012 A 
ATOM     16  C   LIG    1       30.666 -20.888   8.487  0.00  0.00    +0.026 A 
BRANCH  10  18
ATOM     17  C   LIG    1       32.140 -17.841   9.665  0.00  0.00    +0.125 C 
ATOM     18  N   LIG    1       32.146 -18.932   8.708  0.00  0.00    -0.345 N 
ATOM     19  H   LIG    1       32.844 -19.648   8.916  0.00  0.00    +0.146 HD
ENDBRANCH  10  18
ENDBRANCH   1  14
BRANCH   7  20
ATOM     20  O   LIG    1       21.638 -23.630   6.264  0.00  0.00    -0.507 OA
ATOM     21  H   LIG    1       21.679 -24.274   6.990  0.00  0.00    +0.292 HD
ENDBRANCH   7  20
TORSDOF 3
ENDMDL
