MODEL 1
REMARK VINA RESULT:      -4.5      0.000      0.000
REMARK  Name = *****
REMARK                            x       y       z     vdW  Elec       q    Type
REMARK                         _______ _______ _______ _____ _____    ______ ____
ROOT
ATOM      1  C   LIG    1       23.022 -16.537   5.200  0.00  0.00    -0.000 C 
ATOM      2  C   LIG    1       22.466 -17.654   4.673  0.00  0.00    -0.066 C 
ATOM      3  C   LIG    1       22.241 -18.943   5.457  0.00  0.00    +0.021 C 
ATOM      4  C   LIG    1       22.763 -19.078   6.899  0.00  0.00    +0.009 C 
ATOM      5  C   LIG    1       23.217 -20.521   7.058  0.00  0.00    +0.005 C 
ATOM      6  C   LIG    1       23.716 -20.959   5.673  0.00  0.00    -0.002 C 
ATOM      7  C   LIG    1       22.729 -20.223   4.696  0.00  0.00    -0.022 C 
ATOM      8  C   LIG    1       21.469 -21.119   4.487  0.00  0.00    +0.012 C 
ATOM      9  C   LIG    1       23.299 -19.921   3.295  0.00  0.00    +0.008 C 
ATOM     10  C   LIG    1       22.407 -18.985   2.483  0.00  0.00    +0.005 C 
ATOM     11  C   LIG    1       21.934 -17.748   3.255  0.00  0.00    +0.031 C 
ENDROOT
BRANCH   1  15
ATOM     12  C   LIG    1       23.453 -13.079   2.367  0.00  0.00    +0.012 C 
ATOM     13  C   LIG    1       24.325 -13.484   3.310  0.00  0.00    -0.051 C 
ATOM     14  C   LIG    1       24.284 -14.823   3.890  0.00  0.00    -0.042 C 
ATOM     15  C   LIG    1       23.177 -15.266   4.533  0.00  0.00    +0.004 C 
ATOM     16  C   LIG    1       25.587 -15.563   3.732  0.00  0.00    +0.066 C 
ATOM     17  C   LIG    1       26.764 -14.736   4.268  0.00  0.00    +0.119 C 
ATOM     18  C   LIG    1       26.798 -13.337   3.647  0.00  0.00    +0.036 C 
ATOM     19  C   LIG    1       25.458 -12.620   3.804  0.00  0.00    +0.037 C 
BRANCH  17  20
ATOM     20  O   LIG    1       27.994 -15.404   3.989  0.00  0.00    -0.392 OA
ATOM     21  H   LIG    1       28.054 -16.172   4.583  0.00  0.00    +0.210 HD
ENDBRANCH  17  20
ENDBRANCH   1  15
BRANCH   6  22
ATOM     22  C   LIG    1       25.270 -20.825   5.468  0.00  0.00    -0.010 C 
ATOM     23  C   LIG    1       25.669 -21.409   4.097  0.00  0.00    +0.008 C 
BRANCH  22  24
ATOM     24  C   LIG    1       26.164 -21.413   6.588  0.00  0.00    +0.003 C 
BRANCH  24  25
ATOM     25  C   LIG    1       27.284 -20.461   7.060  0.00  0.00    +0.000 C 
BRANCH  25  26
ATOM     26  C   LIG    1       28.547 -20.489   6.171  0.00  0.00    +0.003 C 
BRANCH  26  27
ATOM     27  C   LIG    1       29.058 -19.106   5.711  0.00  0.00    -0.017 C 
ATOM     28  C   LIG    1       29.475 -18.224   6.889  0.00  0.00    +0.007 C 
ATOM     29  C   LIG    1       28.028 -18.368   4.852  0.00  0.00    +0.007 C 
ENDBRANCH  26  27
ENDBRANCH  25  26
ENDBRANCH  24  25
ENDBRANCH  22  24
ENDBRANCH   6  22
TORSDOF 7
ENDMDL
MODEL 2
REMARK VINA RESULT:      -3.8      1.643      4.793
REMARK  Name = *****
REMARK                            x       y       z     vdW  Elec       q    Type
REMARK                         _______ _______ _______ _____ _____    ______ ____
ROOT
ATOM      1  C   LIG    1       26.563 -16.864   3.481  0.00  0.00    -0.000 C 
ATOM      2  C   LIG    1       26.948 -18.052   4.007  0.00  0.00    -0.066 C 
ATOM      3  C   LIG    1       26.288 -19.384   3.669  0.00  0.00    +0.021 C 
ATOM      4  C   LIG    1       25.034 -19.429   2.776  0.00  0.00    +0.009 C 
ATOM      5  C   LIG    1       24.158 -20.545   3.322  0.00  0.00    +0.005 C 
ATOM      6  C   LIG    1       24.420 -20.584   4.835  0.00  0.00    -0.002 C 
ATOM      7  C   LIG    1       25.952 -20.247   4.933  0.00  0.00    -0.022 C 
ATOM      8  C   LIG    1       26.766 -21.571   4.794  0.00  0.00    +0.012 C 
ATOM      9  C   LIG    1       26.393 -19.589   6.257  0.00  0.00    +0.008 C 
ATOM     10  C   LIG    1       27.820 -19.049   6.201  0.00  0.00    +0.005 C 
ATOM     11  C   LIG    1       28.126 -18.220   4.948  0.00  0.00    +0.031 C 
ENDROOT
BRANCH   1  15
ATOM     12  C   LIG    1       28.081 -12.891   4.921  0.00  0.00    +0.012 C 
ATOM     13  C   LIG    1       27.411 -13.152   3.783  0.00  0.00    -0.051 C 
ATOM     14  C   LIG    1       26.625 -14.368   3.599  0.00  0.00    -0.042 C 
ATOM     15  C   LIG    1       27.205 -15.589   3.696  0.00  0.00    +0.004 C 
ATOM     16  C   LIG    1       25.188 -14.082   3.249  0.00  0.00    +0.066 C 
ATOM     17  C   LIG    1       25.088 -13.140   2.040  0.00  0.00    +0.119 C 
ATOM     18  C   LIG    1       25.912 -11.867   2.249  0.00  0.00    +0.036 C 
ATOM     19  C   LIG    1       27.358 -12.189   2.624  0.00  0.00    +0.037 C 
BRANCH  17  20
ATOM     20  O   LIG    1       23.725 -12.785   1.814  0.00  0.00    -0.392 OA
ATOM     21  H   LIG    1       23.633 -12.554   0.873  0.00  0.00    +0.210 HD
ENDBRANCH  17  20
ENDBRANCH   1  15
BRANCH   6  22
ATOM     22  C   LIG    1       23.381 -19.777   5.697  0.00  0.00    -0.010 C 
ATOM     23  C   LIG    1       23.180 -20.472   7.060  0.00  0.00    +0.008 C 
BRANCH  22  24
ATOM     24  C   LIG    1       22.014 -19.485   5.030  0.00  0.00    +0.003 C 
BRANCH  24  25
ATOM     25  C   LIG    1       22.010 -18.228   4.133  0.00  0.00    +0.000 C 
BRANCH  25  26
ATOM     26  C   LIG    1       22.965 -17.113   4.611  0.00  0.00    +0.003 C 
BRANCH  26  27
ATOM     27  C   LIG    1       22.286 -15.772   4.967  0.00  0.00    -0.017 C 
ATOM     28  C   LIG    1       23.219 -14.579   4.754  0.00  0.00    +0.007 C 
ATOM     29  C   LIG    1       21.753 -15.761   6.403  0.00  0.00    +0.007 C 
ENDBRANCH  26  27
ENDBRANCH  25  26
ENDBRANCH  24  25
ENDBRANCH  22  24
ENDBRANCH   6  22
TORSDOF 7
ENDMDL
MODEL 3
REMARK VINA RESULT:      -3.2      2.112      6.497
REMARK  Name = *****
REMARK                            x       y       z     vdW  Elec       q    Type
REMARK                         _______ _______ _______ _____ _____    ______ ____
ROOT
ATOM      1  C   LIG    1       25.310 -17.223   3.398  0.00  0.00    -0.000 C 
ATOM      2  C   LIG    1       24.592 -16.087   3.569  0.00  0.00    -0.066 C 
ATOM      3  C   LIG    1       24.938 -14.756   2.911  0.00  0.00    +0.021 C 
ATOM      4  C   LIG    1       26.230 -14.607   2.087  0.00  0.00    +0.009 C 
ATOM      5  C   LIG    1       26.743 -13.198   2.345  0.00  0.00    +0.005 C 
ATOM      6  C   LIG    1       26.320 -12.853   3.781  0.00  0.00    -0.002 C 
ATOM      7  C   LIG    1       24.915 -13.547   3.907  0.00  0.00    -0.022 C 
ATOM      8  C   LIG    1       23.821 -12.565   3.386  0.00  0.00    +0.012 C 
ATOM      9  C   LIG    1       24.510 -13.945   5.342  0.00  0.00    +0.008 C 
ATOM     10  C   LIG    1       23.273 -14.840   5.379  0.00  0.00    +0.005 C 
ATOM     11  C   LIG    1       23.315 -16.006   4.385  0.00  0.00    +0.031 C 
ENDROOT
BRANCH   1  15
ATOM     12  C   LIG    1       24.386 -21.548   4.174  0.00  0.00    +0.012 C 
ATOM     13  C   LIG    1       23.591 -20.485   4.397  0.00  0.00    -0.051 C 
ATOM     14  C   LIG    1       23.814 -19.193   3.754  0.00  0.00    -0.042 C 
ATOM     15  C   LIG    1       24.980 -18.527   3.924  0.00  0.00    +0.004 C 
ATOM     16  C   LIG    1       22.613 -18.718   2.979  0.00  0.00    +0.066 C 
ATOM     17  C   LIG    1       21.351 -18.718   3.853  0.00  0.00    +0.119 C 
ATOM     18  C   LIG    1       21.126 -20.080   4.517  0.00  0.00    +0.036 C 
ATOM     19  C   LIG    1       22.368 -20.545   5.277  0.00  0.00    +0.037 C 
BRANCH  17  20
ATOM     20  O   LIG    1       20.211 -18.390   3.060  0.00  0.00    -0.392 OA
ATOM     21  H   LIG    1       20.429 -18.590   2.133  0.00  0.00    +0.210 HD
ENDBRANCH  17  20
ENDBRANCH   1  15
BRANCH   6  22
ATOM     22  C   LIG    1       27.427 -13.115   4.867  0.00  0.00    -0.010 C 
ATOM     23  C   LIG    1       28.800 -12.649   4.338  0.00  0.00    +0.008 C 
BRANCH  22  24
ATOM     24  C   LIG    1       27.520 -14.559   5.419  0.00  0.00    +0.003 C 
BRANCH  24  25
ATOM     25  C   LIG    1       28.473 -15.474   4.621  0.00  0.00    +0.000 C 
BRANCH  25  26
ATOM     26  C   LIG    1       27.959 -16.921   4.452  0.00  0.00    +0.003 C 
BRANCH  26  27
ATOM     27  C   LIG    1       28.862 -18.015   5.063  0.00  0.00    -0.017 C 
ATOM     28  C   LIG    1       28.120 -19.340   5.246  0.00  0.00    +0.007 C 
ATOM     29  C   LIG    1       29.475 -17.578   6.396  0.00  0.00    +0.007 C 
ENDBRANCH  26  27
ENDBRANCH  25  26
ENDBRANCH  24  25
ENDBRANCH  22  24
ENDBRANCH   6  22
TORSDOF 7
ENDMDL
MODEL 4
REMARK VINA RESULT:      -2.5      1.793      6.415
REMARK  Name = *****
REMARK                            x       y       z     vdW  Elec       q    Type
REMARK                         _______ _______ _______ _____ _____    ______ ____
ROOT
ATOM      1  C   LIG    1       23.409 -16.393   3.697  0.00  0.00    -0.000 C 
ATOM      2  C   LIG    1       23.331 -15.126   4.167  0.00  0.00    -0.066 C 
ATOM      3  C   LIG    1       23.826 -13.903   3.402  0.00  0.00    +0.021 C 
ATOM      4  C   LIG    1       24.572 -14.071   2.065  0.00  0.00    +0.009 C 
ATOM      5  C   LIG    1       25.636 -12.985   2.028  0.00  0.00    +0.005 C 
ATOM      6  C   LIG    1       26.054 -12.757   3.489  0.00  0.00    -0.002 C 
ATOM      7  C   LIG    1       24.704 -12.941   4.272  0.00  0.00    -0.022 C 
ATOM      8  C   LIG    1       23.956 -11.572   4.310  0.00  0.00    +0.012 C 
ATOM      9  C   LIG    1       24.855 -13.407   5.735  0.00  0.00    +0.008 C 
ATOM     10  C   LIG    1       23.526 -13.819   6.364  0.00  0.00    +0.005 C 
ATOM     11  C   LIG    1       22.681 -14.749   5.486  0.00  0.00    +0.031 C 
ENDROOT
BRANCH   1  15
ATOM     12  C   LIG    1       22.422 -19.922   6.293  0.00  0.00    +0.012 C 
ATOM     13  C   LIG    1       22.767 -19.929   4.992  0.00  0.00    -0.051 C 
ATOM     14  C   LIG    1       23.446 -18.804   4.356  0.00  0.00    -0.042 C 
ATOM     15  C   LIG    1       22.879 -17.574   4.338  0.00  0.00    +0.004 C 
ATOM     16  C   LIG    1       24.751 -19.201   3.716  0.00  0.00    +0.066 C 
ATOM     17  C   LIG    1       24.560 -20.381   2.751  0.00  0.00    +0.119 C 
ATOM     18  C   LIG    1       23.852 -21.556   3.433  0.00  0.00    +0.036 C 
ATOM     19  C   LIG    1       22.545 -21.118   4.091  0.00  0.00    +0.037 C 
BRANCH  17  20
ATOM     20  O   LIG    1       25.827 -20.817   2.261  0.00  0.00    -0.392 OA
ATOM     21  H   LIG    1       26.483 -20.139   2.499  0.00  0.00    +0.210 HD
ENDBRANCH  17  20
ENDBRANCH   1  15
BRANCH   6  22
ATOM     22  C   LIG    1       27.335 -13.556   3.932  0.00  0.00    -0.010 C 
ATOM     23  C   LIG    1       28.601 -12.734   3.613  0.00  0.00    +0.008 C 
BRANCH  22  24
ATOM     24  C   LIG    1       27.471 -14.997   3.380  0.00  0.00    +0.003 C 
BRANCH  24  25
ATOM     25  C   LIG    1       28.105 -15.991   4.377  0.00  0.00    +0.000 C 
BRANCH  25  26
ATOM     26  C   LIG    1       27.470 -17.399   4.348  0.00  0.00    +0.003 C 
BRANCH  26  27
ATOM     27  C   LIG    1       28.395 -18.547   4.810  0.00  0.00    -0.017 C 
ATOM     28  C   LIG    1       27.612 -19.699   5.442  0.00  0.00    +0.007 C 
ATOM     29  C   LIG    1       29.474 -18.062   5.781  0.00  0.00    +0.007 C 
ENDBRANCH  26  27
ENDBRANCH  25  26
ENDBRANCH  24  25
ENDBRANCH  22  24
ENDBRANCH   6  22
TORSDOF 7
ENDMDL
