MODEL 1
REMARK VINA RESULT:      -6.6      0.000      0.000
REMARK  Name = *****
REMARK                            x       y       z     vdW  Elec       q    Type
REMARK                         _______ _______ _______ _____ _____    ______ ____
ROOT
ATOM      1  C   LIG    1       23.626 -21.993   6.703  0.00  0.00    +0.053 C 
ENDROOT
BRANCH   1   2
ATOM      2  C   LIG    1       23.667 -20.894   5.665  0.00  0.00    -0.046 A 
ATOM      3  C   LIG    1       22.581 -20.018   5.519  0.00  0.00    +0.003 A 
ATOM      4  C   LIG    1       22.600 -19.024   4.539  0.00  0.00    +0.000 A 
ATOM      5  C   LIG    1       23.699 -18.899   3.694  0.00  0.00    +0.000 A 
ATOM      6  C   LIG    1       24.789 -19.757   3.837  0.00  0.00    +0.000 A 
ATOM      7  C   LIG    1       24.774 -20.748   4.821  0.00  0.00    +0.003 A 
ENDBRANCH   1   2
BRANCH   1   8
ATOM      8  C   LIG    1       24.323 -23.312   6.286  0.00  0.00    +0.055 C 
ATOM      9  C   LIG    1       25.550 -23.593   7.168  0.00  0.00    +0.024 C 
BRANCH   8  11
ATOM     10  C   LIG    1       24.052 -25.742   6.036  0.00  0.00    +0.101 C 
ATOM     11  N   LIG    1       23.426 -24.482   6.415  0.00  0.00    -0.316 NA
ATOM     12  H   LIG    1       23.123 -24.558   7.387  0.00  0.00    +0.122 HD
ENDBRANCH   8  11
ENDBRANCH   1   8
TORSDOF 3
ENDMDL
MODEL 2
REMARK VINA RESULT:      -6.6      0.113      1.459
REMARK  Name = *****
REMARK                            x       y       z     vdW  Elec       q    Type
REMARK                         _______ _______ _______ _____ _____    ______ ____
ROOT
ATOM      1  C   LIG    1       23.550 -22.083   6.662  0.00  0.00    +0.053 C 
ENDROOT
BRANCH   1   2
ATOM      2  C   LIG    1       23.578 -21.002   5.605  0.00  0.00    -0.046 A 
ATOM      3  C   LIG    1       24.673 -20.893   4.733  0.00  0.00    +0.003 A 
ATOM      4  C   LIG    1       24.718 -19.876   3.779  0.00  0.00    +0.000 A 
ATOM      5  C   LIG    1       23.679 -18.955   3.690  0.00  0.00    +0.000 A 
ATOM      6  C   LIG    1       22.581 -19.059   4.544  0.00  0.00    +0.000 A 
ATOM      7  C   LIG    1       22.530 -20.082   5.495  0.00  0.00    +0.003 A 
ENDBRANCH   1   2
BRANCH   1   8
ATOM      8  C   LIG    1       24.298 -23.386   6.282  0.00  0.00    +0.055 C 
ATOM      9  C   LIG    1       25.513 -23.613   7.195  0.00  0.00    +0.024 C 
BRANCH   8  11
ATOM     10  C   LIG    1       24.104 -25.826   6.053  0.00  0.00    +0.101 C 
ATOM     11  N   LIG    1       23.435 -24.582   6.412  0.00  0.00    -0.316 NA
ATOM     12  H   LIG    1       23.123 -24.658   7.382  0.00  0.00    +0.122 HD
ENDBRANCH   8  11
ENDBRANCH   1   8
TORSDOF 3
ENDMDL
MODEL 3
REMARK VINA RESULT:      -6.3      1.427      4.821
REMARK  Name = *****
REMARK                            x       y       z     vdW  Elec       q    Type
REMARK                         _______ _______ _______ _____ _____    ______ ____
ROOT
ATOM      1  C   LIG    1       23.156 -21.541   6.798  0.00  0.00    +0.053 C 
ENDROOT
BRANCH   1   2
ATOM      2  C   LIG    1       23.910 -22.851   6.774  0.00  0.00    -0.046 A 
ATOM      3  C   LIG    1       25.295 -22.875   7.006  0.00  0.00    +0.003 A 
ATOM      4  C   LIG    1       26.001 -24.078   6.951  0.00  0.00    +0.000 A 
ATOM      5  C   LIG    1       25.336 -25.265   6.659  0.00  0.00    +0.000 A 
ATOM      6  C   LIG    1       23.959 -25.255   6.438  0.00  0.00    +0.000 A 
ATOM      7  C   LIG    1       23.249 -24.053   6.499  0.00  0.00    +0.003 A 
ENDBRANCH   1   2
BRANCH   1   8
ATOM      8  C   LIG    1       22.643 -21.058   5.418  0.00  0.00    +0.055 C 
ATOM      9  C   LIG    1       22.551 -19.525   5.368  0.00  0.00    +0.024 C 
BRANCH   8  11
ATOM     10  C   LIG    1       24.494 -20.440   3.923  0.00  0.00    +0.101 C 
ATOM     11  N   LIG    1       23.540 -21.469   4.315  0.00  0.00    -0.316 NA
ATOM     12  H   LIG    1       24.065 -22.294   4.609  0.00  0.00    +0.122 HD
ENDBRANCH   8  11
ENDBRANCH   1   8
TORSDOF 3
ENDMDL
MODEL 4
REMARK VINA RESULT:      -6.2      2.646      3.477
REMARK  Name = *****
REMARK                            x       y       z     vdW  Elec       q    Type
REMARK                         _______ _______ _______ _____ _____    ______ ____
ROOT
ATOM      1  C   LIG    1       25.619 -21.456   6.295  0.00  0.00    +0.053 C 
ENDROOT
BRANCH   1   2
ATOM      2  C   LIG    1       24.659 -20.589   5.514  0.00  0.00    -0.046 A 
ATOM      3  C   LIG    1       25.074 -19.962   4.329  0.00  0.00    +0.003 A 
ATOM      4  C   LIG    1       24.201 -19.133   3.623  0.00  0.00    +0.000 A 
ATOM      5  C   LIG    1       22.909 -18.917   4.093  0.00  0.00    +0.000 A 
ATOM      6  C   LIG    1       22.482 -19.543   5.265  0.00  0.00    +0.000 A 
ATOM      7  C   LIG    1       23.352 -20.379   5.969  0.00  0.00    +0.003 A 
ENDBRANCH   1   2
BRANCH   1   8
ATOM      8  C   LIG    1       26.565 -20.685   7.251  0.00  0.00    +0.055 C 
ATOM      9  C   LIG    1       25.993 -20.638   8.676  0.00  0.00    +0.024 C 
BRANCH   8  11
ATOM     10  C   LIG    1       28.919 -20.655   6.543  0.00  0.00    +0.101 C 
ATOM     11  N   LIG    1       27.899 -21.319   7.345  0.00  0.00    -0.316 NA
ATOM     12  H   LIG    1       28.202 -21.302   8.321  0.00  0.00    +0.122 HD
ENDBRANCH   8  11
ENDBRANCH   1   8
TORSDOF 3
ENDMDL
MODEL 5
REMARK VINA RESULT:      -6.2      2.609      3.176
REMARK  Name = *****
REMARK                            x       y       z     vdW  Elec       q    Type
REMARK                         _______ _______ _______ _____ _____    ______ ____
ROOT
ATOM      1  C   LIG    1       25.532 -21.488   6.319  0.00  0.00    +0.053 C 
ENDROOT
BRANCH   1   2
ATOM      2  C   LIG    1       24.626 -20.565   5.537  0.00  0.00    -0.046 A 
ATOM      3  C   LIG    1       23.301 -20.354   5.952  0.00  0.00    +0.003 A 
ATOM      4  C   LIG    1       22.451 -19.530   5.213  0.00  0.00    +0.000 A 
ATOM      5  C   LIG    1       22.910 -18.914   4.053  0.00  0.00    +0.000 A 
ATOM      6  C   LIG    1       24.227 -19.107   3.636  0.00  0.00    +0.000 A 
ATOM      7  C   LIG    1       25.082 -19.926   4.378  0.00  0.00    +0.003 A 
ENDBRANCH   1   2
BRANCH   1   8
ATOM      8  C   LIG    1       26.561 -20.773   7.231  0.00  0.00    +0.055 C 
ATOM      9  C   LIG    1       26.028 -20.638   8.666  0.00  0.00    +0.024 C 
BRANCH   8  11
ATOM     10  C   LIG    1       28.971 -20.792   6.752  0.00  0.00    +0.101 C 
ATOM     11  N   LIG    1       27.839 -21.514   7.317  0.00  0.00    -0.316 NA
ATOM     12  H   LIG    1       28.042 -21.705   8.300  0.00  0.00    +0.122 HD
ENDBRANCH   8  11
ENDBRANCH   1   8
TORSDOF 3
ENDMDL
MODEL 6
REMARK VINA RESULT:      -6.2      2.561      3.960
REMARK  Name = *****
REMARK                            x       y       z     vdW  Elec       q    Type
REMARK                         _______ _______ _______ _____ _____    ______ ____
ROOT
ATOM      1  C   LIG    1       23.815 -21.052   7.197  0.00  0.00    +0.053 C 
ENDROOT
BRANCH   1   2
ATOM      2  C   LIG    1       25.287 -20.714   7.149  0.00  0.00    -0.046 A 
ATOM      3  C   LIG    1       25.926 -20.508   5.916  0.00  0.00    +0.003 A 
ATOM      4  C   LIG    1       27.293 -20.229   5.866  0.00  0.00    +0.000 A 
ATOM      5  C   LIG    1       28.035 -20.159   7.041  0.00  0.00    +0.000 A 
ATOM      6  C   LIG    1       27.409 -20.352   8.273  0.00  0.00    +0.000 A 
ATOM      7  C   LIG    1       26.040 -20.624   8.325  0.00  0.00    +0.003 A 
ENDBRANCH   1   2
BRANCH   1   8
ATOM      8  C   LIG    1       23.341 -22.060   6.120  0.00  0.00    +0.055 C 
ATOM      9  C   LIG    1       22.827 -23.358   6.764  0.00  0.00    +0.024 C 
BRANCH   8  11
ATOM     10  C   LIG    1       22.392 -20.113   4.958  0.00  0.00    +0.101 C 
ATOM     11  N   LIG    1       22.234 -21.521   5.300  0.00  0.00    -0.316 NA
ATOM     12  H   LIG    1       22.178 -22.054   4.431  0.00  0.00    +0.122 HD
ENDBRANCH   8  11
ENDBRANCH   1   8
TORSDOF 3
ENDMDL
MODEL 7
REMARK VINA RESULT:      -6.1      1.757      2.315
REMARK  Name = *****
REMARK                            x       y       z     vdW  Elec       q    Type
REMARK                         _______ _______ _______ _____ _____    ______ ____
ROOT
ATOM      1  C   LIG    1       23.369 -22.159   6.478  0.00  0.00    +0.053 C 
ENDROOT
BRANCH   1   2
ATOM      2  C   LIG    1       23.522 -21.011   5.507  0.00  0.00    -0.046 A 
ATOM      3  C   LIG    1       22.572 -19.977   5.478  0.00  0.00    +0.003 A 
ATOM      4  C   LIG    1       22.691 -18.933   4.559  0.00  0.00    +0.000 A 
ATOM      5  C   LIG    1       23.752 -18.912   3.659  0.00  0.00    +0.000 A 
ATOM      6  C   LIG    1       24.707 -19.928   3.685  0.00  0.00    +0.000 A 
ATOM      7  C   LIG    1       24.594 -20.971   4.609  0.00  0.00    +0.003 A 
ENDBRANCH   1   2
BRANCH   1   8
ATOM      8  C   LIG    1       24.337 -22.125   7.687  0.00  0.00    +0.055 C 
ATOM      9  C   LIG    1       25.632 -22.895   7.381  0.00  0.00    +0.024 C 
BRANCH   8  11
ATOM     10  C   LIG    1       26.131 -20.625   8.445  0.00  0.00    +0.101 C 
ATOM     11  N   LIG    1       24.735 -20.745   8.044  0.00  0.00    -0.316 NA
ATOM     12  H   LIG    1       24.584 -20.140   7.235  0.00  0.00    +0.122 HD
ENDBRANCH   8  11
ENDBRANCH   1   8
TORSDOF 3
ENDMDL
MODEL 8
REMARK VINA RESULT:      -6.1      2.622      3.963
REMARK  Name = *****
REMARK                            x       y       z     vdW  Elec       q    Type
REMARK                         _______ _______ _______ _____ _____    ______ ____
ROOT
ATOM      1  C   LIG    1       23.929 -20.917   7.122  0.00  0.00    +0.053 C 
ENDROOT
BRANCH   1   2
ATOM      2  C   LIG    1       25.416 -20.649   7.070  0.00  0.00    -0.046 A 
ATOM      3  C   LIG    1       26.165 -20.580   8.255  0.00  0.00    +0.003 A 
ATOM      4  C   LIG    1       27.531 -20.299   8.213  0.00  0.00    +0.000 A 
ATOM      5  C   LIG    1       28.162 -20.078   6.992  0.00  0.00    +0.000 A 
ATOM      6  C   LIG    1       27.430 -20.154   5.807  0.00  0.00    +0.000 A 
ATOM      7  C   LIG    1       26.063 -20.442   5.847  0.00  0.00    +0.003 A 
ENDBRANCH   1   2
BRANCH   1   8
ATOM      8  C   LIG    1       23.420 -21.972   6.108  0.00  0.00    +0.055 C 
ATOM      9  C   LIG    1       22.713 -23.133   6.825  0.00  0.00    +0.024 C 
BRANCH   8  11
ATOM     10  C   LIG    1       22.444 -19.944   5.119  0.00  0.00    +0.101 C 
ATOM     11  N   LIG    1       22.444 -21.402   5.153  0.00  0.00    -0.316 NA
ATOM     12  H   LIG    1       22.666 -21.741   4.215  0.00  0.00    +0.122 HD
ENDBRANCH   8  11
ENDBRANCH   1   8
TORSDOF 3
ENDMDL
MODEL 9
REMARK VINA RESULT:      -6.1      3.494      5.144
REMARK  Name = *****
REMARK                            x       y       z     vdW  Elec       q    Type
REMARK                         _______ _______ _______ _____ _____    ______ ____
ROOT
ATOM      1  C   LIG    1       26.839 -20.692   8.003  0.00  0.00    +0.053 C 
ENDROOT
BRANCH   1   2
ATOM      2  C   LIG    1       25.637 -21.524   7.616  0.00  0.00    -0.046 A 
ATOM      3  C   LIG    1       25.788 -22.885   7.306  0.00  0.00    +0.003 A 
ATOM      4  C   LIG    1       24.686 -23.647   6.915  0.00  0.00    +0.000 A 
ATOM      5  C   LIG    1       23.428 -23.061   6.823  0.00  0.00    +0.000 A 
ATOM      6  C   LIG    1       23.264 -21.712   7.138  0.00  0.00    +0.000 A 
ATOM      7  C   LIG    1       24.364 -20.948   7.537  0.00  0.00    +0.003 A 
ENDBRANCH   1   2
BRANCH   1   8
ATOM      8  C   LIG    1       28.187 -21.181   7.416  0.00  0.00    +0.055 C 
ATOM      9  C   LIG    1       28.673 -20.247   6.296  0.00  0.00    +0.024 C 
BRANCH   8  11
ATOM     10  C   LIG    1       30.421 -20.412   8.093  0.00  0.00    +0.101 C 
ATOM     11  N   LIG    1       29.258 -21.220   8.436  0.00  0.00    -0.316 NA
ATOM     12  H   LIG    1       28.882 -20.875   9.321  0.00  0.00    +0.122 HD
ENDBRANCH   8  11
ENDBRANCH   1   8
TORSDOF 3
ENDMDL
