MODEL 1
REMARK VINA RESULT:      -7.5      0.000      0.000
REMARK  Name = *****
REMARK                            x       y       z     vdW  Elec       q    Type
REMARK                         _______ _______ _______ _____ _____    ______ ____
ROOT
ATOM      1  C   LIG    1       25.580 -21.315   6.100  0.00  0.00    +0.106 C 
ENDROOT
BRANCH   1   2
ATOM      2  C   LIG    1       24.243 -20.664   6.682  0.00  0.00    +0.026 C 
ATOM      3  C   LIG    1       23.305 -19.988   5.650  0.00  0.00    +0.007 C 
ATOM      4  C   LIG    1       22.490 -20.958   4.800  0.00  0.00    +0.000 C 
ATOM      5  C   LIG    1       21.676 -21.915   5.663  0.00  0.00    +0.000 C 
ATOM      6  C   LIG    1       22.515 -22.609   6.727  0.00  0.00    +0.000 C 
ATOM      7  C   LIG    1       23.370 -21.628   7.531  0.00  0.00    +0.007 C 
ENDBRANCH   1   2
BRANCH   1   8
ATOM      8  C   LIG    1       25.538 -22.859   6.084  0.00  0.00    -0.015 A 
ATOM      9  C   LIG    1       25.985 -23.632   7.169  0.00  0.00    +0.006 A 
ATOM     10  C   LIG    1       25.887 -25.028   7.163  0.00  0.00    +0.000 A 
ATOM     11  C   LIG    1       25.368 -25.688   6.053  0.00  0.00    +0.000 A 
ATOM     12  C   LIG    1       24.964 -24.955   4.948  0.00  0.00    +0.000 A 
ATOM     13  C   LIG    1       25.051 -23.559   4.960  0.00  0.00    +0.006 A 
ENDBRANCH   1   8
BRANCH   1  14
ATOM     14  O   LIG    1       25.729 -20.806   4.764  0.00  0.00    -0.382 OA
ATOM     15  H   LIG    1       25.266 -19.948   4.750  0.00  0.00    +0.211 HD
ENDBRANCH   1  14
BRANCH   1  16
ATOM     16  C   LIG    1       26.842 -20.830   6.933  0.00  0.00    +0.124 C 
BRANCH  16  21
ATOM     17  C   LIG    1       29.876 -17.919   8.785  0.00  0.00    +0.192 C 
ATOM     18  N   LIG    1       30.000 -19.109   7.836  0.00  0.00    +0.241 N 
ATOM     19  C   LIG    1       29.156 -18.803   6.570  0.00  0.00    +0.148 C 
ATOM     20  C   LIG    1       28.900 -20.071   5.736  0.00  0.00    +0.135 C 
ATOM     21  N   LIG    1       28.228 -21.160   6.468  0.00  0.00    -0.289 NA
ATOM     22  C   LIG    1       29.100 -21.532   7.606  0.00  0.00    +0.135 C 
ATOM     23  C   LIG    1       29.482 -20.376   8.565  0.00  0.00    +0.148 C 
ATOM     24  C   LIG    1       31.467 -19.270   7.457  0.00  0.00    +0.192 C 
ENDBRANCH  16  21
ENDBRANCH   1  16
TORSDOF 5
ENDMDL
MODEL 2
REMARK VINA RESULT:      -7.1      1.102      2.072
REMARK  Name = *****
REMARK                            x       y       z     vdW  Elec       q    Type
REMARK                         _______ _______ _______ _____ _____    ______ ____
ROOT
ATOM      1  C   LIG    1       25.221 -22.580   6.075  0.00  0.00    +0.106 C 
ENDROOT
BRANCH   1   2
ATOM      2  C   LIG    1       23.933 -22.114   6.896  0.00  0.00    +0.026 C 
ATOM      3  C   LIG    1       23.651 -20.589   6.919  0.00  0.00    +0.007 C 
ATOM      4  C   LIG    1       23.057 -20.033   5.629  0.00  0.00    +0.000 C 
ATOM      5  C   LIG    1       21.785 -20.770   5.230  0.00  0.00    +0.000 C 
ATOM      6  C   LIG    1       21.962 -22.283   5.205  0.00  0.00    +0.000 C 
ATOM      7  C   LIG    1       22.612 -22.817   6.482  0.00  0.00    +0.007 C 
ENDBRANCH   1   2
BRANCH   1   8
ATOM      8  C   LIG    1       25.342 -24.116   5.973  0.00  0.00    -0.015 A 
ATOM      9  C   LIG    1       25.044 -24.814   4.789  0.00  0.00    +0.006 A 
ATOM     10  C   LIG    1       25.214 -26.200   4.694  0.00  0.00    +0.000 A 
ATOM     11  C   LIG    1       25.655 -26.928   5.795  0.00  0.00    +0.000 A 
ATOM     12  C   LIG    1       25.910 -26.273   6.991  0.00  0.00    +0.000 A 
ATOM     13  C   LIG    1       25.753 -24.887   7.081  0.00  0.00    +0.006 A 
ENDBRANCH   1   8
BRANCH   1  14
ATOM     14  O   LIG    1       25.096 -22.001   4.765  0.00  0.00    -0.382 OA
ATOM     15  H   LIG    1       25.581 -21.156   4.798  0.00  0.00    +0.211 HD
ENDBRANCH   1  14
BRANCH   1  16
ATOM     16  C   LIG    1       26.541 -21.988   6.729  0.00  0.00    +0.124 C 
BRANCH  16  21
ATOM     17  C   LIG    1       30.798 -21.036   8.171  0.00  0.00    +0.192 C 
ATOM     18  N   LIG    1       29.596 -20.175   7.791  0.00  0.00    +0.241 N 
ATOM     19  C   LIG    1       28.420 -20.551   8.729  0.00  0.00    +0.148 C 
ATOM     20  C   LIG    1       27.073 -20.034   8.192  0.00  0.00    +0.135 C 
ATOM     21  N   LIG    1       26.733 -20.506   6.838  0.00  0.00    -0.289 NA
ATOM     22  C   LIG    1       27.799 -20.036   5.923  0.00  0.00    +0.135 C 
ATOM     23  C   LIG    1       29.243 -20.451   6.306  0.00  0.00    +0.148 C 
ATOM     24  C   LIG    1       29.972 -18.711   7.988  0.00  0.00    +0.192 C 
ENDBRANCH  16  21
ENDBRANCH   1  16
TORSDOF 5
ENDMDL
MODEL 3
REMARK VINA RESULT:      -7.0      2.316      5.634
REMARK  Name = *****
REMARK                            x       y       z     vdW  Elec       q    Type
REMARK                         _______ _______ _______ _____ _____    ______ ____
ROOT
ATOM      1  C   LIG    1       24.907 -21.113   5.719  0.00  0.00    +0.106 C 
ENDROOT
BRANCH   1   2
ATOM      2  C   LIG    1       24.424 -20.476   4.337  0.00  0.00    +0.026 C 
ATOM      3  C   LIG    1       23.231 -21.177   3.639  0.00  0.00    +0.007 C 
ATOM      4  C   LIG    1       21.871 -20.895   4.269  0.00  0.00    +0.000 C 
ATOM      5  C   LIG    1       21.589 -19.400   4.357  0.00  0.00    +0.000 C 
ATOM      6  C   LIG    1       22.725 -18.623   5.009  0.00  0.00    +0.000 C 
ATOM      7  C   LIG    1       24.089 -18.961   4.404  0.00  0.00    +0.007 C 
ENDBRANCH   1   2
BRANCH   1   8
ATOM      8  C   LIG    1       26.270 -20.560   6.191  0.00  0.00    -0.015 A 
ATOM      9  C   LIG    1       26.659 -20.579   7.541  0.00  0.00    +0.006 A 
ATOM     10  C   LIG    1       27.920 -20.126   7.946  0.00  0.00    +0.000 A 
ATOM     11  C   LIG    1       28.812 -19.612   7.010  0.00  0.00    +0.000 A 
ATOM     12  C   LIG    1       28.438 -19.536   5.677  0.00  0.00    +0.000 A 
ATOM     13  C   LIG    1       27.182 -20.000   5.272  0.00  0.00    +0.006 A 
ENDBRANCH   1   8
BRANCH   1  14
ATOM     14  O   LIG    1       23.885 -20.809   6.683  0.00  0.00    -0.382 OA
ATOM     15  H   LIG    1       24.351 -20.599   7.513  0.00  0.00    +0.211 HD
ENDBRANCH   1  14
BRANCH   1  16
ATOM     16  C   LIG    1       24.990 -22.694   5.603  0.00  0.00    +0.124 C 
BRANCH  16  21
ATOM     17  C   LIG    1       25.860 -27.103   4.645  0.00  0.00    +0.192 C 
ATOM     18  N   LIG    1       25.318 -26.378   5.874  0.00  0.00    +0.241 N 
ATOM     19  C   LIG    1       24.021 -25.633   5.459  0.00  0.00    +0.148 C 
ATOM     20  C   LIG    1       23.612 -24.576   6.501  0.00  0.00    +0.135 C 
ATOM     21  N   LIG    1       24.643 -23.559   6.777  0.00  0.00    -0.289 NA
ATOM     22  C   LIG    1       25.838 -24.267   7.292  0.00  0.00    +0.135 C 
ATOM     23  C   LIG    1       26.399 -25.388   6.379  0.00  0.00    +0.148 C 
ATOM     24  C   LIG    1       25.001 -27.417   6.943  0.00  0.00    +0.192 C 
ENDBRANCH  16  21
ENDBRANCH   1  16
TORSDOF 5
ENDMDL
MODEL 4
REMARK VINA RESULT:      -6.9      2.811      6.093
REMARK  Name = *****
REMARK                            x       y       z     vdW  Elec       q    Type
REMARK                         _______ _______ _______ _____ _____    ______ ____
ROOT
ATOM      1  C   LIG    1       24.020 -22.797   6.717  0.00  0.00    +0.106 C 
ENDROOT
BRANCH   1   2
ATOM      2  C   LIG    1       23.567 -22.329   5.259  0.00  0.00    +0.026 C 
ATOM      3  C   LIG    1       22.362 -21.355   5.196  0.00  0.00    +0.007 C 
ATOM      4  C   LIG    1       22.688 -19.916   5.582  0.00  0.00    +0.000 C 
ATOM      5  C   LIG    1       23.829 -19.352   4.745  0.00  0.00    +0.000 C 
ATOM      6  C   LIG    1       25.052 -20.259   4.727  0.00  0.00    +0.000 C 
ATOM      7  C   LIG    1       24.700 -21.710   4.396  0.00  0.00    +0.007 C 
ENDBRANCH   1   2
BRANCH   1   8
ATOM      8  C   LIG    1       25.263 -22.038   7.231  0.00  0.00    -0.015 A 
ATOM      9  C   LIG    1       26.571 -22.421   6.884  0.00  0.00    +0.006 A 
ATOM     10  C   LIG    1       27.685 -21.689   7.311  0.00  0.00    +0.000 A 
ATOM     11  C   LIG    1       27.518 -20.573   8.125  0.00  0.00    +0.000 A 
ATOM     12  C   LIG    1       26.244 -20.200   8.524  0.00  0.00    +0.000 A 
ATOM     13  C   LIG    1       25.130 -20.924   8.087  0.00  0.00    +0.006 A 
ENDBRANCH   1   8
BRANCH   1  14
ATOM     14  O   LIG    1       22.898 -22.562   7.584  0.00  0.00    -0.382 OA
ATOM     15  H   LIG    1       22.602 -21.652   7.399  0.00  0.00    +0.211 HD
ENDBRANCH   1  14
BRANCH   1  16
ATOM     16  C   LIG    1       24.310 -24.358   6.733  0.00  0.00    +0.124 C 
BRANCH  16  21
ATOM     17  C   LIG    1       24.520 -28.910   7.318  0.00  0.00    +0.192 C 
ATOM     18  N   LIG    1       25.136 -27.948   6.305  0.00  0.00    +0.241 N 
ATOM     19  C   LIG    1       26.007 -26.926   7.082  0.00  0.00    +0.148 C 
ATOM     20  C   LIG    1       26.355 -25.700   6.219  0.00  0.00    +0.135 C 
ATOM     21  N   LIG    1       25.187 -24.976   5.686  0.00  0.00    -0.289 NA
ATOM     22  C   LIG    1       24.425 -25.926   4.842  0.00  0.00    +0.135 C 
ATOM     23  C   LIG    1       23.989 -27.241   5.538  0.00  0.00    +0.148 C 
ATOM     24  C   LIG    1       26.007 -28.751   5.347  0.00  0.00    +0.192 C 
ENDBRANCH  16  21
ENDBRANCH   1  16
TORSDOF 5
ENDMDL
MODEL 5
REMARK VINA RESULT:      -6.8      1.279      3.597
REMARK  Name = *****
REMARK                            x       y       z     vdW  Elec       q    Type
REMARK                         _______ _______ _______ _____ _____    ______ ____
ROOT
ATOM      1  C   LIG    1       25.441 -21.194   6.564  0.00  0.00    +0.106 C 
ENDROOT
BRANCH   1   2
ATOM      2  C   LIG    1       25.824 -22.584   5.878  0.00  0.00    +0.026 C 
ATOM      3  C   LIG    1       26.318 -23.705   6.828  0.00  0.00    +0.007 C 
ATOM      4  C   LIG    1       25.217 -24.382   7.638  0.00  0.00    +0.000 C 
ATOM      5  C   LIG    1       24.118 -24.937   6.741  0.00  0.00    +0.000 C 
ATOM      6  C   LIG    1       23.588 -23.909   5.751  0.00  0.00    +0.000 C 
ATOM      7  C   LIG    1       24.707 -23.198   4.990  0.00  0.00    +0.007 C 
ENDBRANCH   1   2
BRANCH   1   8
ATOM      8  C   LIG    1       24.524 -20.321   5.679  0.00  0.00    -0.015 A 
ATOM      9  C   LIG    1       24.991 -19.684   4.516  0.00  0.00    +0.006 A 
ATOM     10  C   LIG    1       24.135 -18.944   3.692  0.00  0.00    +0.000 A 
ATOM     11  C   LIG    1       22.794 -18.795   4.033  0.00  0.00    +0.000 A 
ATOM     12  C   LIG    1       22.315 -19.371   5.200  0.00  0.00    +0.000 A 
ATOM     13  C   LIG    1       23.169 -20.121   6.015  0.00  0.00    +0.006 A 
ENDBRANCH   1   8
BRANCH   1  14
ATOM     14  O   LIG    1       24.780 -21.521   7.797  0.00  0.00    -0.382 OA
ATOM     15  H   LIG    1       25.426 -22.027   8.323  0.00  0.00    +0.211 HD
ENDBRANCH   1  14
BRANCH   1  16
ATOM     16  C   LIG    1       26.752 -20.377   6.933  0.00  0.00    +0.124 C 
BRANCH  16  21
ATOM     17  C   LIG    1       30.162 -18.048   8.945  0.00  0.00    +0.192 C 
ATOM     18  N   LIG    1       30.108 -19.064   7.807  0.00  0.00    +0.241 N 
ATOM     19  C   LIG    1       29.195 -18.488   6.692  0.00  0.00    +0.148 C 
ATOM     20  C   LIG    1       28.765 -19.574   5.689  0.00  0.00    +0.135 C 
ATOM     21  N   LIG    1       28.063 -20.721   6.293  0.00  0.00    -0.289 NA
ATOM     22  C   LIG    1       28.988 -21.343   7.268  0.00  0.00    +0.135 C 
ATOM     23  C   LIG    1       29.543 -20.397   8.364  0.00  0.00    +0.148 C 
ATOM     24  C   LIG    1       31.520 -19.263   7.272  0.00  0.00    +0.192 C 
ENDBRANCH  16  21
ENDBRANCH   1  16
TORSDOF 5
ENDMDL
MODEL 6
REMARK VINA RESULT:      -6.3      1.530      3.600
REMARK  Name = *****
REMARK                            x       y       z     vdW  Elec       q    Type
REMARK                         _______ _______ _______ _____ _____    ______ ____
ROOT
ATOM      1  C   LIG    1       25.081 -21.298   7.259  0.00  0.00    +0.106 C 
ENDROOT
BRANCH   1   2
ATOM      2  C   LIG    1       24.495 -22.768   7.473  0.00  0.00    +0.026 C 
ATOM      3  C   LIG    1       23.509 -23.277   6.390  0.00  0.00    +0.007 C 
ATOM      4  C   LIG    1       24.167 -23.705   5.082  0.00  0.00    +0.000 C 
ATOM      5  C   LIG    1       25.244 -24.758   5.311  0.00  0.00    +0.000 C 
ATOM      6  C   LIG    1       26.248 -24.353   6.383  0.00  0.00    +0.000 C 
ATOM      7  C   LIG    1       25.570 -23.872   7.667  0.00  0.00    +0.007 C 
ENDBRANCH   1   2
BRANCH   1   8
ATOM      8  C   LIG    1       24.436 -20.564   6.063  0.00  0.00    -0.015 A 
ATOM      9  C   LIG    1       23.093 -20.151   6.072  0.00  0.00    +0.006 A 
ATOM     10  C   LIG    1       22.538 -19.437   5.004  0.00  0.00    +0.000 A 
ATOM     11  C   LIG    1       23.310 -19.146   3.882  0.00  0.00    +0.000 A 
ATOM     12  C   LIG    1       24.624 -19.583   3.823  0.00  0.00    +0.000 A 
ATOM     13  C   LIG    1       25.181 -20.286   4.896  0.00  0.00    +0.006 A 
ENDBRANCH   1   8
BRANCH   1  14
ATOM     14  O   LIG    1       24.827 -20.581   8.479  0.00  0.00    -0.382 OA
ATOM     15  H   LIG    1       25.565 -19.953   8.581  0.00  0.00    +0.211 HD
ENDBRANCH   1  14
BRANCH   1  16
ATOM     16  C   LIG    1       26.655 -21.350   7.061  0.00  0.00    +0.124 C 
BRANCH  16  21
ATOM     17  C   LIG    1       30.490 -19.050   6.008  0.00  0.00    +0.192 C 
ATOM     18  N   LIG    1       29.984 -19.732   7.278  0.00  0.00    +0.241 N 
ATOM     19  C   LIG    1       29.749 -21.231   6.955  0.00  0.00    +0.148 C 
ATOM     20  C   LIG    1       28.887 -21.918   8.031  0.00  0.00    +0.135 C 
ATOM     21  N   LIG    1       27.569 -21.295   8.248  0.00  0.00    -0.289 NA
ATOM     22  C   LIG    1       27.805 -19.896   8.677  0.00  0.00    +0.135 C 
ATOM     23  C   LIG    1       28.670 -19.037   7.719  0.00  0.00    +0.148 C 
ATOM     24  C   LIG    1       31.052 -19.593   8.355  0.00  0.00    +0.192 C 
ENDBRANCH  16  21
ENDBRANCH   1  16
TORSDOF 5
ENDMDL
MODEL 7
REMARK VINA RESULT:      -6.0      1.513      3.915
REMARK  Name = *****
REMARK                            x       y       z     vdW  Elec       q    Type
REMARK                         _______ _______ _______ _____ _____    ______ ____
ROOT
ATOM      1  C   LIG    1       25.190 -22.752   6.411  0.00  0.00    +0.106 C 
ENDROOT
BRANCH   1   2
ATOM      2  C   LIG    1       25.523 -24.005   5.478  0.00  0.00    +0.026 C 
ATOM      3  C   LIG    1       26.497 -25.057   6.067  0.00  0.00    +0.007 C 
ATOM      4  C   LIG    1       25.882 -25.975   7.119  0.00  0.00    +0.000 C 
ATOM      5  C   LIG    1       24.641 -26.684   6.591  0.00  0.00    +0.000 C 
ATOM      6  C   LIG    1       23.634 -25.727   5.968  0.00  0.00    +0.000 C 
ATOM      7  C   LIG    1       24.278 -24.775   4.959  0.00  0.00    +0.007 C 
ENDBRANCH   1   2
BRANCH   1   8
ATOM      8  C   LIG    1       24.356 -21.672   5.688  0.00  0.00    -0.015 A 
ATOM      9  C   LIG    1       23.300 -20.993   6.320  0.00  0.00    +0.006 A 
ATOM     10  C   LIG    1       22.590 -19.976   5.671  0.00  0.00    +0.000 A 
ATOM     11  C   LIG    1       22.899 -19.636   4.357  0.00  0.00    +0.000 A 
ATOM     12  C   LIG    1       23.904 -20.322   3.691  0.00  0.00    +0.000 A 
ATOM     13  C   LIG    1       24.621 -21.329   4.345  0.00  0.00    +0.006 A 
ENDBRANCH   1   8
BRANCH   1  14
ATOM     14  O   LIG    1       24.465 -23.270   7.539  0.00  0.00    -0.382 OA
ATOM     15  H   LIG    1       25.078 -23.227   8.295  0.00  0.00    +0.211 HD
ENDBRANCH   1  14
BRANCH   1  16
ATOM     16  C   LIG    1       26.527 -22.103   6.967  0.00  0.00    +0.124 C 
BRANCH  16  21
ATOM     17  C   LIG    1       30.824 -20.997   8.160  0.00  0.00    +0.192 C 
ATOM     18  N   LIG    1       29.588 -20.179   7.793  0.00  0.00    +0.241 N 
ATOM     19  C   LIG    1       28.464 -20.529   8.803  0.00  0.00    +0.148 C 
ATOM     20  C   LIG    1       27.083 -20.066   8.304  0.00  0.00    +0.135 C 
ATOM     21  N   LIG    1       26.692 -20.613   6.992  0.00  0.00    -0.289 NA
ATOM     22  C   LIG    1       27.705 -20.170   6.007  0.00  0.00    +0.135 C 
ATOM     23  C   LIG    1       29.173 -20.537   6.342  0.00  0.00    +0.148 C 
ATOM     24  C   LIG    1       29.941 -18.700   7.899  0.00  0.00    +0.192 C 
ENDBRANCH  16  21
ENDBRANCH   1  16
TORSDOF 5
ENDMDL
MODEL 8
REMARK VINA RESULT:      -5.7      7.031     10.877
REMARK  Name = *****
REMARK                            x       y       z     vdW  Elec       q    Type
REMARK                         _______ _______ _______ _____ _____    ______ ____
ROOT
ATOM      1  C   LIG    1       24.722 -30.075   6.606  0.00  0.00    +0.106 C 
ENDROOT
BRANCH   1   2
ATOM      2  C   LIG    1       25.901 -30.883   5.894  0.00  0.00    +0.026 C 
ATOM      3  C   LIG    1       26.545 -32.027   6.719  0.00  0.00    +0.007 C 
ATOM      4  C   LIG    1       25.702 -33.295   6.812  0.00  0.00    +0.000 C 
ATOM      5  C   LIG    1       25.326 -33.825   5.433  0.00  0.00    +0.000 C 
ATOM      6  C   LIG    1       24.708 -32.758   4.539  0.00  0.00    +0.000 C 
ATOM      7  C   LIG    1       25.536 -31.472   4.504  0.00  0.00    +0.007 C 
ENDBRANCH   1   2
BRANCH   1   8
ATOM      8  C   LIG    1       24.910 -28.544   6.524  0.00  0.00    -0.015 A 
ATOM      9  C   LIG    1       25.782 -27.850   7.381  0.00  0.00    +0.006 A 
ATOM     10  C   LIG    1       25.985 -26.470   7.258  0.00  0.00    +0.000 A 
ATOM     11  C   LIG    1       25.293 -25.745   6.292  0.00  0.00    +0.000 A 
ATOM     12  C   LIG    1       24.390 -26.395   5.464  0.00  0.00    +0.000 A 
ATOM     13  C   LIG    1       24.197 -27.775   5.580  0.00  0.00    +0.006 A 
ENDBRANCH   1   8
BRANCH   1  14
ATOM     14  O   LIG    1       23.508 -30.465   5.943  0.00  0.00    -0.382 OA
ATOM     15  H   LIG    1       23.778 -31.046   5.208  0.00  0.00    +0.211 HD
ENDBRANCH   1  14
BRANCH   1  16
ATOM     16  C   LIG    1       24.591 -30.511   8.127  0.00  0.00    +0.124 C 
BRANCH  16  21
ATOM     17  C   LIG    1       25.100 -32.485  12.244  0.00  0.00    +0.192 C 
ATOM     18  N   LIG    1       23.887 -32.137  11.384  0.00  0.00    +0.241 N 
ATOM     19  C   LIG    1       24.026 -32.887  10.033  0.00  0.00    +0.148 C 
ATOM     20  C   LIG    1       23.078 -32.315   8.963  0.00  0.00    +0.135 C 
ATOM     21  N   LIG    1       23.253 -30.876   8.697  0.00  0.00    -0.289 NA
ATOM     22  C   LIG    1       22.997 -30.155   9.965  0.00  0.00    +0.135 C 
ATOM     23  C   LIG    1       23.857 -30.601  11.176  0.00  0.00    +0.148 C 
ATOM     24  C   LIG    1       22.633 -32.605  12.112  0.00  0.00    +0.192 C 
ENDBRANCH  16  21
ENDBRANCH   1  16
TORSDOF 5
ENDMDL
MODEL 9
REMARK VINA RESULT:      -5.6      2.399      5.729
REMARK  Name = *****
REMARK                            x       y       z     vdW  Elec       q    Type
REMARK                         _______ _______ _______ _____ _____    ______ ____
ROOT
ATOM      1  C   LIG    1       25.757 -21.442   6.245  0.00  0.00    +0.106 C 
ENDROOT
BRANCH   1   2
ATOM      2  C   LIG    1       25.304 -22.380   7.455  0.00  0.00    +0.026 C 
ATOM      3  C   LIG    1       23.777 -22.548   7.658  0.00  0.00    +0.007 C 
ATOM      4  C   LIG    1       23.102 -23.479   6.655  0.00  0.00    +0.000 C 
ATOM      5  C   LIG    1       23.757 -24.854   6.633  0.00  0.00    +0.000 C 
ATOM      6  C   LIG    1       25.269 -24.786   6.464  0.00  0.00    +0.000 C 
ATOM      7  C   LIG    1       25.923 -23.804   7.438  0.00  0.00    +0.007 C 
ENDBRANCH   1   2
BRANCH   1   8
ATOM      8  C   LIG    1       27.052 -20.657   6.547  0.00  0.00    -0.015 A 
ATOM      9  C   LIG    1       27.644 -20.650   7.822  0.00  0.00    +0.006 A 
ATOM     10  C   LIG    1       28.849 -19.981   8.067  0.00  0.00    +0.000 A 
ATOM     11  C   LIG    1       29.475 -19.272   7.045  0.00  0.00    +0.000 A 
ATOM     12  C   LIG    1       28.889 -19.220   5.789  0.00  0.00    +0.000 A 
ATOM     13  C   LIG    1       27.692 -19.899   5.543  0.00  0.00    +0.006 A 
ENDBRANCH   1   8
BRANCH   1  14
ATOM     14  O   LIG    1       25.951 -22.308   5.114  0.00  0.00    -0.382 OA
ATOM     15  H   LIG    1       25.519 -23.151   5.344  0.00  0.00    +0.211 HD
ENDBRANCH   1  14
BRANCH   1  16
ATOM     16  C   LIG    1       24.598 -20.424   5.867  0.00  0.00    +0.124 C 
BRANCH  16  21
ATOM     17  C   LIG    1       22.269 -16.621   4.765  0.00  0.00    +0.192 C 
ATOM     18  N   LIG    1       22.334 -18.026   4.172  0.00  0.00    +0.241 N 
ATOM     19  C   LIG    1       21.897 -19.031   5.271  0.00  0.00    +0.148 C 
ATOM     20  C   LIG    1       22.290 -20.476   4.912  0.00  0.00    +0.135 C 
ATOM     21  N   LIG    1       23.730 -20.675   4.671  0.00  0.00    -0.289 NA
ATOM     22  C   LIG    1       24.116 -19.803   3.538  0.00  0.00    +0.135 C 
ATOM     23  C   LIG    1       23.789 -18.297   3.708  0.00  0.00    +0.148 C 
ATOM     24  C   LIG    1       21.373 -18.095   2.992  0.00  0.00    +0.192 C 
ENDBRANCH  16  21
ENDBRANCH   1  16
TORSDOF 5
ENDMDL
