MODEL 1
REMARK VINA RESULT:       3.3      0.000      0.000
REMARK  Name = *****
REMARK                            x       y       z     vdW  Elec       q    Type
REMARK                         _______ _______ _______ _____ _____    ______ ____
ROOT
ATOM      1  C   LIG    1       23.189 -14.206   5.868  0.00  0.00    +0.158 C 
ATOM      2  N   LIG    1       23.288 -14.381   4.392  0.00  0.00    -0.198 N 
ATOM      3  S   LIG    1       23.985 -13.057   3.556  0.00  0.00    +0.076 S 
ATOM      4  O   LIG    1       23.810 -11.842   4.309  0.00  0.00    -0.150 OA
ATOM      5  O   LIG    1       23.649 -13.172   2.152  0.00  0.00    -0.150 OA
ATOM      6  C   LIG    1       25.669 -13.367   3.598  0.00  0.00    +0.128 A 
ATOM      7  C   LIG    1       26.067 -14.680   3.728  0.00  0.00    +0.084 A 
ATOM      8  S   LIG    1       27.786 -14.753   3.751  0.00  0.00    -0.072 S 
ATOM      9  C   LIG    1       27.923 -13.077   3.517  0.00  0.00    +0.081 A 
ATOM     10 CL   LIG    1       29.475 -12.357   3.369  0.00  0.00    -0.076 Cl
ATOM     11  C   LIG    1       25.192 -15.814   3.775  0.00  0.00    +0.160 C 
ATOM     12  C   LIG    1       26.718 -12.426   3.459  0.00  0.00    +0.057 A 
ATOM     13  C   LIG    1       23.861 -15.668   3.994  0.00  0.00    +0.155 C 
ENDROOT
BRANCH  13  14
ATOM     14  C   LIG    1       22.926 -16.847   3.905  0.00  0.00    +0.269 C 
ATOM     15  N   LIG    1       23.419 -17.952   4.567  0.00  0.00    -0.265 N 
ATOM     16  H   LIG    1       24.290 -17.828   5.066  0.00  0.00    +0.157 HD
ATOM     17  O   LIG    1       21.848 -16.716   3.333  0.00  0.00    -0.268 OA
BRANCH  15  18
ATOM     18  C   LIG    1       22.757 -19.176   4.710  0.00  0.00    +0.125 A 
ATOM     19  N   LIG    1       21.574 -19.382   4.109  0.00  0.00    -0.240 NA
ATOM     20  C   LIG    1       20.955 -20.565   4.319  0.00  0.00    +0.113 A 
ATOM     21  C   LIG    1       21.467 -21.572   5.116  0.00  0.00    +0.020 A 
ATOM     22  C   LIG    1       22.701 -21.358   5.715  0.00  0.00    +0.005 A 
ATOM     23  C   LIG    1       23.364 -20.149   5.501  0.00  0.00    +0.044 A 
ENDBRANCH  15  18
ENDBRANCH  13  14
BRANCH  11  24
ATOM     24  O   LIG    1       25.804 -17.019   3.488  0.00  0.00    -0.504 OA
ATOM     25  H   LIG    1       25.109 -17.709   3.377  0.00  0.00    +0.292 HD
ENDBRANCH  11  24
TORSDOF 3
ENDMDL
MODEL 2
REMARK VINA RESULT:       5.5      3.924      7.615
REMARK  Name = *****
REMARK                            x       y       z     vdW  Elec       q    Type
REMARK                         _______ _______ _______ _____ _____    ______ ____
ROOT
ATOM      1  C   LIG    1       26.245 -19.587   5.608  0.00  0.00    +0.158 C 
ATOM      2  N   LIG    1       26.001 -19.218   4.186  0.00  0.00    -0.198 N 
ATOM      3  S   LIG    1       24.935 -20.264   3.344  0.00  0.00    +0.076 S 
ATOM      4  O   LIG    1       24.937 -21.572   3.947  0.00  0.00    -0.150 OA
ATOM      5  O   LIG    1       25.109 -20.050   1.923  0.00  0.00    -0.150 OA
ATOM      6  C   LIG    1       23.377 -19.630   3.664  0.00  0.00    +0.128 A 
ATOM      7  C   LIG    1       23.290 -18.289   3.973  0.00  0.00    +0.084 A 
ATOM      8  S   LIG    1       21.644 -17.876   4.256  0.00  0.00    -0.072 S 
ATOM      9  C   LIG    1       21.121 -19.450   3.892  0.00  0.00    +0.081 A 
ATOM     10 CL   LIG    1       19.445 -19.819   3.910  0.00  0.00    -0.076 Cl
ATOM     11  C   LIG    1       24.388 -17.368   3.993  0.00  0.00    +0.160 C 
ATOM     12  C   LIG    1       22.140 -20.317   3.596  0.00  0.00    +0.057 A 
ATOM     13  C   LIG    1       25.674 -17.804   3.997  0.00  0.00    +0.155 C 
ENDROOT
BRANCH  13  14
ATOM     14  C   LIG    1       26.822 -16.835   3.880  0.00  0.00    +0.269 C 
ATOM     15  N   LIG    1       26.417 -15.527   4.045  0.00  0.00    -0.265 N 
ATOM     16  H   LIG    1       25.443 -15.382   4.277  0.00  0.00    +0.157 HD
ATOM     17  O   LIG    1       27.958 -17.268   3.711  0.00  0.00    -0.268 OA
BRANCH  15  18
ATOM     18  C   LIG    1       27.258 -14.410   4.048  0.00  0.00    +0.125 A 
ATOM     19  N   LIG    1       27.954 -14.082   2.947  0.00  0.00    -0.240 NA
ATOM     20  C   LIG    1       28.788 -13.021   3.017  0.00  0.00    +0.113 A 
ATOM     21  C   LIG    1       28.967 -12.256   4.154  0.00  0.00    +0.020 A 
ATOM     22  C   LIG    1       28.228 -12.589   5.281  0.00  0.00    +0.005 A 
ATOM     23  C   LIG    1       27.351 -13.673   5.226  0.00  0.00    +0.044 A 
ENDBRANCH  15  18
ENDBRANCH  13  14
BRANCH  11  24
ATOM     24  O   LIG    1       24.020 -16.039   3.912  0.00  0.00    -0.504 OA
ATOM     25  H   LIG    1       23.814 -15.823   2.973  0.00  0.00    +0.292 HD
ENDBRANCH  11  24
TORSDOF 3
ENDMDL
