MODEL 1
REMARK VINA RESULT:       0.5      0.000      0.000
REMARK  Name = *****
REMARK                            x       y       z     vdW  Elec       q    Type
REMARK                         _______ _______ _______ _____ _____    ______ ____
ROOT
ATOM      1  CA  LIG    1       23.779 -13.902   4.099  0.00  0.00    +0.190 C 
ATOM      2  C   LIG    1       24.994 -13.657   5.026  0.00  0.00    +0.165 C 
ATOM      3  S   LIG    1       26.095 -15.059   5.419  0.00  0.00    -0.127 S 
ATOM      4  C   LIG    1       27.238 -14.785   3.989  0.00  0.00    +0.042 C 
ATOM      5  CA  LIG    1       27.022 -13.318   3.544  0.00  0.00    +0.201 C 
ATOM      6  C   LIG    1       26.839 -15.780   2.885  0.00  0.00    +0.025 C 
ATOM      7  C   LIG    1       28.665 -15.122   4.438  0.00  0.00    +0.025 C 
ATOM      8  N   LIG    1       25.653 -12.938   3.916  0.00  0.00    -0.271 N 
ATOM      9  C   LIG    1       24.653 -13.236   3.021  0.00  0.00    +0.240 C 
ATOM     10  O   LIG    1       24.648 -13.200   1.812  0.00  0.00    -0.273 OA
ENDROOT
BRANCH   1  12
ATOM     11  C   LIG    1       22.569 -16.016   4.668  0.00  0.00    +0.254 C 
ATOM     12  N   LIG    1       23.387 -15.295   3.827  0.00  0.00    -0.299 N 
ATOM     13  H   LIG    1       23.648 -15.754   2.944  0.00  0.00    +0.150 HD
ATOM     14  O   LIG    1       22.148 -15.537   5.717  0.00  0.00    -0.272 OA
BRANCH  11  16
ATOM     15  C   LIG    1       20.841 -17.433   3.583  0.00  0.00    +0.062 C 
ATOM     16  C   LIG    1       22.238 -17.440   4.197  0.00  0.00    +0.255 C 
BRANCH  16  17
ATOM     17  O   LIG    1       22.207 -18.412   5.249  0.00  0.00    -0.480 OA
BRANCH  17  18
ATOM     18  C   LIG    1       23.088 -19.454   5.169  0.00  0.00    +0.122 A 
ATOM     19  C   LIG    1       24.020 -19.640   4.146  0.00  0.00    +0.045 A 
ATOM     20  C   LIG    1       24.933 -20.695   4.219  0.00  0.00    +0.004 A 
ATOM     21  C   LIG    1       24.910 -21.572   5.303  0.00  0.00    +0.000 A 
ATOM     22  C   LIG    1       23.978 -21.392   6.321  0.00  0.00    +0.004 A 
ATOM     23  C   LIG    1       23.076 -20.327   6.257  0.00  0.00    +0.045 A 
ENDBRANCH  17  18
ENDBRANCH  16  17
ENDBRANCH  11  16
ENDBRANCH   1  12
BRANCH   5  24
ATOM     24  C   LIG    1       28.062 -12.348   4.115  0.00  0.00    +0.327 C 
ATOM     25  O   LIG    1       28.949 -11.845   3.440  0.00  0.00    -0.249 OA
BRANCH  24  26
ATOM     26  OXT LIG    1       28.011 -12.169   5.452  0.00  0.00    -0.479 OA
ATOM     27  HXT LIG    1       28.761 -11.652   5.789  0.00  0.00    +0.295 HD
ENDBRANCH  24  26
ENDBRANCH   5  24
TORSDOF 6
ENDMDL
MODEL 2
REMARK VINA RESULT:       2.8      2.659      7.517
REMARK  Name = *****
REMARK                            x       y       z     vdW  Elec       q    Type
REMARK                         _______ _______ _______ _____ _____    ______ ____
ROOT
ATOM      1  CA  LIG    1       26.021 -18.842   4.036  0.00  0.00    +0.190 C 
ATOM      2  C   LIG    1       24.909 -19.010   5.099  0.00  0.00    +0.165 C 
ATOM      3  S   LIG    1       23.495 -17.856   5.080  0.00  0.00    -0.127 S 
ATOM      4  C   LIG    1       22.451 -18.884   3.950  0.00  0.00    +0.042 C 
ATOM      5  CA  LIG    1       23.023 -20.320   4.025  0.00  0.00    +0.201 C 
ATOM      6  C   LIG    1       22.584 -18.291   2.536  0.00  0.00    +0.025 C 
ATOM      7  C   LIG    1       20.986 -18.747   4.385  0.00  0.00    +0.025 C 
ATOM      8  N   LIG    1       24.446 -20.213   4.376  0.00  0.00    -0.271 N 
ATOM      9  C   LIG    1       25.336 -20.035   3.344  0.00  0.00    +0.240 C 
ATOM     10  O   LIG    1       25.345 -20.502   2.229  0.00  0.00    -0.273 OA
ENDROOT
BRANCH   1  12
ATOM     11  C   LIG    1       26.891 -16.544   3.569  0.00  0.00    +0.254 C 
ATOM     12  N   LIG    1       26.052 -17.591   3.260  0.00  0.00    -0.299 N 
ATOM     13  H   LIG    1       25.498 -17.490   2.398  0.00  0.00    +0.150 HD
ATOM     14  O   LIG    1       27.640 -16.590   4.540  0.00  0.00    -0.272 OA
BRANCH  11  16
ATOM     15  C   LIG    1       27.394 -14.122   3.334  0.00  0.00    +0.062 C 
ATOM     16  C   LIG    1       26.808 -15.338   2.621  0.00  0.00    +0.255 C 
BRANCH  16  17
ATOM     17  O   LIG    1       25.473 -14.977   2.249  0.00  0.00    -0.480 OA
BRANCH  17  18
ATOM     18  C   LIG    1       24.992 -13.784   2.711  0.00  0.00    +0.122 A 
ATOM     19  C   LIG    1       24.840 -12.629   1.942  0.00  0.00    +0.045 A 
ATOM     20  C   LIG    1       24.249 -11.492   2.501  0.00  0.00    +0.004 A 
ATOM     21  C   LIG    1       23.822 -11.503   3.829  0.00  0.00    +0.000 A 
ATOM     22  C   LIG    1       23.977 -12.651   4.599  0.00  0.00    +0.004 A 
ATOM     23  C   LIG    1       24.552 -13.793   4.035  0.00  0.00    +0.045 A 
ENDBRANCH  17  18
ENDBRANCH  16  17
ENDBRANCH  11  16
ENDBRANCH   1  12
BRANCH   5  24
ATOM     24  C   LIG    1       22.262 -21.231   4.994  0.00  0.00    +0.327 C 
ATOM     25  O   LIG    1       21.100 -21.571   4.817  0.00  0.00    -0.249 OA
BRANCH  24  26
ATOM     26  OXT LIG    1       22.919 -21.545   6.130  0.00  0.00    -0.479 OA
ATOM     27  HXT LIG    1       23.876 -21.638   5.995  0.00  0.00    +0.295 HD
ENDBRANCH  24  26
ENDBRANCH   5  24
TORSDOF 6
ENDMDL
MODEL 3
REMARK VINA RESULT:       3.4      2.179      3.863
REMARK  Name = *****
REMARK                            x       y       z     vdW  Elec       q    Type
REMARK                         _______ _______ _______ _____ _____    ______ ____
ROOT
ATOM      1  CA  LIG    1       26.422 -17.245   3.355  0.00  0.00    +0.190 C 
ATOM      2  C   LIG    1       25.772 -16.022   2.664  0.00  0.00    +0.165 C 
ATOM      3  S   LIG    1       24.297 -15.265   3.426  0.00  0.00    -0.127 S 
ATOM      4  C   LIG    1       25.242 -14.065   4.472  0.00  0.00    +0.042 C 
ATOM      5  CA  LIG    1       26.643 -13.943   3.824  0.00  0.00    +0.201 C 
ATOM      6  C   LIG    1       25.319 -14.654   5.891  0.00  0.00    +0.025 C 
ATOM      7  C   LIG    1       24.446 -12.755   4.544  0.00  0.00    +0.025 C 
ATOM      8  N   LIG    1       26.915 -15.201   3.116  0.00  0.00    -0.271 N 
ATOM      9  C   LIG    1       27.468 -16.226   3.847  0.00  0.00    +0.240 C 
ATOM     10  O   LIG    1       28.295 -16.202   4.728  0.00  0.00    -0.273 OA
ENDROOT
BRANCH   1  12
ATOM     11  C   LIG    1       25.883 -19.242   4.761  0.00  0.00    +0.254 C 
ATOM     12  N   LIG    1       25.658 -17.930   4.411  0.00  0.00    -0.299 N 
ATOM     13  H   LIG    1       24.977 -17.416   4.987  0.00  0.00    +0.150 HD
ATOM     14  O   LIG    1       26.721 -19.925   4.178  0.00  0.00    -0.272 OA
BRANCH  11  16
ATOM     15  C   LIG    1       25.895 -20.605   6.838  0.00  0.00    +0.062 C 
ATOM     16  C   LIG    1       25.014 -19.771   5.912  0.00  0.00    +0.255 C 
BRANCH  16  17
ATOM     17  O   LIG    1       23.949 -20.631   5.493  0.00  0.00    -0.480 OA
BRANCH  17  18
ATOM     18  C   LIG    1       22.831 -20.041   4.973  0.00  0.00    +0.122 A 
ATOM     19  C   LIG    1       22.700 -18.679   4.691  0.00  0.00    +0.045 A 
ATOM     20  C   LIG    1       21.541 -18.203   4.074  0.00  0.00    +0.004 A 
ATOM     21  C   LIG    1       20.507 -19.081   3.747  0.00  0.00    +0.000 A 
ATOM     22  C   LIG    1       20.633 -20.438   4.032  0.00  0.00    +0.004 A 
ATOM     23  C   LIG    1       21.799 -20.917   4.634  0.00  0.00    +0.045 A 
ENDBRANCH  17  18
ENDBRANCH  16  17
ENDBRANCH  11  16
ENDBRANCH   1  12
BRANCH   5  24
ATOM     24  C   LIG    1       26.786 -12.726   2.905  0.00  0.00    +0.327 C 
ATOM     25  O   LIG    1       25.956 -12.427   2.058  0.00  0.00    -0.249 OA
BRANCH  24  26
ATOM     26  OXT LIG    1       27.955 -12.060   3.006  0.00  0.00    -0.479 OA
ATOM     27  HXT LIG    1       28.307 -12.056   3.911  0.00  0.00    +0.295 HD
ENDBRANCH  24  26
ENDBRANCH   5  24
TORSDOF 6
ENDMDL
