MODEL 1
REMARK VINA RESULT:      -7.7      0.000      0.000
REMARK  Name = *****
REMARK                            x       y       z     vdW  Elec       q    Type
REMARK                         _______ _______ _______ _____ _____    ______ ____
ROOT
ATOM      1  O   LIG    1       28.129 -19.949   7.700  0.00  0.00    -0.461 OA
ENDROOT
BRANCH   1   5
ATOM      2  N   LIG    1       24.892 -22.228   6.672  0.00  0.00    +0.247 N 
ATOM      3  C   LIG    1       25.003 -20.683   6.765  0.00  0.00    +0.070 C 
ATOM      4  C   LIG    1       26.286 -20.193   6.083  0.00  0.00    +0.099 C 
ATOM      5  C   LIG    1       27.582 -20.800   6.653  0.00  0.00    +0.187 C 
ATOM      6  C   LIG    1       27.398 -22.245   7.168  0.00  0.00    +0.099 C 
ATOM      7  C   LIG    1       25.057 -20.418   8.282  0.00  0.00    +0.060 C 
ATOM      8  C   LIG    1       25.628 -21.694   8.904  0.00  0.00    +0.060 C 
ATOM      9  C   LIG    1       25.994 -22.585   7.716  0.00  0.00    +0.070 C 
ATOM     10  C   LIG    1       23.492 -22.687   7.184  0.00  0.00    +0.193 C 
BRANCH   2  12
ATOM     11  C   LIG    1       24.967 -24.364   5.263  0.00  0.00    +0.063 C 
ATOM     12  C   LIG    1       25.121 -22.839   5.246  0.00  0.00    +0.060 C 
ATOM     13  C   LIG    1       24.198 -22.207   4.199  0.00  0.00    +0.063 C 
ENDBRANCH   2  12
ENDBRANCH   1   5
BRANCH   1  14
ATOM     14  C   LIG    1       29.433 -19.565   7.513  0.00  0.00    +0.317 C 
ATOM     15  O   LIG    1       29.844 -19.012   6.484  0.00  0.00    -0.250 OA
BRANCH  14  16
ATOM     16  C   LIG    1       30.296 -19.829   8.747  0.00  0.00    +0.153 C 
BRANCH  16  17
ATOM     17  C   LIG    1       30.850 -18.533   9.330  0.00  0.00    -0.032 A 
ATOM     18  C   LIG    1       31.953 -17.879   8.757  0.00  0.00    +0.004 A 
ATOM     19  C   LIG    1       32.455 -16.704   9.321  0.00  0.00    +0.000 A 
ATOM     20  C   LIG    1       31.852 -16.157  10.452  0.00  0.00    +0.000 A 
ATOM     21  C   LIG    1       30.758 -16.794  11.032  0.00  0.00    +0.000 A 
ATOM     22  C   LIG    1       30.264 -17.980  10.481  0.00  0.00    +0.004 A 
ENDBRANCH  16  17
BRANCH  16  23
ATOM     23  C   LIG    1       31.423 -20.818   8.362  0.00  0.00    +0.175 C 
BRANCH  23  24
ATOM     24  O   LIG    1       32.090 -21.339   9.509  0.00  0.00    -0.394 OA
ATOM     25  H   LIG    1       32.922 -20.840   9.619  0.00  0.00    +0.209 HD
ENDBRANCH  23  24
ENDBRANCH  16  23
ENDBRANCH  14  16
ENDBRANCH   1  14
TORSDOF 7
ENDMDL
MODEL 2
REMARK VINA RESULT:      -7.2      5.314      8.689
REMARK  Name = *****
REMARK                            x       y       z     vdW  Elec       q    Type
REMARK                         _______ _______ _______ _____ _____    ______ ____
ROOT
ATOM      1  O   LIG    1       24.836 -25.693   6.938  0.00  0.00    -0.461 OA
ENDROOT
BRANCH   1   5
ATOM      2  N   LIG    1       24.422 -21.744   5.958  0.00  0.00    +0.247 N 
ATOM      3  C   LIG    1       25.638 -22.680   5.728  0.00  0.00    +0.070 C 
ATOM      4  C   LIG    1       25.179 -24.028   5.156  0.00  0.00    +0.099 C 
ATOM      5  C   LIG    1       24.158 -24.778   6.033  0.00  0.00    +0.187 C 
ATOM      6  C   LIG    1       23.223 -23.830   6.817  0.00  0.00    +0.099 C 
ATOM      7  C   LIG    1       26.226 -22.861   7.140  0.00  0.00    +0.060 C 
ATOM      8  C   LIG    1       25.059 -22.637   8.104  0.00  0.00    +0.060 C 
ATOM      9  C   LIG    1       23.831 -22.465   7.208  0.00  0.00    +0.070 C 
ATOM     10  C   LIG    1       24.923 -20.317   6.342  0.00  0.00    +0.193 C 
BRANCH   2  12
ATOM     11  C   LIG    1       22.211 -20.761   5.124  0.00  0.00    +0.063 C 
ATOM     12  C   LIG    1       23.430 -21.611   4.751  0.00  0.00    +0.060 C 
ATOM     13  C   LIG    1       24.122 -21.058   3.502  0.00  0.00    +0.063 C 
ENDBRANCH   2  12
ENDBRANCH   1   5
BRANCH   1  14
ATOM     14  C   LIG    1       25.404 -26.788   6.338  0.00  0.00    +0.317 C 
ATOM     15  O   LIG    1       26.433 -26.737   5.651  0.00  0.00    -0.250 OA
BRANCH  14  16
ATOM     16  C   LIG    1       24.665 -28.082   6.678  0.00  0.00    +0.153 C 
BRANCH  16  17
ATOM     17  C   LIG    1       25.428 -28.909   7.708  0.00  0.00    -0.032 A 
ATOM     18  C   LIG    1       26.181 -28.304   8.727  0.00  0.00    +0.004 A 
ATOM     19  C   LIG    1       26.887 -29.083   9.647  0.00  0.00    +0.000 A 
ATOM     20  C   LIG    1       26.836 -30.473   9.573  0.00  0.00    +0.000 A 
ATOM     21  C   LIG    1       26.093 -31.087   8.567  0.00  0.00    +0.000 A 
ATOM     22  C   LIG    1       25.401 -30.311   7.634  0.00  0.00    +0.004 A 
ENDBRANCH  16  17
BRANCH  16  23
ATOM     23  C   LIG    1       24.420 -28.873   5.369  0.00  0.00    +0.175 C 
BRANCH  23  24
ATOM     24  O   LIG    1       23.116 -29.445   5.327  0.00  0.00    -0.394 OA
ATOM     25  H   LIG    1       22.715 -29.330   6.210  0.00  0.00    +0.209 HD
ENDBRANCH  23  24
ENDBRANCH  16  23
ENDBRANCH  14  16
ENDBRANCH   1  14
TORSDOF 7
ENDMDL
MODEL 3
REMARK VINA RESULT:      -7.0      4.620      8.577
REMARK  Name = *****
REMARK                            x       y       z     vdW  Elec       q    Type
REMARK                         _______ _______ _______ _____ _____    ______ ____
ROOT
ATOM      1  O   LIG    1       25.125 -25.476   6.705  0.00  0.00    -0.461 OA
ENDROOT
BRANCH   1   5
ATOM      2  N   LIG    1       24.537 -21.474   6.097  0.00  0.00    +0.247 N 
ATOM      3  C   LIG    1       24.764 -22.231   7.432  0.00  0.00    +0.070 C 
ATOM      4  C   LIG    1       25.926 -23.223   7.298  0.00  0.00    +0.099 C 
ATOM      5  C   LIG    1       25.746 -24.269   6.181  0.00  0.00    +0.187 C 
ATOM      6  C   LIG    1       24.953 -23.730   4.971  0.00  0.00    +0.099 C 
ATOM      7  C   LIG    1       23.435 -22.978   7.652  0.00  0.00    +0.060 C 
ATOM      8  C   LIG    1       22.835 -23.173   6.259  0.00  0.00    +0.060 C 
ATOM      9  C   LIG    1       23.898 -22.647   5.292  0.00  0.00    +0.070 C 
ATOM     10  C   LIG    1       23.496 -20.332   6.310  0.00  0.00    +0.193 C 
BRANCH   2  12
ATOM     11  C   LIG    1       25.456 -19.870   4.326  0.00  0.00    +0.063 C 
ATOM     12  C   LIG    1       25.820 -20.856   5.442  0.00  0.00    +0.060 C 
ATOM     13  C   LIG    1       26.730 -20.195   6.482  0.00  0.00    +0.063 C 
ENDBRANCH   2  12
ENDBRANCH   1   5
BRANCH   1  14
ATOM     14  C   LIG    1       25.648 -26.651   6.228  0.00  0.00    +0.317 C 
ATOM     15  O   LIG    1       26.720 -26.725   5.614  0.00  0.00    -0.250 OA
BRANCH  14  16
ATOM     16  C   LIG    1       24.794 -27.860   6.609  0.00  0.00    +0.153 C 
BRANCH  16  17
ATOM     17  C   LIG    1       25.477 -28.716   7.670  0.00  0.00    -0.032 A 
ATOM     18  C   LIG    1       25.364 -30.116   7.672  0.00  0.00    +0.004 A 
ATOM     19  C   LIG    1       25.983 -30.878   8.667  0.00  0.00    +0.000 A 
ATOM     20  C   LIG    1       26.735 -30.254   9.660  0.00  0.00    +0.000 A 
ATOM     21  C   LIG    1       26.855 -28.867   9.672  0.00  0.00    +0.000 A 
ATOM     22  C   LIG    1       26.222 -28.101   8.689  0.00  0.00    +0.004 A 
ENDBRANCH  16  17
BRANCH  16  23
ATOM     23  C   LIG    1       24.481 -28.671   5.326  0.00  0.00    +0.175 C 
BRANCH  23  24
ATOM     24  O   LIG    1       23.183 -29.259   5.370  0.00  0.00    -0.394 OA
ATOM     25  H   LIG    1       22.739 -29.057   4.525  0.00  0.00    +0.209 HD
ENDBRANCH  23  24
ENDBRANCH  16  23
ENDBRANCH  14  16
ENDBRANCH   1  14
TORSDOF 7
ENDMDL
MODEL 4
REMARK VINA RESULT:      -6.9      7.012      9.934
REMARK  Name = *****
REMARK                            x       y       z     vdW  Elec       q    Type
REMARK                         _______ _______ _______ _____ _____    ______ ____
ROOT
ATOM      1  O   LIG    1       25.436 -28.479   7.912  0.00  0.00    -0.461 OA
ENDROOT
BRANCH   1   5
ATOM      2  N   LIG    1       25.186 -31.411  10.753  0.00  0.00    +0.247 N 
ATOM      3  C   LIG    1       24.334 -30.122  10.609  0.00  0.00    +0.070 C 
ATOM      4  C   LIG    1       23.884 -29.933   9.154  0.00  0.00    +0.099 C 
ATOM      5  C   LIG    1       25.036 -29.860   8.135  0.00  0.00    +0.187 C 
ATOM      6  C   LIG    1       26.255 -30.720   8.537  0.00  0.00    +0.099 C 
ATOM      7  C   LIG    1       25.304 -29.001  11.027  0.00  0.00    +0.060 C 
ATOM      8  C   LIG    1       26.707 -29.542  10.742  0.00  0.00    +0.060 C 
ATOM      9  C   LIG    1       26.480 -30.890  10.056  0.00  0.00    +0.070 C 
ATOM     10  C   LIG    1       25.458 -31.695  12.262  0.00  0.00    +0.193 C 
BRANCH   2  12
ATOM     11  C   LIG    1       25.613 -33.825  10.016  0.00  0.00    +0.063 C 
ATOM     12  C   LIG    1       24.573 -32.703  10.110  0.00  0.00    +0.060 C 
ATOM     13  C   LIG    1       23.323 -33.176  10.859  0.00  0.00    +0.063 C 
ENDBRANCH   2  12
ENDBRANCH   1   5
BRANCH   1  14
ATOM     14  C   LIG    1       25.082 -27.962   6.691  0.00  0.00    +0.317 C 
ATOM     15  O   LIG    1       24.132 -28.382   6.018  0.00  0.00    -0.250 OA
BRANCH  14  16
ATOM     16  C   LIG    1       25.947 -26.765   6.298  0.00  0.00    +0.153 C 
BRANCH  16  17
ATOM     17  C   LIG    1       25.228 -25.445   6.556  0.00  0.00    -0.032 A 
ATOM     18  C   LIG    1       23.843 -25.311   6.364  0.00  0.00    +0.004 A 
ATOM     19  C   LIG    1       23.209 -24.086   6.588  0.00  0.00    +0.000 A 
ATOM     20  C   LIG    1       23.945 -22.987   7.024  0.00  0.00    +0.000 A 
ATOM     21  C   LIG    1       25.320 -23.104   7.218  0.00  0.00    +0.000 A 
ATOM     22  C   LIG    1       25.960 -24.323   6.977  0.00  0.00    +0.004 A 
ENDBRANCH  16  17
BRANCH  16  23
ATOM     23  C   LIG    1       26.360 -26.917   4.813  0.00  0.00    +0.175 C 
BRANCH  23  24
ATOM     24  O   LIG    1       27.707 -27.361   4.676  0.00  0.00    -0.394 OA
ATOM     25  H   LIG    1       27.842 -27.613   3.743  0.00  0.00    +0.209 HD
ENDBRANCH  23  24
ENDBRANCH  16  23
ENDBRANCH  14  16
ENDBRANCH   1  14
TORSDOF 7
ENDMDL
MODEL 5
REMARK VINA RESULT:      -6.8      5.747      7.510
REMARK  Name = *****
REMARK                            x       y       z     vdW  Elec       q    Type
REMARK                         _______ _______ _______ _____ _____    ______ ____
ROOT
ATOM      1  O   LIG    1       25.219 -24.144   5.666  0.00  0.00    -0.461 OA
ENDROOT
BRANCH   1   5
ATOM      2  N   LIG    1       25.374 -28.176   6.337  0.00  0.00    +0.247 N 
ATOM      3  C   LIG    1       26.544 -27.183   6.107  0.00  0.00    +0.070 C 
ATOM      4  C   LIG    1       26.350 -25.916   6.950  0.00  0.00    +0.099 C 
ATOM      5  C   LIG    1       25.030 -25.169   6.681  0.00  0.00    +0.187 C 
ATOM      6  C   LIG    1       23.869 -26.111   6.293  0.00  0.00    +0.099 C 
ATOM      7  C   LIG    1       26.449 -26.856   4.604  0.00  0.00    +0.060 C 
ATOM      8  C   LIG    1       24.984 -27.080   4.226  0.00  0.00    +0.060 C 
ATOM      9  C   LIG    1       24.278 -27.400   5.545  0.00  0.00    +0.070 C 
ATOM     10  C   LIG    1       25.691 -29.533   5.637  0.00  0.00    +0.193 C 
BRANCH   2  12
ATOM     11  C   LIG    1       24.159 -29.729   7.969  0.00  0.00    +0.063 C 
ATOM     12  C   LIG    1       25.016 -28.465   7.835  0.00  0.00    +0.060 C 
ATOM     13  C   LIG    1       26.267 -28.556   8.715  0.00  0.00    +0.063 C 
ENDBRANCH   2  12
ENDBRANCH   1   5
BRANCH   1  14
ATOM     14  C   LIG    1       25.185 -22.854   6.130  0.00  0.00    +0.317 C 
ATOM     15  O   LIG    1       26.195 -22.217   6.461  0.00  0.00    -0.250 OA
BRANCH  14  16
ATOM     16  C   LIG    1       23.772 -22.272   6.118  0.00  0.00    +0.153 C 
BRANCH  16  17
ATOM     17  C   LIG    1       23.687 -21.024   5.245  0.00  0.00    -0.032 A 
ATOM     18  C   LIG    1       24.653 -20.744   4.265  0.00  0.00    +0.004 A 
ATOM     19  C   LIG    1       24.564 -19.584   3.491  0.00  0.00    +0.000 A 
ATOM     20  C   LIG    1       23.503 -18.701   3.672  0.00  0.00    +0.000 A 
ATOM     21  C   LIG    1       22.538 -18.965   4.641  0.00  0.00    +0.000 A 
ATOM     22  C   LIG    1       22.633 -20.115   5.430  0.00  0.00    +0.004 A 
ENDBRANCH  16  17
BRANCH  16  23
ATOM     23  C   LIG    1       23.341 -21.986   7.578  0.00  0.00    +0.175 C 
BRANCH  23  24
ATOM     24  O   LIG    1       24.364 -21.323   8.317  0.00  0.00    -0.394 OA
ATOM     25  H   LIG    1       24.802 -20.693   7.714  0.00  0.00    +0.209 HD
ENDBRANCH  23  24
ENDBRANCH  16  23
ENDBRANCH  14  16
ENDBRANCH   1  14
TORSDOF 7
ENDMDL
MODEL 6
REMARK VINA RESULT:      -6.8      2.634      7.272
REMARK  Name = *****
REMARK                            x       y       z     vdW  Elec       q    Type
REMARK                         _______ _______ _______ _____ _____    ______ ____
ROOT
ATOM      1  O   LIG    1       26.499 -22.269   7.139  0.00  0.00    -0.461 OA
ENDROOT
BRANCH   1   5
ATOM      2  N   LIG    1       29.436 -19.433   7.384  0.00  0.00    +0.247 N 
ATOM      3  C   LIG    1       27.910 -19.237   7.188  0.00  0.00    +0.070 C 
ATOM      4  C   LIG    1       27.123 -20.118   8.166  0.00  0.00    +0.099 C 
ATOM      5  C   LIG    1       27.429 -21.624   8.054  0.00  0.00    +0.187 C 
ATOM      6  C   LIG    1       28.888 -21.916   7.642  0.00  0.00    +0.099 C 
ATOM      7  C   LIG    1       27.673 -19.691   5.735  0.00  0.00    +0.060 C 
ATOM      8  C   LIG    1       28.797 -20.680   5.424  0.00  0.00    +0.060 C 
ATOM      9  C   LIG    1       29.554 -20.850   6.742  0.00  0.00    +0.070 C 
ATOM     10  C   LIG    1       30.216 -18.385   6.532  0.00  0.00    +0.193 C 
BRANCH   2  12
ATOM     11  C   LIG    1       31.336 -19.970   9.013  0.00  0.00    +0.063 C 
ATOM     12  C   LIG    1       29.946 -19.343   8.864  0.00  0.00    +0.060 C 
ATOM     13  C   LIG    1       29.937 -17.902   9.384  0.00  0.00    +0.063 C 
ENDBRANCH   2  12
ENDBRANCH   1   5
BRANCH   1  14
ATOM     14  C   LIG    1       25.175 -22.157   7.482  0.00  0.00    +0.317 C 
ATOM     15  O   LIG    1       24.785 -21.772   8.592  0.00  0.00    -0.250 OA
BRANCH  14  16
ATOM     16  C   LIG    1       24.246 -22.489   6.315  0.00  0.00    +0.153 C 
BRANCH  16  17
ATOM     17  C   LIG    1       23.906 -21.246   5.499  0.00  0.00    -0.032 A 
ATOM     18  C   LIG    1       22.818 -20.422   5.829  0.00  0.00    +0.004 A 
ATOM     19  C   LIG    1       22.515 -19.300   5.054  0.00  0.00    +0.000 A 
ATOM     20  C   LIG    1       23.303 -18.976   3.953  0.00  0.00    +0.000 A 
ATOM     21  C   LIG    1       24.386 -19.783   3.613  0.00  0.00    +0.000 A 
ATOM     22  C   LIG    1       24.681 -20.917   4.375  0.00  0.00    +0.004 A 
ENDBRANCH  16  17
BRANCH  16  23
ATOM     23  C   LIG    1       22.976 -23.179   6.873  0.00  0.00    +0.175 C 
BRANCH  23  24
ATOM     24  O   LIG    1       22.918 -24.558   6.516  0.00  0.00    -0.394 OA
ATOM     25  H   LIG    1       22.528 -24.615   5.623  0.00  0.00    +0.209 HD
ENDBRANCH  23  24
ENDBRANCH  16  23
ENDBRANCH  14  16
ENDBRANCH   1  14
TORSDOF 7
ENDMDL
MODEL 7
REMARK VINA RESULT:      -6.7      4.542      8.989
REMARK  Name = *****
REMARK                            x       y       z     vdW  Elec       q    Type
REMARK                         _______ _______ _______ _____ _____    ______ ____
ROOT
ATOM      1  O   LIG    1       24.880 -25.387   6.866  0.00  0.00    -0.461 OA
ENDROOT
BRANCH   1   5
ATOM      2  N   LIG    1       24.537 -21.385   6.092  0.00  0.00    +0.247 N 
ATOM      3  C   LIG    1       24.634 -22.105   7.463  0.00  0.00    +0.070 C 
ATOM      4  C   LIG    1       25.751 -23.156   7.442  0.00  0.00    +0.099 C 
ATOM      5  C   LIG    1       25.596 -24.230   6.349  0.00  0.00    +0.187 C 
ATOM      6  C   LIG    1       24.915 -23.697   5.070  0.00  0.00    +0.099 C 
ATOM      7  C   LIG    1       23.257 -22.779   7.613  0.00  0.00    +0.060 C 
ATOM      8  C   LIG    1       22.745 -22.993   6.187  0.00  0.00    +0.060 C 
ATOM      9  C   LIG    1       23.897 -22.554   5.282  0.00  0.00    +0.070 C 
ATOM     10  C   LIG    1       23.543 -20.188   6.195  0.00  0.00    +0.193 C 
BRANCH   2  12
ATOM     11  C   LIG    1       25.654 -19.851   4.374  0.00  0.00    +0.063 C 
ATOM     12  C   LIG    1       25.892 -20.853   5.509  0.00  0.00    +0.060 C 
ATOM     13  C   LIG    1       26.783 -20.246   6.598  0.00  0.00    +0.063 C 
ENDBRANCH   2  12
ENDBRANCH   1   5
BRANCH   1  14
ATOM     14  C   LIG    1       25.570 -26.571   6.805  0.00  0.00    +0.317 C 
ATOM     15  O   LIG    1       26.439 -26.901   7.623  0.00  0.00    -0.250 OA
BRANCH  14  16
ATOM     16  C   LIG    1       25.090 -27.462   5.661  0.00  0.00    +0.153 C 
BRANCH  16  17
ATOM     17  C   LIG    1       24.919 -28.909   6.111  0.00  0.00    -0.032 A 
ATOM     18  C   LIG    1       24.352 -29.232   7.355  0.00  0.00    +0.004 A 
ATOM     19  C   LIG    1       24.224 -30.565   7.754  0.00  0.00    +0.000 A 
ATOM     20  C   LIG    1       24.643 -31.591   6.910  0.00  0.00    +0.000 A 
ATOM     21  C   LIG    1       25.207 -31.287   5.674  0.00  0.00    +0.000 A 
ATOM     22  C   LIG    1       25.354 -29.954   5.279  0.00  0.00    +0.004 A 
ENDBRANCH  16  17
BRANCH  16  23
ATOM     23  C   LIG    1       26.087 -27.338   4.482  0.00  0.00    +0.175 C 
BRANCH  23  24
ATOM     24  O   LIG    1       27.430 -27.188   4.933  0.00  0.00    -0.394 OA
ATOM     25  H   LIG    1       27.881 -28.045   4.811  0.00  0.00    +0.209 HD
ENDBRANCH  23  24
ENDBRANCH  16  23
ENDBRANCH  14  16
ENDBRANCH   1  14
TORSDOF 7
ENDMDL
MODEL 8
REMARK VINA RESULT:      -6.6      5.094      8.884
REMARK  Name = *****
REMARK                            x       y       z     vdW  Elec       q    Type
REMARK                         _______ _______ _______ _____ _____    ______ ____
ROOT
ATOM      1  O   LIG    1       24.143 -25.528   6.953  0.00  0.00    -0.461 OA
ENDROOT
BRANCH   1   5
ATOM      2  N   LIG    1       24.563 -21.564   6.037  0.00  0.00    +0.247 N 
ATOM      3  C   LIG    1       25.596 -22.712   5.882  0.00  0.00    +0.070 C 
ATOM      4  C   LIG    1       24.941 -23.943   5.244  0.00  0.00    +0.099 C 
ATOM      5  C   LIG    1       23.728 -24.493   6.018  0.00  0.00    +0.187 C 
ATOM      6  C   LIG    1       22.926 -23.392   6.747  0.00  0.00    +0.099 C 
ATOM      7  C   LIG    1       26.020 -23.012   7.333  0.00  0.00    +0.060 C 
ATOM      8  C   LIG    1       24.840 -22.579   8.205  0.00  0.00    +0.060 C 
ATOM      9  C   LIG    1       23.745 -22.170   7.218  0.00  0.00    +0.070 C 
ATOM     10  C   LIG    1       25.290 -20.261   6.493  0.00  0.00    +0.193 C 
BRANCH   2  12
ATOM     11  C   LIG    1       22.488 -20.390   5.105  0.00  0.00    +0.063 C 
ATOM     12  C   LIG    1       23.718 -21.236   4.758  0.00  0.00    +0.060 C 
ATOM     13  C   LIG    1       24.562 -20.557   3.674  0.00  0.00    +0.063 C 
ENDBRANCH   2  12
ENDBRANCH   1   5
BRANCH   1  14
ATOM     14  C   LIG    1       25.231 -26.264   6.558  0.00  0.00    +0.317 C 
ATOM     15  O   LIG    1       26.360 -26.139   7.052  0.00  0.00    -0.250 OA
BRANCH  14  16
ATOM     16  C   LIG    1       24.872 -27.303   5.496  0.00  0.00    +0.153 C 
BRANCH  16  17
ATOM     17  C   LIG    1       24.836 -28.711   6.080  0.00  0.00    -0.032 A 
ATOM     18  C   LIG    1       24.475 -28.946   7.416  0.00  0.00    +0.004 A 
ATOM     19  C   LIG    1       24.469 -30.244   7.934  0.00  0.00    +0.000 A 
ATOM     20  C   LIG    1       24.804 -31.323   7.120  0.00  0.00    +0.000 A 
ATOM     21  C   LIG    1       25.164 -31.106   5.792  0.00  0.00    +0.000 A 
ATOM     22  C   LIG    1       25.190 -29.808   5.277  0.00  0.00    +0.004 A 
ENDBRANCH  16  17
BRANCH  16  23
ATOM     23  C   LIG    1       25.882 -27.187   4.327  0.00  0.00    +0.175 C 
BRANCH  23  24
ATOM     24  O   LIG    1       27.230 -27.300   4.774  0.00  0.00    -0.394 OA
ATOM     25  H   LIG    1       27.771 -27.583   4.011  0.00  0.00    +0.209 HD
ENDBRANCH  23  24
ENDBRANCH  16  23
ENDBRANCH  14  16
ENDBRANCH   1  14
TORSDOF 7
ENDMDL
MODEL 9
REMARK VINA RESULT:      -6.5      6.574      9.929
REMARK  Name = *****
REMARK                            x       y       z     vdW  Elec       q    Type
REMARK                         _______ _______ _______ _____ _____    ______ ____
ROOT
ATOM      1  O   LIG    1       25.398 -28.429   6.612  0.00  0.00    -0.461 OA
ENDROOT
BRANCH   1   5
ATOM      2  N   LIG    1       24.683 -32.413   7.202  0.00  0.00    +0.247 N 
ATOM      3  C   LIG    1       26.001 -31.621   7.412  0.00  0.00    +0.070 C 
ATOM      4  C   LIG    1       25.728 -30.312   8.166  0.00  0.00    +0.099 C 
ATOM      5  C   LIG    1       24.714 -29.379   7.477  0.00  0.00    +0.187 C 
ATOM      6  C   LIG    1       23.626 -30.144   6.691  0.00  0.00    +0.099 C 
ATOM      7  C   LIG    1       26.479 -31.331   5.977  0.00  0.00    +0.060 C 
ATOM      8  C   LIG    1       25.217 -31.339   5.112  0.00  0.00    +0.060 C 
ATOM      9  C   LIG    1       24.061 -31.504   6.099  0.00  0.00    +0.070 C 
ATOM     10  C   LIG    1       25.006 -33.825   6.623  0.00  0.00    +0.193 C 
BRANCH   2  12
ATOM     11  C   LIG    1       22.506 -33.364   8.154  0.00  0.00    +0.063 C 
ATOM     12  C   LIG    1       23.791 -32.596   8.479  0.00  0.00    +0.060 C 
ATOM     13  C   LIG    1       24.559 -33.269   9.620  0.00  0.00    +0.063 C 
ENDBRANCH   2  12
ENDBRANCH   1   5
BRANCH   1  14
ATOM     14  C   LIG    1       25.999 -27.382   7.262  0.00  0.00    +0.317 C 
ATOM     15  O   LIG    1       26.298 -27.401   8.464  0.00  0.00    -0.250 OA
BRANCH  14  16
ATOM     16  C   LIG    1       26.323 -26.224   6.318  0.00  0.00    +0.153 C 
BRANCH  16  17
ATOM     17  C   LIG    1       25.403 -25.032   6.558  0.00  0.00    -0.032 A 
ATOM     18  C   LIG    1       25.904 -23.785   6.965  0.00  0.00    +0.004 A 
ATOM     19  C   LIG    1       25.039 -22.712   7.197  0.00  0.00    +0.000 A 
ATOM     20  C   LIG    1       23.668 -22.866   7.009  0.00  0.00    +0.000 A 
ATOM     21  C   LIG    1       23.156 -24.097   6.605  0.00  0.00    +0.000 A 
ATOM     22  C   LIG    1       24.016 -25.177   6.390  0.00  0.00    +0.004 A 
ENDBRANCH  16  17
BRANCH  16  23
ATOM     23  C   LIG    1       26.238 -26.735   4.858  0.00  0.00    +0.175 C 
BRANCH  23  24
ATOM     24  O   LIG    1       27.420 -27.428   4.466  0.00  0.00    -0.394 OA
ATOM     25  H   LIG    1       27.548 -28.169   5.088  0.00  0.00    +0.209 HD
ENDBRANCH  23  24
ENDBRANCH  16  23
ENDBRANCH  14  16
ENDBRANCH   1  14
TORSDOF 7
ENDMDL
