MODEL 1
REMARK VINA RESULT:      -2.6      0.000      0.000
REMARK  Name = *****
REMARK                            x       y       z     vdW  Elec       q    Type
REMARK                         _______ _______ _______ _____ _____    ______ ____
ROOT
ATOM      1  C   LIG    1       25.389 -16.966   3.697  0.00  0.00    -0.006 A 
ATOM      2  C   LIG    1       24.121 -17.567   3.948  0.00  0.00    +0.007 A 
ATOM      3  C   LIG    1       22.884 -16.968   3.613  0.00  0.00    +0.010 A 
ATOM      4  C   LIG    1       21.670 -17.579   3.911  0.00  0.00    +0.001 A 
ATOM      5  C   LIG    1       21.667 -18.812   4.543  0.00  0.00    +0.014 A 
ATOM      6  C   LIG    1       22.879 -19.446   4.879  0.00  0.00    +0.081 A 
ATOM      7  C   LIG    1       24.101 -18.838   4.591  0.00  0.00    +0.084 A 
ATOM      8  N   LIG    1       25.232 -19.462   4.941  0.00  0.00    -0.242 NA
ATOM      9  C   LIG    1       26.444 -18.897   4.703  0.00  0.00    +0.145 A 
ATOM     10  C   LIG    1       26.547 -17.665   4.074  0.00  0.00    +0.039 A 
ENDROOT
BRANCH   6  11
ATOM     11  C   LIG    1       22.786 -20.791   5.559  0.00  0.00    +0.419 C 
ATOM     12  F   LIG    1       22.787 -20.661   6.921  0.00  0.00    -0.166 F 
ATOM     13  F   LIG    1       23.878 -21.567   5.281  0.00  0.00    -0.166 F 
ATOM     14  F   LIG    1       21.712 -21.572   5.275  0.00  0.00    -0.166 F 
ENDBRANCH   6  11
BRANCH   9  15
ATOM     15  C   LIG    1       27.697 -19.624   5.174  0.00  0.00    +0.434 C 
ATOM     16  F   LIG    1       28.823 -18.858   5.089  0.00  0.00    -0.164 F 
ATOM     17  F   LIG    1       27.954 -20.757   4.460  0.00  0.00    -0.164 F 
ATOM     18  F   LIG    1       27.632 -20.026   6.479  0.00  0.00    -0.164 F 
ENDBRANCH   9  15
BRANCH   1  19
ATOM     19  C   LIG    1       25.554 -15.569   3.096  0.00  0.00    +0.162 C 
BRANCH  19  20
ATOM     20  C   LIG    1       27.031 -15.042   3.023  0.00  0.00    +0.087 C 
ATOM     21  N   LIG    1       27.199 -13.895   2.087  0.00  0.00    -0.311 NA
ATOM     22  H   LIG    1       28.188 -13.853   1.831  0.00  0.00    +0.122 HD
ATOM     23  C   LIG    1       26.847 -12.583   2.648  0.00  0.00    +0.081 C 
ATOM     24  C   LIG    1       27.512 -12.284   3.987  0.00  0.00    +0.015 C 
ATOM     25  C   LIG    1       27.293 -13.411   4.985  0.00  0.00    +0.003 C 
ATOM     26  C   LIG    1       27.710 -14.741   4.373  0.00  0.00    +0.021 C 
ENDBRANCH  19  20
BRANCH  19  27
ATOM     27  O   LIG    1       24.704 -14.673   3.819  0.00  0.00    -0.386 OA
ATOM     28  H   LIG    1       24.753 -13.830   3.337  0.00  0.00    +0.210 HD
ENDBRANCH  19  27
ENDBRANCH   1  19
TORSDOF 5
ENDMDL
MODEL 2
REMARK VINA RESULT:      -2.4      1.874      4.171
REMARK  Name = *****
REMARK                            x       y       z     vdW  Elec       q    Type
REMARK                         _______ _______ _______ _____ _____    ______ ____
ROOT
ATOM      1  C   LIG    1       26.008 -16.601   3.549  0.00  0.00    -0.006 A 
ATOM      2  C   LIG    1       26.965 -17.390   4.251  0.00  0.00    +0.007 A 
ATOM      3  C   LIG    1       28.317 -17.014   4.434  0.00  0.00    +0.010 A 
ATOM      4  C   LIG    1       29.222 -17.837   5.097  0.00  0.00    +0.001 A 
ATOM      5  C   LIG    1       28.791 -19.052   5.603  0.00  0.00    +0.014 A 
ATOM      6  C   LIG    1       27.450 -19.454   5.453  0.00  0.00    +0.081 A 
ATOM      7  C   LIG    1       26.536 -18.640   4.784  0.00  0.00    +0.084 A 
ATOM      8  N   LIG    1       25.274 -19.062   4.646  0.00  0.00    -0.242 NA
ATOM      9  C   LIG    1       24.356 -18.315   3.980  0.00  0.00    +0.145 A 
ATOM     10  C   LIG    1       24.694 -17.083   3.439  0.00  0.00    +0.039 A 
ENDROOT
BRANCH   6  11
ATOM     11  C   LIG    1       27.062 -20.790   6.042  0.00  0.00    +0.419 C 
ATOM     12  F   LIG    1       26.421 -21.572   5.120  0.00  0.00    -0.166 F 
ATOM     13  F   LIG    1       26.163 -20.644   7.062  0.00  0.00    -0.166 F 
ATOM     14  F   LIG    1       28.052 -21.571   6.546  0.00  0.00    -0.166 F 
ENDBRANCH   6  11
BRANCH   9  15
ATOM     15  C   LIG    1       22.949 -18.870   3.802  0.00  0.00    +0.434 C 
ATOM     16  F   LIG    1       22.834 -20.171   4.195  0.00  0.00    -0.164 F 
ATOM     17  F   LIG    1       22.519 -18.826   2.508  0.00  0.00    -0.164 F 
ATOM     18  F   LIG    1       22.004 -18.191   4.519  0.00  0.00    -0.164 F 
ENDBRANCH   9  15
BRANCH   1  19
ATOM     19  C   LIG    1       26.353 -15.284   2.852  0.00  0.00    +0.162 C 
BRANCH  19  20
ATOM     20  C   LIG    1       26.484 -14.039   3.800  0.00  0.00    +0.087 C 
ATOM     21  N   LIG    1       26.582 -12.748   3.062  0.00  0.00    -0.311 NA
ATOM     22  H   LIG    1       27.010 -12.068   3.694  0.00  0.00    +0.122 HD
ATOM     23  C   LIG    1       25.294 -12.182   2.636  0.00  0.00    +0.081 C 
ATOM     24  C   LIG    1       24.260 -12.086   3.752  0.00  0.00    +0.015 C 
ATOM     25  C   LIG    1       24.090 -13.413   4.474  0.00  0.00    +0.003 C 
ATOM     26  C   LIG    1       25.444 -13.938   4.932  0.00  0.00    +0.021 C 
ENDBRANCH  19  20
BRANCH  19  27
ATOM     27  O   LIG    1       25.390 -15.065   1.817  0.00  0.00    -0.386 OA
ATOM     28  H   LIG    1       24.540 -14.960   2.278  0.00  0.00    +0.210 HD
ENDBRANCH  19  27
ENDBRANCH   1  19
TORSDOF 5
ENDMDL
MODEL 3
REMARK VINA RESULT:      -1.4      1.735      2.243
REMARK  Name = *****
REMARK                            x       y       z     vdW  Elec       q    Type
REMARK                         _______ _______ _______ _____ _____    ______ ____
ROOT
ATOM      1  C   LIG    1       25.888 -16.454   3.736  0.00  0.00    -0.006 A 
ATOM      2  C   LIG    1       24.739 -17.291   3.834  0.00  0.00    +0.007 A 
ATOM      3  C   LIG    1       23.433 -16.883   3.476  0.00  0.00    +0.010 A 
ATOM      4  C   LIG    1       22.336 -17.726   3.625  0.00  0.00    +0.001 A 
ATOM      5  C   LIG    1       22.524 -19.003   4.127  0.00  0.00    +0.014 A 
ATOM      6  C   LIG    1       23.812 -19.450   4.481  0.00  0.00    +0.081 A 
ATOM      7  C   LIG    1       24.917 -18.610   4.343  0.00  0.00    +0.084 A 
ATOM      8  N   LIG    1       26.122 -19.062   4.706  0.00  0.00    -0.242 NA
ATOM      9  C   LIG    1       27.223 -18.271   4.613  0.00  0.00    +0.145 A 
ATOM     10  C   LIG    1       27.133 -16.978   4.120  0.00  0.00    +0.039 A 
ENDROOT
BRANCH   6  11
ATOM     11  C   LIG    1       23.929 -20.859   5.014  0.00  0.00    +0.419 C 
ATOM     12  F   LIG    1       24.904 -21.558   4.357  0.00  0.00    -0.166 F 
ATOM     13  F   LIG    1       22.782 -21.572   4.797  0.00  0.00    -0.166 F 
ATOM     14  F   LIG    1       24.204 -21.016   6.334  0.00  0.00    -0.166 F 
ENDBRANCH   6  11
BRANCH   9  15
ATOM     15  C   LIG    1       28.561 -18.817   5.094  0.00  0.00    +0.434 C 
ATOM     16  F   LIG    1       29.148 -18.032   6.042  0.00  0.00    -0.164 F 
ATOM     17  F   LIG    1       29.475 -18.946   4.090  0.00  0.00    -0.164 F 
ATOM     18  F   LIG    1       28.468 -20.058   5.660  0.00  0.00    -0.164 F 
ENDBRANCH   9  15
BRANCH   1  19
ATOM     19  C   LIG    1       25.828 -14.991   3.292  0.00  0.00    +0.162 C 
BRANCH  19  20
ATOM     20  C   LIG    1       24.382 -14.397   3.138  0.00  0.00    +0.087 C 
ATOM     21  N   LIG    1       23.841 -13.838   4.408  0.00  0.00    -0.311 NA
ATOM     22  H   LIG    1       22.822 -13.810   4.319  0.00  0.00    +0.122 HD
ATOM     23  C   LIG    1       24.279 -12.469   4.717  0.00  0.00    +0.081 C 
ATOM     24  C   LIG    1       24.085 -11.484   3.570  0.00  0.00    +0.015 C 
ATOM     25  C   LIG    1       24.695 -12.001   2.277  0.00  0.00    +0.003 C 
ATOM     26  C   LIG    1       24.179 -13.403   1.979  0.00  0.00    +0.021 C 
ENDBRANCH  19  20
BRANCH  19  27
ATOM     27  O   LIG    1       26.587 -14.863   2.085  0.00  0.00    -0.386 OA
ATOM     28  H   LIG    1       26.198 -15.507   1.470  0.00  0.00    +0.210 HD
ENDBRANCH  19  27
ENDBRANCH   1  19
TORSDOF 5
ENDMDL
MODEL 4
REMARK VINA RESULT:      -1.3      2.726      6.288
REMARK  Name = *****
REMARK                            x       y       z     vdW  Elec       q    Type
REMARK                         _______ _______ _______ _____ _____    ______ ____
ROOT
ATOM      1  C   LIG    1       25.135 -17.410   3.783  0.00  0.00    -0.006 A 
ATOM      2  C   LIG    1       25.258 -16.006   3.576  0.00  0.00    +0.007 A 
ATOM      3  C   LIG    1       24.215 -15.186   3.084  0.00  0.00    +0.010 A 
ATOM      4  C   LIG    1       24.396 -13.825   2.865  0.00  0.00    +0.001 A 
ATOM      5  C   LIG    1       25.625 -13.249   3.142  0.00  0.00    +0.014 A 
ATOM      6  C   LIG    1       26.683 -14.030   3.646  0.00  0.00    +0.081 A 
ATOM      7  C   LIG    1       26.514 -15.397   3.863  0.00  0.00    +0.084 A 
ATOM      8  N   LIG    1       27.547 -16.110   4.327  0.00  0.00    -0.242 NA
ATOM      9  C   LIG    1       27.436 -17.449   4.529  0.00  0.00    +0.145 A 
ATOM     10  C   LIG    1       26.245 -18.113   4.280  0.00  0.00    +0.039 A 
ENDROOT
BRANCH   6  11
ATOM     11  C   LIG    1       27.987 -13.321   3.930  0.00  0.00    +0.419 C 
ATOM     12  F   LIG    1       28.077 -12.952   5.244  0.00  0.00    -0.166 F 
ATOM     13  F   LIG    1       28.080 -12.149   3.231  0.00  0.00    -0.166 F 
ATOM     14  F   LIG    1       29.140 -13.988   3.666  0.00  0.00    -0.166 F 
ENDBRANCH   6  11
BRANCH   9  15
ATOM     15  C   LIG    1       28.660 -18.223   5.003  0.00  0.00    +0.434 C 
ATOM     16  F   LIG    1       29.474 -18.613   3.980  0.00  0.00    -0.164 F 
ATOM     17  F   LIG    1       28.340 -19.358   5.687  0.00  0.00    -0.164 F 
ATOM     18  F   LIG    1       29.461 -17.506   5.848  0.00  0.00    -0.164 F 
ENDBRANCH   9  15
BRANCH   1  19
ATOM     19  C   LIG    1       23.876 -18.205   3.433  0.00  0.00    +0.162 C 
BRANCH  19  20
ATOM     20  C   LIG    1       22.817 -18.326   4.587  0.00  0.00    +0.087 C 
ATOM     21  N   LIG    1       21.413 -18.178   4.112  0.00  0.00    -0.311 NA
ATOM     22  H   LIG    1       20.844 -17.914   4.919  0.00  0.00    +0.122 HD
ATOM     23  C   LIG    1       20.819 -19.401   3.553  0.00  0.00    +0.081 C 
ATOM     24  C   LIG    1       20.955 -20.623   4.454  0.00  0.00    +0.015 C 
ATOM     25  C   LIG    1       22.395 -20.837   4.894  0.00  0.00    +0.003 C 
ATOM     26  C   LIG    1       22.952 -19.557   5.503  0.00  0.00    +0.021 C 
ENDBRANCH  19  20
BRANCH  19  27
ATOM     27  O   LIG    1       24.283 -19.489   2.949  0.00  0.00    -0.386 OA
ATOM     28  H   LIG    1       23.457 -19.975   2.790  0.00  0.00    +0.210 HD
ENDBRANCH  19  27
ENDBRANCH   1  19
TORSDOF 5
ENDMDL
MODEL 5
REMARK VINA RESULT:      -1.3      4.320      6.422
REMARK  Name = *****
REMARK                            x       y       z     vdW  Elec       q    Type
REMARK                         _______ _______ _______ _____ _____    ______ ____
ROOT
ATOM      1  C   LIG    1       25.688 -16.478   3.618  0.00  0.00    -0.006 A 
ATOM      2  C   LIG    1       24.582 -15.759   4.158  0.00  0.00    +0.007 A 
ATOM      3  C   LIG    1       23.351 -16.358   4.517  0.00  0.00    +0.010 A 
ATOM      4  C   LIG    1       22.288 -15.606   5.006  0.00  0.00    +0.001 A 
ATOM      5  C   LIG    1       22.435 -14.238   5.158  0.00  0.00    +0.014 A 
ATOM      6  C   LIG    1       23.650 -13.608   4.826  0.00  0.00    +0.081 A 
ATOM      7  C   LIG    1       24.721 -14.351   4.327  0.00  0.00    +0.084 A 
ATOM      8  N   LIG    1       25.853 -13.717   4.005  0.00  0.00    -0.242 NA
ATOM      9  C   LIG    1       26.913 -14.396   3.493  0.00  0.00    +0.145 A 
ATOM     10  C   LIG    1       26.859 -15.768   3.305  0.00  0.00    +0.039 A 
ENDROOT
BRANCH   6  11
ATOM     11  C   LIG    1       23.730 -12.114   5.029  0.00  0.00    +0.419 C 
ATOM     12  F   LIG    1       23.700 -11.447   3.835  0.00  0.00    -0.166 F 
ATOM     13  F   LIG    1       24.917 -11.750   5.603  0.00  0.00    -0.166 F 
ATOM     14  F   LIG    1       22.770 -11.526   5.791  0.00  0.00    -0.166 F 
ENDBRANCH   6  11
BRANCH   9  15
ATOM     15  C   LIG    1       28.158 -13.615   3.089  0.00  0.00    +0.434 C 
ATOM     16  F   LIG    1       28.681 -14.023   1.898  0.00  0.00    -0.164 F 
ATOM     17  F   LIG    1       29.167 -13.716   4.001  0.00  0.00    -0.164 F 
ATOM     18  F   LIG    1       27.934 -12.275   2.945  0.00  0.00    -0.164 F 
ENDBRANCH   9  15
BRANCH   1  19
ATOM     19  C   LIG    1       25.645 -17.974   3.302  0.00  0.00    +0.162 C 
BRANCH  19  20
ATOM     20  C   LIG    1       24.301 -18.698   3.670  0.00  0.00    +0.087 C 
ATOM     21  N   LIG    1       23.928 -19.767   2.702  0.00  0.00    -0.311 NA
ATOM     22  H   LIG    1       22.922 -19.927   2.797  0.00  0.00    +0.122 HD
ATOM     23  C   LIG    1       24.588 -21.061   2.926  0.00  0.00    +0.081 C 
ATOM     24  C   LIG    1       24.479 -21.572   4.358  0.00  0.00    +0.015 C 
ATOM     25  C   LIG    1       24.925 -20.521   5.363  0.00  0.00    +0.003 C 
ATOM     26  C   LIG    1       24.184 -19.214   5.117  0.00  0.00    +0.021 C 
ENDBRANCH  19  20
BRANCH  19  27
ATOM     27  O   LIG    1       26.772 -18.592   3.932  0.00  0.00    -0.386 OA
ATOM     28  H   LIG    1       26.419 -19.001   4.740  0.00  0.00    +0.210 HD
ENDBRANCH  19  27
ENDBRANCH   1  19
TORSDOF 5
ENDMDL
MODEL 6
REMARK VINA RESULT:      -0.4      2.511      3.815
REMARK  Name = *****
REMARK                            x       y       z     vdW  Elec       q    Type
REMARK                         _______ _______ _______ _____ _____    ______ ____
ROOT
ATOM      1  C   LIG    1       25.048 -15.976   3.649  0.00  0.00    -0.006 A 
ATOM      2  C   LIG    1       24.958 -17.396   3.566  0.00  0.00    +0.007 A 
ATOM      3  C   LIG    1       25.882 -18.206   2.864  0.00  0.00    +0.010 A 
ATOM      4  C   LIG    1       25.729 -19.586   2.783  0.00  0.00    +0.001 A 
ATOM      5  C   LIG    1       24.653 -20.190   3.411  0.00  0.00    +0.014 A 
ATOM      6  C   LIG    1       23.720 -19.419   4.131  0.00  0.00    +0.081 A 
ATOM      7  C   LIG    1       23.859 -18.033   4.213  0.00  0.00    +0.084 A 
ATOM      8  N   LIG    1       22.945 -17.331   4.891  0.00  0.00    -0.242 NA
ATOM      9  C   LIG    1       23.025 -15.977   4.976  0.00  0.00    +0.145 A 
ATOM     10  C   LIG    1       24.069 -15.285   4.380  0.00  0.00    +0.039 A 
ENDROOT
BRANCH   6  11
ATOM     11  C   LIG    1       22.581 -20.157   4.792  0.00  0.00    +0.419 C 
ATOM     12  F   LIG    1       22.631 -20.031   6.153  0.00  0.00    -0.166 F 
ATOM     13  F   LIG    1       22.658 -21.503   4.563  0.00  0.00    -0.166 F 
ATOM     14  F   LIG    1       21.315 -19.807   4.447  0.00  0.00    -0.166 F 
ENDBRANCH   6  11
BRANCH   9  15
ATOM     15  C   LIG    1       21.926 -15.222   5.711  0.00  0.00    +0.434 C 
ATOM     16  F   LIG    1       20.672 -15.570   5.300  0.00  0.00    -0.164 F 
ATOM     17  F   LIG    1       22.013 -13.870   5.556  0.00  0.00    -0.164 F 
ATOM     18  F   LIG    1       21.933 -15.432   7.062  0.00  0.00    -0.164 F 
ENDBRANCH   9  15
BRANCH   1  19
ATOM     19  C   LIG    1       26.122 -15.158   2.929  0.00  0.00    +0.162 C 
BRANCH  19  20
ATOM     20  C   LIG    1       27.490 -15.033   3.690  0.00  0.00    +0.087 C 
ATOM     21  N   LIG    1       28.431 -14.072   3.049  0.00  0.00    -0.311 NA
ATOM     22  H   LIG    1       29.373 -14.309   3.369  0.00  0.00    +0.122 HD
ATOM     23  C   LIG    1       28.205 -12.662   3.396  0.00  0.00    +0.081 C 
ATOM     24  C   LIG    1       28.109 -12.400   4.895  0.00  0.00    +0.015 C 
ATOM     25  C   LIG    1       27.099 -13.321   5.561  0.00  0.00    +0.003 C 
ATOM     26  C   LIG    1       27.399 -14.771   5.206  0.00  0.00    +0.021 C 
ENDBRANCH  19  20
BRANCH  19  27
ATOM     27  O   LIG    1       25.567 -13.877   2.617  0.00  0.00    -0.386 OA
ATOM     28  H   LIG    1       25.169 -13.563   3.447  0.00  0.00    +0.210 HD
ENDBRANCH  19  27
ENDBRANCH   1  19
TORSDOF 5
ENDMDL
MODEL 7
REMARK VINA RESULT:      -0.2      3.471      6.606
REMARK  Name = *****
REMARK                            x       y       z     vdW  Elec       q    Type
REMARK                         _______ _______ _______ _____ _____    ______ ____
ROOT
ATOM      1  C   LIG    1       25.150 -18.633   3.733  0.00  0.00    -0.006 A 
ATOM      2  C   LIG    1       25.615 -17.286   3.694  0.00  0.00    +0.007 A 
ATOM      3  C   LIG    1       26.982 -16.923   3.677  0.00  0.00    +0.010 A 
ATOM      4  C   LIG    1       27.386 -15.592   3.675  0.00  0.00    +0.001 A 
ATOM      5  C   LIG    1       26.428 -14.591   3.681  0.00  0.00    +0.014 A 
ATOM      6  C   LIG    1       25.057 -14.914   3.683  0.00  0.00    +0.081 A 
ATOM      7  C   LIG    1       24.642 -16.245   3.692  0.00  0.00    +0.084 A 
ATOM      8  N   LIG    1       23.331 -16.514   3.712  0.00  0.00    -0.242 NA
ATOM      9  C   LIG    1       22.881 -17.795   3.747  0.00  0.00    +0.145 A 
ATOM     10  C   LIG    1       23.765 -18.863   3.743  0.00  0.00    +0.039 A 
ENDROOT
BRANCH   6  11
ATOM     11  C   LIG    1       24.079 -13.762   3.681  0.00  0.00    +0.419 C 
ATOM     12  F   LIG    1       24.719 -12.567   3.495  0.00  0.00    -0.166 F 
ATOM     13  F   LIG    1       23.452 -13.638   4.890  0.00  0.00    -0.166 F 
ATOM     14  F   LIG    1       23.081 -13.781   2.760  0.00  0.00    -0.166 F 
ENDBRANCH   6  11
BRANCH   9  15
ATOM     15  C   LIG    1       21.380 -18.042   3.827  0.00  0.00    +0.434 C 
ATOM     16  F   LIG    1       20.747 -17.206   4.699  0.00  0.00    -0.164 F 
ATOM     17  F   LIG    1       21.071 -19.310   4.225  0.00  0.00    -0.164 F 
ATOM     18  F   LIG    1       20.738 -17.872   2.633  0.00  0.00    -0.164 F 
ENDBRANCH   9  15
BRANCH   1  19
ATOM     19  C   LIG    1       26.083 -19.842   3.828  0.00  0.00    +0.162 C 
BRANCH  19  20
ATOM     20  C   LIG    1       25.439 -21.138   4.439  0.00  0.00    +0.087 C 
ATOM     21  N   LIG    1       26.085 -21.572   5.708  0.00  0.00    -0.311 NA
ATOM     22  H   LIG    1       25.869 -22.563   5.838  0.00  0.00    +0.122 HD
ATOM     23  C   LIG    1       25.614 -20.872   6.912  0.00  0.00    +0.081 C 
ATOM     24  C   LIG    1       24.097 -20.852   7.062  0.00  0.00    +0.015 C 
ATOM     25  C   LIG    1       23.416 -20.342   5.801  0.00  0.00    +0.003 C 
ATOM     26  C   LIG    1       23.905 -21.124   4.590  0.00  0.00    +0.021 C 
ENDBRANCH  19  20
BRANCH  19  27
ATOM     27  O   LIG    1       27.255 -19.442   4.546  0.00  0.00    -0.386 OA
ATOM     28  H   LIG    1       27.994 -19.601   3.935  0.00  0.00    +0.210 HD
ENDBRANCH  19  27
ENDBRANCH   1  19
TORSDOF 5
ENDMDL
MODEL 8
REMARK VINA RESULT:      -0.0      3.617      4.575
REMARK  Name = *****
REMARK                            x       y       z     vdW  Elec       q    Type
REMARK                         _______ _______ _______ _____ _____    ______ ____
ROOT
ATOM      1  C   LIG    1       26.089 -14.997   3.408  0.00  0.00    -0.006 A 
ATOM      2  C   LIG    1       25.453 -16.267   3.525  0.00  0.00    +0.007 A 
ATOM      3  C   LIG    1       26.036 -17.483   3.099  0.00  0.00    +0.010 A 
ATOM      4  C   LIG    1       25.359 -18.694   3.202  0.00  0.00    +0.001 A 
ATOM      5  C   LIG    1       24.085 -18.717   3.746  0.00  0.00    +0.014 A 
ATOM      6  C   LIG    1       23.478 -17.529   4.195  0.00  0.00    +0.081 A 
ATOM      7  C   LIG    1       24.145 -16.308   4.089  0.00  0.00    +0.084 A 
ATOM      8  N   LIG    1       23.531 -15.197   4.511  0.00  0.00    -0.242 NA
ATOM      9  C   LIG    1       24.131 -13.983   4.404  0.00  0.00    +0.145 A 
ATOM     10  C   LIG    1       25.407 -13.861   3.874  0.00  0.00    +0.039 A 
ENDROOT
BRANCH   6  11
ATOM     11  C   LIG    1       22.091 -17.643   4.782  0.00  0.00    +0.419 C 
ATOM     12  F   LIG    1       22.021 -18.658   5.696  0.00  0.00    -0.166 F 
ATOM     13  F   LIG    1       21.170 -17.971   3.825  0.00  0.00    -0.166 F 
ATOM     14  F   LIG    1       21.579 -16.556   5.414  0.00  0.00    -0.166 F 
ENDBRANCH   6  11
BRANCH   9  15
ATOM     15  C   LIG    1       23.363 -12.744   4.846  0.00  0.00    +0.434 C 
ATOM     16  F   LIG    1       23.049 -11.913   3.811  0.00  0.00    -0.164 F 
ATOM     17  F   LIG    1       24.052 -11.984   5.746  0.00  0.00    -0.164 F 
ATOM     18  F   LIG    1       22.173 -13.032   5.452  0.00  0.00    -0.164 F 
ENDBRANCH   9  15
BRANCH   1  19
ATOM     19  C   LIG    1       27.452 -14.797   2.743  0.00  0.00    +0.162 C 
BRANCH  19  20
ATOM     20  C   LIG    1       28.656 -14.592   3.731  0.00  0.00    +0.087 C 
ATOM     21  N   LIG    1       29.453 -13.369   3.437  0.00  0.00    -0.311 NA
ATOM     22  H   LIG    1       30.375 -13.496   3.862  0.00  0.00    +0.122 HD
ATOM     23  C   LIG    1       28.899 -12.123   3.987  0.00  0.00    +0.081 C 
ATOM     24  C   LIG    1       28.560 -12.199   5.472  0.00  0.00    +0.015 C 
ATOM     25  C   LIG    1       27.684 -13.402   5.785  0.00  0.00    +0.003 C 
ATOM     26  C   LIG    1       28.319 -14.671   5.233  0.00  0.00    +0.021 C 
ENDBRANCH  19  20
BRANCH  19  27
ATOM     27  O   LIG    1       27.336 -13.714   1.814  0.00  0.00    -0.386 OA
ATOM     28  H   LIG    1       26.541 -13.228   2.088  0.00  0.00    +0.210 HD
ENDBRANCH  19  27
ENDBRANCH   1  19
TORSDOF 5
ENDMDL
