MODEL 1
REMARK VINA RESULT:      -1.5      0.000      0.000
REMARK  Name = *****
REMARK                            x       y       z     vdW  Elec       q    Type
REMARK                         _______ _______ _______ _____ _____    ______ ____
ROOT
ATOM      1  N   LIG    1       26.808 -17.228   4.067  0.00  0.00    -0.226 N 
ATOM      2  C   LIG    1       27.958 -17.376   4.831  0.00  0.00    +0.275 C 
ATOM      3  O   LIG    1       28.796 -16.487   5.008  0.00  0.00    -0.266 OA
ATOM      4  C   LIG    1       28.165 -18.688   5.469  0.00  0.00    +0.050 A 
ATOM      5  C   LIG    1       27.262 -19.724   5.241  0.00  0.00    +0.011 A 
ATOM      6  C   LIG    1       27.486 -20.972   5.840  0.00  0.00    +0.010 A 
ATOM      7  C   LIG    1       28.582 -21.163   6.689  0.00  0.00    +0.001 A 
ATOM      8  C   LIG    1       29.469 -20.117   6.934  0.00  0.00    +0.001 A 
ATOM      9  C   LIG    1       26.086 -19.412   4.397  0.00  0.00    +0.074 C 
ATOM     10  C   LIG    1       29.268 -18.885   6.319  0.00  0.00    +0.014 A 
ATOM     11  N   LIG    1       25.895 -18.250   3.852  0.00  0.00    -0.172 NA
ENDROOT
BRANCH   1  16
ATOM     12  C   LIG    1       24.205 -12.225   2.002  0.00  0.00    +0.105 C 
ATOM     13  N   LIG    1       25.063 -13.075   2.835  0.00  0.00    -0.305 NA
ATOM     14  C   LIG    1       24.489 -14.422   2.933  0.00  0.00    +0.086 C 
ATOM     15  C   LIG    1       25.179 -15.361   3.931  0.00  0.00    +0.042 C 
ATOM     16  C   LIG    1       26.505 -15.925   3.418  0.00  0.00    +0.112 C 
ATOM     17  C   LIG    1       27.710 -14.975   3.514  0.00  0.00    +0.028 C 
ATOM     18  C   LIG    1       27.441 -13.477   3.397  0.00  0.00    +0.017 C 
ATOM     19  C   LIG    1       26.439 -13.057   2.324  0.00  0.00    +0.084 C 
ENDBRANCH   1  16
BRANCH   9  20
ATOM     20  C   LIG    1       24.994 -20.465   4.200  0.00  0.00    +0.092 C 
BRANCH  20  21
ATOM     21  C   LIG    1       23.583 -19.922   4.121  0.00  0.00    -0.041 A 
ATOM     22  C   LIG    1       23.355 -18.590   3.738  0.00  0.00    +0.005 A 
ATOM     23  C   LIG    1       22.052 -18.109   3.572  0.00  0.00    +0.020 A 
ATOM     24  C   LIG    1       20.967 -18.956   3.783  0.00  0.00    +0.041 A 
ATOM     25 CL   LIG    1       19.366 -18.368   3.558  0.00  0.00    -0.084 Cl
ATOM     26  C   LIG    1       21.175 -20.280   4.161  0.00  0.00    +0.020 A 
ATOM     27  C   LIG    1       22.478 -20.762   4.326  0.00  0.00    +0.005 A 
ENDBRANCH  20  21
ENDBRANCH   9  20
TORSDOF 3
ENDMDL
