MODEL 1
REMARK VINA RESULT:      -1.2      0.000      0.000
REMARK  Name = *****
REMARK                            x       y       z     vdW  Elec       q    Type
REMARK                         _______ _______ _______ _____ _____    ______ ____
ROOT
ATOM      1  C   LIG    1       22.345 -21.572   6.520  0.00  0.00    +0.105 C 
ATOM      2  N   LIG    1       22.909 -20.543   5.668  0.00  0.00    -0.302 NA
ATOM      3  C   LIG    1       24.253 -20.055   6.079  0.00  0.00    +0.111 C 
ATOM      4  C   LIG    1       25.355 -20.003   4.962  0.00  0.00    +0.118 C 
ATOM      5  N   LIG    1       24.753 -19.466   3.713  0.00  0.00    -0.320 N 
ATOM      6  C   LIG    1       24.419 -18.105   3.805  0.00  0.00    +0.034 A 
ATOM      7  C   LIG    1       25.475 -17.177   3.696  0.00  0.00    -0.022 A 
ATOM      8  C   LIG    1       26.856 -17.708   3.424  0.00  0.00    +0.072 C 
ATOM      9  C   LIG    1       27.453 -18.471   4.589  0.00  0.00    -0.038 A 
ATOM     10  C   LIG    1       28.807 -18.211   4.884  0.00  0.00    +0.004 A 
ATOM     11  C   LIG    1       29.475 -18.901   5.891  0.00  0.00    +0.000 A 
ATOM     12  C   LIG    1       28.792 -19.852   6.635  0.00  0.00    +0.000 A 
ATOM     13  C   LIG    1       27.449 -20.125   6.358  0.00  0.00    +0.006 A 
ATOM     14  C   LIG    1       25.240 -15.803   3.852  0.00  0.00    +0.006 A 
ATOM     15  C   LIG    1       23.966 -15.329   4.136  0.00  0.00    +0.000 A 
ATOM     16  C   LIG    1       22.911 -16.233   4.249  0.00  0.00    +0.002 A 
ATOM     17  C   LIG    1       23.144 -17.597   4.068  0.00  0.00    +0.023 A 
ATOM     18  C   LIG    1       23.754 -20.412   3.203  0.00  0.00    +0.121 C 
ATOM     19  C   LIG    1       26.751 -19.465   5.320  0.00  0.00    -0.022 A 
ATOM     20  C   LIG    1       22.673 -20.802   4.236  0.00  0.00    +0.103 C 
ENDROOT
TORSDOF 0
ENDMDL
MODEL 2
REMARK VINA RESULT:      -0.0      2.922      5.947
REMARK  Name = *****
REMARK                            x       y       z     vdW  Elec       q    Type
REMARK                         _______ _______ _______ _____ _____    ______ ____
ROOT
ATOM      1  C   LIG    1       23.100 -11.447   4.985  0.00  0.00    +0.105 C 
ATOM      2  N   LIG    1       24.047 -12.425   4.488  0.00  0.00    -0.302 NA
ATOM      3  C   LIG    1       23.762 -13.831   4.878  0.00  0.00    +0.111 C 
ATOM      4  C   LIG    1       23.773 -14.897   3.725  0.00  0.00    +0.118 C 
ATOM      5  N   LIG    1       24.927 -14.628   2.827  0.00  0.00    -0.320 N 
ATOM      6  C   LIG    1       26.167 -14.893   3.432  0.00  0.00    +0.034 A 
ATOM      7  C   LIG    1       26.557 -16.244   3.529  0.00  0.00    -0.022 A 
ATOM      8  C   LIG    1       25.657 -17.284   2.923  0.00  0.00    +0.072 C 
ATOM      9  C   LIG    1       24.346 -17.458   3.664  0.00  0.00    -0.038 A 
ATOM     10  C   LIG    1       23.907 -18.783   3.865  0.00  0.00    +0.004 A 
ATOM     11  C   LIG    1       22.688 -19.058   4.475  0.00  0.00    +0.000 A 
ATOM     12  C   LIG    1       21.893 -18.010   4.915  0.00  0.00    +0.000 A 
ATOM     13  C   LIG    1       22.309 -16.688   4.725  0.00  0.00    +0.006 A 
ATOM     14  C   LIG    1       27.744 -16.600   4.186  0.00  0.00    +0.006 A 
ATOM     15  C   LIG    1       28.551 -15.633   4.770  0.00  0.00    +0.000 A 
ATOM     16  C   LIG    1       28.178 -14.293   4.686  0.00  0.00    +0.002 A 
ATOM     17  C   LIG    1       27.010 -13.939   4.009  0.00  0.00    +0.023 A 
ATOM     18  C   LIG    1       24.728 -13.345   2.142  0.00  0.00    +0.121 C 
ATOM     19  C   LIG    1       23.527 -16.374   4.078  0.00  0.00    -0.022 A 
ATOM     20  C   LIG    1       24.456 -12.160   3.096  0.00  0.00    +0.103 C 
ENDROOT
TORSDOF 0
ENDMDL
MODEL 3
REMARK VINA RESULT:       0.5      0.939      1.121
REMARK  Name = *****
REMARK                            x       y       z     vdW  Elec       q    Type
REMARK                         _______ _______ _______ _____ _____    ______ ____
ROOT
ATOM      1  C   LIG    1       22.027 -20.764   5.206  0.00  0.00    +0.105 C 
ATOM      2  N   LIG    1       22.983 -19.821   4.659  0.00  0.00    -0.302 NA
ATOM      3  C   LIG    1       24.250 -19.693   5.430  0.00  0.00    +0.111 C 
ATOM      4  C   LIG    1       25.585 -19.796   4.610  0.00  0.00    +0.118 C 
ATOM      5  N   LIG    1       25.439 -19.026   3.347  0.00  0.00    -0.320 N 
ATOM      6  C   LIG    1       25.373 -17.638   3.554  0.00  0.00    +0.034 A 
ATOM      7  C   LIG    1       26.587 -16.972   3.820  0.00  0.00    -0.022 A 
ATOM      8  C   LIG    1       27.855 -17.779   3.795  0.00  0.00    +0.072 C 
ATOM      9  C   LIG    1       27.972 -18.760   4.945  0.00  0.00    -0.038 A 
ATOM     10  C   LIG    1       29.233 -18.846   5.573  0.00  0.00    +0.004 A 
ATOM     11  C   LIG    1       29.472 -19.757   6.596  0.00  0.00    +0.000 A 
ATOM     12  C   LIG    1       28.447 -20.588   7.023  0.00  0.00    +0.000 A 
ATOM     13  C   LIG    1       27.190 -20.520   6.413  0.00  0.00    +0.006 A 
ATOM     14  C   LIG    1       26.600 -15.600   4.113  0.00  0.00    +0.006 A 
ATOM     15  C   LIG    1       25.419 -14.873   4.164  0.00  0.00    +0.000 A 
ATOM     16  C   LIG    1       24.210 -15.517   3.906  0.00  0.00    +0.002 A 
ATOM     17  C   LIG    1       24.202 -16.877   3.590  0.00  0.00    +0.023 A 
ATOM     18  C   LIG    1       24.431 -19.668   2.494  0.00  0.00    +0.121 C 
ATOM     19  C   LIG    1       26.924 -19.627   5.349  0.00  0.00    -0.022 A 
ATOM     20  C   LIG    1       23.069 -19.890   3.189  0.00  0.00    +0.103 C 
ENDROOT
TORSDOF 0
ENDMDL
