MODEL 1
REMARK VINA RESULT:      -4.6      0.000      0.000
REMARK  Name = *****
REMARK                            x       y       z     vdW  Elec       q    Type
REMARK                         _______ _______ _______ _____ _____    ______ ____
ROOT
ATOM      1  C   LIG    1       25.809 -15.956   3.262  0.00  0.00    +0.068 C 
ATOM      2  C   LIG    1       25.968 -14.440   3.237  0.00  0.00    +0.264 C 
ENDROOT
BRANCH   2   3
ATOM      3  P   LIG    1       27.448 -13.913   4.156  0.00  0.00    +0.371 P 
ATOM      4  O   LIG    1       28.337 -12.855   3.591  0.00  0.00    -0.255 OA
BRANCH   3   5
ATOM      5  O   LIG    1       28.254 -15.268   4.476  0.00  0.00    -0.322 OA
ATOM      6  H   LIG    1       28.759 -15.220   5.310  0.00  0.00    +0.220 HD
ENDBRANCH   3   5
BRANCH   3   7
ATOM      7  O   LIG    1       26.973 -13.531   5.642  0.00  0.00    -0.322 OA
ATOM      8  H   LIG    1       27.038 -12.579   5.835  0.00  0.00    +0.220 HD
ENDBRANCH   3   7
ENDBRANCH   2   3
BRANCH   2   9
ATOM      9  P   LIG    1       24.442 -13.601   3.766  0.00  0.00    +0.371 P 
ATOM     10  O   LIG    1       24.563 -12.466   4.728  0.00  0.00    -0.255 OA
BRANCH   9  11
ATOM     11  O   LIG    1       23.414 -14.719   4.278  0.00  0.00    -0.322 OA
ATOM     12  H   LIG    1       23.729 -15.205   5.063  0.00  0.00    +0.220 HD
ENDBRANCH   9  11
BRANCH   9  13
ATOM     13  O   LIG    1       23.687 -13.126   2.427  0.00  0.00    -0.322 OA
ATOM     14  H   LIG    1       22.893 -12.591   2.604  0.00  0.00    +0.220 HD
ENDBRANCH   9  13
ENDBRANCH   2   9
BRANCH   2  15
ATOM     15  O   LIG    1       26.188 -14.056   1.846  0.00  0.00    -0.367 OA
ATOM     16  H   LIG    1       26.991 -13.493   1.852  0.00  0.00    +0.212 HD
ENDBRANCH   2  15
TORSDOF 7
ENDMDL
MODEL 2
REMARK VINA RESULT:      -4.5      0.224      1.852
REMARK  Name = *****
REMARK                            x       y       z     vdW  Elec       q    Type
REMARK                         _______ _______ _______ _____ _____    ______ ____
ROOT
ATOM      1  C   LIG    1       25.836 -16.114   3.195  0.00  0.00    +0.068 C 
ATOM      2  C   LIG    1       25.907 -14.592   3.229  0.00  0.00    +0.264 C 
ENDROOT
BRANCH   2   3
ATOM      3  P   LIG    1       27.331 -14.015   4.204  0.00  0.00    +0.371 P 
ATOM      4  O   LIG    1       27.113 -13.379   5.537  0.00  0.00    -0.255 OA
BRANCH   3   5
ATOM      5  O   LIG    1       28.165 -13.060   3.212  0.00  0.00    -0.322 OA
ATOM      6  H   LIG    1       27.927 -12.118   3.305  0.00  0.00    +0.220 HD
ENDBRANCH   3   5
BRANCH   3   7
ATOM      7  O   LIG    1       28.360 -15.244   4.314  0.00  0.00    -0.322 OA
ATOM      8  H   LIG    1       28.304 -15.862   3.563  0.00  0.00    +0.220 HD
ENDBRANCH   3   7
ENDBRANCH   2   3
BRANCH   2   9
ATOM      9  P   LIG    1       24.322 -13.862   3.749  0.00  0.00    +0.371 P 
ATOM     10  O   LIG    1       23.337 -14.744   4.441  0.00  0.00    -0.255 OA
BRANCH   9  11
ATOM     11  O   LIG    1       23.681 -13.119   2.482  0.00  0.00    -0.322 OA
ATOM     12  H   LIG    1       23.171 -13.713   1.901  0.00  0.00    +0.220 HD
ENDBRANCH   9  11
BRANCH   9  13
ATOM     13  O   LIG    1       24.677 -12.588   4.664  0.00  0.00    -0.322 OA
ATOM     14  H   LIG    1       24.864 -12.822   5.591  0.00  0.00    +0.220 HD
ENDBRANCH   9  13
ENDBRANCH   2   9
BRANCH   2  15
ATOM     15  O   LIG    1       26.137 -14.144   1.859  0.00  0.00    -0.367 OA
ATOM     16  H   LIG    1       25.436 -13.482   1.677  0.00  0.00    +0.212 HD
ENDBRANCH   2  15
TORSDOF 7
ENDMDL
MODEL 3
REMARK VINA RESULT:      -4.4      1.594      2.702
REMARK  Name = *****
REMARK                            x       y       z     vdW  Elec       q    Type
REMARK                         _______ _______ _______ _____ _____    ______ ____
ROOT
ATOM      1  C   LIG    1       26.024 -13.282   5.370  0.00  0.00    +0.068 C 
ATOM      2  C   LIG    1       25.376 -13.904   4.138  0.00  0.00    +0.264 C 
ENDROOT
BRANCH   2   3
ATOM      3  P   LIG    1       26.529 -15.012   3.269  0.00  0.00    +0.371 P 
ATOM      4  O   LIG    1       26.234 -16.473   3.179  0.00  0.00    -0.255 OA
BRANCH   3   5
ATOM      5  O   LIG    1       27.969 -14.730   3.932  0.00  0.00    -0.322 OA
ATOM      6  H   LIG    1       28.064 -15.134   4.816  0.00  0.00    +0.220 HD
ENDBRANCH   3   5
BRANCH   3   7
ATOM      7  O   LIG    1       26.783 -14.385   1.812  0.00  0.00    -0.322 OA
ATOM      8  H   LIG    1       26.708 -15.038   1.093  0.00  0.00    +0.220 HD
ENDBRANCH   3   7
ENDBRANCH   2   3
BRANCH   2   9
ATOM      9  P   LIG    1       24.631 -12.638   3.065  0.00  0.00    +0.371 P 
ATOM     10  O   LIG    1       25.535 -11.856   2.171  0.00  0.00    -0.255 OA
BRANCH   9  11
ATOM     11  O   LIG    1       23.719 -11.688   3.979  0.00  0.00    -0.322 OA
ATOM     12  H   LIG    1       23.016 -12.167   4.455  0.00  0.00    +0.220 HD
ENDBRANCH   9  11
BRANCH   9  13
ATOM     13  O   LIG    1       23.487 -13.373   2.206  0.00  0.00    -0.322 OA
ATOM     14  H   LIG    1       23.363 -14.307   2.453  0.00  0.00    +0.220 HD
ENDBRANCH   9  13
ENDBRANCH   2   9
BRANCH   2  15
ATOM     15  O   LIG    1       24.278 -14.742   4.610  0.00  0.00    -0.367 OA
ATOM     16  H   LIG    1       23.845 -15.090   3.802  0.00  0.00    +0.212 HD
ENDBRANCH   2  15
TORSDOF 7
ENDMDL
MODEL 4
REMARK VINA RESULT:      -4.3      0.944      3.789
REMARK  Name = *****
REMARK                            x       y       z     vdW  Elec       q    Type
REMARK                         _______ _______ _______ _____ _____    ______ ____
ROOT
ATOM      1  C   LIG    1       26.245 -12.023   2.261  0.00  0.00    +0.068 C 
ATOM      2  C   LIG    1       26.171 -13.397   2.917  0.00  0.00    +0.264 C 
ENDROOT
BRANCH   2   3
ATOM      3  P   LIG    1       24.528 -13.702   3.639  0.00  0.00    +0.371 P 
ATOM      4  O   LIG    1       24.187 -15.055   4.170  0.00  0.00    -0.255 OA
BRANCH   3   5
ATOM      5  O   LIG    1       23.478 -13.212   2.522  0.00  0.00    -0.322 OA
ATOM      6  H   LIG    1       23.742 -12.375   2.095  0.00  0.00    +0.220 HD
ENDBRANCH   3   5
BRANCH   3   7
ATOM      7  O   LIG    1       24.280 -12.568   4.749  0.00  0.00    -0.322 OA
ATOM      8  H   LIG    1       25.081 -12.344   5.257  0.00  0.00    +0.220 HD
ENDBRANCH   3   7
ENDBRANCH   2   3
BRANCH   2   9
ATOM      9  P   LIG    1       27.542 -13.652   4.088  0.00  0.00    +0.371 P 
ATOM     10  O   LIG    1       28.773 -12.825   3.916  0.00  0.00    -0.255 OA
BRANCH   9  11
ATOM     11  O   LIG    1       27.870 -15.220   4.132  0.00  0.00    -0.322 OA
ATOM     12  H   LIG    1       28.329 -15.543   3.334  0.00  0.00    +0.220 HD
ENDBRANCH   9  11
BRANCH   9  13
ATOM     13  O   LIG    1       26.933 -13.457   5.563  0.00  0.00    -0.322 OA
ATOM     14  H   LIG    1       26.740 -14.299   6.013  0.00  0.00    +0.220 HD
ENDBRANCH   9  13
ENDBRANCH   2   9
BRANCH   2  15
ATOM     15  O   LIG    1       26.345 -14.386   1.858  0.00  0.00    -0.367 OA
ATOM     16  H   LIG    1       26.779 -15.156   2.285  0.00  0.00    +0.212 HD
ENDBRANCH   2  15
TORSDOF 7
ENDMDL
MODEL 5
REMARK VINA RESULT:      -4.3      1.590      3.831
REMARK  Name = *****
REMARK                            x       y       z     vdW  Elec       q    Type
REMARK                         _______ _______ _______ _____ _____    ______ ____
ROOT
ATOM      1  C   LIG    1       24.085 -14.807   4.446  0.00  0.00    +0.068 C 
ATOM      2  C   LIG    1       25.224 -13.900   3.995  0.00  0.00    +0.264 C 
ENDROOT
BRANCH   2   3
ATOM      3  P   LIG    1       24.626 -12.582   2.891  0.00  0.00    +0.371 P 
ATOM      4  O   LIG    1       25.598 -11.798   2.073  0.00  0.00    -0.255 OA
BRANCH   3   5
ATOM      5  O   LIG    1       23.717 -11.632   3.818  0.00  0.00    -0.322 OA
ATOM      6  H   LIG    1       24.244 -11.004   4.349  0.00  0.00    +0.220 HD
ENDBRANCH   3   5
BRANCH   3   7
ATOM      7  O   LIG    1       23.480 -13.222   1.965  0.00  0.00    -0.322 OA
ATOM      8  H   LIG    1       23.157 -14.082   2.290  0.00  0.00    +0.220 HD
ENDBRANCH   3   7
ENDBRANCH   2   3
BRANCH   2   9
ATOM      9  P   LIG    1       26.608 -14.859   3.304  0.00  0.00    +0.371 P 
ATOM     10  O   LIG    1       26.498 -16.348   3.305  0.00  0.00    -0.255 OA
BRANCH   9  11
ATOM     11  O   LIG    1       27.958 -14.354   4.005  0.00  0.00    -0.322 OA
ATOM     12  H   LIG    1       28.314 -14.983   4.659  0.00  0.00    +0.220 HD
ENDBRANCH   9  11
BRANCH   9  13
ATOM     13  O   LIG    1       26.851 -14.313   1.812  0.00  0.00    -0.322 OA
ATOM     14  H   LIG    1       27.153 -13.387   1.787  0.00  0.00    +0.220 HD
ENDBRANCH   9  13
ENDBRANCH   2   9
BRANCH   2  15
ATOM     15  O   LIG    1       25.738 -13.235   5.188  0.00  0.00    -0.367 OA
ATOM     16  H   LIG    1       25.693 -13.905   5.903  0.00  0.00    +0.212 HD
ENDBRANCH   2  15
TORSDOF 7
ENDMDL
MODEL 6
REMARK VINA RESULT:      -4.2      0.224      1.321
REMARK  Name = *****
REMARK                            x       y       z     vdW  Elec       q    Type
REMARK                         _______ _______ _______ _____ _____    ______ ____
ROOT
ATOM      1  C   LIG    1       25.726 -15.992   3.309  0.00  0.00    +0.068 C 
ATOM      2  C   LIG    1       25.859 -14.474   3.292  0.00  0.00    +0.264 C 
ENDROOT
BRANCH   2   3
ATOM      3  P   LIG    1       27.322 -13.924   4.227  0.00  0.00    +0.371 P 
ATOM      4  O   LIG    1       27.156 -13.321   5.582  0.00  0.00    -0.255 OA
BRANCH   3   5
ATOM      5  O   LIG    1       28.120 -12.947   3.228  0.00  0.00    -0.322 OA
ATOM      6  H   LIG    1       29.085 -12.959   3.379  0.00  0.00    +0.220 HD
ENDBRANCH   3   5
BRANCH   3   7
ATOM      7  O   LIG    1       28.350 -15.158   4.267  0.00  0.00    -0.322 OA
ATOM      8  H   LIG    1       28.516 -15.492   5.167  0.00  0.00    +0.220 HD
ENDBRANCH   3   7
ENDBRANCH   2   3
BRANCH   2   9
ATOM      9  P   LIG    1       24.314 -13.663   3.811  0.00  0.00    +0.371 P 
ATOM     10  O   LIG    1       24.414 -12.456   4.684  0.00  0.00    -0.255 OA
BRANCH   9  11
ATOM     11  O   LIG    1       23.355 -14.783   4.438  0.00  0.00    -0.322 OA
ATOM     12  H   LIG    1       23.357 -15.620   3.939  0.00  0.00    +0.220 HD
ENDBRANCH   9  11
BRANCH   9  13
ATOM     13  O   LIG    1       23.498 -13.321   2.469  0.00  0.00    -0.322 OA
ATOM     14  H   LIG    1       24.055 -13.323   1.670  0.00  0.00    +0.220 HD
ENDBRANCH   9  13
ENDBRANCH   2   9
BRANCH   2  15
ATOM     15  O   LIG    1       26.085 -14.080   1.905  0.00  0.00    -0.367 OA
ATOM     16  H   LIG    1       26.955 -14.462   1.661  0.00  0.00    +0.212 HD
ENDBRANCH   2  15
TORSDOF 7
ENDMDL
MODEL 7
REMARK VINA RESULT:      -4.0      1.601      3.842
REMARK  Name = *****
REMARK                            x       y       z     vdW  Elec       q    Type
REMARK                         _______ _______ _______ _____ _____    ______ ____
ROOT
ATOM      1  C   LIG    1       24.425 -14.594   4.736  0.00  0.00    +0.068 C 
ATOM      2  C   LIG    1       25.397 -13.580   4.144  0.00  0.00    +0.264 C 
ENDROOT
BRANCH   2   3
ATOM      3  P   LIG    1       24.547 -12.414   3.035  0.00  0.00    +0.371 P 
ATOM      4  O   LIG    1       23.552 -11.449   3.591  0.00  0.00    -0.255 OA
BRANCH   3   5
ATOM      5  O   LIG    1       23.914 -13.322   1.867  0.00  0.00    -0.322 OA
ATOM      6  H   LIG    1       23.322 -14.019   2.209  0.00  0.00    +0.220 HD
ENDBRANCH   3   5
BRANCH   3   7
ATOM      7  O   LIG    1       25.679 -11.649   2.191  0.00  0.00    -0.322 OA
ATOM      8  H   LIG    1       26.565 -12.044   2.288  0.00  0.00    +0.220 HD
ENDBRANCH   3   7
ENDBRANCH   2   3
BRANCH   2   9
ATOM      9  P   LIG    1       26.832 -14.399   3.380  0.00  0.00    +0.371 P 
ATOM     10  O   LIG    1       28.176 -14.169   3.987  0.00  0.00    -0.255 OA
BRANCH   9  11
ATOM     11  O   LIG    1       26.814 -14.068   1.812  0.00  0.00    -0.322 OA
ATOM     12  H   LIG    1       26.955 -13.124   1.613  0.00  0.00    +0.220 HD
ENDBRANCH   9  11
BRANCH   9  13
ATOM     13  O   LIG    1       26.497 -15.971   3.333  0.00  0.00    -0.322 OA
ATOM     14  H   LIG    1       27.280 -16.525   3.164  0.00  0.00    +0.220 HD
ENDBRANCH   9  13
ENDBRANCH   2   9
BRANCH   2  15
ATOM     15  O   LIG    1       25.917 -12.789   5.254  0.00  0.00    -0.367 OA
ATOM     16  H   LIG    1       26.564 -13.368   5.710  0.00  0.00    +0.212 HD
ENDBRANCH   2  15
TORSDOF 7
ENDMDL
MODEL 8
REMARK VINA RESULT:      -3.9      0.962      3.802
REMARK  Name = *****
REMARK                            x       y       z     vdW  Elec       q    Type
REMARK                         _______ _______ _______ _____ _____    ______ ____
ROOT
ATOM      1  C   LIG    1       26.363 -12.031   2.252  0.00  0.00    +0.068 C 
ATOM      2  C   LIG    1       26.122 -13.381   2.918  0.00  0.00    +0.264 C 
ENDROOT
BRANCH   2   3
ATOM      3  P   LIG    1       24.473 -13.461   3.683  0.00  0.00    +0.371 P 
ATOM      4  O   LIG    1       24.147 -12.579   4.842  0.00  0.00    -0.255 OA
BRANCH   3   5
ATOM      5  O   LIG    1       24.239 -15.015   4.026  0.00  0.00    -0.322 OA
ATOM      6  H   LIG    1       25.054 -15.547   3.947  0.00  0.00    +0.220 HD
ENDBRANCH   3   5
BRANCH   3   7
ATOM      7  O   LIG    1       23.394 -13.285   2.505  0.00  0.00    -0.322 OA
ATOM      8  H   LIG    1       22.681 -12.659   2.725  0.00  0.00    +0.220 HD
ENDBRANCH   3   7
ENDBRANCH   2   3
BRANCH   2   9
ATOM      9  P   LIG    1       27.476 -13.815   4.054  0.00  0.00    +0.371 P 
ATOM     10  O   LIG    1       27.828 -15.257   4.208  0.00  0.00    -0.255 OA
BRANCH   9  11
ATOM     11  O   LIG    1       27.183 -13.112   5.464  0.00  0.00    -0.322 OA
ATOM     12  H   LIG    1       27.639 -12.257   5.574  0.00  0.00    +0.220 HD
ENDBRANCH   9  11
BRANCH   9  13
ATOM     13  O   LIG    1       28.762 -12.969   3.587  0.00  0.00    -0.322 OA
ATOM     14  H   LIG    1       28.532 -12.178   3.067  0.00  0.00    +0.220 HD
ENDBRANCH   9  13
ENDBRANCH   2   9
BRANCH   2  15
ATOM     15  O   LIG    1       26.134 -14.387   1.860  0.00  0.00    -0.367 OA
ATOM     16  H   LIG    1       26.835 -14.103   1.235  0.00  0.00    +0.212 HD
ENDBRANCH   2  15
TORSDOF 7
ENDMDL
MODEL 9
REMARK VINA RESULT:      -3.8      1.489      3.856
REMARK  Name = *****
REMARK                            x       y       z     vdW  Elec       q    Type
REMARK                         _______ _______ _______ _____ _____    ______ ____
ROOT
ATOM      1  C   LIG    1       26.479 -13.371   5.521  0.00  0.00    +0.068 C 
ATOM      2  C   LIG    1       25.964 -13.514   4.093  0.00  0.00    +0.264 C 
ENDROOT
BRANCH   2   3
ATOM      3  P   LIG    1       24.145 -13.488   4.036  0.00  0.00    +0.371 P 
ATOM      4  O   LIG    1       23.367 -14.645   4.570  0.00  0.00    -0.255 OA
BRANCH   3   5
ATOM      5  O   LIG    1       23.773 -13.168   2.503  0.00  0.00    -0.322 OA
ATOM      6  H   LIG    1       24.352 -12.489   2.107  0.00  0.00    +0.220 HD
ENDBRANCH   3   5
BRANCH   3   7
ATOM      7  O   LIG    1       23.669 -12.112   4.715  0.00  0.00    -0.322 OA
ATOM      8  H   LIG    1       24.369 -11.435   4.747  0.00  0.00    +0.220 HD
ENDBRANCH   3   7
ENDBRANCH   2   3
BRANCH   2   9
ATOM      9  P   LIG    1       26.700 -14.955   3.260  0.00  0.00    +0.371 P 
ATOM     10  O   LIG    1       25.868 -16.186   3.122  0.00  0.00    -0.255 OA
BRANCH   9  11
ATOM     11  O   LIG    1       28.114 -15.258   3.953  0.00  0.00    -0.322 OA
ATOM     12  H   LIG    1       28.078 -15.251   4.927  0.00  0.00    +0.220 HD
ENDBRANCH   9  11
BRANCH   9  13
ATOM     13  O   LIG    1       27.203 -14.450   1.819  0.00  0.00    -0.322 OA
ATOM     14  H   LIG    1       26.823 -13.592   1.559  0.00  0.00    +0.220 HD
ENDBRANCH   9  13
ENDBRANCH   2   9
BRANCH   2  15
ATOM     15  O   LIG    1       26.416 -12.337   3.356  0.00  0.00    -0.367 OA
ATOM     16  H   LIG    1       25.753 -11.639   3.543  0.00  0.00    +0.212 HD
ENDBRANCH   2  15
TORSDOF 7
ENDMDL
