MODEL 1
REMARK VINA RESULT:     -10.7      0.000      0.000
REMARK  Name = *****
REMARK                            x       y       z     vdW  Elec       q    Type
REMARK                         _______ _______ _______ _____ _____    ______ ____
ROOT
ATOM      1  C   LIG    1       24.795 -24.259   6.676  0.00  0.00    +0.076 C 
ATOM      2  C   LIG    1       23.652 -25.136   6.140  0.00  0.00    +0.037 C 
ATOM      3  C   LIG    1       24.033 -26.615   6.010  0.00  0.00    +0.086 C 
ATOM      4  N   LIG    1       25.263 -26.764   5.231  0.00  0.00    -0.302 NA
ATOM      5  C   LIG    1       26.407 -26.052   5.818  0.00  0.00    +0.086 C 
ATOM      6  C   LIG    1       26.070 -25.057   6.927  0.00  0.00    +0.037 C 
ENDROOT
BRANCH   1   9
ATOM      7  O   LIG    1       23.782 -21.659   7.018  0.00  0.00    -0.270 OA
ATOM      8  C   LIG    1       24.493 -21.855   6.058  0.00  0.00    +0.245 C 
ATOM      9  N   LIG    1       25.059 -23.109   5.804  0.00  0.00    -0.308 N 
ATOM     10  H   LIG    1       25.671 -23.247   5.023  0.00  0.00    +0.149 HD
BRANCH   8  11
ATOM     11  C   LIG    1       24.781 -20.755   5.068  0.00  0.00    +0.044 A 
ATOM     12  C   LIG    1       25.986 -19.991   5.046  0.00  0.00    -0.006 A 
ATOM     13  C   LIG    1       26.028 -18.912   4.119  0.00  0.00    +0.009 A 
ATOM     14  C   LIG    1       24.955 -18.576   3.290  0.00  0.00    +0.001 A 
ATOM     15  C   LIG    1       23.797 -19.331   3.328  0.00  0.00    +0.001 A 
ATOM     16  C   LIG    1       23.713 -20.409   4.207  0.00  0.00    +0.013 A 
BRANCH  12  17
ATOM     17  C   LIG    1       27.197 -20.196   5.912  0.00  0.00    -0.017 A 
ATOM     18  C   LIG    1       27.210 -21.051   7.024  0.00  0.00    +0.009 A 
ATOM     19  C   LIG    1       28.328 -21.159   7.867  0.00  0.00    +0.013 A 
ATOM     20  C   LIG    1       29.515 -20.475   7.582  0.00  0.00    +0.055 A 
ATOM     21  C   LIG    1       29.558 -19.685   6.432  0.00  0.00    +0.013 A 
ATOM     22  C   LIG    1       28.416 -19.535   5.632  0.00  0.00    +0.009 A 
BRANCH  20  23
ATOM     23  C   LIG    1       30.700 -20.588   8.507  0.00  0.00    +0.417 C 
ATOM     24  F   LIG    1       30.747 -19.578   9.421  0.00  0.00    -0.166 F 
ATOM     25  F   LIG    1       31.890 -20.545   7.845  0.00  0.00    -0.166 F 
ATOM     26  F   LIG    1       30.720 -21.743   9.231  0.00  0.00    -0.166 F 
ENDBRANCH  20  23
ENDBRANCH  12  17
ENDBRANCH   8  11
ENDBRANCH   1   9
BRANCH   4  27
ATOM     27  C   LIG    1       25.570 -28.183   4.977  0.00  0.00    +0.084 C 
BRANCH  27  28
ATOM     28  C   LIG    1       24.882 -29.154   5.958  0.00  0.00    +0.015 C 
BRANCH  28  29
ATOM     29  C   LIG    1       25.402 -29.046   7.404  0.00  0.00    +0.003 C 
BRANCH  29  30
ATOM     30  C   LIG    1       24.296 -29.393   8.417  0.00  0.00    +0.026 C 
BRANCH  30  31
ATOM     31  C   LIG    1       24.714 -30.114   9.736  0.00  0.00    +0.098 C 
ATOM     32  C   LIG    1       25.388 -29.173  10.753  0.00  0.00    -0.020 A 
ATOM     33  C   LIG    1       24.627 -29.109  11.940  0.00  0.00    -0.013 A 
ATOM     34  C   LIG    1       25.021 -28.302  12.995  0.00  0.00    +0.009 A 
ATOM     35  C   LIG    1       26.197 -27.564  12.864  0.00  0.00    +0.001 A 
ATOM     36  C   LIG    1       26.981 -27.664  11.706  0.00  0.00    +0.000 A 
ATOM     37  C   LIG    1       23.446 -29.926  11.805  0.00  0.00    -0.013 A 
ATOM     38  C   LIG    1       22.416 -30.145  12.709  0.00  0.00    +0.009 A 
ATOM     39  C   LIG    1       21.293 -30.854  12.283  0.00  0.00    +0.001 A 
ATOM     40  C   LIG    1       21.214 -31.337  10.968  0.00  0.00    +0.000 A 
ATOM     41  C   LIG    1       22.281 -31.166  10.075  0.00  0.00    +0.005 A 
ATOM     42  C   LIG    1       26.588 -28.483  10.647  0.00  0.00    +0.005 A 
ATOM     43  C   LIG    1       23.411 -30.477  10.510  0.00  0.00    -0.020 A 
BRANCH  31  44
ATOM     44  C   LIG    1       25.552 -31.417   9.505  0.00  0.00    +0.228 C 
ATOM     45  N   LIG    1       25.225 -32.199   8.403  0.00  0.00    -0.306 N 
ATOM     46  H   LIG    1       24.348 -32.040   7.913  0.00  0.00    +0.149 HD
ATOM     47  O   LIG    1       26.514 -31.715  10.218  0.00  0.00    -0.275 OA
BRANCH  45  48
ATOM     48  C   LIG    1       25.997 -33.399   8.061  0.00  0.00    +0.217 C 
BRANCH  48  49
ATOM     49  C   LIG    1       27.165 -33.225   7.080  0.00  0.00    +0.405 C 
ATOM     50  F   LIG    1       28.302 -33.770   7.574  0.00  0.00    -0.169 F 
ATOM     51  F   LIG    1       27.416 -31.918   6.837  0.00  0.00    -0.169 F 
ATOM     52  F   LIG    1       26.919 -33.821   5.890  0.00  0.00    -0.169 F 
ENDBRANCH  48  49
ENDBRANCH  45  48
ENDBRANCH  31  44
ENDBRANCH  30  31
ENDBRANCH  29  30
ENDBRANCH  28  29
ENDBRANCH  27  28
ENDBRANCH   4  27
TORSDOF 12
ENDMDL
MODEL 2
REMARK VINA RESULT:     -10.4      2.272      4.034
REMARK  Name = *****
REMARK                            x       y       z     vdW  Elec       q    Type
REMARK                         _______ _______ _______ _____ _____    ______ ____
ROOT
ATOM      1  C   LIG    1       24.664 -23.838   6.604  0.00  0.00    +0.076 C 
ATOM      2  C   LIG    1       23.640 -24.746   5.904  0.00  0.00    +0.037 C 
ATOM      3  C   LIG    1       24.034 -26.227   5.918  0.00  0.00    +0.086 C 
ATOM      4  N   LIG    1       25.388 -26.405   5.392  0.00  0.00    -0.302 NA
ATOM      5  C   LIG    1       26.404 -25.659   6.150  0.00  0.00    +0.086 C 
ATOM      6  C   LIG    1       25.867 -24.615   7.127  0.00  0.00    +0.037 C 
ENDROOT
BRANCH   1   9
ATOM      7  O   LIG    1       23.953 -21.136   6.917  0.00  0.00    -0.270 OA
ATOM      8  C   LIG    1       24.668 -21.416   5.981  0.00  0.00    +0.245 C 
ATOM      9  N   LIG    1       25.091 -22.728   5.743  0.00  0.00    -0.308 N 
ATOM     10  H   LIG    1       25.708 -22.939   4.983  0.00  0.00    +0.149 HD
BRANCH   8  11
ATOM     11  C   LIG    1       25.117 -20.359   5.004  0.00  0.00    +0.044 A 
ATOM     12  C   LIG    1       26.383 -19.702   5.058  0.00  0.00    -0.006 A 
ATOM     13  C   LIG    1       26.581 -18.644   4.126  0.00  0.00    +0.009 A 
ATOM     14  C   LIG    1       25.600 -18.230   3.223  0.00  0.00    +0.001 A 
ATOM     15  C   LIG    1       24.380 -18.881   3.189  0.00  0.00    +0.001 A 
ATOM     16  C   LIG    1       24.143 -19.934   4.069  0.00  0.00    +0.013 A 
BRANCH  12  17
ATOM     17  C   LIG    1       27.510 -19.998   6.006  0.00  0.00    -0.017 A 
ATOM     18  C   LIG    1       28.796 -19.456   5.864  0.00  0.00    +0.009 A 
ATOM     19  C   LIG    1       29.854 -19.815   6.716  0.00  0.00    +0.013 A 
ATOM     20  C   LIG    1       29.646 -20.673   7.801  0.00  0.00    +0.055 A 
ATOM     21  C   LIG    1       28.355 -21.159   8.018  0.00  0.00    +0.013 A 
ATOM     22  C   LIG    1       27.320 -20.843   7.126  0.00  0.00    +0.009 A 
BRANCH  20  23
ATOM     23  C   LIG    1       30.796 -21.064   8.694  0.00  0.00    +0.417 C 
ATOM     24  F   LIG    1       30.498 -22.125   9.496  0.00  0.00    -0.166 F 
ATOM     25  F   LIG    1       31.175 -20.060   9.533  0.00  0.00    -0.166 F 
ATOM     26  F   LIG    1       31.921 -21.421   8.012  0.00  0.00    -0.166 F 
ENDBRANCH  20  23
ENDBRANCH  12  17
ENDBRANCH   8  11
ENDBRANCH   1   9
BRANCH   4  27
ATOM     27  C   LIG    1       25.734 -27.832   5.268  0.00  0.00    +0.084 C 
BRANCH  27  28
ATOM     28  C   LIG    1       24.517 -28.749   5.028  0.00  0.00    +0.015 C 
BRANCH  28  29
ATOM     29  C   LIG    1       23.854 -29.252   6.324  0.00  0.00    +0.003 C 
BRANCH  29  30
ATOM     30  C   LIG    1       24.806 -29.108   7.525  0.00  0.00    +0.026 C 
BRANCH  30  31
ATOM     31  C   LIG    1       25.092 -30.377   8.386  0.00  0.00    +0.098 C 
ATOM     32  C   LIG    1       23.818 -30.997   8.992  0.00  0.00    -0.020 A 
ATOM     33  C   LIG    1       23.635 -32.311   8.511  0.00  0.00    -0.013 A 
ATOM     34  C   LIG    1       22.539 -33.064   8.896  0.00  0.00    +0.009 A 
ATOM     35  C   LIG    1       21.623 -32.499   9.784  0.00  0.00    +0.001 A 
ATOM     36  C   LIG    1       21.829 -31.213  10.303  0.00  0.00    +0.000 A 
ATOM     37  C   LIG    1       24.689 -32.640   7.582  0.00  0.00    -0.013 A 
ATOM     38  C   LIG    1       24.898 -33.806   6.859  0.00  0.00    +0.009 A 
ATOM     39  C   LIG    1       25.906 -33.824   5.895  0.00  0.00    +0.001 A 
ATOM     40  C   LIG    1       26.691 -32.684   5.667  0.00  0.00    +0.000 A 
ATOM     41  C   LIG    1       26.517 -31.526   6.438  0.00  0.00    +0.005 A 
ATOM     42  C   LIG    1       22.939 -30.458   9.921  0.00  0.00    +0.005 A 
ATOM     43  C   LIG    1       25.526 -31.519   7.416  0.00  0.00    -0.020 A 
BRANCH  31  44
ATOM     44  C   LIG    1       26.208 -30.171   9.464  0.00  0.00    +0.228 C 
ATOM     45  N   LIG    1       26.394 -28.881   9.950  0.00  0.00    -0.306 N 
ATOM     46  H   LIG    1       25.976 -28.093   9.464  0.00  0.00    +0.149 HD
ATOM     47  O   LIG    1       26.856 -31.112   9.930  0.00  0.00    -0.275 OA
BRANCH  45  48
ATOM     48  C   LIG    1       27.365 -28.598  11.014  0.00  0.00    +0.217 C 
BRANCH  48  49
ATOM     49  C   LIG    1       26.843 -27.878  12.266  0.00  0.00    +0.405 C 
ATOM     50  F   LIG    1       26.933 -26.535  12.129  0.00  0.00    -0.169 F 
ATOM     51  F   LIG    1       27.554 -28.220  13.365  0.00  0.00    -0.169 F 
ATOM     52  F   LIG    1       25.545 -28.171  12.513  0.00  0.00    -0.169 F 
ENDBRANCH  48  49
ENDBRANCH  45  48
ENDBRANCH  31  44
ENDBRANCH  30  31
ENDBRANCH  29  30
ENDBRANCH  28  29
ENDBRANCH  27  28
ENDBRANCH   4  27
TORSDOF 12
ENDMDL
MODEL 3
REMARK VINA RESULT:     -10.2      2.885      4.060
REMARK  Name = *****
REMARK                            x       y       z     vdW  Elec       q    Type
REMARK                         _______ _______ _______ _____ _____    ______ ____
ROOT
ATOM      1  C   LIG    1       25.247 -24.415   7.237  0.00  0.00    +0.076 C 
ATOM      2  C   LIG    1       24.162 -24.597   6.163  0.00  0.00    +0.037 C 
ATOM      3  C   LIG    1       23.995 -26.052   5.712  0.00  0.00    +0.086 C 
ATOM      4  N   LIG    1       25.282 -26.618   5.306  0.00  0.00    -0.302 NA
ATOM      5  C   LIG    1       26.288 -26.589   6.378  0.00  0.00    +0.086 C 
ATOM      6  C   LIG    1       25.941 -25.726   7.590  0.00  0.00    +0.037 C 
ENDROOT
BRANCH   1   9
ATOM      7  O   LIG    1       26.194 -22.346   8.890  0.00  0.00    -0.270 OA
ATOM      8  C   LIG    1       26.622 -22.392   7.757  0.00  0.00    +0.245 C 
ATOM      9  N   LIG    1       26.226 -23.388   6.859  0.00  0.00    -0.308 N 
ATOM     10  H   LIG    1       26.613 -23.431   5.936  0.00  0.00    +0.149 HD
BRANCH   8  11
ATOM     11  C   LIG    1       27.588 -21.351   7.251  0.00  0.00    +0.044 A 
ATOM     12  C   LIG    1       27.259 -20.353   6.285  0.00  0.00    -0.006 A 
ATOM     13  C   LIG    1       28.333 -19.536   5.836  0.00  0.00    +0.009 A 
ATOM     14  C   LIG    1       29.650 -19.699   6.272  0.00  0.00    +0.001 A 
ATOM     15  C   LIG    1       29.947 -20.673   7.208  0.00  0.00    +0.001 A 
ATOM     16  C   LIG    1       28.926 -21.489   7.692  0.00  0.00    +0.013 A 
BRANCH  12  17
ATOM     17  C   LIG    1       25.906 -20.096   5.684  0.00  0.00    -0.017 A 
ATOM     18  C   LIG    1       25.725 -19.576   4.393  0.00  0.00    +0.009 A 
ATOM     19  C   LIG    1       24.452 -19.265   3.888  0.00  0.00    +0.013 A 
ATOM     20  C   LIG    1       23.296 -19.541   4.626  0.00  0.00    +0.055 A 
ATOM     21  C   LIG    1       23.442 -20.139   5.878  0.00  0.00    +0.013 A 
ATOM     22  C   LIG    1       24.720 -20.388   6.399  0.00  0.00    +0.009 A 
BRANCH  20  23
ATOM     23  C   LIG    1       21.938 -19.183   4.075  0.00  0.00    +0.417 C 
ATOM     24  F   LIG    1       20.994 -20.124   4.362  0.00  0.00    -0.166 F 
ATOM     25  F   LIG    1       21.937 -19.058   2.719  0.00  0.00    -0.166 F 
ATOM     26  F   LIG    1       21.446 -18.007   4.556  0.00  0.00    -0.166 F 
ENDBRANCH  20  23
ENDBRANCH  12  17
ENDBRANCH   8  11
ENDBRANCH   1   9
BRANCH   4  27
ATOM     27  C   LIG    1       25.122 -27.969   4.740  0.00  0.00    +0.084 C 
BRANCH  27  28
ATOM     28  C   LIG    1       25.514 -29.101   5.711  0.00  0.00    +0.015 C 
BRANCH  28  29
ATOM     29  C   LIG    1       24.315 -29.738   6.437  0.00  0.00    +0.003 C 
BRANCH  29  30
ATOM     30  C   LIG    1       24.180 -29.192   7.870  0.00  0.00    +0.026 C 
BRANCH  30  31
ATOM     31  C   LIG    1       24.665 -30.096   9.045  0.00  0.00    +0.098 C 
ATOM     32  C   LIG    1       25.558 -29.348  10.054  0.00  0.00    -0.020 A 
ATOM     33  C   LIG    1       24.955 -29.341  11.331  0.00  0.00    -0.013 A 
ATOM     34  C   LIG    1       25.561 -28.703  12.399  0.00  0.00    +0.009 A 
ATOM     35  C   LIG    1       26.790 -28.078  12.192  0.00  0.00    +0.001 A 
ATOM     36  C   LIG    1       27.415 -28.127  10.937  0.00  0.00    +0.000 A 
ATOM     37  C   LIG    1       23.680 -30.013  11.270  0.00  0.00    -0.013 A 
ATOM     38  C   LIG    1       22.745 -30.226  12.273  0.00  0.00    +0.009 A 
ATOM     39  C   LIG    1       21.505 -30.765  11.928  0.00  0.00    +0.001 A 
ATOM     40  C   LIG    1       21.217 -31.086  10.594  0.00  0.00    +0.000 A 
ATOM     41  C   LIG    1       22.184 -30.925   9.591  0.00  0.00    +0.005 A 
ATOM     42  C   LIG    1       26.808 -28.777   9.862  0.00  0.00    +0.005 A 
ATOM     43  C   LIG    1       23.429 -30.409   9.941  0.00  0.00    -0.020 A 
BRANCH  31  44
ATOM     44  C   LIG    1       25.314 -31.443   8.580  0.00  0.00    +0.228 C 
ATOM     45  N   LIG    1       26.485 -31.362   7.834  0.00  0.00    -0.306 N 
ATOM     46  H   LIG    1       26.768 -30.472   7.433  0.00  0.00    +0.149 HD
ATOM     47  O   LIG    1       24.862 -32.541   8.913  0.00  0.00    -0.275 OA
BRANCH  45  48
ATOM     48  C   LIG    1       27.207 -32.568   7.413  0.00  0.00    +0.217 C 
BRANCH  48  49
ATOM     49  C   LIG    1       27.094 -32.973   5.936  0.00  0.00    +0.405 C 
ATOM     50  F   LIG    1       28.221 -33.592   5.512  0.00  0.00    -0.169 F 
ATOM     51  F   LIG    1       26.902 -31.896   5.141  0.00  0.00    -0.169 F 
ATOM     52  F   LIG    1       26.064 -33.825   5.722  0.00  0.00    -0.169 F 
ENDBRANCH  48  49
ENDBRANCH  45  48
ENDBRANCH  31  44
ENDBRANCH  30  31
ENDBRANCH  29  30
ENDBRANCH  28  29
ENDBRANCH  27  28
ENDBRANCH   4  27
TORSDOF 12
ENDMDL
MODEL 4
REMARK VINA RESULT:     -10.1      2.497      4.025
REMARK  Name = *****
REMARK                            x       y       z     vdW  Elec       q    Type
REMARK                         _______ _______ _______ _____ _____    ______ ____
ROOT
ATOM      1  C   LIG    1       24.880 -24.091   6.680  0.00  0.00    +0.076 C 
ATOM      2  C   LIG    1       23.665 -24.922   6.234  0.00  0.00    +0.037 C 
ATOM      3  C   LIG    1       23.976 -26.415   6.084  0.00  0.00    +0.086 C 
ATOM      4  N   LIG    1       25.137 -26.616   5.217  0.00  0.00    -0.302 NA
ATOM      5  C   LIG    1       26.350 -25.949   5.715  0.00  0.00    +0.086 C 
ATOM      6  C   LIG    1       26.136 -24.939   6.840  0.00  0.00    +0.037 C 
ENDROOT
BRANCH   1   9
ATOM      7  O   LIG    1       24.019 -21.446   7.094  0.00  0.00    -0.270 OA
ATOM      8  C   LIG    1       24.640 -21.675   6.079  0.00  0.00    +0.245 C 
ATOM      9  N   LIG    1       25.124 -22.954   5.785  0.00  0.00    -0.308 N 
ATOM     10  H   LIG    1       25.664 -23.121   4.957  0.00  0.00    +0.149 HD
BRANCH   8  11
ATOM     11  C   LIG    1       24.897 -20.590   5.065  0.00  0.00    +0.044 A 
ATOM     12  C   LIG    1       26.094 -19.816   5.004  0.00  0.00    -0.006 A 
ATOM     13  C   LIG    1       26.107 -18.752   4.058  0.00  0.00    +0.009 A 
ATOM     14  C   LIG    1       25.013 -18.440   3.247  0.00  0.00    +0.001 A 
ATOM     15  C   LIG    1       23.863 -19.204   3.323  0.00  0.00    +0.001 A 
ATOM     16  C   LIG    1       23.807 -20.267   4.222  0.00  0.00    +0.013 A 
BRANCH  12  17
ATOM     17  C   LIG    1       27.325 -19.995   5.847  0.00  0.00    -0.017 A 
ATOM     18  C   LIG    1       27.342 -20.749   7.031  0.00  0.00    +0.009 A 
ATOM     19  C   LIG    1       28.483 -20.831   7.845  0.00  0.00    +0.013 A 
ATOM     20  C   LIG    1       29.686 -20.226   7.463  0.00  0.00    +0.055 A 
ATOM     21  C   LIG    1       29.721 -19.543   6.247  0.00  0.00    +0.013 A 
ATOM     22  C   LIG    1       28.560 -19.415   5.472  0.00  0.00    +0.009 A 
BRANCH  20  23
ATOM     23  C   LIG    1       30.897 -20.308   8.358  0.00  0.00    +0.417 C 
ATOM     24  F   LIG    1       32.023 -19.830   7.758  0.00  0.00    -0.166 F 
ATOM     25  F   LIG    1       31.189 -21.585   8.731  0.00  0.00    -0.166 F 
ATOM     26  F   LIG    1       30.768 -19.604   9.518  0.00  0.00    -0.166 F 
ENDBRANCH  20  23
ENDBRANCH  12  17
ENDBRANCH   8  11
ENDBRANCH   1   9
BRANCH   4  27
ATOM     27  C   LIG    1       25.368 -28.047   4.949  0.00  0.00    +0.084 C 
BRANCH  27  28
ATOM     28  C   LIG    1       24.541 -28.989   5.847  0.00  0.00    +0.015 C 
BRANCH  28  29
ATOM     29  C   LIG    1       25.002 -29.008   7.316  0.00  0.00    +0.003 C 
BRANCH  29  30
ATOM     30  C   LIG    1       23.948 -29.674   8.219  0.00  0.00    +0.026 C 
BRANCH  30  31
ATOM     31  C   LIG    1       24.442 -30.700   9.285  0.00  0.00    +0.098 C 
ATOM     32  C   LIG    1       25.224 -31.878   8.672  0.00  0.00    -0.020 A 
ATOM     33  C   LIG    1       26.546 -31.899   9.168  0.00  0.00    -0.013 A 
ATOM     34  C   LIG    1       27.451 -32.855   8.739  0.00  0.00    +0.009 A 
ATOM     35  C   LIG    1       27.023 -33.810   7.817  0.00  0.00    +0.001 A 
ATOM     36  C   LIG    1       25.696 -33.823   7.363  0.00  0.00    +0.000 A 
ATOM     37  C   LIG    1       26.746 -30.789  10.067  0.00  0.00    -0.013 A 
ATOM     38  C   LIG    1       27.885 -30.411  10.765  0.00  0.00    +0.009 A 
ATOM     39  C   LIG    1       27.876 -29.196  11.451  0.00  0.00    +0.001 A 
ATOM     40  C   LIG    1       26.735 -28.380  11.435  0.00  0.00    +0.000 A 
ATOM     41  C   LIG    1       25.567 -28.791  10.779  0.00  0.00    +0.005 A 
ATOM     42  C   LIG    1       24.783 -32.864   7.801  0.00  0.00    +0.005 A 
ATOM     43  C   LIG    1       25.570 -30.014  10.114  0.00  0.00    -0.020 A 
BRANCH  31  44
ATOM     44  C   LIG    1       23.318 -31.191  10.258  0.00  0.00    +0.228 C 
ATOM     45  N   LIG    1       22.085 -31.509   9.699  0.00  0.00    -0.306 N 
ATOM     46  H   LIG    1       21.873 -31.222   8.747  0.00  0.00    +0.149 HD
ATOM     47  O   LIG    1       23.520 -31.365  11.462  0.00  0.00    -0.275 OA
BRANCH  45  48
ATOM     48  C   LIG    1       20.991 -32.046  10.517  0.00  0.00    +0.217 C 
BRANCH  48  49
ATOM     49  C   LIG    1       19.919 -31.054  10.992  0.00  0.00    +0.405 C 
ATOM     50  F   LIG    1       19.115 -30.679   9.970  0.00  0.00    -0.169 F 
ATOM     51  F   LIG    1       20.475 -29.930  11.501  0.00  0.00    -0.169 F 
ATOM     52  F   LIG    1       19.127 -31.586  11.951  0.00  0.00    -0.169 F 
ENDBRANCH  48  49
ENDBRANCH  45  48
ENDBRANCH  31  44
ENDBRANCH  30  31
ENDBRANCH  29  30
ENDBRANCH  28  29
ENDBRANCH  27  28
ENDBRANCH   4  27
TORSDOF 12
ENDMDL
MODEL 5
REMARK VINA RESULT:     -10.0      3.789      5.765
REMARK  Name = *****
REMARK                            x       y       z     vdW  Elec       q    Type
REMARK                         _______ _______ _______ _____ _____    ______ ____
ROOT
ATOM      1  C   LIG    1       25.259 -24.538   7.082  0.00  0.00    +0.076 C 
ATOM      2  C   LIG    1       24.203 -24.709   5.977  0.00  0.00    +0.037 C 
ATOM      3  C   LIG    1       24.068 -26.156   5.488  0.00  0.00    +0.086 C 
ATOM      4  N   LIG    1       25.373 -26.692   5.100  0.00  0.00    -0.302 NA
ATOM      5  C   LIG    1       26.353 -26.675   6.197  0.00  0.00    +0.086 C 
ATOM      6  C   LIG    1       25.964 -25.847   7.420  0.00  0.00    +0.037 C 
ENDROOT
BRANCH   1   9
ATOM      7  O   LIG    1       26.106 -22.475   8.794  0.00  0.00    -0.270 OA
ATOM      8  C   LIG    1       26.575 -22.497   7.677  0.00  0.00    +0.245 C 
ATOM      9  N   LIG    1       26.231 -23.488   6.753  0.00  0.00    -0.308 N 
ATOM     10  H   LIG    1       26.651 -23.512   5.844  0.00  0.00    +0.149 HD
BRANCH   8  11
ATOM     11  C   LIG    1       27.539 -21.432   7.219  0.00  0.00    +0.044 A 
ATOM     12  C   LIG    1       27.213 -20.403   6.286  0.00  0.00    -0.006 A 
ATOM     13  C   LIG    1       28.286 -19.562   5.878  0.00  0.00    +0.009 A 
ATOM     14  C   LIG    1       29.599 -19.731   6.324  0.00  0.00    +0.001 A 
ATOM     15  C   LIG    1       29.893 -20.735   7.228  0.00  0.00    +0.001 A 
ATOM     16  C   LIG    1       28.872 -21.575   7.671  0.00  0.00    +0.013 A 
BRANCH  12  17
ATOM     17  C   LIG    1       25.865 -20.134   5.678  0.00  0.00    -0.017 A 
ATOM     18  C   LIG    1       25.694 -19.630   4.380  0.00  0.00    +0.009 A 
ATOM     19  C   LIG    1       24.427 -19.308   3.867  0.00  0.00    +0.013 A 
ATOM     20  C   LIG    1       23.266 -19.557   4.606  0.00  0.00    +0.055 A 
ATOM     21  C   LIG    1       23.401 -20.139   5.867  0.00  0.00    +0.013 A 
ATOM     22  C   LIG    1       24.674 -20.400   6.395  0.00  0.00    +0.009 A 
BRANCH  20  23
ATOM     23  C   LIG    1       21.915 -19.187   4.048  0.00  0.00    +0.417 C 
ATOM     24  F   LIG    1       20.976 -20.151   4.272  0.00  0.00    -0.166 F 
ATOM     25  F   LIG    1       21.937 -18.997   2.699  0.00  0.00    -0.166 F 
ATOM     26  F   LIG    1       21.400 -18.040   4.575  0.00  0.00    -0.166 F 
ENDBRANCH  20  23
ENDBRANCH  12  17
ENDBRANCH   8  11
ENDBRANCH   1   9
BRANCH   4  27
ATOM     27  C   LIG    1       25.247 -28.031   4.498  0.00  0.00    +0.084 C 
BRANCH  27  28
ATOM     28  C   LIG    1       25.615 -29.182   5.456  0.00  0.00    +0.015 C 
BRANCH  28  29
ATOM     29  C   LIG    1       24.407 -29.771   6.210  0.00  0.00    +0.003 C 
BRANCH  29  30
ATOM     30  C   LIG    1       24.328 -29.219   7.645  0.00  0.00    +0.026 C 
BRANCH  30  31
ATOM     31  C   LIG    1       24.531 -30.219   8.824  0.00  0.00    +0.098 C 
ATOM     32  C   LIG    1       25.155 -31.557   8.381  0.00  0.00    -0.020 A 
ATOM     33  C   LIG    1       26.399 -31.753   9.020  0.00  0.00    -0.013 A 
ATOM     34  C   LIG    1       27.162 -32.878   8.758  0.00  0.00    +0.009 A 
ATOM     35  C   LIG    1       26.669 -33.824   7.860  0.00  0.00    +0.001 A 
ATOM     36  C   LIG    1       25.410 -33.656   7.264  0.00  0.00    +0.000 A 
ATOM     37  C   LIG    1       26.698 -30.620   9.860  0.00  0.00    -0.013 A 
ATOM     38  C   LIG    1       27.811 -30.377  10.652  0.00  0.00    +0.009 A 
ATOM     39  C   LIG    1       27.945 -29.125  11.252  0.00  0.00    +0.001 A 
ATOM     40  C   LIG    1       26.969 -28.136  11.056  0.00  0.00    +0.000 A 
ATOM     41  C   LIG    1       25.817 -28.403  10.304  0.00  0.00    +0.005 A 
ATOM     42  C   LIG    1       24.637 -32.527   7.533  0.00  0.00    +0.005 A 
ATOM     43  C   LIG    1       25.674 -29.661   9.726  0.00  0.00    -0.020 A 
BRANCH  31  44
ATOM     44  C   LIG    1       23.250 -30.436   9.698  0.00  0.00    +0.228 C 
ATOM     45  N   LIG    1       23.169 -29.734  10.896  0.00  0.00    -0.306 N 
ATOM     46  H   LIG    1       23.998 -29.285  11.275  0.00  0.00    +0.149 HD
ATOM     47  O   LIG    1       22.308 -31.138   9.322  0.00  0.00    -0.275 OA
BRANCH  45  48
ATOM     48  C   LIG    1       21.978 -29.814  11.749  0.00  0.00    +0.217 C 
BRANCH  48  49
ATOM     49  C   LIG    1       21.781 -28.697  12.785  0.00  0.00    +0.405 C 
ATOM     50  F   LIG    1       22.655 -27.684  12.581  0.00  0.00    -0.169 F 
ATOM     51  F   LIG    1       21.975 -29.151  14.044  0.00  0.00    -0.169 F 
ATOM     52  F   LIG    1       20.536 -28.170  12.730  0.00  0.00    -0.169 F 
ENDBRANCH  48  49
ENDBRANCH  45  48
ENDBRANCH  31  44
ENDBRANCH  30  31
ENDBRANCH  29  30
ENDBRANCH  28  29
ENDBRANCH  27  28
ENDBRANCH   4  27
TORSDOF 12
ENDMDL
MODEL 6
REMARK VINA RESULT:      -9.6      3.744      5.701
REMARK  Name = *****
REMARK                            x       y       z     vdW  Elec       q    Type
REMARK                         _______ _______ _______ _____ _____    ______ ____
ROOT
ATOM      1  C   LIG    1       25.360 -24.463   7.157  0.00  0.00    +0.076 C 
ATOM      2  C   LIG    1       24.215 -24.552   6.136  0.00  0.00    +0.037 C 
ATOM      3  C   LIG    1       24.016 -25.963   5.571  0.00  0.00    +0.086 C 
ATOM      4  N   LIG    1       25.275 -26.490   5.044  0.00  0.00    -0.302 NA
ATOM      5  C   LIG    1       26.341 -26.553   6.054  0.00  0.00    +0.086 C 
ATOM      6  C   LIG    1       26.068 -25.799   7.354  0.00  0.00    +0.037 C 
ENDROOT
BRANCH   1   9
ATOM      7  O   LIG    1       26.220 -22.394   8.857  0.00  0.00    -0.270 OA
ATOM      8  C   LIG    1       26.672 -22.413   7.733  0.00  0.00    +0.245 C 
ATOM      9  N   LIG    1       26.320 -23.406   6.814  0.00  0.00    -0.308 N 
ATOM     10  H   LIG    1       26.727 -23.426   5.898  0.00  0.00    +0.149 HD
BRANCH   8  11
ATOM     11  C   LIG    1       27.621 -21.341   7.261  0.00  0.00    +0.044 A 
ATOM     12  C   LIG    1       27.281 -20.328   6.315  0.00  0.00    -0.006 A 
ATOM     13  C   LIG    1       28.342 -19.478   5.896  0.00  0.00    +0.009 A 
ATOM     14  C   LIG    1       29.658 -19.624   6.342  0.00  0.00    +0.001 A 
ATOM     15  C   LIG    1       29.965 -20.613   7.259  0.00  0.00    +0.001 A 
ATOM     16  C   LIG    1       28.956 -21.461   7.713  0.00  0.00    +0.013 A 
BRANCH  12  17
ATOM     17  C   LIG    1       25.929 -20.085   5.705  0.00  0.00    -0.017 A 
ATOM     18  C   LIG    1       25.750 -19.573   4.411  0.00  0.00    +0.009 A 
ATOM     19  C   LIG    1       24.478 -19.275   3.897  0.00  0.00    +0.013 A 
ATOM     20  C   LIG    1       23.320 -19.558   4.630  0.00  0.00    +0.055 A 
ATOM     21  C   LIG    1       23.465 -20.150   5.886  0.00  0.00    +0.013 A 
ATOM     22  C   LIG    1       24.742 -20.385   6.415  0.00  0.00    +0.009 A 
BRANCH  20  23
ATOM     23  C   LIG    1       21.963 -19.215   4.071  0.00  0.00    +0.417 C 
ATOM     24  F   LIG    1       21.457 -18.063   4.597  0.00  0.00    -0.166 F 
ATOM     25  F   LIG    1       21.031 -20.177   4.322  0.00  0.00    -0.166 F 
ATOM     26  F   LIG    1       21.956 -19.038   2.719  0.00  0.00    -0.166 F 
ENDBRANCH  20  23
ENDBRANCH  12  17
ENDBRANCH   8  11
ENDBRANCH   1   9
BRANCH   4  27
ATOM     27  C   LIG    1       25.077 -27.787   4.373  0.00  0.00    +0.084 C 
BRANCH  27  28
ATOM     28  C   LIG    1       25.365 -29.004   5.274  0.00  0.00    +0.015 C 
BRANCH  28  29
ATOM     29  C   LIG    1       24.233 -29.320   6.270  0.00  0.00    +0.003 C 
BRANCH  29  30
ATOM     30  C   LIG    1       23.694 -30.747   6.063  0.00  0.00    +0.026 C 
BRANCH  30  31
ATOM     31  C   LIG    1       24.264 -31.882   6.968  0.00  0.00    +0.098 C 
ATOM     32  C   LIG    1       25.506 -32.568   6.366  0.00  0.00    -0.020 A 
ATOM     33  C   LIG    1       26.622 -32.392   7.213  0.00  0.00    -0.013 A 
ATOM     34  C   LIG    1       27.864 -32.899   6.868  0.00  0.00    +0.009 A 
ATOM     35  C   LIG    1       27.986 -33.604   5.671  0.00  0.00    +0.001 A 
ATOM     36  C   LIG    1       26.868 -33.824   4.853  0.00  0.00    +0.000 A 
ATOM     37  C   LIG    1       26.244 -31.598   8.357  0.00  0.00    -0.013 A 
ATOM     38  C   LIG    1       27.015 -31.167   9.427  0.00  0.00    +0.009 A 
ATOM     39  C   LIG    1       26.456 -30.267  10.334  0.00  0.00    +0.001 A 
ATOM     40  C   LIG    1       25.139 -29.815  10.165  0.00  0.00    +0.000 A 
ATOM     41  C   LIG    1       24.342 -30.297   9.118  0.00  0.00    +0.005 A 
ATOM     42  C   LIG    1       25.615 -33.320   5.204  0.00  0.00    +0.005 A 
ATOM     43  C   LIG    1       24.895 -31.212   8.226  0.00  0.00    -0.020 A 
BRANCH  31  44
ATOM     44  C   LIG    1       23.190 -32.924   7.427  0.00  0.00    +0.228 C 
ATOM     45  N   LIG    1       22.849 -32.936   8.775  0.00  0.00    -0.306 N 
ATOM     46  H   LIG    1       23.431 -32.445   9.448  0.00  0.00    +0.149 HD
ATOM     47  O   LIG    1       22.606 -33.662   6.630  0.00  0.00    -0.275 OA
BRANCH  45  48
ATOM     48  C   LIG    1       21.801 -33.825   9.290  0.00  0.00    +0.217 C 
BRANCH  48  49
ATOM     49  C   LIG    1       20.555 -33.163   9.896  0.00  0.00    +0.405 C 
ATOM     50  F   LIG    1       20.667 -31.814   9.890  0.00  0.00    -0.169 F 
ATOM     51  F   LIG    1       20.365 -33.546  11.180  0.00  0.00    -0.169 F 
ATOM     52  F   LIG    1       19.432 -33.475   9.208  0.00  0.00    -0.169 F 
ENDBRANCH  48  49
ENDBRANCH  45  48
ENDBRANCH  31  44
ENDBRANCH  30  31
ENDBRANCH  29  30
ENDBRANCH  28  29
ENDBRANCH  27  28
ENDBRANCH   4  27
TORSDOF 12
ENDMDL
MODEL 7
REMARK VINA RESULT:      -9.1      2.790      3.458
REMARK  Name = *****
REMARK                            x       y       z     vdW  Elec       q    Type
REMARK                         _______ _______ _______ _____ _____    ______ ____
ROOT
ATOM      1  C   LIG    1       24.051 -24.027   6.538  0.00  0.00    +0.076 C 
ATOM      2  C   LIG    1       23.655 -25.301   5.774  0.00  0.00    +0.037 C 
ATOM      3  C   LIG    1       24.388 -26.555   6.265  0.00  0.00    +0.086 C 
ATOM      4  N   LIG    1       25.835 -26.336   6.271  0.00  0.00    -0.302 NA
ATOM      5  C   LIG    1       26.244 -25.209   7.123  0.00  0.00    +0.086 C 
ATOM      6  C   LIG    1       25.117 -24.292   7.595  0.00  0.00    +0.037 C 
ENDROOT
BRANCH   1   9
ATOM      7  O   LIG    1       23.929 -21.270   7.077  0.00  0.00    -0.270 OA
ATOM      8  C   LIG    1       24.354 -21.606   5.993  0.00  0.00    +0.245 C 
ATOM      9  N   LIG    1       24.468 -22.951   5.630  0.00  0.00    -0.308 N 
ATOM     10  H   LIG    1       24.851 -23.214   4.742  0.00  0.00    +0.149 HD
BRANCH   8  11
ATOM     11  C   LIG    1       24.756 -20.578   4.966  0.00  0.00    +0.044 A 
ATOM     12  C   LIG    1       26.005 -19.888   4.967  0.00  0.00    -0.006 A 
ATOM     13  C   LIG    1       26.158 -18.864   3.991  0.00  0.00    +0.009 A 
ATOM     14  C   LIG    1       25.149 -18.510   3.092  0.00  0.00    +0.001 A 
ATOM     15  C   LIG    1       23.946 -19.192   3.109  0.00  0.00    +0.001 A 
ATOM     16  C   LIG    1       23.754 -20.215   4.035  0.00  0.00    +0.013 A 
BRANCH  12  17
ATOM     17  C   LIG    1       27.158 -20.117   5.904  0.00  0.00    -0.017 A 
ATOM     18  C   LIG    1       28.417 -19.523   5.732  0.00  0.00    +0.009 A 
ATOM     19  C   LIG    1       29.502 -19.821   6.573  0.00  0.00    +0.013 A 
ATOM     20  C   LIG    1       29.347 -20.667   7.677  0.00  0.00    +0.055 A 
ATOM     21  C   LIG    1       28.082 -21.203   7.923  0.00  0.00    +0.013 A 
ATOM     22  C   LIG    1       27.021 -20.948   7.041  0.00  0.00    +0.009 A 
BRANCH  20  23
ATOM     23  C   LIG    1       30.526 -20.991   8.559  0.00  0.00    +0.417 C 
ATOM     24  F   LIG    1       30.783 -20.009   9.469  0.00  0.00    -0.166 F 
ATOM     25  F   LIG    1       31.681 -21.155   7.854  0.00  0.00    -0.166 F 
ATOM     26  F   LIG    1       30.370 -22.135   9.284  0.00  0.00    -0.166 F 
ENDBRANCH  20  23
ENDBRANCH  12  17
ENDBRANCH   8  11
ENDBRANCH   1   9
BRANCH   4  27
ATOM     27  C   LIG    1       26.565 -27.571   6.607  0.00  0.00    +0.084 C 
BRANCH  27  28
ATOM     28  C   LIG    1       25.905 -28.398   7.729  0.00  0.00    +0.015 C 
BRANCH  28  29
ATOM     29  C   LIG    1       26.070 -27.783   9.131  0.00  0.00    +0.003 C 
BRANCH  29  30
ATOM     30  C   LIG    1       27.057 -28.602   9.983  0.00  0.00    +0.026 C 
BRANCH  30  31
ATOM     31  C   LIG    1       26.644 -28.951  11.446  0.00  0.00    +0.098 C 
ATOM     32  C   LIG    1       26.077 -27.744  12.218  0.00  0.00    -0.020 A 
ATOM     33  C   LIG    1       24.742 -27.993  12.604  0.00  0.00    -0.013 A 
ATOM     34  C   LIG    1       24.010 -27.038  13.290  0.00  0.00    +0.009 A 
ATOM     35  C   LIG    1       24.627 -25.828  13.607  0.00  0.00    +0.001 A 
ATOM     36  C   LIG    1       25.969 -25.599  13.270  0.00  0.00    +0.000 A 
ATOM     37  C   LIG    1       24.330 -29.289  12.122  0.00  0.00    -0.013 A 
ATOM     38  C   LIG    1       23.107 -29.932  12.251  0.00  0.00    +0.009 A 
ATOM     39  C   LIG    1       22.900 -31.122  11.554  0.00  0.00    +0.001 A 
ATOM     40  C   LIG    1       23.913 -31.655  10.743  0.00  0.00    +0.000 A 
ATOM     41  C   LIG    1       25.168 -31.036  10.661  0.00  0.00    +0.005 A 
ATOM     42  C   LIG    1       26.709 -26.564  12.586  0.00  0.00    +0.005 A 
ATOM     43  C   LIG    1       25.380 -29.860  11.376  0.00  0.00    -0.020 A 
BRANCH  31  44
ATOM     44  C   LIG    1       27.761 -29.689  12.259  0.00  0.00    +0.228 C 
ATOM     45  N   LIG    1       29.056 -29.195  12.155  0.00  0.00    -0.306 N 
ATOM     46  H   LIG    1       29.288 -28.533  11.419  0.00  0.00    +0.149 HD
ATOM     47  O   LIG    1       27.509 -30.626  13.021  0.00  0.00    -0.275 OA
BRANCH  45  48
ATOM     48  C   LIG    1       30.159 -29.773  12.933  0.00  0.00    +0.217 C 
BRANCH  48  49
ATOM     49  C   LIG    1       30.361 -29.245  14.361  0.00  0.00    +0.405 C 
ATOM     50  F   LIG    1       29.372 -28.389  14.709  0.00  0.00    -0.169 F 
ATOM     51  F   LIG    1       31.532 -28.578  14.480  0.00  0.00    -0.169 F 
ATOM     52  F   LIG    1       30.367 -30.244  15.274  0.00  0.00    -0.169 F 
ENDBRANCH  48  49
ENDBRANCH  45  48
ENDBRANCH  31  44
ENDBRANCH  30  31
ENDBRANCH  29  30
ENDBRANCH  28  29
ENDBRANCH  27  28
ENDBRANCH   4  27
TORSDOF 12
ENDMDL
MODEL 8
REMARK VINA RESULT:      -8.9      3.499      5.467
REMARK  Name = *****
REMARK                            x       y       z     vdW  Elec       q    Type
REMARK                         _______ _______ _______ _____ _____    ______ ____
ROOT
ATOM      1  C   LIG    1       25.410 -24.413   7.238  0.00  0.00    +0.076 C 
ATOM      2  C   LIG    1       24.194 -24.454   6.298  0.00  0.00    +0.037 C 
ATOM      3  C   LIG    1       23.927 -25.846   5.714  0.00  0.00    +0.086 C 
ATOM      4  N   LIG    1       25.136 -26.382   5.086  0.00  0.00    -0.302 NA
ATOM      5  C   LIG    1       26.269 -26.491   6.017  0.00  0.00    +0.086 C 
ATOM      6  C   LIG    1       26.103 -25.766   7.351  0.00  0.00    +0.037 C 
ENDROOT
BRANCH   1   9
ATOM      7  O   LIG    1       26.373 -22.363   8.904  0.00  0.00    -0.270 OA
ATOM      8  C   LIG    1       26.771 -22.381   7.760  0.00  0.00    +0.245 C 
ATOM      9  N   LIG    1       26.364 -23.365   6.854  0.00  0.00    -0.308 N 
ATOM     10  H   LIG    1       26.726 -23.385   5.920  0.00  0.00    +0.149 HD
BRANCH   8  11
ATOM     11  C   LIG    1       27.709 -21.317   7.248  0.00  0.00    +0.044 A 
ATOM     12  C   LIG    1       27.334 -20.293   6.327  0.00  0.00    -0.006 A 
ATOM     13  C   LIG    1       28.384 -19.453   5.861  0.00  0.00    +0.009 A 
ATOM     14  C   LIG    1       29.718 -19.619   6.241  0.00  0.00    +0.001 A 
ATOM     15  C   LIG    1       30.059 -20.618   7.134  0.00  0.00    +0.001 A 
ATOM     16  C   LIG    1       29.063 -21.456   7.632  0.00  0.00    +0.013 A 
BRANCH  12  17
ATOM     17  C   LIG    1       25.957 -20.029   5.787  0.00  0.00    -0.017 A 
ATOM     18  C   LIG    1       24.784 -20.329   6.496  0.00  0.00    +0.009 A 
ATOM     19  C   LIG    1       23.509 -20.152   5.934  0.00  0.00    +0.013 A 
ATOM     20  C   LIG    1       23.353 -19.585   4.664  0.00  0.00    +0.055 A 
ATOM     21  C   LIG    1       24.501 -19.197   3.972  0.00  0.00    +0.013 A 
ATOM     22  C   LIG    1       25.771 -19.436   4.516  0.00  0.00    +0.009 A 
BRANCH  20  23
ATOM     23  C   LIG    1       21.978 -19.419   4.068  0.00  0.00    +0.417 C 
ATOM     24  F   LIG    1       21.153 -20.466   4.357  0.00  0.00    -0.166 F 
ATOM     25  F   LIG    1       22.001 -19.330   2.709  0.00  0.00    -0.166 F 
ATOM     26  F   LIG    1       21.325 -18.304   4.502  0.00  0.00    -0.166 F 
ENDBRANCH  20  23
ENDBRANCH  12  17
ENDBRANCH   8  11
ENDBRANCH   1   9
BRANCH   4  27
ATOM     27  C   LIG    1       24.865 -27.657   4.399  0.00  0.00    +0.084 C 
BRANCH  27  28
ATOM     28  C   LIG    1       25.376 -28.896   5.162  0.00  0.00    +0.015 C 
BRANCH  28  29
ATOM     29  C   LIG    1       24.337 -29.506   6.120  0.00  0.00    +0.003 C 
BRANCH  29  30
ATOM     30  C   LIG    1       24.577 -29.040   7.568  0.00  0.00    +0.026 C 
BRANCH  30  31
ATOM     31  C   LIG    1       24.919 -30.123   8.637  0.00  0.00    +0.098 C 
ATOM     32  C   LIG    1       23.669 -30.763   9.270  0.00  0.00    -0.020 A 
ATOM     33  C   LIG    1       23.638 -32.149   9.001  0.00  0.00    -0.013 A 
ATOM     34  C   LIG    1       22.591 -32.937   9.447  0.00  0.00    +0.009 A 
ATOM     35  C   LIG    1       21.572 -32.334  10.184  0.00  0.00    +0.001 A 
ATOM     36  C   LIG    1       21.626 -30.968  10.496  0.00  0.00    +0.000 A 
ATOM     37  C   LIG    1       24.776 -32.512   8.192  0.00  0.00    -0.013 A 
ATOM     38  C   LIG    1       25.137 -33.751   7.681  0.00  0.00    +0.009 A 
ATOM     39  C   LIG    1       26.204 -33.819   6.784  0.00  0.00    +0.001 A 
ATOM     40  C   LIG    1       26.896 -32.656   6.414  0.00  0.00    +0.000 A 
ATOM     41  C   LIG    1       26.568 -31.415   6.977  0.00  0.00    +0.005 A 
ATOM     42  C   LIG    1       22.685 -30.175  10.053  0.00  0.00    +0.005 A 
ATOM     43  C   LIG    1       25.517 -31.353   7.889  0.00  0.00    -0.020 A 
BRANCH  31  44
ATOM     44  C   LIG    1       25.939 -29.639   9.723  0.00  0.00    +0.228 C 
ATOM     45  N   LIG    1       25.857 -30.227  10.980  0.00  0.00    -0.306 N 
ATOM     46  H   LIG    1       25.038 -30.775  11.230  0.00  0.00    +0.149 HD
ATOM     47  O   LIG    1       26.830 -28.825   9.471  0.00  0.00    -0.275 OA
BRANCH  45  48
ATOM     48  C   LIG    1       26.813 -29.893  12.043  0.00  0.00    +0.217 C 
BRANCH  48  49
ATOM     49  C   LIG    1       26.439 -28.740  12.985  0.00  0.00    +0.405 C 
ATOM     50  F   LIG    1       27.544 -28.164  13.513  0.00  0.00    -0.169 F 
ATOM     51  F   LIG    1       25.676 -29.170  14.015  0.00  0.00    -0.169 F 
ATOM     52  F   LIG    1       25.747 -27.768  12.345  0.00  0.00    -0.169 F 
ENDBRANCH  48  49
ENDBRANCH  45  48
ENDBRANCH  31  44
ENDBRANCH  30  31
ENDBRANCH  29  30
ENDBRANCH  28  29
ENDBRANCH  27  28
ENDBRANCH   4  27
TORSDOF 12
ENDMDL
MODEL 9
REMARK VINA RESULT:      -8.5      2.654      4.416
REMARK  Name = *****
REMARK                            x       y       z     vdW  Elec       q    Type
REMARK                         _______ _______ _______ _____ _____    ______ ____
ROOT
ATOM      1  C   LIG    1       24.809 -23.894   6.545  0.00  0.00    +0.076 C 
ATOM      2  C   LIG    1       23.604 -24.744   6.109  0.00  0.00    +0.037 C 
ATOM      3  C   LIG    1       23.917 -26.243   6.031  0.00  0.00    +0.086 C 
ATOM      4  N   LIG    1       25.098 -26.481   5.200  0.00  0.00    -0.302 NA
ATOM      5  C   LIG    1       26.299 -25.793   5.695  0.00  0.00    +0.086 C 
ATOM      6  C   LIG    1       26.061 -24.734   6.770  0.00  0.00    +0.037 C 
ENDROOT
BRANCH   1   9
ATOM      7  O   LIG    1       24.636 -21.148   7.122  0.00  0.00    -0.270 OA
ATOM      8  C   LIG    1       24.948 -21.459   5.994  0.00  0.00    +0.245 C 
ATOM      9  N   LIG    1       25.075 -22.797   5.607  0.00  0.00    -0.308 N 
ATOM     10  H   LIG    1       25.364 -23.038   4.678  0.00  0.00    +0.149 HD
BRANCH   8  11
ATOM     11  C   LIG    1       25.187 -20.410   4.938  0.00  0.00    +0.044 A 
ATOM     12  C   LIG    1       26.348 -19.583   4.877  0.00  0.00    -0.006 A 
ATOM     13  C   LIG    1       26.342 -18.565   3.883  0.00  0.00    +0.009 A 
ATOM     14  C   LIG    1       25.263 -18.343   3.024  0.00  0.00    +0.001 A 
ATOM     15  C   LIG    1       24.147 -19.157   3.101  0.00  0.00    +0.001 A 
ATOM     16  C   LIG    1       24.112 -20.179   4.047  0.00  0.00    +0.013 A 
BRANCH  12  17
ATOM     17  C   LIG    1       27.557 -19.664   5.765  0.00  0.00    -0.017 A 
ATOM     18  C   LIG    1       28.693 -18.859   5.593  0.00  0.00    +0.009 A 
ATOM     19  C   LIG    1       29.843 -19.014   6.384  0.00  0.00    +0.013 A 
ATOM     20  C   LIG    1       29.873 -19.931   7.441  0.00  0.00    +0.055 A 
ATOM     21  C   LIG    1       28.725 -20.685   7.690  0.00  0.00    +0.013 A 
ATOM     22  C   LIG    1       27.604 -20.566   6.855  0.00  0.00    +0.009 A 
BRANCH  20  23
ATOM     23  C   LIG    1       31.122 -20.098   8.268  0.00  0.00    +0.417 C 
ATOM     24  F   LIG    1       31.540 -21.394   8.326  0.00  0.00    -0.166 F 
ATOM     25  F   LIG    1       30.953 -19.705   9.561  0.00  0.00    -0.166 F 
ATOM     26  F   LIG    1       32.187 -19.387   7.801  0.00  0.00    -0.166 F 
ENDBRANCH  20  23
ENDBRANCH  12  17
ENDBRANCH   8  11
ENDBRANCH   1   9
BRANCH   4  27
ATOM     27  C   LIG    1       25.333 -27.921   4.999  0.00  0.00    +0.084 C 
BRANCH  27  28
ATOM     28  C   LIG    1       25.555 -28.704   6.310  0.00  0.00    +0.015 C 
BRANCH  28  29
ATOM     29  C   LIG    1       24.275 -29.358   6.864  0.00  0.00    +0.003 C 
BRANCH  29  30
ATOM     30  C   LIG    1       23.941 -30.654   6.103  0.00  0.00    +0.026 C 
BRANCH  30  31
ATOM     31  C   LIG    1       24.432 -32.005   6.709  0.00  0.00    +0.098 C 
ATOM     32  C   LIG    1       25.530 -32.682   5.865  0.00  0.00    -0.020 A 
ATOM     33  C   LIG    1       26.720 -32.803   6.615  0.00  0.00    -0.013 A 
ATOM     34  C   LIG    1       27.858 -33.359   6.057  0.00  0.00    +0.009 A 
ATOM     35  C   LIG    1       27.800 -33.812   4.739  0.00  0.00    +0.001 A 
ATOM     36  C   LIG    1       26.605 -33.740   4.009  0.00  0.00    +0.000 A 
ATOM     37  C   LIG    1       26.531 -32.224   7.923  0.00  0.00    -0.013 A 
ATOM     38  C   LIG    1       27.429 -32.106   8.974  0.00  0.00    +0.009 A 
ATOM     39  C   LIG    1       27.057 -31.357  10.091  0.00  0.00    +0.001 A 
ATOM     40  C   LIG    1       25.798 -30.741  10.144  0.00  0.00    +0.000 A 
ATOM     41  C   LIG    1       24.870 -30.910   9.107  0.00  0.00    +0.005 A 
ATOM     42  C   LIG    1       25.455 -33.187   4.574  0.00  0.00    +0.005 A 
ATOM     43  C   LIG    1       25.235 -31.678   8.004  0.00  0.00    -0.020 A 
BRANCH  31  44
ATOM     44  C   LIG    1       23.274 -32.997   7.061  0.00  0.00    +0.228 C 
ATOM     45  N   LIG    1       22.675 -32.861   8.308  0.00  0.00    -0.306 N 
ATOM     46  H   LIG    1       23.120 -32.292   9.024  0.00  0.00    +0.149 HD
ATOM     47  O   LIG    1       22.847 -33.825   6.252  0.00  0.00    -0.275 OA
BRANCH  45  48
ATOM     48  C   LIG    1       21.534 -33.695   8.704  0.00  0.00    +0.217 C 
BRANCH  48  49
ATOM     49  C   LIG    1       20.716 -33.235   9.919  0.00  0.00    +0.405 C 
ATOM     50  F   LIG    1       20.613 -31.886   9.955  0.00  0.00    -0.169 F 
ATOM     51  F   LIG    1       21.292 -33.626  11.080  0.00  0.00    -0.169 F 
ATOM     52  F   LIG    1       19.458 -33.733   9.901  0.00  0.00    -0.169 F 
ENDBRANCH  48  49
ENDBRANCH  45  48
ENDBRANCH  31  44
ENDBRANCH  30  31
ENDBRANCH  29  30
ENDBRANCH  28  29
ENDBRANCH  27  28
ENDBRANCH   4  27
TORSDOF 12
ENDMDL
