MODEL 1
REMARK VINA RESULT:      -6.3      0.000      0.000
REMARK  Name = *****
REMARK                            x       y       z     vdW  Elec       q    Type
REMARK                         _______ _______ _______ _____ _____    ______ ____
ROOT
ATOM      1  N   LIG    1       26.193 -32.238   7.987  0.00  0.00    -0.300 N 
ATOM      2  C   LIG    1       25.882 -32.035   9.345  0.00  0.00    +0.231 C 
ATOM      3  O   LIG    1       26.244 -32.722  10.276  0.00  0.00    -0.274 OA
ATOM      4  C   LIG    1       24.978 -30.713   9.390  0.00  0.00    +0.101 C 
ATOM      5  C   LIG    1       25.245 -30.065   7.952  0.00  0.00    +0.031 C 
ATOM      6  C   LIG    1       25.684 -31.229   7.073  0.00  0.00    +0.113 C 
ENDROOT
BRANCH   4   7
ATOM      7  C   LIG    1       23.510 -31.223   9.626  0.00  0.00    -0.028 A 
ATOM      8  C   LIG    1       22.528 -30.464  10.291  0.00  0.00    +0.005 A 
ATOM      9  C   LIG    1       21.236 -30.968  10.525  0.00  0.00    +0.000 A 
ATOM     10  C   LIG    1       20.895 -32.256  10.128  0.00  0.00    +0.000 A 
ATOM     11  C   LIG    1       21.840 -33.035   9.483  0.00  0.00    +0.000 A 
ATOM     12  C   LIG    1       23.124 -32.530   9.256  0.00  0.00    +0.005 A 
ENDBRANCH   4   7
BRANCH   4  13
ATOM     13  C   LIG    1       25.531 -29.719  10.467  0.00  0.00    -0.028 A 
ATOM     14  C   LIG    1       25.126 -29.785  11.821  0.00  0.00    +0.005 A 
ATOM     15  C   LIG    1       25.576 -28.861  12.772  0.00  0.00    +0.000 A 
ATOM     16  C   LIG    1       26.472 -27.866  12.405  0.00  0.00    +0.000 A 
ATOM     17  C   LIG    1       26.936 -27.813  11.094  0.00  0.00    +0.000 A 
ATOM     18  C   LIG    1       26.483 -28.738  10.143  0.00  0.00    +0.005 A 
ENDBRANCH   4  13
BRANCH   1  20
ATOM     19  C   LIG    1       27.828 -33.023   6.300  0.00  0.00    +0.024 C 
ATOM     20  C   LIG    1       26.893 -33.393   7.439  0.00  0.00    +0.104 C 
ENDBRANCH   1  20
BRANCH   5  21
ATOM     21  C   LIG    1       24.114 -29.192   7.334  0.00  0.00    +0.022 C 
BRANCH  21  22
ATOM     22  C   LIG    1       24.421 -28.452   5.995  0.00  0.00    +0.085 C 
BRANCH  22  23
ATOM     23  N   LIG    1       25.714 -27.755   5.940  0.00  0.00    -0.298 NA
ATOM     24  C   LIG    1       25.999 -27.098   4.632  0.00  0.00    +0.112 C 
ATOM     25  C   LIG    1       25.295 -25.743   4.392  0.00  0.00    +0.175 C 
ATOM     26  O   LIG    1       25.491 -24.832   5.480  0.00  0.00    -0.377 OA
ATOM     27  C   LIG    1       25.084 -25.425   6.717  0.00  0.00    +0.175 C 
ATOM     28  C   LIG    1       25.866 -26.720   6.986  0.00  0.00    +0.112 C 
ENDBRANCH  22  23
ENDBRANCH  21  22
ENDBRANCH   5  21
TORSDOF 6
ENDMDL
MODEL 2
REMARK VINA RESULT:      -6.0      1.196      4.341
REMARK  Name = *****
REMARK                            x       y       z     vdW  Elec       q    Type
REMARK                         _______ _______ _______ _____ _____    ______ ____
ROOT
ATOM      1  N   LIG    1       26.608 -29.807   9.859  0.00  0.00    -0.300 N 
ATOM      2  C   LIG    1       26.064 -31.106   9.828  0.00  0.00    +0.231 C 
ATOM      3  O   LIG    1       26.297 -32.002  10.611  0.00  0.00    -0.274 OA
ATOM      4  C   LIG    1       25.075 -31.132   8.568  0.00  0.00    +0.101 C 
ATOM      5  C   LIG    1       24.880 -29.576   8.252  0.00  0.00    +0.031 C 
ATOM      6  C   LIG    1       26.112 -28.899   8.839  0.00  0.00    +0.113 C 
ENDROOT
BRANCH   4   7
ATOM      7  C   LIG    1       25.838 -31.944   7.459  0.00  0.00    -0.028 A 
ATOM      8  C   LIG    1       27.153 -32.421   7.623  0.00  0.00    +0.005 A 
ATOM      9  C   LIG    1       27.824 -33.106   6.594  0.00  0.00    +0.000 A 
ATOM     10  C   LIG    1       27.214 -33.310   5.362  0.00  0.00    +0.000 A 
ATOM     11  C   LIG    1       25.926 -32.842   5.163  0.00  0.00    +0.000 A 
ATOM     12  C   LIG    1       25.265 -32.159   6.187  0.00  0.00    +0.005 A 
ENDBRANCH   4   7
BRANCH   4  13
ATOM     13  C   LIG    1       23.681 -31.707   8.989  0.00  0.00    -0.028 A 
ATOM     14  C   LIG    1       22.789 -30.976   9.811  0.00  0.00    +0.005 A 
ATOM     15  C   LIG    1       21.568 -31.513  10.235  0.00  0.00    +0.000 A 
ATOM     16  C   LIG    1       21.185 -32.782   9.821  0.00  0.00    +0.000 A 
ATOM     17  C   LIG    1       22.013 -33.500   8.962  0.00  0.00    +0.000 A 
ATOM     18  C   LIG    1       23.236 -32.962   8.540  0.00  0.00    +0.005 A 
ENDBRANCH   4  13
BRANCH   1  20
ATOM     19  C   LIG    1       27.191 -28.237  11.683  0.00  0.00    +0.024 C 
ATOM     20  C   LIG    1       27.659 -29.348  10.758  0.00  0.00    +0.104 C 
ENDBRANCH   1  20
BRANCH   5  21
ATOM     21  C   LIG    1       24.572 -29.172   6.780  0.00  0.00    +0.022 C 
BRANCH  21  22
ATOM     22  C   LIG    1       24.445 -27.651   6.458  0.00  0.00    +0.085 C 
BRANCH  22  23
ATOM     23  N   LIG    1       25.673 -27.001   5.979  0.00  0.00    -0.298 NA
ATOM     24  C   LIG    1       25.549 -26.379   4.630  0.00  0.00    +0.112 C 
ATOM     25  C   LIG    1       24.844 -25.004   4.585  0.00  0.00    +0.175 C 
ATOM     26  O   LIG    1       25.398 -24.081   5.530  0.00  0.00    -0.377 OA
ATOM     27  C   LIG    1       25.386 -24.636   6.848  0.00  0.00    +0.175 C 
ATOM     28  C   LIG    1       26.176 -25.954   6.894  0.00  0.00    +0.112 C 
ENDBRANCH  22  23
ENDBRANCH  21  22
ENDBRANCH   5  21
TORSDOF 6
ENDMDL
MODEL 3
REMARK VINA RESULT:      -5.8      2.363      6.569
REMARK  Name = *****
REMARK                            x       y       z     vdW  Elec       q    Type
REMARK                         _______ _______ _______ _____ _____    ______ ____
ROOT
ATOM      1  N   LIG    1       25.880 -29.300  11.248  0.00  0.00    -0.300 N 
ATOM      2  C   LIG    1       26.666 -29.538  10.104  0.00  0.00    +0.231 C 
ATOM      3  O   LIG    1       27.848 -29.297   9.981  0.00  0.00    -0.274 OA
ATOM      4  C   LIG    1       25.680 -30.205   9.031  0.00  0.00    +0.101 C 
ATOM      5  C   LIG    1       24.438 -30.650   9.936  0.00  0.00    +0.031 C 
ATOM      6  C   LIG    1       24.499 -29.744  11.159  0.00  0.00    +0.113 C 
ENDROOT
BRANCH   4   7
ATOM      7  C   LIG    1       25.370 -29.066   7.992  0.00  0.00    -0.028 A 
ATOM      8  C   LIG    1       24.393 -29.187   6.986  0.00  0.00    +0.005 A 
ATOM      9  C   LIG    1       24.171 -28.167   6.044  0.00  0.00    +0.000 A 
ATOM     10  C   LIG    1       24.938 -27.007   6.061  0.00  0.00    +0.000 A 
ATOM     11  C   LIG    1       25.917 -26.860   7.029  0.00  0.00    +0.000 A 
ATOM     12  C   LIG    1       26.135 -27.880   7.961  0.00  0.00    +0.005 A 
ENDBRANCH   4   7
BRANCH   4  13
ATOM     13  C   LIG    1       26.325 -31.503   8.441  0.00  0.00    -0.028 A 
ATOM     14  C   LIG    1       26.855 -32.518   9.273  0.00  0.00    +0.005 A 
ATOM     15  C   LIG    1       27.483 -33.652   8.745  0.00  0.00    +0.000 A 
ATOM     16  C   LIG    1       27.568 -33.824   7.369  0.00  0.00    +0.000 A 
ATOM     17  C   LIG    1       27.000 -32.873   6.526  0.00  0.00    +0.000 A 
ATOM     18  C   LIG    1       26.373 -31.737   7.056  0.00  0.00    +0.005 A 
ENDBRANCH   4  13
BRANCH   1  20
ATOM     19  C   LIG    1       26.607 -27.122  12.175  0.00  0.00    +0.024 C 
ATOM     20  C   LIG    1       26.314 -28.588  12.444  0.00  0.00    +0.104 C 
ENDBRANCH   1  20
BRANCH   5  21
ATOM     21  C   LIG    1       23.038 -30.711   9.259  0.00  0.00    +0.022 C 
BRANCH  21  22
ATOM     22  C   LIG    1       21.956 -31.623   9.914  0.00  0.00    +0.085 C 
BRANCH  22  23
ATOM     23  N   LIG    1       20.670 -30.972  10.202  0.00  0.00    -0.298 NA
ATOM     24  C   LIG    1       19.517 -31.912  10.295  0.00  0.00    +0.112 C 
ATOM     25  C   LIG    1       19.384 -32.686  11.626  0.00  0.00    +0.175 C 
ATOM     26  O   LIG    1       19.435 -31.818  12.765  0.00  0.00    -0.377 OA
ATOM     27  C   LIG    1       20.619 -31.016  12.737  0.00  0.00    +0.175 C 
ATOM     28  C   LIG    1       20.683 -30.178  11.450  0.00  0.00    +0.112 C 
ENDBRANCH  22  23
ENDBRANCH  21  22
ENDBRANCH   5  21
TORSDOF 6
ENDMDL
MODEL 4
REMARK VINA RESULT:      -5.8      2.263      5.368
REMARK  Name = *****
REMARK                            x       y       z     vdW  Elec       q    Type
REMARK                         _______ _______ _______ _____ _____    ______ ____
ROOT
ATOM      1  N   LIG    1       25.546 -32.485   6.580  0.00  0.00    -0.300 N 
ATOM      2  C   LIG    1       24.358 -31.772   6.836  0.00  0.00    +0.231 C 
ATOM      3  O   LIG    1       23.303 -31.899   6.253  0.00  0.00    -0.274 OA
ATOM      4  C   LIG    1       24.697 -30.791   8.057  0.00  0.00    +0.101 C 
ATOM      5  C   LIG    1       26.051 -31.416   8.635  0.00  0.00    +0.031 C 
ATOM      6  C   LIG    1       26.656 -32.188   7.469  0.00  0.00    +0.113 C 
ENDROOT
BRANCH   4   7
ATOM      7  C   LIG    1       24.846 -29.365   7.412  0.00  0.00    -0.028 A 
ATOM      8  C   LIG    1       24.165 -28.974   6.243  0.00  0.00    +0.005 A 
ATOM      9  C   LIG    1       24.354 -27.705   5.667  0.00  0.00    +0.000 A 
ATOM     10  C   LIG    1       25.251 -26.800   6.223  0.00  0.00    +0.000 A 
ATOM     11  C   LIG    1       25.947 -27.158   7.366  0.00  0.00    +0.000 A 
ATOM     12  C   LIG    1       25.757 -28.421   7.932  0.00  0.00    +0.005 A 
ENDBRANCH   4   7
BRANCH   4  13
ATOM     13  C   LIG    1       23.604 -30.920   9.170  0.00  0.00    -0.028 A 
ATOM     14  C   LIG    1       22.782 -32.068   9.281  0.00  0.00    +0.005 A 
ATOM     15  C   LIG    1       21.766 -32.159  10.240  0.00  0.00    +0.000 A 
ATOM     16  C   LIG    1       21.565 -31.121  11.140  0.00  0.00    +0.000 A 
ATOM     17  C   LIG    1       22.397 -30.006  11.096  0.00  0.00    +0.000 A 
ATOM     18  C   LIG    1       23.413 -29.916  10.135  0.00  0.00    +0.005 A 
ENDBRANCH   4  13
BRANCH   1  20
ATOM     19  C   LIG    1       26.303 -32.712   4.233  0.00  0.00    +0.024 C 
ATOM     20  C   LIG    1       25.760 -33.406   5.471  0.00  0.00    +0.104 C 
ENDBRANCH   1  20
BRANCH   5  21
ATOM     21  C   LIG    1       27.046 -30.451   9.343  0.00  0.00    +0.022 C 
BRANCH  21  22
ATOM     22  C   LIG    1       26.924 -30.293  10.891  0.00  0.00    +0.085 C 
BRANCH  22  23
ATOM     23  N   LIG    1       27.641 -29.148  11.468  0.00  0.00    -0.298 NA
ATOM     24  C   LIG    1       26.860 -27.879  11.474  0.00  0.00    +0.112 C 
ATOM     25  C   LIG    1       25.807 -27.742  12.598  0.00  0.00    +0.175 C 
ATOM     26  O   LIG    1       26.358 -28.016  13.892  0.00  0.00    -0.377 OA
ATOM     27  C   LIG    1       26.987 -29.301  13.913  0.00  0.00    +0.175 C 
ATOM     28  C   LIG    1       28.099 -29.382  12.854  0.00  0.00    +0.112 C 
ENDBRANCH  22  23
ENDBRANCH  21  22
ENDBRANCH   5  21
TORSDOF 6
ENDMDL
MODEL 5
REMARK VINA RESULT:      -5.7      2.483      4.983
REMARK  Name = *****
REMARK                            x       y       z     vdW  Elec       q    Type
REMARK                         _______ _______ _______ _____ _____    ______ ____
ROOT
ATOM      1  N   LIG    1       27.585 -29.729  10.662  0.00  0.00    -0.300 N 
ATOM      2  C   LIG    1       26.623 -28.764  10.306  0.00  0.00    +0.231 C 
ATOM      3  O   LIG    1       26.583 -27.614  10.686  0.00  0.00    -0.274 OA
ATOM      4  C   LIG    1       25.624 -29.502   9.293  0.00  0.00    +0.101 C 
ATOM      5  C   LIG    1       26.459 -30.800   8.872  0.00  0.00    +0.031 C 
ATOM      6  C   LIG    1       27.443 -31.021  10.014  0.00  0.00    +0.113 C 
ENDROOT
BRANCH   4   7
ATOM      7  C   LIG    1       24.325 -29.790  10.130  0.00  0.00    -0.028 A 
ATOM      8  C   LIG    1       24.231 -29.548  11.514  0.00  0.00    +0.005 A 
ATOM      9  C   LIG    1       23.069 -29.859  12.241  0.00  0.00    +0.000 A 
ATOM     10  C   LIG    1       21.976 -30.447  11.615  0.00  0.00    +0.000 A 
ATOM     11  C   LIG    1       22.039 -30.711  10.257  0.00  0.00    +0.000 A 
ATOM     12  C   LIG    1       23.199 -30.404   9.540  0.00  0.00    +0.005 A 
ENDBRANCH   4   7
BRANCH   4  13
ATOM     13  C   LIG    1       25.423 -28.632   8.007  0.00  0.00    -0.028 A 
ATOM     14  C   LIG    1       26.245 -27.515   7.724  0.00  0.00    +0.005 A 
ATOM     15  C   LIG    1       26.028 -26.703   6.605  0.00  0.00    +0.000 A 
ATOM     16  C   LIG    1       25.006 -27.005   5.714  0.00  0.00    +0.000 A 
ATOM     17  C   LIG    1       24.220 -28.132   5.932  0.00  0.00    +0.000 A 
ATOM     18  C   LIG    1       24.437 -28.943   7.055  0.00  0.00    +0.005 A 
ENDBRANCH   4  13
BRANCH   1  20
ATOM     19  C   LIG    1       28.086 -29.589  13.084  0.00  0.00    +0.024 C 
ATOM     20  C   LIG    1       28.629 -29.557  11.665  0.00  0.00    +0.104 C 
ENDBRANCH   1  20
BRANCH   5  21
ATOM     21  C   LIG    1       25.658 -32.072   8.467  0.00  0.00    +0.022 C 
BRANCH  21  22
ATOM     22  C   LIG    1       25.850 -32.617   7.018  0.00  0.00    +0.085 C 
BRANCH  22  23
ATOM     23  N   LIG    1       25.084 -31.923   5.974  0.00  0.00    -0.298 NA
ATOM     24  C   LIG    1       25.633 -32.089   4.599  0.00  0.00    +0.112 C 
ATOM     25  C   LIG    1       25.305 -33.429   3.901  0.00  0.00    +0.175 C 
ATOM     26  O   LIG    1       23.904 -33.729   3.937  0.00  0.00    -0.377 OA
ATOM     27  C   LIG    1       23.415 -33.701   5.280  0.00  0.00    +0.175 C 
ATOM     28  C   LIG    1       23.662 -32.328   5.925  0.00  0.00    +0.112 C 
ENDBRANCH  22  23
ENDBRANCH  21  22
ENDBRANCH   5  21
TORSDOF 6
ENDMDL
MODEL 6
REMARK VINA RESULT:      -5.6      2.906      4.440
REMARK  Name = *****
REMARK                            x       y       z     vdW  Elec       q    Type
REMARK                         _______ _______ _______ _____ _____    ______ ____
ROOT
ATOM      1  N   LIG    1       24.058 -32.194  12.748  0.00  0.00    -0.300 N 
ATOM      2  C   LIG    1       22.989 -31.458  13.294  0.00  0.00    +0.231 C 
ATOM      3  O   LIG    1       22.591 -31.508  14.438  0.00  0.00    -0.274 OA
ATOM      4  C   LIG    1       22.439 -30.542  12.100  0.00  0.00    +0.101 C 
ATOM      5  C   LIG    1       23.633 -30.607  11.038  0.00  0.00    +0.031 C 
ATOM      6  C   LIG    1       24.374 -31.899  11.361  0.00  0.00    +0.113 C 
ENDROOT
BRANCH   4   7
ATOM      7  C   LIG    1       21.101 -31.226  11.637  0.00  0.00    -0.028 A 
ATOM      8  C   LIG    1       20.695 -32.500  12.078  0.00  0.00    +0.005 A 
ATOM      9  C   LIG    1       19.513 -33.102  11.611  0.00  0.00    +0.000 A 
ATOM     10  C   LIG    1       18.717 -32.463  10.668  0.00  0.00    +0.000 A 
ATOM     11  C   LIG    1       19.093 -31.215  10.203  0.00  0.00    +0.000 A 
ATOM     12  C   LIG    1       20.271 -30.622  10.668  0.00  0.00    +0.005 A 
ENDBRANCH   4   7
BRANCH   4  13
ATOM     13  C   LIG    1       22.311 -29.056  12.576  0.00  0.00    -0.028 A 
ATOM     14  C   LIG    1       21.053 -28.419  12.706  0.00  0.00    +0.005 A 
ATOM     15  C   LIG    1       20.941 -27.074  13.076  0.00  0.00    +0.000 A 
ATOM     16  C   LIG    1       22.081 -26.334  13.362  0.00  0.00    +0.000 A 
ATOM     17  C   LIG    1       23.328 -26.950  13.303  0.00  0.00    +0.000 A 
ATOM     18  C   LIG    1       23.439 -28.297  12.931  0.00  0.00    +0.005 A 
ENDBRANCH   4  13
BRANCH   1  20
ATOM     19  C   LIG    1       25.929 -32.727  14.281  0.00  0.00    +0.024 C 
ATOM     20  C   LIG    1       24.790 -33.257  13.425  0.00  0.00    +0.104 C 
ENDBRANCH   1  20
BRANCH   5  21
ATOM     21  C   LIG    1       23.270 -30.442   9.533  0.00  0.00    +0.022 C 
BRANCH  21  22
ATOM     22  C   LIG    1       24.059 -31.303   8.499  0.00  0.00    +0.085 C 
BRANCH  22  23
ATOM     23  N   LIG    1       25.306 -30.706   8.000  0.00  0.00    -0.298 NA
ATOM     24  C   LIG    1       25.929 -31.450   6.868  0.00  0.00    +0.112 C 
ATOM     25  C   LIG    1       25.297 -31.212   5.477  0.00  0.00    +0.175 C 
ATOM     26  O   LIG    1       25.172 -29.817   5.172  0.00  0.00    -0.377 OA
ATOM     27  C   LIG    1       24.450 -29.137   6.202  0.00  0.00    +0.175 C 
ATOM     28  C   LIG    1       25.148 -29.303   7.561  0.00  0.00    +0.112 C 
ENDBRANCH  22  23
ENDBRANCH  21  22
ENDBRANCH   5  21
TORSDOF 6
ENDMDL
MODEL 7
REMARK VINA RESULT:      -5.5      1.379      4.554
REMARK  Name = *****
REMARK                            x       y       z     vdW  Elec       q    Type
REMARK                         _______ _______ _______ _____ _____    ______ ____
ROOT
ATOM      1  N   LIG    1       23.174 -31.536   9.959  0.00  0.00    -0.300 N 
ATOM      2  C   LIG    1       24.407 -32.209  10.065  0.00  0.00    +0.231 C 
ATOM      3  O   LIG    1       24.591 -33.297  10.567  0.00  0.00    -0.274 OA
ATOM      4  C   LIG    1       25.486 -31.248   9.373  0.00  0.00    +0.101 C 
ATOM      5  C   LIG    1       24.564 -30.236   8.546  0.00  0.00    +0.031 C 
ATOM      6  C   LIG    1       23.215 -30.268   9.252  0.00  0.00    +0.113 C 
ENDROOT
BRANCH   4   7
ATOM      7  C   LIG    1       26.284 -30.599  10.562  0.00  0.00    -0.028 A 
ATOM      8  C   LIG    1       27.559 -30.022  10.409  0.00  0.00    +0.005 A 
ATOM      9  C   LIG    1       28.266 -29.490  11.503  0.00  0.00    +0.000 A 
ATOM     10  C   LIG    1       27.733 -29.543  12.785  0.00  0.00    +0.000 A 
ATOM     11  C   LIG    1       26.486 -30.116  12.974  0.00  0.00    +0.000 A 
ATOM     12  C   LIG    1       25.790 -30.646  11.884  0.00  0.00    +0.005 A 
ENDBRANCH   4   7
BRANCH   4  13
ATOM     13  C   LIG    1       26.344 -32.056   8.343  0.00  0.00    -0.028 A 
ATOM     14  C   LIG    1       27.257 -33.057   8.753  0.00  0.00    +0.005 A 
ATOM     15  C   LIG    1       28.066 -33.740   7.837  0.00  0.00    +0.000 A 
ATOM     16  C   LIG    1       27.961 -33.468   6.479  0.00  0.00    +0.000 A 
ATOM     17  C   LIG    1       27.028 -32.533   6.040  0.00  0.00    +0.000 A 
ATOM     18  C   LIG    1       26.220 -31.849   6.959  0.00  0.00    +0.005 A 
ENDBRANCH   4  13
BRANCH   1  20
ATOM     19  C   LIG    1       20.885 -30.852  10.612  0.00  0.00    +0.024 C 
ATOM     20  C   LIG    1       21.917 -31.966  10.560  0.00  0.00    +0.104 C 
ENDBRANCH   1  20
BRANCH   5  21
ATOM     21  C   LIG    1       25.116 -28.803   8.292  0.00  0.00    +0.022 C 
BRANCH  21  22
ATOM     22  C   LIG    1       25.061 -28.253   6.832  0.00  0.00    +0.085 C 
BRANCH  22  23
ATOM     23  N   LIG    1       26.088 -27.260   6.491  0.00  0.00    -0.298 NA
ATOM     24  C   LIG    1       26.301 -27.079   5.027  0.00  0.00    +0.112 C 
ATOM     25  C   LIG    1       25.258 -26.200   4.299  0.00  0.00    +0.175 C 
ATOM     26  O   LIG    1       25.063 -24.940   4.952  0.00  0.00    -0.377 OA
ATOM     27  C   LIG    1       24.723 -25.130   6.328  0.00  0.00    +0.175 C 
ATOM     28  C   LIG    1       25.819 -25.921   7.059  0.00  0.00    +0.112 C 
ENDBRANCH  22  23
ENDBRANCH  21  22
ENDBRANCH   5  21
TORSDOF 6
ENDMDL
MODEL 8
REMARK VINA RESULT:      -5.5      2.417      4.436
REMARK  Name = *****
REMARK                            x       y       z     vdW  Elec       q    Type
REMARK                         _______ _______ _______ _____ _____    ______ ____
ROOT
ATOM      1  N   LIG    1       24.724 -31.179  11.439  0.00  0.00    -0.300 N 
ATOM      2  C   LIG    1       25.285 -30.709  12.643  0.00  0.00    +0.231 C 
ATOM      3  O   LIG    1       25.130 -31.191  13.745  0.00  0.00    -0.274 OA
ATOM      4  C   LIG    1       26.171 -29.436  12.240  0.00  0.00    +0.101 C 
ATOM      5  C   LIG    1       26.315 -29.605  10.656  0.00  0.00    +0.031 C 
ATOM      6  C   LIG    1       25.121 -30.458  10.243  0.00  0.00    +0.113 C 
ENDROOT
BRANCH   4   7
ATOM      7  C   LIG    1       25.334 -28.188  12.702  0.00  0.00    -0.028 A 
ATOM      8  C   LIG    1       25.922 -26.972  13.101  0.00  0.00    +0.005 A 
ATOM      9  C   LIG    1       25.147 -25.889  13.551  0.00  0.00    +0.000 A 
ATOM     10  C   LIG    1       23.764 -25.997  13.645  0.00  0.00    +0.000 A 
ATOM     11  C   LIG    1       23.154 -27.183  13.274  0.00  0.00    +0.000 A 
ATOM     12  C   LIG    1       23.930 -28.258  12.830  0.00  0.00    +0.005 A 
ENDBRANCH   4   7
BRANCH   4  13
ATOM     13  C   LIG    1       27.603 -29.559  12.861  0.00  0.00    -0.028 A 
ATOM     14  C   LIG    1       27.801 -29.759  14.248  0.00  0.00    +0.005 A 
ATOM     15  C   LIG    1       29.082 -29.812  14.811  0.00  0.00    +0.000 A 
ATOM     16  C   LIG    1       30.203 -29.702  13.999  0.00  0.00    +0.000 A 
ATOM     17  C   LIG    1       30.041 -29.567  12.623  0.00  0.00    +0.000 A 
ATOM     18  C   LIG    1       28.758 -29.514  12.062  0.00  0.00    +0.005 A 
ENDBRANCH   4  13
BRANCH   1  20
ATOM     19  C   LIG    1       22.319 -31.759  11.540  0.00  0.00    +0.024 C 
ATOM     20  C   LIG    1       23.740 -32.248  11.321  0.00  0.00    +0.104 C 
ENDBRANCH   1  20
BRANCH   5  21
ATOM     21  C   LIG    1       26.497 -28.313   9.808  0.00  0.00    +0.022 C 
BRANCH  21  22
ATOM     22  C   LIG    1       26.428 -28.450   8.255  0.00  0.00    +0.085 C 
BRANCH  22  23
ATOM     23  N   LIG    1       25.348 -27.699   7.601  0.00  0.00    -0.298 NA
ATOM     24  C   LIG    1       25.807 -26.496   6.851  0.00  0.00    +0.112 C 
ATOM     25  C   LIG    1       26.418 -26.765   5.456  0.00  0.00    +0.175 C 
ATOM     26  O   LIG    1       25.571 -27.588   4.644  0.00  0.00    -0.377 OA
ATOM     27  C   LIG    1       25.248 -28.805   5.322  0.00  0.00    +0.175 C 
ATOM     28  C   LIG    1       24.551 -28.518   6.662  0.00  0.00    +0.112 C 
ENDBRANCH  22  23
ENDBRANCH  21  22
ENDBRANCH   5  21
TORSDOF 6
ENDMDL
MODEL 9
REMARK VINA RESULT:      -5.5      2.955      5.023
REMARK  Name = *****
REMARK                            x       y       z     vdW  Elec       q    Type
REMARK                         _______ _______ _______ _____ _____    ______ ____
ROOT
ATOM      1  N   LIG    1       22.925 -32.092  12.996  0.00  0.00    -0.300 N 
ATOM      2  C   LIG    1       23.685 -31.056  13.572  0.00  0.00    +0.231 C 
ATOM      3  O   LIG    1       24.043 -30.983  14.728  0.00  0.00    -0.274 OA
ATOM      4  C   LIG    1       23.983 -30.025  12.382  0.00  0.00    +0.101 C 
ATOM      5  C   LIG    1       23.646 -30.894  11.082  0.00  0.00    +0.031 C 
ATOM      6  C   LIG    1       22.685 -31.970  11.569  0.00  0.00    +0.113 C 
ENDROOT
BRANCH   4   7
ATOM      7  C   LIG    1       23.020 -28.810  12.637  0.00  0.00    -0.028 A 
ATOM      8  C   LIG    1       23.467 -27.554  13.091  0.00  0.00    +0.005 A 
ATOM      9  C   LIG    1       22.573 -26.500  13.351  0.00  0.00    +0.000 A 
ATOM     10  C   LIG    1       21.203 -26.678  13.195  0.00  0.00    +0.000 A 
ATOM     11  C   LIG    1       20.727 -27.904  12.763  0.00  0.00    +0.000 A 
ATOM     12  C   LIG    1       21.620 -28.949  12.509  0.00  0.00    +0.005 A 
ENDBRANCH   4   7
BRANCH   4  13
ATOM     13  C   LIG    1       25.510 -29.681  12.339  0.00  0.00    -0.028 A 
ATOM     14  C   LIG    1       26.051 -28.808  11.364  0.00  0.00    +0.005 A 
ATOM     15  C   LIG    1       27.424 -28.545  11.289  0.00  0.00    +0.000 A 
ATOM     16  C   LIG    1       28.293 -29.119  12.208  0.00  0.00    +0.000 A 
ATOM     17  C   LIG    1       27.783 -29.933  13.215  0.00  0.00    +0.000 A 
ATOM     18  C   LIG    1       26.409 -30.196  13.288  0.00  0.00    +0.005 A 
ENDBRANCH   4  13
BRANCH   1  20
ATOM     19  C   LIG    1       20.921 -32.858  14.234  0.00  0.00    +0.024 C 
ATOM     20  C   LIG    1       22.310 -33.198  13.721  0.00  0.00    +0.104 C 
ENDBRANCH   1  20
BRANCH   5  21
ATOM     21  C   LIG    1       23.161 -30.134   9.814  0.00  0.00    +0.022 C 
BRANCH  21  22
ATOM     22  C   LIG    1       24.134 -30.063   8.595  0.00  0.00    +0.085 C 
BRANCH  22  23
ATOM     23  N   LIG    1       23.792 -30.934   7.462  0.00  0.00    -0.298 NA
ATOM     24  C   LIG    1       23.918 -30.279   6.129  0.00  0.00    +0.112 C 
ATOM     25  C   LIG    1       25.354 -30.168   5.567  0.00  0.00    +0.175 C 
ATOM     26  O   LIG    1       26.044 -31.424   5.593  0.00  0.00    -0.377 OA
ATOM     27  C   LIG    1       26.035 -31.979   6.911  0.00  0.00    +0.175 C 
ATOM     28  C   LIG    1       24.596 -32.174   7.414  0.00  0.00    +0.112 C 
ENDBRANCH  22  23
ENDBRANCH  21  22
ENDBRANCH   5  21
TORSDOF 6
ENDMDL
