MODEL 1
REMARK VINA RESULT:      47.0      0.000      0.000
REMARK  Name = *****
REMARK                            x       y       z     vdW  Elec       q    Type
REMARK                         _______ _______ _______ _____ _____    ______ ____
ROOT
ATOM      1  C   LIG    1       25.341 -20.457   6.195  0.00  0.00    +0.076 C 
ATOM      2  C   LIG    1       26.535 -20.939   5.353  0.00  0.00    +0.037 C 
ATOM      3  C   LIG    1       27.801 -20.102   5.564  0.00  0.00    +0.086 C 
ATOM      4  N   LIG    1       27.518 -18.679   5.367  0.00  0.00    -0.302 NA
ATOM      5  C   LIG    1       26.481 -18.167   6.275  0.00  0.00    +0.086 C 
ATOM      6  C   LIG    1       25.678 -19.226   7.029  0.00  0.00    +0.037 C 
ENDROOT
BRANCH   1   9
ATOM      7  O   LIG    1       22.711 -21.206   6.845  0.00  0.00    -0.270 OA
ATOM      8  C   LIG    1       22.882 -20.648   5.784  0.00  0.00    +0.245 C 
ATOM      9  N   LIG    1       24.149 -20.223   5.371  0.00  0.00    -0.308 N 
ATOM     10  H   LIG    1       24.270 -19.734   4.505  0.00  0.00    +0.149 HD
BRANCH   8  11
ATOM     11  C   LIG    1       21.733 -20.410   4.838  0.00  0.00    +0.044 A 
ATOM     12  C   LIG    1       21.188 -19.124   4.546  0.00  0.00    -0.006 A 
ATOM     13  C   LIG    1       20.025 -19.106   3.726  0.00  0.00    +0.009 A 
ATOM     14  C   LIG    1       19.411 -20.266   3.248  0.00  0.00    +0.001 A 
ATOM     15  C   LIG    1       19.956 -21.502   3.544  0.00  0.00    +0.001 A 
ATOM     16  C   LIG    1       21.105 -21.571   4.330  0.00  0.00    +0.013 A 
BRANCH  12  17
ATOM     17  C   LIG    1       21.702 -17.798   5.032  0.00  0.00    -0.017 A 
ATOM     18  C   LIG    1       21.025 -17.010   5.975  0.00  0.00    +0.009 A 
ATOM     19  C   LIG    1       21.483 -15.736   6.348  0.00  0.00    +0.013 A 
ATOM     20  C   LIG    1       22.690 -15.231   5.852  0.00  0.00    +0.055 A 
ATOM     21  C   LIG    1       23.429 -16.031   4.979  0.00  0.00    +0.013 A 
ATOM     22  C   LIG    1       22.931 -17.275   4.565  0.00  0.00    +0.009 A 
BRANCH  20  23
ATOM     23  C   LIG    1       23.159 -13.854   6.249  0.00  0.00    +0.417 C 
ATOM     24  F   LIG    1       23.443 -13.068   5.171  0.00  0.00    -0.166 F 
ATOM     25  F   LIG    1       24.296 -13.881   6.998  0.00  0.00    -0.166 F 
ATOM     26  F   LIG    1       22.247 -13.156   6.985  0.00  0.00    -0.166 F 
ENDBRANCH  20  23
ENDBRANCH  12  17
ENDBRANCH   8  11
ENDBRANCH   1   9
BRANCH   4  27
ATOM     27  C   LIG    1       28.749 -17.872   5.429  0.00  0.00    +0.084 C 
BRANCH  27  28
ATOM     28  C   LIG    1       28.505 -16.354   5.306  0.00  0.00    +0.015 C 
BRANCH  28  29
ATOM     29  C   LIG    1       27.309 -15.850   6.134  0.00  0.00    +0.003 C 
BRANCH  29  30
ATOM     30  C   LIG    1       26.672 -14.607   5.487  0.00  0.00    +0.026 C 
BRANCH  30  31
ATOM     31  C   LIG    1       26.478 -14.607   3.939  0.00  0.00    +0.098 C 
ATOM     32  C   LIG    1       25.124 -14.019   3.499  0.00  0.00    -0.020 A 
ATOM     33  C   LIG    1       25.324 -12.874   2.697  0.00  0.00    -0.013 A 
ATOM     34  C   LIG    1       24.249 -12.155   2.203  0.00  0.00    +0.009 A 
ATOM     35  C   LIG    1       22.960 -12.595   2.502  0.00  0.00    +0.001 A 
ATOM     36  C   LIG    1       22.759 -13.761   3.256  0.00  0.00    +0.000 A 
ATOM     37  C   LIG    1       26.737 -12.608   2.573  0.00  0.00    -0.013 A 
ATOM     38  C   LIG    1       27.387 -11.585   1.898  0.00  0.00    +0.009 A 
ATOM     39  C   LIG    1       28.766 -11.447   2.061  0.00  0.00    +0.001 A 
ATOM     40  C   LIG    1       29.475 -12.330   2.889  0.00  0.00    +0.000 A 
ATOM     41  C   LIG    1       28.825 -13.399   3.523  0.00  0.00    +0.005 A 
ATOM     42  C   LIG    1       23.842 -14.490   3.747  0.00  0.00    +0.005 A 
ATOM     43  C   LIG    1       27.453 -13.548   3.340  0.00  0.00    -0.020 A 
BRANCH  31  44
ATOM     44  C   LIG    1       26.755 -15.995   3.267  0.00  0.00    +0.228 C 
ATOM     45  N   LIG    1       25.699 -16.600   2.597  0.00  0.00    -0.306 N 
ATOM     46  H   LIG    1       24.751 -16.258   2.732  0.00  0.00    +0.149 HD
ATOM     47  O   LIG    1       27.876 -16.510   3.260  0.00  0.00    -0.275 OA
BRANCH  45  48
ATOM     48  C   LIG    1       25.877 -17.866   1.875  0.00  0.00    +0.217 C 
BRANCH  48  49
ATOM     49  C   LIG    1       25.992 -19.144   2.719  0.00  0.00    +0.405 C 
ATOM     50  F   LIG    1       25.497 -18.952   3.964  0.00  0.00    -0.169 F 
ATOM     51  F   LIG    1       27.280 -19.534   2.853  0.00  0.00    -0.169 F 
ATOM     52  F   LIG    1       25.309 -20.176   2.170  0.00  0.00    -0.169 F 
ENDBRANCH  48  49
ENDBRANCH  45  48
ENDBRANCH  31  44
ENDBRANCH  30  31
ENDBRANCH  29  30
ENDBRANCH  28  29
ENDBRANCH  27  28
ENDBRANCH   4  27
TORSDOF 12
ENDMDL
MODEL 2
REMARK VINA RESULT:      47.4      2.599      6.833
REMARK  Name = *****
REMARK                            x       y       z     vdW  Elec       q    Type
REMARK                         _______ _______ _______ _____ _____    ______ ____
ROOT
ATOM      1  C   LIG    1       24.712 -20.280   2.284  0.00  0.00    +0.076 C 
ATOM      2  C   LIG    1       23.863 -21.556   2.160  0.00  0.00    +0.037 C 
ATOM      3  C   LIG    1       22.358 -21.296   2.297  0.00  0.00    +0.086 C 
ATOM      4  N   LIG    1       22.072 -20.552   3.524  0.00  0.00    -0.302 NA
ATOM      5  C   LIG    1       22.763 -19.256   3.586  0.00  0.00    +0.086 C 
ATOM      6  C   LIG    1       23.865 -19.041   2.551  0.00  0.00    +0.037 C 
ENDROOT
BRANCH   1   9
ATOM      7  O   LIG    1       25.646 -18.252   3.992  0.00  0.00    -0.270 OA
ATOM      8  C   LIG    1       26.168 -19.341   4.087  0.00  0.00    +0.245 C 
ATOM      9  N   LIG    1       25.769 -20.421   3.293  0.00  0.00    -0.308 N 
ATOM     10  H   LIG    1       26.188 -21.324   3.405  0.00  0.00    +0.149 HD
BRANCH   8  11
ATOM     11  C   LIG    1       27.302 -19.577   5.052  0.00  0.00    +0.044 A 
ATOM     12  C   LIG    1       28.273 -18.593   5.405  0.00  0.00    -0.006 A 
ATOM     13  C   LIG    1       29.341 -19.034   6.236  0.00  0.00    +0.009 A 
ATOM     14  C   LIG    1       29.474 -20.355   6.669  0.00  0.00    +0.001 A 
ATOM     15  C   LIG    1       28.521 -21.293   6.315  0.00  0.00    +0.001 A 
ATOM     16  C   LIG    1       27.447 -20.906   5.516  0.00  0.00    +0.013 A 
BRANCH  12  17
ATOM     17  C   LIG    1       28.293 -17.154   4.973  0.00  0.00    -0.017 A 
ATOM     18  C   LIG    1       28.047 -16.744   3.653  0.00  0.00    +0.009 A 
ATOM     19  C   LIG    1       28.156 -15.401   3.258  0.00  0.00    +0.013 A 
ATOM     20  C   LIG    1       28.435 -14.396   4.189  0.00  0.00    +0.055 A 
ATOM     21  C   LIG    1       28.599 -14.764   5.526  0.00  0.00    +0.013 A 
ATOM     22  C   LIG    1       28.550 -16.115   5.899  0.00  0.00    +0.009 A 
BRANCH  20  23
ATOM     23  C   LIG    1       28.567 -12.961   3.745  0.00  0.00    +0.417 C 
ATOM     24  F   LIG    1       29.326 -12.831   2.619  0.00  0.00    -0.166 F 
ATOM     25  F   LIG    1       29.159 -12.171   4.684  0.00  0.00    -0.166 F 
ATOM     26  F   LIG    1       27.375 -12.365   3.458  0.00  0.00    -0.166 F 
ENDBRANCH  20  23
ENDBRANCH  12  17
ENDBRANCH   8  11
ENDBRANCH   1   9
BRANCH   4  27
ATOM     27  C   LIG    1       20.622 -20.414   3.744  0.00  0.00    +0.084 C 
BRANCH  27  28
ATOM     28  C   LIG    1       19.967 -19.308   2.892  0.00  0.00    +0.015 C 
BRANCH  28  29
ATOM     29  C   LIG    1       19.806 -17.967   3.634  0.00  0.00    +0.003 C 
BRANCH  29  30
ATOM     30  C   LIG    1       21.028 -17.059   3.407  0.00  0.00    +0.026 C 
BRANCH  30  31
ATOM     31  C   LIG    1       21.899 -16.684   4.645  0.00  0.00    +0.098 C 
ATOM     32  C   LIG    1       22.496 -17.913   5.359  0.00  0.00    -0.020 A 
ATOM     33  C   LIG    1       23.906 -17.864   5.323  0.00  0.00    -0.013 A 
ATOM     34  C   LIG    1       24.667 -18.878   5.879  0.00  0.00    +0.009 A 
ATOM     35  C   LIG    1       24.009 -19.944   6.493  0.00  0.00    +0.001 A 
ATOM     36  C   LIG    1       22.609 -19.969   6.575  0.00  0.00    +0.000 A 
ATOM     37  C   LIG    1       24.334 -16.691   4.600  0.00  0.00    -0.013 A 
ATOM     38  C   LIG    1       25.618 -16.254   4.306  0.00  0.00    +0.009 A 
ATOM     39  C   LIG    1       25.773 -15.165   3.448  0.00  0.00    +0.001 A 
ATOM     40  C   LIG    1       24.650 -14.527   2.900  0.00  0.00    +0.000 A 
ATOM     41  C   LIG    1       23.354 -14.933   3.244  0.00  0.00    +0.005 A 
ATOM     42  C   LIG    1       21.843 -18.943   6.021  0.00  0.00    +0.005 A 
ATOM     43  C   LIG    1       23.201 -16.005   4.120  0.00  0.00    -0.020 A 
BRANCH  31  44
ATOM     44  C   LIG    1       21.187 -15.716   5.649  0.00  0.00    +0.228 C 
ATOM     45  N   LIG    1       21.886 -14.581   6.044  0.00  0.00    -0.306 N 
ATOM     46  H   LIG    1       22.883 -14.510   5.858  0.00  0.00    +0.149 HD
ATOM     47  O   LIG    1       20.028 -15.899   6.028  0.00  0.00    -0.275 OA
BRANCH  45  48
ATOM     48  C   LIG    1       21.277 -13.577   6.925  0.00  0.00    +0.217 C 
BRANCH  48  49
ATOM     49  C   LIG    1       21.347 -12.111   6.472  0.00  0.00    +0.405 C 
ATOM     50  F   LIG    1       20.212 -11.447   6.792  0.00  0.00    -0.169 F 
ATOM     51  F   LIG    1       21.506 -12.015   5.132  0.00  0.00    -0.169 F 
ATOM     52  F   LIG    1       22.376 -11.451   7.052  0.00  0.00    -0.169 F 
ENDBRANCH  48  49
ENDBRANCH  45  48
ENDBRANCH  31  44
ENDBRANCH  30  31
ENDBRANCH  29  30
ENDBRANCH  28  29
ENDBRANCH  27  28
ENDBRANCH   4  27
TORSDOF 12
ENDMDL
