MODEL 1
REMARK VINA RESULT:      -1.5      0.000      0.000
REMARK  Name = *****
REMARK                            x       y       z     vdW  Elec       q    Type
REMARK                         _______ _______ _______ _____ _____    ______ ____
ROOT
ATOM      1  C   LIG    1       21.935 -19.135   4.002  0.00  0.00    +0.019 A 
ATOM      2  C   LIG    1       23.229 -18.608   3.874  0.00  0.00    +0.035 A 
ATOM      3  C   LIG    1       24.357 -19.167   4.522  0.00  0.00    +0.049 A 
ATOM      4  N   LIG    1       25.692 -18.714   4.278  0.00  0.00    -0.297 N 
ATOM      5  C   LIG    1       26.864 -19.199   4.946  0.00  0.00    +0.048 A 
ATOM      6  C   LIG    1       26.794 -20.201   5.937  0.00  0.00    +0.034 A 
ATOM      7  S   LIG    1       25.310 -21.064   6.375  0.00  0.00    -0.086 S 
ATOM      8  C   LIG    1       27.939 -20.611   6.654  0.00  0.00    +0.017 A 
ATOM      9  C   LIG    1       29.185 -20.059   6.396  0.00  0.00    +0.001 A 
ATOM     10  C   LIG    1       29.299 -19.112   5.395  0.00  0.00    +0.002 A 
ATOM     11  C   LIG    1       28.162 -18.700   4.681  0.00  0.00    +0.024 A 
ATOM     12  C   LIG    1       24.086 -20.241   5.397  0.00  0.00    +0.034 A 
ATOM     13  C   LIG    1       22.782 -20.754   5.549  0.00  0.00    +0.017 A 
ATOM     14  C   LIG    1       21.714 -20.221   4.838  0.00  0.00    +0.012 A 
ENDROOT
BRANCH   1  16
ATOM     15  C   LIG    1       19.419 -19.206   3.427  0.00  0.00    +0.091 C 
ATOM     16  C   LIG    1       20.787 -18.613   3.208  0.00  0.00    +0.160 C 
ATOM     17  O   LIG    1       20.976 -17.729   2.383  0.00  0.00    -0.292 OA
ENDBRANCH   1  16
BRANCH   4  18
ATOM     18  C   LIG    1       25.889 -17.601   3.297  0.00  0.00    +0.129 C 
BRANCH  18  19
ATOM     19  C   LIG    1       25.971 -16.167   3.947  0.00  0.00    +0.071 C 
ATOM     20  C   LIG    1       27.423 -15.640   3.918  0.00  0.00    +0.026 C 
BRANCH  19  21
ATOM     21  N   LIG    1       25.041 -15.202   3.268  0.00  0.00    -0.304 NA
ATOM     22  C   LIG    1       25.736 -14.053   2.666  0.00  0.00    +0.105 C 
ATOM     23  C   LIG    1       24.023 -14.678   4.189  0.00  0.00    +0.105 C 
ENDBRANCH  19  21
ENDBRANCH  18  19
ENDBRANCH   4  18
TORSDOF 4
ENDMDL
MODEL 2
REMARK VINA RESULT:      -1.2      2.127      4.826
REMARK  Name = *****
REMARK                            x       y       z     vdW  Elec       q    Type
REMARK                         _______ _______ _______ _____ _____    ______ ____
ROOT
ATOM      1  C   LIG    1       22.601 -19.288   4.570  0.00  0.00    +0.019 A 
ATOM      2  C   LIG    1       23.882 -18.877   4.167  0.00  0.00    +0.035 A 
ATOM      3  C   LIG    1       24.249 -17.516   4.038  0.00  0.00    +0.049 A 
ATOM      4  N   LIG    1       25.591 -17.101   3.765  0.00  0.00    -0.297 N 
ATOM      5  C   LIG    1       26.011 -15.745   3.564  0.00  0.00    +0.048 A 
ATOM      6  C   LIG    1       25.101 -14.668   3.622  0.00  0.00    +0.034 A 
ATOM      7  S   LIG    1       23.396 -14.831   4.072  0.00  0.00    -0.086 S 
ATOM      8  C   LIG    1       25.503 -13.346   3.335  0.00  0.00    +0.017 A 
ATOM      9  C   LIG    1       26.818 -13.049   3.008  0.00  0.00    +0.001 A 
ATOM     10  C   LIG    1       27.748 -14.073   2.994  0.00  0.00    +0.002 A 
ATOM     11  C   LIG    1       27.350 -15.390   3.275  0.00  0.00    +0.024 A 
ATOM     12  C   LIG    1       23.211 -16.583   4.244  0.00  0.00    +0.034 A 
ATOM     13  C   LIG    1       21.917 -16.995   4.620  0.00  0.00    +0.017 A 
ATOM     14  C   LIG    1       21.617 -18.338   4.807  0.00  0.00    +0.012 A 
ENDROOT
BRANCH   1  16
ATOM     15  C   LIG    1       23.267 -21.572   5.574  0.00  0.00    +0.091 C 
ATOM     16  C   LIG    1       22.275 -20.719   4.827  0.00  0.00    +0.160 C 
ATOM     17  O   LIG    1       21.220 -21.181   4.413  0.00  0.00    -0.292 OA
ENDBRANCH   1  16
BRANCH   4  18
ATOM     18  C   LIG    1       26.637 -18.159   3.610  0.00  0.00    +0.129 C 
BRANCH  18  19
ATOM     19  C   LIG    1       26.934 -18.980   4.922  0.00  0.00    +0.071 C 
ATOM     20  C   LIG    1       26.237 -20.357   4.871  0.00  0.00    +0.026 C 
BRANCH  19  21
ATOM     21  N   LIG    1       28.411 -19.139   5.149  0.00  0.00    -0.304 NA
ATOM     22  C   LIG    1       28.734 -19.822   6.411  0.00  0.00    +0.105 C 
ATOM     23  C   LIG    1       29.111 -17.847   5.146  0.00  0.00    +0.105 C 
ENDBRANCH  19  21
ENDBRANCH  18  19
ENDBRANCH   4  18
TORSDOF 4
ENDMDL
MODEL 3
REMARK VINA RESULT:      -1.1      2.361      5.889
REMARK  Name = *****
REMARK                            x       y       z     vdW  Elec       q    Type
REMARK                         _______ _______ _______ _____ _____    ______ ____
ROOT
ATOM      1  C   LIG    1       26.022 -14.746   3.674  0.00  0.00    +0.019 A 
ATOM      2  C   LIG    1       26.114 -16.136   3.846  0.00  0.00    +0.035 A 
ATOM      3  C   LIG    1       24.979 -16.971   3.987  0.00  0.00    +0.049 A 
ATOM      4  N   LIG    1       25.071 -18.399   4.020  0.00  0.00    -0.297 N 
ATOM      5  C   LIG    1       23.968 -19.293   4.222  0.00  0.00    +0.048 A 
ATOM      6  C   LIG    1       22.652 -18.819   4.411  0.00  0.00    +0.034 A 
ATOM      7  S   LIG    1       22.182 -17.116   4.292  0.00  0.00    -0.086 S 
ATOM      8  C   LIG    1       21.586 -19.699   4.698  0.00  0.00    +0.017 A 
ATOM      9  C   LIG    1       21.786 -21.069   4.781  0.00  0.00    +0.001 A 
ATOM     10  C   LIG    1       23.054 -21.571   4.549  0.00  0.00    +0.002 A 
ATOM     11  C   LIG    1       24.117 -20.699   4.266  0.00  0.00    +0.024 A 
ATOM     12  C   LIG    1       23.736 -16.306   4.048  0.00  0.00    +0.034 A 
ATOM     13  C   LIG    1       23.645 -14.907   3.905  0.00  0.00    +0.017 A 
ATOM     14  C   LIG    1       24.778 -14.130   3.694  0.00  0.00    +0.012 A 
ENDROOT
BRANCH   1  16
ATOM     15  C   LIG    1       27.896 -13.195   4.538  0.00  0.00    +0.091 C 
ATOM     16  C   LIG    1       27.219 -13.903   3.394  0.00  0.00    +0.160 C 
ATOM     17  O   LIG    1       27.618 -13.786   2.243  0.00  0.00    -0.292 OA
ENDBRANCH   1  16
BRANCH   4  18
ATOM     18  C   LIG    1       26.426 -19.020   3.901  0.00  0.00    +0.129 C 
BRANCH  18  19
ATOM     19  C   LIG    1       27.125 -19.330   5.279  0.00  0.00    +0.071 C 
ATOM     20  C   LIG    1       26.689 -20.713   5.811  0.00  0.00    +0.026 C 
BRANCH  19  21
ATOM     21  N   LIG    1       28.622 -19.251   5.167  0.00  0.00    -0.304 NA
ATOM     22  C   LIG    1       29.323 -19.971   6.242  0.00  0.00    +0.105 C 
ATOM     23  C   LIG    1       29.101 -17.862   5.172  0.00  0.00    +0.105 C 
ENDBRANCH  19  21
ENDBRANCH  18  19
ENDBRANCH   4  18
TORSDOF 4
ENDMDL
MODEL 4
REMARK VINA RESULT:      -1.1      2.357      5.453
REMARK  Name = *****
REMARK                            x       y       z     vdW  Elec       q    Type
REMARK                         _______ _______ _______ _____ _____    ______ ____
ROOT
ATOM      1  C   LIG    1       27.350 -20.415   6.159  0.00  0.00    +0.019 A 
ATOM      2  C   LIG    1       26.627 -19.714   5.181  0.00  0.00    +0.035 A 
ATOM      3  C   LIG    1       25.216 -19.759   5.086  0.00  0.00    +0.049 A 
ATOM      4  N   LIG    1       24.476 -18.934   4.180  0.00  0.00    -0.297 N 
ATOM      5  C   LIG    1       23.054 -18.978   3.996  0.00  0.00    +0.048 A 
ATOM      6  C   LIG    1       22.238 -19.871   4.722  0.00  0.00    +0.034 A 
ATOM      7  S   LIG    1       22.826 -20.928   6.016  0.00  0.00    -0.086 S 
ATOM      8  C   LIG    1       20.852 -19.971   4.474  0.00  0.00    +0.017 A 
ATOM      9  C   LIG    1       20.233 -19.177   3.520  0.00  0.00    +0.001 A 
ATOM     10  C   LIG    1       20.995 -18.254   2.827  0.00  0.00    +0.002 A 
ATOM     11  C   LIG    1       22.374 -18.153   3.069  0.00  0.00    +0.024 A 
ATOM     12  C   LIG    1       24.572 -20.640   5.981  0.00  0.00    +0.034 A 
ATOM     13  C   LIG    1       25.299 -21.367   6.946  0.00  0.00    +0.017 A 
ATOM     14  C   LIG    1       26.678 -21.239   7.052  0.00  0.00    +0.012 A 
ENDROOT
BRANCH   1  16
ATOM     15  C   LIG    1       29.475 -18.986   5.831  0.00  0.00    +0.091 C 
ATOM     16  C   LIG    1       28.822 -20.251   6.324  0.00  0.00    +0.160 C 
ATOM     17  O   LIG    1       29.475 -21.150   6.838  0.00  0.00    -0.292 OA
ENDBRANCH   1  16
BRANCH   4  18
ATOM     18  C   LIG    1       25.239 -17.994   3.302  0.00  0.00    +0.129 C 
BRANCH  18  19
ATOM     19  C   LIG    1       25.615 -16.624   3.984  0.00  0.00    +0.071 C 
ATOM     20  C   LIG    1       27.139 -16.381   3.911  0.00  0.00    +0.026 C 
BRANCH  19  21
ATOM     21  N   LIG    1       24.864 -15.478   3.369  0.00  0.00    -0.304 NA
ATOM     22  C   LIG    1       25.742 -14.400   2.886  0.00  0.00    +0.105 C 
ATOM     23  C   LIG    1       23.900 -14.884   4.306  0.00  0.00    +0.105 C 
ENDBRANCH  19  21
ENDBRANCH  18  19
ENDBRANCH   4  18
TORSDOF 4
ENDMDL
