MODEL 1
REMARK VINA RESULT:      -5.5      0.000      0.000
REMARK  Name = *****
REMARK                            x       y       z     vdW  Elec       q    Type
REMARK                         _______ _______ _______ _____ _____    ______ ____
ROOT
ATOM      1  C   LIG    1       26.998 -16.892   3.327  0.00  0.00    +0.084 C 
ATOM      2  C   LIG    1       25.599 -17.522   3.452  0.00  0.00    +0.027 C 
ENDROOT
BRANCH   1   3
ATOM      3  N   LIG    1       28.041 -17.870   3.720  0.00  0.00    -0.305 NA
ATOM      4  H   LIG    1       28.015 -18.649   3.058  0.00  0.00    +0.123 HD
BRANCH   3   6
ATOM      5  C   LIG    1       29.342 -18.250   5.738  0.00  0.00    +0.027 C 
ATOM      6  C   LIG    1       27.944 -18.411   5.106  0.00  0.00    +0.088 C 
BRANCH   6   7
ATOM      7  C   LIG    1       27.524 -19.905   5.276  0.00  0.00    +0.247 C 
BRANCH   7   8
ATOM      8  O   LIG    1       26.604 -20.086   6.359  0.00  0.00    -0.490 OA
BRANCH   8   9
ATOM      9  C   LIG    1       25.336 -20.468   6.000  0.00  0.00    +0.121 A 
ATOM     10  C   LIG    1       24.493 -20.824   7.056  0.00  0.00    +0.045 A 
ATOM     11  C   LIG    1       23.160 -21.167   6.815  0.00  0.00    +0.004 A 
ATOM     12  C   LIG    1       22.674 -21.186   5.511  0.00  0.00    +0.000 A 
ATOM     13  C   LIG    1       23.531 -20.899   4.448  0.00  0.00    +0.004 A 
ATOM     14  C   LIG    1       24.864 -20.545   4.691  0.00  0.00    +0.045 A 
ENDBRANCH   8   9
ENDBRANCH   7   8
ENDBRANCH   6   7
ENDBRANCH   3   6
ENDBRANCH   1   3
BRANCH   1  15
ATOM     15  C   LIG    1       27.024 -15.568   4.187  0.00  0.00    +0.161 C 
BRANCH  15  16
ATOM     16  C   LIG    1       26.100 -14.441   3.745  0.00  0.00    -0.018 A 
ATOM     17  C   LIG    1       26.308 -13.790   2.510  0.00  0.00    +0.010 A 
ATOM     18  C   LIG    1       25.422 -12.798   2.072  0.00  0.00    +0.046 A 
ATOM     19  C   LIG    1       24.335 -12.440   2.846  0.00  0.00    +0.117 A 
ATOM     20  C   LIG    1       24.086 -13.081   4.059  0.00  0.00    +0.046 A 
ATOM     21  C   LIG    1       24.968 -14.080   4.490  0.00  0.00    +0.010 A 
BRANCH  19  22
ATOM     22  O   LIG    1       23.509 -11.449   2.394  0.00  0.00    -0.507 OA
ATOM     23  H   LIG    1       22.701 -11.455   2.923  0.00  0.00    +0.292 HD
ENDBRANCH  19  22
ENDBRANCH  15  16
BRANCH  15  24
ATOM     24  O   LIG    1       28.368 -15.090   4.342  0.00  0.00    -0.386 OA
ATOM     25  H   LIG    1       28.818 -15.730   4.923  0.00  0.00    +0.210 HD
ENDBRANCH  15  24
ENDBRANCH   1  15
TORSDOF 9
ENDMDL
MODEL 2
REMARK VINA RESULT:      -5.1      1.677      2.410
REMARK  Name = *****
REMARK                            x       y       z     vdW  Elec       q    Type
REMARK                         _______ _______ _______ _____ _____    ______ ____
ROOT
ATOM      1  C   LIG    1       27.688 -18.089   4.843  0.00  0.00    +0.084 C 
ATOM      2  C   LIG    1       29.205 -17.841   4.939  0.00  0.00    +0.027 C 
ENDROOT
BRANCH   1   3
ATOM      3  N   LIG    1       27.402 -19.544   4.858  0.00  0.00    -0.305 NA
ATOM      4  H   LIG    1       26.552 -19.710   4.315  0.00  0.00    +0.123 HD
BRANCH   3   6
ATOM      5  C   LIG    1       28.611 -20.783   6.565  0.00  0.00    +0.027 C 
ATOM      6  C   LIG    1       27.244 -20.168   6.203  0.00  0.00    +0.088 C 
BRANCH   6   7
ATOM      7  C   LIG    1       26.168 -21.289   6.364  0.00  0.00    +0.247 C 
BRANCH   7   8
ATOM      8  O   LIG    1       25.467 -21.542   5.141  0.00  0.00    -0.490 OA
BRANCH   8   9
ATOM      9  C   LIG    1       24.423 -20.694   4.872  0.00  0.00    +0.121 A 
ATOM     10  C   LIG    1       23.538 -20.472   5.930  0.00  0.00    +0.045 A 
ATOM     11  C   LIG    1       22.475 -19.577   5.790  0.00  0.00    +0.004 A 
ATOM     12  C   LIG    1       22.275 -18.922   4.578  0.00  0.00    +0.000 A 
ATOM     13  C   LIG    1       23.114 -19.193   3.498  0.00  0.00    +0.004 A 
ATOM     14  C   LIG    1       24.186 -20.083   3.641  0.00  0.00    +0.045 A 
ENDBRANCH   8   9
ENDBRANCH   7   8
ENDBRANCH   6   7
ENDBRANCH   3   6
ENDBRANCH   1   3
BRANCH   1  15
ATOM     15  C   LIG    1       27.147 -17.357   3.553  0.00  0.00    +0.161 C 
BRANCH  15  16
ATOM     16  C   LIG    1       26.523 -15.981   3.751  0.00  0.00    -0.018 A 
ATOM     17  C   LIG    1       25.121 -15.823   3.721  0.00  0.00    +0.010 A 
ATOM     18  C   LIG    1       24.543 -14.571   3.967  0.00  0.00    +0.046 A 
ATOM     19  C   LIG    1       25.338 -13.475   4.236  0.00  0.00    +0.117 A 
ATOM     20  C   LIG    1       26.725 -13.602   4.299  0.00  0.00    +0.046 A 
ATOM     21  C   LIG    1       27.301 -14.857   4.063  0.00  0.00    +0.010 A 
BRANCH  19  22
ATOM     22  O   LIG    1       24.735 -12.265   4.446  0.00  0.00    -0.507 OA
ATOM     23  H   LIG    1       23.788 -12.410   4.568  0.00  0.00    +0.292 HD
ENDBRANCH  19  22
ENDBRANCH  15  16
BRANCH  15  24
ATOM     24  O   LIG    1       26.262 -18.213   2.816  0.00  0.00    -0.386 OA
ATOM     25  H   LIG    1       25.788 -17.638   2.188  0.00  0.00    +0.210 HD
ENDBRANCH  15  24
ENDBRANCH   1  15
TORSDOF 9
ENDMDL
MODEL 3
REMARK VINA RESULT:      -4.8      1.881      6.265
REMARK  Name = *****
REMARK                            x       y       z     vdW  Elec       q    Type
REMARK                         _______ _______ _______ _____ _____    ______ ____
ROOT
ATOM      1  C   LIG    1       27.294 -20.366   5.546  0.00  0.00    +0.084 C 
ATOM      2  C   LIG    1       28.200 -20.750   6.731  0.00  0.00    +0.027 C 
ENDROOT
BRANCH   1   3
ATOM      3  N   LIG    1       27.141 -18.893   5.470  0.00  0.00    -0.305 NA
ATOM      4  H   LIG    1       26.196 -18.685   5.140  0.00  0.00    +0.123 HD
BRANCH   3   6
ATOM      5  C   LIG    1       29.468 -18.198   5.357  0.00  0.00    +0.027 C 
ATOM      6  C   LIG    1       28.122 -18.175   4.605  0.00  0.00    +0.088 C 
BRANCH   6   7
ATOM      7  C   LIG    1       27.816 -16.689   4.237  0.00  0.00    +0.247 C 
BRANCH   7   8
ATOM      8  O   LIG    1       26.775 -16.579   3.261  0.00  0.00    -0.490 OA
BRANCH   8   9
ATOM      9  C   LIG    1       26.051 -15.415   3.297  0.00  0.00    +0.121 A 
ATOM     10  C   LIG    1       26.593 -14.344   2.583  0.00  0.00    +0.045 A 
ATOM     11  C   LIG    1       25.910 -13.129   2.495  0.00  0.00    +0.004 A 
ATOM     12  C   LIG    1       24.692 -12.970   3.150  0.00  0.00    +0.000 A 
ATOM     13  C   LIG    1       24.180 -14.013   3.922  0.00  0.00    +0.004 A 
ATOM     14  C   LIG    1       24.861 -15.234   4.001  0.00  0.00    +0.045 A 
ENDBRANCH   8   9
ENDBRANCH   7   8
ENDBRANCH   6   7
ENDBRANCH   3   6
ENDBRANCH   1   3
BRANCH   1  15
ATOM     15  C   LIG    1       25.922 -21.132   5.702  0.00  0.00    +0.161 C 
BRANCH  15  16
ATOM     16  C   LIG    1       24.675 -20.424   5.190  0.00  0.00    -0.018 A 
ATOM     17  C   LIG    1       23.488 -20.428   5.953  0.00  0.00    +0.010 A 
ATOM     18  C   LIG    1       22.359 -19.723   5.516  0.00  0.00    +0.046 A 
ATOM     19  C   LIG    1       22.392 -19.020   4.327  0.00  0.00    +0.117 A 
ATOM     20  C   LIG    1       23.557 -18.974   3.562  0.00  0.00    +0.046 A 
ATOM     21  C   LIG    1       24.688 -19.670   4.007  0.00  0.00    +0.010 A 
BRANCH  19  22
ATOM     22  O   LIG    1       21.261 -18.367   3.923  0.00  0.00    -0.507 OA
ATOM     23  H   LIG    1       21.500 -17.467   3.663  0.00  0.00    +0.292 HD
ENDBRANCH  19  22
ENDBRANCH  15  16
BRANCH  15  24
ATOM     24  O   LIG    1       25.737 -21.569   7.056  0.00  0.00    -0.386 OA
ATOM     25  H   LIG    1       25.696 -20.761   7.600  0.00  0.00    +0.210 HD
ENDBRANCH  15  24
ENDBRANCH   1  15
TORSDOF 9
ENDMDL
MODEL 4
REMARK VINA RESULT:      -4.7      2.501      6.959
REMARK  Name = *****
REMARK                            x       y       z     vdW  Elec       q    Type
REMARK                         _______ _______ _______ _____ _____    ______ ____
ROOT
ATOM      1  C   LIG    1       23.345 -20.486   5.680  0.00  0.00    +0.084 C 
ATOM      2  C   LIG    1       22.681 -21.490   6.641  0.00  0.00    +0.027 C 
ENDROOT
BRANCH   1   3
ATOM      3  N   LIG    1       22.365 -20.014   4.671  0.00  0.00    -0.305 NA
ATOM      4  H   LIG    1       22.672 -20.338   3.751  0.00  0.00    +0.123 HD
BRANCH   3   6
ATOM      5  C   LIG    1       20.905 -18.320   3.718  0.00  0.00    +0.027 C 
ATOM      6  C   LIG    1       22.141 -18.541   4.614  0.00  0.00    +0.088 C 
BRANCH   6   7
ATOM      7  C   LIG    1       23.293 -17.651   4.048  0.00  0.00    +0.247 C 
BRANCH   7   8
ATOM      8  O   LIG    1       23.085 -16.261   4.324  0.00  0.00    -0.490 OA
BRANCH   8   9
ATOM      9  C   LIG    1       24.098 -15.423   3.935  0.00  0.00    +0.121 A 
ATOM     10  C   LIG    1       23.766 -14.067   3.865  0.00  0.00    +0.045 A 
ATOM     11  C   LIG    1       24.735 -13.114   3.544  0.00  0.00    +0.004 A 
ATOM     12  C   LIG    1       26.037 -13.518   3.260  0.00  0.00    +0.000 A 
ATOM     13  C   LIG    1       26.356 -14.876   3.260  0.00  0.00    +0.004 A 
ATOM     14  C   LIG    1       25.387 -15.830   3.592  0.00  0.00    +0.045 A 
ENDBRANCH   8   9
ENDBRANCH   7   8
ENDBRANCH   6   7
ENDBRANCH   3   6
ENDBRANCH   1   3
BRANCH   1  15
ATOM     15  C   LIG    1       24.617 -21.174   5.046  0.00  0.00    +0.161 C 
BRANCH  15  16
ATOM     16  C   LIG    1       25.938 -20.427   5.169  0.00  0.00    -0.018 A 
ATOM     17  C   LIG    1       26.260 -19.391   4.266  0.00  0.00    +0.010 A 
ATOM     18  C   LIG    1       27.444 -18.660   4.417  0.00  0.00    +0.046 A 
ATOM     19  C   LIG    1       28.317 -18.947   5.449  0.00  0.00    +0.117 A 
ATOM     20  C   LIG    1       28.017 -19.946   6.374  0.00  0.00    +0.046 A 
ATOM     21  C   LIG    1       26.826 -20.670   6.227  0.00  0.00    +0.010 A 
BRANCH  19  22
ATOM     22  O   LIG    1       29.475 -18.226   5.545  0.00  0.00    -0.507 OA
ATOM     23  H   LIG    1       29.876 -18.400   6.407  0.00  0.00    +0.292 HD
ENDBRANCH  19  22
ENDBRANCH  15  16
BRANCH  15  24
ATOM     24  O   LIG    1       24.368 -21.541   3.682  0.00  0.00    -0.386 OA
ATOM     25  H   LIG    1       23.774 -20.857   3.320  0.00  0.00    +0.210 HD
ENDBRANCH  15  24
ENDBRANCH   1  15
TORSDOF 9
ENDMDL
MODEL 5
REMARK VINA RESULT:      -4.7      2.472      7.590
REMARK  Name = *****
REMARK                            x       y       z     vdW  Elec       q    Type
REMARK                         _______ _______ _______ _____ _____    ______ ____
ROOT
ATOM      1  C   LIG    1       21.924 -18.394   4.608  0.00  0.00    +0.084 C 
ATOM      2  C   LIG    1       20.941 -18.658   3.453  0.00  0.00    +0.027 C 
ENDROOT
BRANCH   1   3
ATOM      3  N   LIG    1       23.071 -17.581   4.134  0.00  0.00    -0.305 NA
ATOM      4  H   LIG    1       23.930 -18.108   4.304  0.00  0.00    +0.123 HD
BRANCH   3   6
ATOM      5  C   LIG    1       21.954 -16.004   5.608  0.00  0.00    +0.027 C 
ATOM      6  C   LIG    1       23.208 -16.225   4.738  0.00  0.00    +0.088 C 
BRANCH   6   7
ATOM      7  C   LIG    1       23.327 -15.005   3.770  0.00  0.00    +0.247 C 
BRANCH   7   8
ATOM      8  O   LIG    1       23.957 -13.882   4.394  0.00  0.00    -0.490 OA
BRANCH   8   9
ATOM      9  C   LIG    1       25.314 -13.790   4.217  0.00  0.00    +0.121 A 
ATOM     10  C   LIG    1       25.775 -14.083   2.930  0.00  0.00    +0.045 A 
ATOM     11  C   LIG    1       27.130 -13.959   2.616  0.00  0.00    +0.004 A 
ATOM     12  C   LIG    1       28.037 -13.573   3.599  0.00  0.00    +0.000 A 
ATOM     13  C   LIG    1       27.592 -13.347   4.902  0.00  0.00    +0.004 A 
ATOM     14  C   LIG    1       26.231 -13.461   5.214  0.00  0.00    +0.045 A 
ENDBRANCH   8   9
ENDBRANCH   7   8
ENDBRANCH   6   7
ENDBRANCH   3   6
ENDBRANCH   1   3
BRANCH   1  15
ATOM     15  C   LIG    1       22.353 -19.784   5.222  0.00  0.00    +0.161 C 
BRANCH  15  16
ATOM     16  C   LIG    1       23.840 -20.001   5.467  0.00  0.00    -0.018 A 
ATOM     17  C   LIG    1       24.296 -20.473   6.717  0.00  0.00    +0.010 A 
ATOM     18  C   LIG    1       25.656 -20.734   6.924  0.00  0.00    +0.046 A 
ATOM     19  C   LIG    1       26.570 -20.527   5.910  0.00  0.00    +0.117 A 
ATOM     20  C   LIG    1       26.150 -20.086   4.655  0.00  0.00    +0.046 A 
ATOM     21  C   LIG    1       24.788 -19.836   4.447  0.00  0.00    +0.010 A 
BRANCH  19  22
ATOM     22  O   LIG    1       27.892 -20.770   6.162  0.00  0.00    -0.507 OA
ATOM     23  H   LIG    1       28.397 -19.974   5.952  0.00  0.00    +0.292 HD
ENDBRANCH  19  22
ENDBRANCH  15  16
BRANCH  15  24
ATOM     24  O   LIG    1       21.802 -20.867   4.459  0.00  0.00    -0.386 OA
ATOM     25  H   LIG    1       22.485 -21.118   3.810  0.00  0.00    +0.210 HD
ENDBRANCH  15  24
ENDBRANCH   1  15
TORSDOF 9
ENDMDL
MODEL 6
REMARK VINA RESULT:      -4.7      2.562      4.365
REMARK  Name = *****
REMARK                            x       y       z     vdW  Elec       q    Type
REMARK                         _______ _______ _______ _____ _____    ______ ____
ROOT
ATOM      1  C   LIG    1       22.343 -17.934   4.166  0.00  0.00    +0.084 C 
ATOM      2  C   LIG    1       21.050 -18.194   3.370  0.00  0.00    +0.027 C 
ENDROOT
BRANCH   1   3
ATOM      3  N   LIG    1       22.374 -18.776   5.387  0.00  0.00    -0.305 NA
ATOM      4  H   LIG    1       22.820 -18.239   6.135  0.00  0.00    +0.123 HD
BRANCH   3   6
ATOM      5  C   LIG    1       21.963 -21.141   5.005  0.00  0.00    +0.027 C 
ATOM      6  C   LIG    1       23.064 -20.091   5.259  0.00  0.00    +0.088 C 
BRANCH   6   7
ATOM      7  C   LIG    1       23.914 -20.588   6.472  0.00  0.00    +0.247 C 
BRANCH   7   8
ATOM      8  O   LIG    1       24.952 -21.488   6.069  0.00  0.00    -0.490 OA
BRANCH   8   9
ATOM      9  C   LIG    1       26.219 -20.964   6.063  0.00  0.00    +0.121 A 
ATOM     10  C   LIG    1       27.094 -21.490   7.016  0.00  0.00    +0.045 A 
ATOM     11  C   LIG    1       28.428 -21.078   7.061  0.00  0.00    +0.004 A 
ATOM     12  C   LIG    1       28.885 -20.112   6.169  0.00  0.00    +0.000 A 
ATOM     13  C   LIG    1       27.998 -19.533   5.261  0.00  0.00    +0.004 A 
ATOM     14  C   LIG    1       26.663 -19.954   5.211  0.00  0.00    +0.045 A 
ENDBRANCH   8   9
ENDBRANCH   7   8
ENDBRANCH   6   7
ENDBRANCH   3   6
ENDBRANCH   1   3
BRANCH   1  15
ATOM     15  C   LIG    1       22.436 -16.387   4.468  0.00  0.00    +0.161 C 
BRANCH  15  16
ATOM     16  C   LIG    1       23.760 -15.702   4.158  0.00  0.00    -0.018 A 
ATOM     17  C   LIG    1       24.878 -16.462   3.752  0.00  0.00    +0.010 A 
ATOM     18  C   LIG    1       26.078 -15.830   3.404  0.00  0.00    +0.046 A 
ATOM     19  C   LIG    1       26.185 -14.454   3.460  0.00  0.00    +0.117 A 
ATOM     20  C   LIG    1       25.092 -13.672   3.831  0.00  0.00    +0.046 A 
ATOM     21  C   LIG    1       23.890 -14.306   4.169  0.00  0.00    +0.010 A 
BRANCH  19  22
ATOM     22  O   LIG    1       27.382 -13.878   3.136  0.00  0.00    -0.507 OA
ATOM     23  H   LIG    1       27.329 -12.931   3.320  0.00  0.00    +0.292 HD
ENDBRANCH  19  22
ENDBRANCH  15  16
BRANCH  15  24
ATOM     24  O   LIG    1       22.023 -16.106   5.813  0.00  0.00    -0.386 OA
ATOM     25  H   LIG    1       22.833 -15.873   6.303  0.00  0.00    +0.210 HD
ENDBRANCH  15  24
ENDBRANCH   1  15
TORSDOF 9
ENDMDL
MODEL 7
REMARK VINA RESULT:      -4.3      1.830      2.326
REMARK  Name = *****
REMARK                            x       y       z     vdW  Elec       q    Type
REMARK                         _______ _______ _______ _____ _____    ______ ____
ROOT
ATOM      1  C   LIG    1       26.261 -17.054   3.136  0.00  0.00    +0.084 C 
ATOM      2  C   LIG    1       25.211 -18.023   3.711  0.00  0.00    +0.027 C 
ENDROOT
BRANCH   1   3
ATOM      3  N   LIG    1       27.580 -17.286   3.773  0.00  0.00    -0.305 NA
ATOM      4  H   LIG    1       28.234 -17.597   3.051  0.00  0.00    +0.123 HD
BRANCH   3   6
ATOM      5  C   LIG    1       29.037 -18.250   5.463  0.00  0.00    +0.027 C 
ATOM      6  C   LIG    1       27.602 -18.264   4.898  0.00  0.00    +0.088 C 
BRANCH   6   7
ATOM      7  C   LIG    1       27.240 -19.749   4.579  0.00  0.00    +0.247 C 
BRANCH   7   8
ATOM      8  O   LIG    1       26.775 -20.451   5.737  0.00  0.00    -0.490 OA
BRANCH   8   9
ATOM      9  C   LIG    1       25.440 -20.766   5.741  0.00  0.00    +0.121 A 
ATOM     10  C   LIG    1       24.779 -20.574   6.957  0.00  0.00    +0.045 A 
ATOM     11  C   LIG    1       23.405 -20.800   7.062  0.00  0.00    +0.004 A 
ATOM     12  C   LIG    1       22.690 -21.251   5.955  0.00  0.00    +0.000 A 
ATOM     13  C   LIG    1       23.358 -21.510   4.758  0.00  0.00    +0.004 A 
ATOM     14  C   LIG    1       24.734 -21.274   4.651  0.00  0.00    +0.045 A 
ENDBRANCH   8   9
ENDBRANCH   7   8
ENDBRANCH   6   7
ENDBRANCH   3   6
ENDBRANCH   1   3
BRANCH   1  15
ATOM     15  C   LIG    1       25.727 -15.579   3.317  0.00  0.00    +0.161 C 
BRANCH  15  16
ATOM     16  C   LIG    1       26.691 -14.566   3.921  0.00  0.00    -0.018 A 
ATOM     17  C   LIG    1       27.780 -14.080   3.166  0.00  0.00    +0.010 A 
ATOM     18  C   LIG    1       28.630 -13.101   3.695  0.00  0.00    +0.046 A 
ATOM     19  C   LIG    1       28.416 -12.603   4.966  0.00  0.00    +0.117 A 
ATOM     20  C   LIG    1       27.334 -13.042   5.728  0.00  0.00    +0.046 A 
ATOM     21  C   LIG    1       26.479 -14.014   5.193  0.00  0.00    +0.010 A 
BRANCH  19  22
ATOM     22  O   LIG    1       29.285 -11.666   5.455  0.00  0.00    -0.507 OA
ATOM     23  H   LIG    1       29.290 -10.908   4.857  0.00  0.00    +0.292 HD
ENDBRANCH  19  22
ENDBRANCH  15  16
BRANCH  15  24
ATOM     24  O   LIG    1       24.479 -15.575   4.024  0.00  0.00    -0.386 OA
ATOM     25  H   LIG    1       24.646 -15.119   4.870  0.00  0.00    +0.210 HD
ENDBRANCH  15  24
ENDBRANCH   1  15
TORSDOF 9
ENDMDL
MODEL 8
REMARK VINA RESULT:      -3.9      1.099      1.875
REMARK  Name = *****
REMARK                            x       y       z     vdW  Elec       q    Type
REMARK                         _______ _______ _______ _____ _____    ______ ____
ROOT
ATOM      1  C   LIG    1       27.286 -16.241   4.378  0.00  0.00    +0.084 C 
ATOM      2  C   LIG    1       28.624 -16.966   4.614  0.00  0.00    +0.027 C 
ENDROOT
BRANCH   1   3
ATOM      3  N   LIG    1       26.637 -16.744   3.143  0.00  0.00    -0.305 NA
ATOM      4  H   LIG    1       26.056 -15.996   2.759  0.00  0.00    +0.123 HD
BRANCH   3   6
ATOM      5  C   LIG    1       24.413 -17.507   3.759  0.00  0.00    +0.027 C 
ATOM      6  C   LIG    1       25.807 -17.974   3.292  0.00  0.00    +0.088 C 
BRANCH   6   7
ATOM      7  C   LIG    1       26.296 -19.065   4.296  0.00  0.00    +0.247 C 
BRANCH   7   8
ATOM      8  O   LIG    1       25.748 -20.354   4.000  0.00  0.00    -0.490 OA
BRANCH   8   9
ATOM      9  C   LIG    1       24.740 -20.773   4.830  0.00  0.00    +0.121 A 
ATOM     10  C   LIG    1       25.137 -21.167   6.110  0.00  0.00    +0.045 A 
ATOM     11  C   LIG    1       24.190 -21.550   7.062  0.00  0.00    +0.004 A 
ATOM     12  C   LIG    1       22.839 -21.572   6.725  0.00  0.00    +0.000 A 
ATOM     13  C   LIG    1       22.444 -21.246   5.427  0.00  0.00    +0.004 A 
ATOM     14  C   LIG    1       23.393 -20.852   4.477  0.00  0.00    +0.045 A 
ENDBRANCH   8   9
ENDBRANCH   7   8
ENDBRANCH   6   7
ENDBRANCH   3   6
ENDBRANCH   1   3
BRANCH   1  15
ATOM     15  C   LIG    1       27.561 -14.686   4.354  0.00  0.00    +0.161 C 
BRANCH  15  16
ATOM     16  C   LIG    1       26.411 -13.789   3.916  0.00  0.00    -0.018 A 
ATOM     17  C   LIG    1       26.326 -13.338   2.582  0.00  0.00    +0.010 A 
ATOM     18  C   LIG    1       25.236 -12.566   2.162  0.00  0.00    +0.046 A 
ATOM     19  C   LIG    1       24.232 -12.232   3.050  0.00  0.00    +0.117 A 
ATOM     20  C   LIG    1       24.272 -12.683   4.368  0.00  0.00    +0.046 A 
ATOM     21  C   LIG    1       25.358 -13.464   4.784  0.00  0.00    +0.010 A 
BRANCH  19  22
ATOM     22  O   LIG    1       23.198 -11.455   2.605  0.00  0.00    -0.507 OA
ATOM     23  H   LIG    1       22.457 -11.547   3.219  0.00  0.00    +0.292 HD
ENDBRANCH  19  22
ENDBRANCH  15  16
BRANCH  15  24
ATOM     24  O   LIG    1       28.747 -14.393   3.602  0.00  0.00    -0.386 OA
ATOM     25  H   LIG    1       28.533 -13.621   3.046  0.00  0.00    +0.210 HD
ENDBRANCH  15  24
ENDBRANCH   1  15
TORSDOF 9
ENDMDL
MODEL 9
REMARK VINA RESULT:      -3.9      2.152      4.091
REMARK  Name = *****
REMARK                            x       y       z     vdW  Elec       q    Type
REMARK                         _______ _______ _______ _____ _____    ______ ____
ROOT
ATOM      1  C   LIG    1       23.198 -16.582   3.875  0.00  0.00    +0.084 C 
ATOM      2  C   LIG    1       22.055 -17.036   4.802  0.00  0.00    +0.027 C 
ENDROOT
BRANCH   1   3
ATOM      3  N   LIG    1       24.369 -17.480   4.024  0.00  0.00    -0.305 NA
ATOM      4  H   LIG    1       25.139 -17.097   3.471  0.00  0.00    +0.123 HD
BRANCH   3   6
ATOM      5  C   LIG    1       22.898 -19.381   4.386  0.00  0.00    +0.027 C 
ATOM      6  C   LIG    1       24.157 -18.904   3.635  0.00  0.00    +0.088 C 
BRANCH   6   7
ATOM      7  C   LIG    1       25.301 -19.921   3.945  0.00  0.00    +0.247 C 
BRANCH   7   8
ATOM      8  O   LIG    1       25.486 -20.110   5.352  0.00  0.00    -0.490 OA
BRANCH   8   9
ATOM      9  C   LIG    1       26.790 -20.186   5.772  0.00  0.00    +0.121 A 
ATOM     10  C   LIG    1       27.655 -19.233   5.228  0.00  0.00    +0.045 A 
ATOM     11  C   LIG    1       28.990 -19.173   5.632  0.00  0.00    +0.004 A 
ATOM     12  C   LIG    1       29.475 -20.090   6.562  0.00  0.00    +0.000 A 
ATOM     13  C   LIG    1       28.633 -21.086   7.055  0.00  0.00    +0.004 A 
ATOM     14  C   LIG    1       27.291 -21.139   6.657  0.00  0.00    +0.045 A 
ENDBRANCH   8   9
ENDBRANCH   7   8
ENDBRANCH   6   7
ENDBRANCH   3   6
ENDBRANCH   1   3
BRANCH   1  15
ATOM     15  C   LIG    1       23.522 -15.070   4.192  0.00  0.00    +0.161 C 
BRANCH  15  16
ATOM     16  C   LIG    1       24.966 -14.621   4.006  0.00  0.00    -0.018 A 
ATOM     17  C   LIG    1       25.589 -14.728   2.744  0.00  0.00    +0.010 A 
ATOM     18  C   LIG    1       26.894 -14.257   2.555  0.00  0.00    +0.046 A 
ATOM     19  C   LIG    1       27.591 -13.687   3.603  0.00  0.00    +0.117 A 
ATOM     20  C   LIG    1       26.995 -13.542   4.855  0.00  0.00    +0.046 A 
ATOM     21  C   LIG    1       25.686 -14.005   5.040  0.00  0.00    +0.010 A 
BRANCH  19  22
ATOM     22  O   LIG    1       28.872 -13.263   3.383  0.00  0.00    -0.507 OA
ATOM     23  H   LIG    1       28.879 -12.297   3.366  0.00  0.00    +0.292 HD
ENDBRANCH  19  22
ENDBRANCH  15  16
BRANCH  15  24
ATOM     24  O   LIG    1       23.043 -14.710   5.495  0.00  0.00    -0.386 OA
ATOM     25  H   LIG    1       23.151 -15.503   6.052  0.00  0.00    +0.210 HD
ENDBRANCH  15  24
ENDBRANCH   1  15
TORSDOF 9
ENDMDL
