MODEL 1
REMARK VINA RESULT:      -6.9      0.000      0.000
REMARK  Name = *****
REMARK                            x       y       z     vdW  Elec       q    Type
REMARK                         _______ _______ _______ _____ _____    ______ ____
ROOT
ATOM      1  C   LIG    1       29.116 -20.566   7.703  0.00  0.00    +0.164 A 
ATOM      2  C   LIG    1       28.696 -19.604   6.772  0.00  0.00    +0.162 A 
ATOM      3  C   LIG    1       27.514 -19.817   6.046  0.00  0.00    +0.062 A 
ATOM      4  C   LIG    1       26.767 -21.009   6.209  0.00  0.00    +0.044 A 
ATOM      5  C   LIG    1       27.211 -21.956   7.115  0.00  0.00    +0.082 A 
ATOM      6  N   LIG    1       26.595 -23.107   7.330  0.00  0.00    -0.214 NA
ATOM      7  C   LIG    1       25.492 -23.392   6.638  0.00  0.00    +0.220 A 
ATOM      8  N   LIG    1       24.969 -22.546   5.741  0.00  0.00    -0.199 NA
ATOM      9  C   LIG    1       25.594 -21.375   5.541  0.00  0.00    +0.129 A 
ATOM     10  C   LIG    1       28.353 -21.726   7.853  0.00  0.00    +0.078 A 
ENDROOT
BRANCH   7  11
ATOM     11  N   LIG    1       24.882 -24.621   6.886  0.00  0.00    -0.297 N 
ATOM     12  C   LIG    1       23.965 -25.068   5.805  0.00  0.00    +0.127 C 
ATOM     13  C   LIG    1       24.764 -25.716   4.650  0.00  0.00    +0.127 C 
ATOM     14  N   LIG    1       25.577 -26.812   5.196  0.00  0.00    -0.296 N 
ATOM     15  C   LIG    1       25.035 -28.094   5.155  0.00  0.00    +0.244 C 
ATOM     16  O   LIG    1       24.077 -28.359   4.407  0.00  0.00    -0.273 OA
ATOM     17  C   LIG    1       26.539 -26.351   6.212  0.00  0.00    +0.127 C 
ATOM     18  C   LIG    1       25.796 -25.666   7.382  0.00  0.00    +0.127 C 
BRANCH  15  19
ATOM     19  C   LIG    1       25.612 -29.161   6.116  0.00  0.00    +0.204 C 
ATOM     20  O   LIG    1       25.797 -30.429   5.471  0.00  0.00    -0.367 OA
ATOM     21  C   LIG    1       24.775 -31.327   5.928  0.00  0.00    +0.161 C 
ATOM     22  C   LIG    1       23.799 -30.509   6.745  0.00  0.00    +0.031 C 
ATOM     23  C   LIG    1       24.704 -29.441   7.306  0.00  0.00    +0.043 C 
ENDBRANCH  15  19
ENDBRANCH   7  11
BRANCH   9  24
ATOM     24  N   LIG    1       24.987 -20.537   4.599  0.00  0.00    -0.343 N 
ATOM     25  H   LIG    1       24.070 -20.241   4.914  0.00  0.00    +0.144 HD
ATOM     26  H   LIG    1       24.926 -21.069   3.733  0.00  0.00    +0.144 HD
ENDBRANCH   9  24
BRANCH   1  28
ATOM     27  C   LIG    1       30.956 -21.481   8.920  0.00  0.00    +0.277 C 
ATOM     28  O   LIG    1       30.249 -20.339   8.441  0.00  0.00    -0.491 OA
ENDBRANCH   1  28
BRANCH   2  29
ATOM     29  O   LIG    1       29.303 -18.409   6.488  0.00  0.00    -0.491 OA
ATOM     30  C   LIG    1       29.319 -18.022   5.119  0.00  0.00    +0.277 C 
ENDBRANCH   2  29
TORSDOF 5
ENDMDL
MODEL 2
REMARK VINA RESULT:      -6.7      3.001      8.601
REMARK  Name = *****
REMARK                            x       y       z     vdW  Elec       q    Type
REMARK                         _______ _______ _______ _____ _____    ______ ____
ROOT
ATOM      1  C   LIG    1       26.223 -30.067  10.175  0.00  0.00    +0.164 A 
ATOM      2  C   LIG    1       25.507 -31.202   9.763  0.00  0.00    +0.162 A 
ATOM      3  C   LIG    1       24.903 -31.216   8.496  0.00  0.00    +0.062 A 
ATOM      4  C   LIG    1       24.970 -30.084   7.649  0.00  0.00    +0.044 A 
ATOM      5  C   LIG    1       25.660 -28.965   8.083  0.00  0.00    +0.082 A 
ATOM      6  N   LIG    1       25.768 -27.853   7.374  0.00  0.00    -0.214 NA
ATOM      7  C   LIG    1       25.177 -27.783   6.182  0.00  0.00    +0.220 A 
ATOM      8  N   LIG    1       24.490 -28.807   5.660  0.00  0.00    -0.199 NA
ATOM      9  C   LIG    1       24.399 -29.936   6.381  0.00  0.00    +0.129 A 
ATOM     10  C   LIG    1       26.283 -28.970   9.313  0.00  0.00    +0.078 A 
ENDROOT
BRANCH   7  11
ATOM     11  N   LIG    1       25.305 -26.588   5.475  0.00  0.00    -0.297 N 
ATOM     12  C   LIG    1       24.016 -25.887   5.237  0.00  0.00    +0.127 C 
ATOM     13  C   LIG    1       23.596 -25.083   6.489  0.00  0.00    +0.127 C 
ATOM     14  N   LIG    1       24.686 -24.163   6.845  0.00  0.00    -0.296 N 
ATOM     15  C   LIG    1       24.619 -22.866   6.344  0.00  0.00    +0.244 C 
ATOM     16  O   LIG    1       23.550 -22.405   5.906  0.00  0.00    -0.273 OA
ATOM     17  C   LIG    1       25.942 -24.868   7.156  0.00  0.00    +0.127 C 
ATOM     18  C   LIG    1       26.395 -25.714   5.946  0.00  0.00    +0.127 C 
BRANCH  15  19
ATOM     19  C   LIG    1       25.926 -22.038   6.285  0.00  0.00    +0.204 C 
ATOM     20  O   LIG    1       26.886 -22.468   7.260  0.00  0.00    -0.367 OA
ATOM     21  C   LIG    1       26.934 -21.493   8.313  0.00  0.00    +0.161 C 
ATOM     22  C   LIG    1       25.806 -20.516   8.066  0.00  0.00    +0.031 C 
ATOM     23  C   LIG    1       25.702 -20.557   6.561  0.00  0.00    +0.043 C 
ENDBRANCH  15  19
ENDBRANCH   7  11
BRANCH   9  24
ATOM     24  N   LIG    1       23.676 -30.967   5.771  0.00  0.00    -0.343 N 
ATOM     25  H   LIG    1       23.336 -31.629   6.459  0.00  0.00    +0.144 HD
ATOM     26  H   LIG    1       24.308 -31.413   5.109  0.00  0.00    +0.144 HD
ENDBRANCH   9  24
BRANCH   1  28
ATOM     27  C   LIG    1       28.059 -29.328  11.512  0.00  0.00    +0.277 C 
ATOM     28  O   LIG    1       26.846 -30.070  11.396  0.00  0.00    -0.491 OA
ENDBRANCH   1  28
BRANCH   2  29
ATOM     29  O   LIG    1       25.340 -32.369  10.460  0.00  0.00    -0.491 OA
ATOM     30  C   LIG    1       25.688 -33.567   9.775  0.00  0.00    +0.277 C 
ENDBRANCH   2  29
TORSDOF 5
ENDMDL
MODEL 3
REMARK VINA RESULT:      -6.4      2.078      8.625
REMARK  Name = *****
REMARK                            x       y       z     vdW  Elec       q    Type
REMARK                         _______ _______ _______ _____ _____    ______ ____
ROOT
ATOM      1  C   LIG    1       25.497 -26.528   6.564  0.00  0.00    +0.164 A 
ATOM      2  C   LIG    1       24.647 -26.390   5.455  0.00  0.00    +0.162 A 
ATOM      3  C   LIG    1       24.415 -25.114   4.918  0.00  0.00    +0.062 A 
ATOM      4  C   LIG    1       24.992 -23.963   5.507  0.00  0.00    +0.044 A 
ATOM      5  C   LIG    1       25.808 -24.118   6.615  0.00  0.00    +0.082 A 
ATOM      6  N   LIG    1       26.382 -23.107   7.246  0.00  0.00    -0.214 NA
ATOM      7  C   LIG    1       26.164 -21.865   6.816  0.00  0.00    +0.220 A 
ATOM      8  N   LIG    1       25.399 -21.598   5.750  0.00  0.00    -0.199 NA
ATOM      9  C   LIG    1       24.833 -22.632   5.107  0.00  0.00    +0.129 A 
ATOM     10  C   LIG    1       26.062 -25.377   7.116  0.00  0.00    +0.078 A 
ENDROOT
BRANCH   7  11
ATOM     11  N   LIG    1       26.777 -20.828   7.519  0.00  0.00    -0.297 N 
ATOM     12  C   LIG    1       27.488 -21.271   8.747  0.00  0.00    +0.127 C 
ATOM     13  C   LIG    1       28.884 -21.834   8.392  0.00  0.00    +0.127 C 
ATOM     14  N   LIG    1       29.628 -20.813   7.640  0.00  0.00    -0.296 N 
ATOM     15  C   LIG    1       30.470 -19.973   8.363  0.00  0.00    +0.244 C 
ATOM     16  O   LIG    1       30.836 -20.271   9.514  0.00  0.00    -0.273 OA
ATOM     17  C   LIG    1       28.957 -20.434   6.385  0.00  0.00    +0.127 C 
ATOM     18  C   LIG    1       27.541 -19.889   6.677  0.00  0.00    +0.127 C 
BRANCH  15  19
ATOM     19  C   LIG    1       30.882 -18.626   7.722  0.00  0.00    +0.204 C 
ATOM     20  O   LIG    1       32.243 -18.279   8.014  0.00  0.00    -0.367 OA
ATOM     21  C   LIG    1       32.247 -17.219   8.982  0.00  0.00    +0.161 C 
ATOM     22  C   LIG    1       30.819 -17.043   9.452  0.00  0.00    +0.031 C 
ATOM     23  C   LIG    1       30.049 -17.452   8.221  0.00  0.00    +0.043 C 
ENDBRANCH  15  19
ENDBRANCH   7  11
BRANCH   9  24
ATOM     24  N   LIG    1       24.056 -22.282   3.998  0.00  0.00    -0.343 N 
ATOM     25  H   LIG    1       23.068 -22.293   4.228  0.00  0.00    +0.144 HD
ATOM     26  H   LIG    1       24.273 -22.955   3.266  0.00  0.00    +0.144 HD
ENDBRANCH   9  24
BRANCH   1  28
ATOM     27  C   LIG    1       26.265 -27.858   8.392  0.00  0.00    +0.277 C 
ATOM     28  O   LIG    1       25.754 -27.778   7.063  0.00  0.00    -0.491 OA
ENDBRANCH   1  28
BRANCH   2  29
ATOM     29  O   LIG    1       24.007 -27.392   4.776  0.00  0.00    -0.491 OA
ATOM     30  C   LIG    1       24.488 -28.712   5.002  0.00  0.00    +0.277 C 
ENDBRANCH   2  29
TORSDOF 5
ENDMDL
MODEL 4
REMARK VINA RESULT:      -6.4      2.859      9.307
REMARK  Name = *****
REMARK                            x       y       z     vdW  Elec       q    Type
REMARK                         _______ _______ _______ _____ _____    ______ ____
ROOT
ATOM      1  C   LIG    1       23.745 -30.862   9.321  0.00  0.00    +0.164 A 
ATOM      2  C   LIG    1       23.793 -32.044   8.566  0.00  0.00    +0.162 A 
ATOM      3  C   LIG    1       24.283 -32.004   7.251  0.00  0.00    +0.062 A 
ATOM      4  C   LIG    1       24.687 -30.780   6.664  0.00  0.00    +0.044 A 
ATOM      5  C   LIG    1       24.609 -29.622   7.418  0.00  0.00    +0.082 A 
ATOM      6  N   LIG    1       24.947 -28.428   6.959  0.00  0.00    -0.214 NA
ATOM      7  C   LIG    1       25.375 -28.313   5.702  0.00  0.00    +0.220 A 
ATOM      8  N   LIG    1       25.497 -29.368   4.886  0.00  0.00    -0.199 NA
ATOM      9  C   LIG    1       25.166 -30.577   5.367  0.00  0.00    +0.129 A 
ATOM     10  C   LIG    1       24.161 -29.672   8.721  0.00  0.00    +0.078 A 
ENDROOT
BRANCH   7  11
ATOM     11  N   LIG    1       25.708 -27.035   5.255  0.00  0.00    -0.297 N 
ATOM     12  C   LIG    1       24.542 -26.231   4.804  0.00  0.00    +0.127 C 
ATOM     13  C   LIG    1       23.817 -25.601   6.015  0.00  0.00    +0.127 C 
ATOM     14  N   LIG    1       24.787 -24.812   6.788  0.00  0.00    -0.296 N 
ATOM     15  C   LIG    1       24.878 -23.452   6.502  0.00  0.00    +0.244 C 
ATOM     16  O   LIG    1       23.973 -22.868   5.880  0.00  0.00    -0.273 OA
ATOM     17  C   LIG    1       25.902 -25.628   7.298  0.00  0.00    +0.127 C 
ATOM     18  C   LIG    1       26.648 -26.309   6.129  0.00  0.00    +0.127 C 
BRANCH  15  19
ATOM     19  C   LIG    1       26.167 -22.704   6.920  0.00  0.00    +0.204 C 
ATOM     20  O   LIG    1       26.253 -22.522   8.341  0.00  0.00    -0.367 OA
ATOM     21  C   LIG    1       25.983 -21.145   8.642  0.00  0.00    +0.161 C 
ATOM     22  C   LIG    1       25.515 -20.494   7.359  0.00  0.00    +0.031 C 
ATOM     23  C   LIG    1       26.259 -21.305   6.326  0.00  0.00    +0.043 C 
ENDBRANCH  15  19
ENDBRANCH   7  11
BRANCH   9  24
ATOM     24  N   LIG    1       25.327 -31.633   4.464  0.00  0.00    -0.343 N 
ATOM     25  H   LIG    1       24.463 -31.825   3.970  0.00  0.00    +0.144 HD
ATOM     26  H   LIG    1       25.628 -32.439   5.009  0.00  0.00    +0.144 HD
ENDBRANCH   9  24
BRANCH   1  28
ATOM     27  C   LIG    1       21.949 -30.533  10.861  0.00  0.00    +0.277 C 
ATOM     28  O   LIG    1       23.304 -30.909  10.618  0.00  0.00    -0.491 OA
ENDBRANCH   1  28
BRANCH   2  29
ATOM     29  O   LIG    1       23.435 -33.301   8.976  0.00  0.00    -0.491 OA
ATOM     30  C   LIG    1       22.091 -33.689   8.716  0.00  0.00    +0.277 C 
ENDBRANCH   2  29
TORSDOF 5
ENDMDL
MODEL 5
REMARK VINA RESULT:      -6.1      3.665      9.462
REMARK  Name = *****
REMARK                            x       y       z     vdW  Elec       q    Type
REMARK                         _______ _______ _______ _____ _____    ______ ____
ROOT
ATOM      1  C   LIG    1       24.275 -22.645   6.551  0.00  0.00    +0.164 A 
ATOM      2  C   LIG    1       23.794 -21.814   5.529  0.00  0.00    +0.162 A 
ATOM      3  C   LIG    1       24.631 -20.824   4.992  0.00  0.00    +0.062 A 
ATOM      4  C   LIG    1       25.938 -20.625   5.500  0.00  0.00    +0.044 A 
ATOM      5  C   LIG    1       26.386 -21.441   6.525  0.00  0.00    +0.082 A 
ATOM      6  N   LIG    1       27.582 -21.327   7.079  0.00  0.00    -0.214 NA
ATOM      7  C   LIG    1       28.410 -20.376   6.647  0.00  0.00    +0.220 A 
ATOM      8  N   LIG    1       28.084 -19.536   5.656  0.00  0.00    -0.199 NA
ATOM      9  C   LIG    1       26.873 -19.669   5.091  0.00  0.00    +0.129 A 
ATOM     10  C   LIG    1       25.573 -22.436   7.024  0.00  0.00    +0.078 A 
ENDROOT
BRANCH   7  11
ATOM     11  N   LIG    1       29.655 -20.283   7.267  0.00  0.00    -0.297 N 
ATOM     12  C   LIG    1       30.595 -19.348   6.595  0.00  0.00    +0.127 C 
ATOM     13  C   LIG    1       30.298 -17.888   7.010  0.00  0.00    +0.127 C 
ATOM     14  N   LIG    1       30.353 -17.795   8.476  0.00  0.00    -0.296 N 
ATOM     15  C   LIG    1       31.562 -17.406   9.048  0.00  0.00    +0.244 C 
ATOM     16  O   LIG    1       32.440 -16.848   8.367  0.00  0.00    -0.273 OA
ATOM     17  C   LIG    1       29.366 -18.667   9.137  0.00  0.00    +0.127 C 
ATOM     18  C   LIG    1       29.598 -20.140   8.733  0.00  0.00    +0.127 C 
BRANCH  15  19
ATOM     19  C   LIG    1       31.808 -17.750  10.537  0.00  0.00    +0.204 C 
ATOM     20  O   LIG    1       30.708 -17.366  11.373  0.00  0.00    -0.367 OA
ATOM     21  C   LIG    1       31.089 -16.201  12.121  0.00  0.00    +0.161 C 
ATOM     22  C   LIG    1       32.418 -15.735  11.571  0.00  0.00    +0.031 C 
ATOM     23  C   LIG    1       33.025 -17.039  11.116  0.00  0.00    +0.043 C 
ENDBRANCH  15  19
ENDBRANCH   7  11
BRANCH   9  24
ATOM     24  N   LIG    1       26.604 -18.767   4.057  0.00  0.00    -0.343 N 
ATOM     25  H   LIG    1       25.862 -18.127   4.316  0.00  0.00    +0.144 HD
ATOM     26  H   LIG    1       26.346 -19.324   3.244  0.00  0.00    +0.144 HD
ENDBRANCH   9  24
BRANCH   1  28
ATOM     27  C   LIG    1       23.620 -24.941   6.487  0.00  0.00    +0.277 C 
ATOM     28  O   LIG    1       23.470 -23.638   7.047  0.00  0.00    -0.491 OA
ENDBRANCH   1  28
BRANCH   2  29
ATOM     29  O   LIG    1       22.560 -21.866   4.934  0.00  0.00    -0.491 OA
ATOM     30  C   LIG    1       21.941 -20.614   4.660  0.00  0.00    +0.277 C 
ENDBRANCH   2  29
TORSDOF 5
ENDMDL
MODEL 6
REMARK VINA RESULT:      -6.0      2.578      9.432
REMARK  Name = *****
REMARK                            x       y       z     vdW  Elec       q    Type
REMARK                         _______ _______ _______ _____ _____    ______ ____
ROOT
ATOM      1  C   LIG    1       23.701 -32.079   6.687  0.00  0.00    +0.164 A 
ATOM      2  C   LIG    1       24.289 -32.271   7.946  0.00  0.00    +0.162 A 
ATOM      3  C   LIG    1       24.985 -31.213   8.551  0.00  0.00    +0.062 A 
ATOM      4  C   LIG    1       25.138 -29.972   7.887  0.00  0.00    +0.044 A 
ATOM      5  C   LIG    1       24.570 -29.811   6.635  0.00  0.00    +0.082 A 
ATOM      6  N   LIG    1       24.668 -28.697   5.926  0.00  0.00    -0.214 NA
ATOM      7  C   LIG    1       25.357 -27.670   6.423  0.00  0.00    +0.220 A 
ATOM      8  N   LIG    1       25.941 -27.712   7.627  0.00  0.00    -0.199 NA
ATOM      9  C   LIG    1       25.823 -28.841   8.345  0.00  0.00    +0.129 A 
ATOM     10  C   LIG    1       23.857 -30.841   6.061  0.00  0.00    +0.078 A 
ENDROOT
BRANCH   7  11
ATOM     11  N   LIG    1       25.446 -26.521   5.638  0.00  0.00    -0.297 N 
ATOM     12  C   LIG    1       24.133 -25.896   5.333  0.00  0.00    +0.127 C 
ATOM     13  C   LIG    1       23.656 -25.028   6.520  0.00  0.00    +0.127 C 
ATOM     14  N   LIG    1       24.698 -24.039   6.830  0.00  0.00    -0.296 N 
ATOM     15  C   LIG    1       24.584 -22.783   6.240  0.00  0.00    +0.244 C 
ATOM     16  O   LIG    1       23.505 -22.400   5.755  0.00  0.00    -0.273 OA
ATOM     17  C   LIG    1       25.978 -24.665   7.207  0.00  0.00    +0.127 C 
ATOM     18  C   LIG    1       26.489 -25.570   6.065  0.00  0.00    +0.127 C 
BRANCH  15  19
ATOM     19  C   LIG    1       25.855 -21.904   6.144  0.00  0.00    +0.204 C 
ATOM     20  O   LIG    1       26.849 -22.279   7.108  0.00  0.00    -0.367 OA
ATOM     21  C   LIG    1       26.877 -21.287   8.145  0.00  0.00    +0.161 C 
ATOM     22  C   LIG    1       25.705 -20.361   7.905  0.00  0.00    +0.031 C 
ATOM     23  C   LIG    1       25.576 -20.429   6.403  0.00  0.00    +0.043 C 
ENDBRANCH  15  19
ENDBRANCH   7  11
BRANCH   9  24
ATOM     24  N   LIG    1       26.448 -28.812   9.596  0.00  0.00    -0.343 N 
ATOM     25  H   LIG    1       27.397 -28.464   9.520  0.00  0.00    +0.144 HD
ATOM     26  H   LIG    1       26.431 -29.765   9.952  0.00  0.00    +0.144 HD
ENDBRANCH   9  24
BRANCH   1  28
ATOM     27  C   LIG    1       23.374 -33.513   4.805  0.00  0.00    +0.277 C 
ATOM     28  O   LIG    1       22.987 -33.100   6.114  0.00  0.00    -0.491 OA
ENDBRANCH   1  28
BRANCH   2  29
ATOM     29  O   LIG    1       24.244 -33.404   8.715  0.00  0.00    -0.491 OA
ATOM     30  C   LIG    1       25.466 -33.798   9.328  0.00  0.00    +0.277 C 
ENDBRANCH   2  29
TORSDOF 5
ENDMDL
MODEL 7
REMARK VINA RESULT:      -5.8      4.995      9.655
REMARK  Name = *****
REMARK                            x       y       z     vdW  Elec       q    Type
REMARK                         _______ _______ _______ _____ _____    ______ ____
ROOT
ATOM      1  C   LIG    1       25.499 -19.911   4.448  0.00  0.00    +0.164 A 
ATOM      2  C   LIG    1       24.688 -20.830   5.132  0.00  0.00    +0.162 A 
ATOM      3  C   LIG    1       25.172 -21.442   6.300  0.00  0.00    +0.062 A 
ATOM      4  C   LIG    1       26.481 -21.176   6.769  0.00  0.00    +0.044 A 
ATOM      5  C   LIG    1       27.274 -20.285   6.065  0.00  0.00    +0.082 A 
ATOM      6  N   LIG    1       28.514 -19.981   6.411  0.00  0.00    -0.214 NA
ATOM      7  C   LIG    1       29.051 -20.563   7.483  0.00  0.00    +0.220 A 
ATOM      8  N   LIG    1       28.374 -21.435   8.241  0.00  0.00    -0.199 NA
ATOM      9  C   LIG    1       27.110 -21.725   7.890  0.00  0.00    +0.129 A 
ATOM     10  C   LIG    1       26.781 -19.659   4.940  0.00  0.00    +0.078 A 
ENDROOT
BRANCH   7  11
ATOM     11  N   LIG    1       30.365 -20.224   7.804  0.00  0.00    -0.297 N 
ATOM     12  C   LIG    1       30.917 -19.113   6.986  0.00  0.00    +0.127 C 
ATOM     13  C   LIG    1       30.447 -17.747   7.539  0.00  0.00    +0.127 C 
ATOM     14  N   LIG    1       30.828 -17.655   8.955  0.00  0.00    -0.296 N 
ATOM     15  C   LIG    1       32.038 -17.034   9.254  0.00  0.00    +0.244 C 
ATOM     16  O   LIG    1       32.604 -16.304   8.421  0.00  0.00    -0.273 OA
ATOM     17  C   LIG    1       30.215 -18.714   9.776  0.00  0.00    +0.127 C 
ATOM     18  C   LIG    1       30.628 -20.107   9.250  0.00  0.00    +0.127 C 
BRANCH  15  19
ATOM     19  C   LIG    1       32.692 -17.332  10.625  0.00  0.00    +0.204 C 
ATOM     20  O   LIG    1       31.833 -18.098  11.481  0.00  0.00    -0.367 OA
ATOM     21  C   LIG    1       31.318 -17.232  12.504  0.00  0.00    +0.161 C 
ATOM     22  C   LIG    1       31.727 -15.822  12.140  0.00  0.00    +0.031 C 
ATOM     23  C   LIG    1       33.024 -16.069  11.410  0.00  0.00    +0.043 C 
ENDBRANCH  15  19
ENDBRANCH   7  11
BRANCH   9  24
ATOM     24  N   LIG    1       26.460 -22.634   8.732  0.00  0.00    -0.343 N 
ATOM     25  H   LIG    1       25.514 -22.331   8.933  0.00  0.00    +0.144 HD
ATOM     26  H   LIG    1       27.017 -22.694   9.582  0.00  0.00    +0.144 HD
ENDBRANCH   9  24
BRANCH   1  28
ATOM     27  C   LIG    1       25.389 -17.925   3.127  0.00  0.00    +0.277 C 
ATOM     28  O   LIG    1       25.011 -19.285   3.331  0.00  0.00    -0.491 OA
ENDBRANCH   1  28
BRANCH   2  29
ATOM     29  O   LIG    1       23.410 -21.203   4.811  0.00  0.00    -0.491 OA
ATOM     30  C   LIG    1       22.403 -20.213   4.985  0.00  0.00    +0.277 C 
ENDBRANCH   2  29
TORSDOF 5
ENDMDL
MODEL 8
REMARK VINA RESULT:      -5.5      7.110      8.124
REMARK  Name = *****
REMARK                            x       y       z     vdW  Elec       q    Type
REMARK                         _______ _______ _______ _____ _____    ______ ____
ROOT
ATOM      1  C   LIG    1       24.928 -26.510  14.016  0.00  0.00    +0.164 A 
ATOM      2  C   LIG    1       26.306 -26.375  14.248  0.00  0.00    +0.162 A 
ATOM      3  C   LIG    1       27.204 -27.228  13.588  0.00  0.00    +0.062 A 
ATOM      4  C   LIG    1       26.735 -28.250  12.728  0.00  0.00    +0.044 A 
ATOM      5  C   LIG    1       25.371 -28.382  12.531  0.00  0.00    +0.082 A 
ATOM      6  N   LIG    1       24.831 -29.313  11.761  0.00  0.00    -0.214 NA
ATOM      7  C   LIG    1       25.626 -30.185  11.143  0.00  0.00    +0.220 A 
ATOM      8  N   LIG    1       26.960 -30.146  11.255  0.00  0.00    -0.199 NA
ATOM      9  C   LIG    1       27.498 -29.189  12.028  0.00  0.00    +0.129 A 
ATOM     10  C   LIG    1       24.495 -27.518  13.153  0.00  0.00    +0.078 A 
ENDROOT
BRANCH   7  11
ATOM     11  N   LIG    1       25.015 -31.157  10.351  0.00  0.00    -0.297 N 
ATOM     12  C   LIG    1       23.877 -30.648   9.542  0.00  0.00    +0.127 C 
ATOM     13  C   LIG    1       24.391 -29.950   8.261  0.00  0.00    +0.127 C 
ATOM     14  N   LIG    1       25.239 -30.893   7.518  0.00  0.00    -0.296 N 
ATOM     15  C   LIG    1       24.634 -31.648   6.517  0.00  0.00    +0.244 C 
ATOM     16  O   LIG    1       23.532 -31.315   6.045  0.00  0.00    -0.273 OA
ATOM     17  C   LIG    1       26.409 -31.336   8.297  0.00  0.00    +0.127 C 
ATOM     18  C   LIG    1       25.955 -32.017   9.608  0.00  0.00    +0.127 C 
BRANCH  15  19
ATOM     19  C   LIG    1       25.336 -32.948   6.058  0.00  0.00    +0.204 C 
ATOM     20  O   LIG    1       26.505 -32.684   5.269  0.00  0.00    -0.367 OA
ATOM     21  C   LIG    1       26.206 -32.981   3.897  0.00  0.00    +0.161 C 
ATOM     22  C   LIG    1       24.721 -33.254   3.815  0.00  0.00    +0.031 C 
ATOM     23  C   LIG    1       24.448 -33.824   5.185  0.00  0.00    +0.043 C 
ENDBRANCH  15  19
ENDBRANCH   7  11
BRANCH   9  24
ATOM     24  N   LIG    1       28.896 -29.201  12.092  0.00  0.00    -0.343 N 
ATOM     25  H   LIG    1       29.303 -29.056  11.175  0.00  0.00    +0.144 HD
ATOM     26  H   LIG    1       29.162 -30.106  12.476  0.00  0.00    +0.144 HD
ENDBRANCH   9  24
BRANCH   1  28
ATOM     27  C   LIG    1       23.002 -26.229  15.399  0.00  0.00    +0.277 C 
ATOM     28  O   LIG    1       24.055 -25.650  14.630  0.00  0.00    -0.491 OA
ENDBRANCH   1  28
BRANCH   2  29
ATOM     29  O   LIG    1       26.921 -25.451  15.051  0.00  0.00    -0.491 OA
ATOM     30  C   LIG    1       27.916 -24.643  14.433  0.00  0.00    +0.277 C 
ENDBRANCH   2  29
TORSDOF 5
ENDMDL
MODEL 9
REMARK VINA RESULT:      -5.4      2.446      3.795
REMARK  Name = *****
REMARK                            x       y       z     vdW  Elec       q    Type
REMARK                         _______ _______ _______ _____ _____    ______ ____
ROOT
ATOM      1  C   LIG    1       23.667 -19.570   3.867  0.00  0.00    +0.164 A 
ATOM      2  C   LIG    1       24.896 -18.908   4.015  0.00  0.00    +0.162 A 
ATOM      3  C   LIG    1       25.930 -19.526   4.736  0.00  0.00    +0.062 A 
ATOM      4  C   LIG    1       25.733 -20.786   5.351  0.00  0.00    +0.044 A 
ATOM      5  C   LIG    1       24.505 -21.411   5.213  0.00  0.00    +0.082 A 
ATOM      6  N   LIG    1       24.216 -22.580   5.761  0.00  0.00    -0.214 NA
ATOM      7  C   LIG    1       25.138 -23.198   6.498  0.00  0.00    +0.220 A 
ATOM      8  N   LIG    1       26.361 -22.689   6.692  0.00  0.00    -0.199 NA
ATOM      9  C   LIG    1       26.650 -21.510   6.120  0.00  0.00    +0.129 A 
ATOM     10  C   LIG    1       23.505 -20.817   4.474  0.00  0.00    +0.078 A 
ENDROOT
BRANCH   7  11
ATOM     11  N   LIG    1       24.787 -24.421   7.067  0.00  0.00    -0.297 N 
ATOM     12  C   LIG    1       23.621 -25.076   6.418  0.00  0.00    +0.127 C 
ATOM     13  C   LIG    1       24.061 -25.818   5.134  0.00  0.00    +0.127 C 
ATOM     14  N   LIG    1       25.127 -26.769   5.481  0.00  0.00    -0.296 N 
ATOM     15  C   LIG    1       24.749 -28.079   5.762  0.00  0.00    +0.244 C 
ATOM     16  O   LIG    1       23.634 -28.510   5.418  0.00  0.00    -0.273 OA
ATOM     17  C   LIG    1       26.312 -26.106   6.053  0.00  0.00    +0.127 C 
ATOM     18  C   LIG    1       25.925 -25.322   7.327  0.00  0.00    +0.127 C 
BRANCH  15  19
ATOM     19  C   LIG    1       25.728 -28.962   6.574  0.00  0.00    +0.204 C 
ATOM     20  O   LIG    1       25.646 -30.345   6.204  0.00  0.00    -0.367 OA
ATOM     21  C   LIG    1       24.964 -31.057   7.246  0.00  0.00    +0.161 C 
ATOM     22  C   LIG    1       24.428 -30.024   8.212  0.00  0.00    +0.031 C 
ATOM     23  C   LIG    1       25.454 -28.927   8.072  0.00  0.00    +0.043 C 
ENDBRANCH  15  19
ENDBRANCH   7  11
BRANCH   9  24
ATOM     24  N   LIG    1       27.948 -21.043   6.355  0.00  0.00    -0.343 N 
ATOM     25  H   LIG    1       27.965 -20.031   6.413  0.00  0.00    +0.144 HD
ATOM     26  H   LIG    1       28.522 -21.379   5.585  0.00  0.00    +0.144 HD
ENDBRANCH   9  24
BRANCH   1  28
ATOM     27  C   LIG    1       21.579 -18.411   3.846  0.00  0.00    +0.277 C 
ATOM     28  O   LIG    1       22.671 -18.983   3.129  0.00  0.00    -0.491 OA
ENDBRANCH   1  28
BRANCH   2  29
ATOM     29  O   LIG    1       25.246 -17.690   3.495  0.00  0.00    -0.491 OA
ATOM     30  C   LIG    1       26.634 -17.379   3.501  0.00  0.00    +0.277 C 
ENDBRANCH   2  29
TORSDOF 5
ENDMDL
