MODEL 1
REMARK VINA RESULT:      -8.4      0.000      0.000
REMARK  Name = *****
REMARK                            x       y       z     vdW  Elec       q    Type
REMARK                         _______ _______ _______ _____ _____    ______ ____
ROOT
ATOM      1  C   LIG    1       28.060 -19.981   5.916  0.00  0.00    +0.287 C 
ENDROOT
BRANCH   1   2
ATOM      2  N   LIG    1       26.891 -20.369   6.674  0.00  0.00    -0.291 N 
ATOM      3  C   LIG    1       25.699 -20.806   6.175  0.00  0.00    +0.171 A 
ATOM      4  N   LIG    1       25.357 -20.937   4.872  0.00  0.00    -0.196 NA
ATOM      5  C   LIG    1       24.142 -21.373   4.697  0.00  0.00    +0.195 C 
ATOM      6  N   LIG    1       23.284 -21.705   5.733  0.00  0.00    -0.293 N 
ATOM      7  H   LIG    1       22.377 -22.092   5.530  0.00  0.00    +0.172 HD
ATOM      8  C   LIG    1       23.597 -21.603   7.083  0.00  0.00    +0.280 C 
ATOM      9  O   LIG    1       22.803 -21.938   7.961  0.00  0.00    -0.265 OA
ATOM     10  C   LIG    1       24.929 -21.085   7.291  0.00  0.00    +0.172 A 
ATOM     11  N   LIG    1       25.597 -20.761   8.446  0.00  0.00    -0.229 NA
ATOM     12  C   LIG    1       26.769 -20.325   8.040  0.00  0.00    +0.203 A 
BRANCH   5  13
ATOM     13  N   LIG    1       23.651 -21.526   3.442  0.00  0.00    -0.329 N 
ATOM     14  H   LIG    1       24.225 -21.167   2.691  0.00  0.00    +0.145 HD
ATOM     15  H   LIG    1       23.349 -22.482   3.275  0.00  0.00    +0.145 HD
ENDBRANCH   5  13
ENDBRANCH   1   2
BRANCH   1  16
ATOM     16  O   LIG    1       29.210 -20.473   6.598  0.00  0.00    -0.356 OA
BRANCH  16  17
ATOM     17  C   LIG    1       30.315 -19.572   6.505  0.00  0.00    +0.203 C 
BRANCH  17  18
ATOM     18  C   LIG    1       30.145 -18.463   7.545  0.00  0.00    +0.260 C 
BRANCH  18  19
ATOM     19  O   LIG    1       31.395 -17.845   7.899  0.00  0.00    -0.461 OA
BRANCH  19  20
ATOM     20  C   LIG    1       31.943 -18.217   9.087  0.00  0.00    +0.324 C 
ATOM     21  O   LIG    1       32.146 -19.380   9.421  0.00  0.00    -0.249 OA
BRANCH  20  22
ATOM     22  C   LIG    1       32.456 -16.992   9.880  0.00  0.00    +0.163 C 
BRANCH  22  24
ATOM     23  C   LIG    1       32.143 -16.632  12.405  0.00  0.00    +0.009 C 
ATOM     24  C   LIG    1       31.500 -16.540  11.014  0.00  0.00    +0.011 C 
ATOM     25  C   LIG    1       30.215 -17.378  11.029  0.00  0.00    +0.009 C 
ENDBRANCH  22  24
BRANCH  22  26
ATOM     26  N   LIG    1       32.700 -15.891   8.915  0.00  0.00    -0.318 NA
ATOM     27  H   LIG    1       32.238 -15.047   9.261  0.00  0.00    +0.119 HD
ATOM     28  H   LIG    1       33.699 -15.682   8.904  0.00  0.00    +0.119 HD
ENDBRANCH  22  26
ENDBRANCH  20  22
ENDBRANCH  19  20
ENDBRANCH  18  19
ENDBRANCH  17  18
ENDBRANCH  16  17
ENDBRANCH   1  16
TORSDOF 10
ENDMDL
MODEL 2
REMARK VINA RESULT:      -8.4      1.327      1.385
REMARK  Name = *****
REMARK                            x       y       z     vdW  Elec       q    Type
REMARK                         _______ _______ _______ _____ _____    ______ ____
ROOT
ATOM      1  C   LIG    1       27.337 -20.301   6.164  0.00  0.00    +0.287 C 
ENDROOT
BRANCH   1   2
ATOM      2  N   LIG    1       26.431 -21.377   6.497  0.00  0.00    -0.291 N 
ATOM      3  C   LIG    1       25.095 -21.439   6.221  0.00  0.00    +0.171 A 
ATOM      4  N   LIG    1       24.344 -20.495   5.608  0.00  0.00    -0.196 NA
ATOM      5  C   LIG    1       23.091 -20.831   5.486  0.00  0.00    +0.195 C 
ATOM      6  N   LIG    1       22.571 -22.043   5.910  0.00  0.00    -0.293 N 
ATOM      7  H   LIG    1       21.605 -22.265   5.734  0.00  0.00    +0.172 HD
ATOM      8  C   LIG    1       23.307 -23.046   6.528  0.00  0.00    +0.280 C 
ATOM      9  O   LIG    1       22.797 -24.115   6.860  0.00  0.00    -0.265 OA
ATOM     10  C   LIG    1       24.691 -22.672   6.702  0.00  0.00    +0.172 A 
ATOM     11  N   LIG    1       25.728 -23.324   7.324  0.00  0.00    -0.229 NA
ATOM     12  C   LIG    1       26.755 -22.516   7.192  0.00  0.00    +0.203 A 
BRANCH   5  13
ATOM     13  N   LIG    1       22.211 -19.970   4.916  0.00  0.00    -0.329 N 
ATOM     14  H   LIG    1       21.287 -20.335   4.727  0.00  0.00    +0.145 HD
ATOM     15  H   LIG    1       22.183 -19.084   5.413  0.00  0.00    +0.145 HD
ENDBRANCH   5  13
ENDBRANCH   1   2
BRANCH   1  16
ATOM     16  O   LIG    1       28.596 -20.585   6.768  0.00  0.00    -0.356 OA
BRANCH  16  17
ATOM     17  C   LIG    1       29.116 -19.459   7.478  0.00  0.00    +0.203 C 
BRANCH  17  18
ATOM     18  C   LIG    1       30.550 -19.195   7.016  0.00  0.00    +0.260 C 
BRANCH  18  19
ATOM     19  O   LIG    1       31.177 -18.128   7.751  0.00  0.00    -0.461 OA
BRANCH  19  20
ATOM     20  C   LIG    1       31.821 -18.476   8.897  0.00  0.00    +0.324 C 
ATOM     21  O   LIG    1       32.175 -19.617   9.174  0.00  0.00    -0.249 OA
BRANCH  20  22
ATOM     22  C   LIG    1       32.222 -17.227   9.719  0.00  0.00    +0.163 C 
BRANCH  22  24
ATOM     23  C   LIG    1       31.614 -16.228  12.006  0.00  0.00    +0.009 C 
ATOM     24  C   LIG    1       31.094 -16.699  10.641  0.00  0.00    +0.011 C 
ATOM     25  C   LIG    1       30.024 -17.772  10.886  0.00  0.00    +0.009 C 
ENDBRANCH  22  24
BRANCH  22  26
ATOM     26  N   LIG    1       32.672 -16.180   8.770  0.00  0.00    -0.318 NA
ATOM     27  H   LIG    1       33.333 -16.600   8.111  0.00  0.00    +0.119 HD
ATOM     28  H   LIG    1       31.872 -15.878   8.212  0.00  0.00    +0.119 HD
ENDBRANCH  22  26
ENDBRANCH  20  22
ENDBRANCH  19  20
ENDBRANCH  18  19
ENDBRANCH  17  18
ENDBRANCH  16  17
ENDBRANCH   1  16
TORSDOF 10
ENDMDL
MODEL 3
REMARK VINA RESULT:      -8.4      2.972      8.050
REMARK  Name = *****
REMARK                            x       y       z     vdW  Elec       q    Type
REMARK                         _______ _______ _______ _____ _____    ______ ____
ROOT
ATOM      1  C   LIG    1       26.617 -22.500   7.861  0.00  0.00    +0.287 C 
ENDROOT
BRANCH   1   2
ATOM      2  N   LIG    1       27.322 -21.423   7.203  0.00  0.00    -0.291 N 
ATOM      3  C   LIG    1       28.602 -21.015   7.442  0.00  0.00    +0.171 A 
ATOM      4  N   LIG    1       29.461 -21.515   8.360  0.00  0.00    -0.196 NA
ATOM      5  C   LIG    1       30.620 -20.919   8.363  0.00  0.00    +0.195 C 
ATOM      6  N   LIG    1       30.964 -19.895   7.496  0.00  0.00    -0.293 N 
ATOM      7  H   LIG    1       31.896 -19.515   7.511  0.00  0.00    +0.172 HD
ATOM      8  C   LIG    1       30.122 -19.362   6.528  0.00  0.00    +0.280 C 
ATOM      9  O   LIG    1       30.490 -18.469   5.767  0.00  0.00    -0.265 OA
ATOM     10  C   LIG    1       28.820 -19.989   6.539  0.00  0.00    +0.172 A 
ATOM     11  N   LIG    1       27.686 -19.719   5.814  0.00  0.00    -0.229 NA
ATOM     12  C   LIG    1       26.802 -20.591   6.244  0.00  0.00    +0.203 A 
BRANCH   5  13
ATOM     13  N   LIG    1       31.573 -21.296   9.251  0.00  0.00    -0.329 N 
ATOM     14  H   LIG    1       31.369 -22.118   9.804  0.00  0.00    +0.145 HD
ATOM     15  H   LIG    1       32.491 -21.340   8.816  0.00  0.00    +0.145 HD
ENDBRANCH   5  13
ENDBRANCH   1   2
BRANCH   1  16
ATOM     16  O   LIG    1       26.464 -23.562   6.924  0.00  0.00    -0.356 OA
BRANCH  16  17
ATOM     17  C   LIG    1       25.220 -24.247   7.089  0.00  0.00    +0.203 C 
BRANCH  17  18
ATOM     18  C   LIG    1       24.161 -23.579   6.211  0.00  0.00    +0.260 C 
BRANCH  18  19
ATOM     19  O   LIG    1       23.216 -22.811   6.977  0.00  0.00    -0.461 OA
BRANCH  19  20
ATOM     20  C   LIG    1       23.199 -21.469   6.754  0.00  0.00    +0.324 C 
ATOM     21  O   LIG    1       23.432 -20.622   7.610  0.00  0.00    -0.249 OA
BRANCH  20  22
ATOM     22  C   LIG    1       23.042 -21.150   5.248  0.00  0.00    +0.163 C 
BRANCH  22  24
ATOM     23  C   LIG    1       22.202 -18.824   4.553  0.00  0.00    +0.009 C 
ATOM     24  C   LIG    1       23.424 -19.695   4.877  0.00  0.00    +0.011 C 
ATOM     25  C   LIG    1       24.369 -19.656   3.668  0.00  0.00    +0.009 C 
ENDBRANCH  22  24
BRANCH  22  26
ATOM     26  N   LIG    1       21.642 -21.451   4.861  0.00  0.00    -0.318 NA
ATOM     27  H   LIG    1       21.203 -21.986   5.614  0.00  0.00    +0.119 HD
ATOM     28  H   LIG    1       21.123 -20.574   4.799  0.00  0.00    +0.119 HD
ENDBRANCH  22  26
ENDBRANCH  20  22
ENDBRANCH  19  20
ENDBRANCH  18  19
ENDBRANCH  17  18
ENDBRANCH  16  17
ENDBRANCH   1  16
TORSDOF 10
ENDMDL
MODEL 4
REMARK VINA RESULT:      -8.3      2.309      2.732
REMARK  Name = *****
REMARK                            x       y       z     vdW  Elec       q    Type
REMARK                         _______ _______ _______ _____ _____    ______ ____
ROOT
ATOM      1  C   LIG    1       27.431 -21.248   7.738  0.00  0.00    +0.287 C 
ENDROOT
BRANCH   1   2
ATOM      2  N   LIG    1       26.041 -21.607   7.558  0.00  0.00    -0.291 N 
ATOM      3  C   LIG    1       25.554 -22.807   7.126  0.00  0.00    +0.171 A 
ATOM      4  N   LIG    1       26.270 -23.891   6.750  0.00  0.00    -0.196 NA
ATOM      5  C   LIG    1       25.530 -24.896   6.377  0.00  0.00    +0.195 C 
ATOM      6  N   LIG    1       24.145 -24.881   6.388  0.00  0.00    -0.293 N 
ATOM      7  H   LIG    1       23.631 -25.710   6.142  0.00  0.00    +0.172 HD
ATOM      8  C   LIG    1       23.369 -23.797   6.781  0.00  0.00    +0.280 C 
ATOM      9  O   LIG    1       22.140 -23.849   6.796  0.00  0.00    -0.265 OA
ATOM     10  C   LIG    1       24.178 -22.663   7.163  0.00  0.00    +0.172 A 
ATOM     11  N   LIG    1       23.823 -21.390   7.535  0.00  0.00    -0.229 NA
ATOM     12  C   LIG    1       24.965 -20.779   7.755  0.00  0.00    +0.203 A 
BRANCH   5  13
ATOM     13  N   LIG    1       26.111 -26.043   5.946  0.00  0.00    -0.329 N 
ATOM     14  H   LIG    1       27.068 -25.967   5.627  0.00  0.00    +0.145 HD
ATOM     15  H   LIG    1       25.985 -26.798   6.614  0.00  0.00    +0.145 HD
ENDBRANCH   5  13
ENDBRANCH   1   2
BRANCH   1  16
ATOM     16  O   LIG    1       27.665 -20.033   7.032  0.00  0.00    -0.356 OA
BRANCH  16  17
ATOM     17  C   LIG    1       28.692 -20.174   6.048  0.00  0.00    +0.203 C 
BRANCH  17  18
ATOM     18  C   LIG    1       29.211 -18.786   5.667  0.00  0.00    +0.260 C 
BRANCH  18  19
ATOM     19  O   LIG    1       29.983 -18.179   6.718  0.00  0.00    -0.461 OA
BRANCH  19  20
ATOM     20  C   LIG    1       30.926 -18.961   7.310  0.00  0.00    +0.324 C 
ATOM     21  O   LIG    1       31.847 -19.506   6.711  0.00  0.00    -0.249 OA
BRANCH  20  22
ATOM     22  C   LIG    1       30.807 -18.919   8.852  0.00  0.00    +0.163 C 
BRANCH  22  24
ATOM     23  C   LIG    1       32.111 -16.748   9.284  0.00  0.00    +0.009 C 
ATOM     24  C   LIG    1       30.772 -17.483   9.435  0.00  0.00    +0.011 C 
ATOM     25  C   LIG    1       30.401 -17.492  10.924  0.00  0.00    +0.009 C 
ENDBRANCH  22  24
BRANCH  22  26
ATOM     26  N   LIG    1       31.934 -19.699   9.419  0.00  0.00    -0.318 NA
ATOM     27  H   LIG    1       32.003 -20.586   8.914  0.00  0.00    +0.119 HD
ATOM     28  H   LIG    1       32.805 -19.200   9.232  0.00  0.00    +0.119 HD
ENDBRANCH  22  26
ENDBRANCH  20  22
ENDBRANCH  19  20
ENDBRANCH  18  19
ENDBRANCH  17  18
ENDBRANCH  16  17
ENDBRANCH   1  16
TORSDOF 10
ENDMDL
MODEL 5
REMARK VINA RESULT:      -8.0      3.339      8.704
REMARK  Name = *****
REMARK                            x       y       z     vdW  Elec       q    Type
REMARK                         _______ _______ _______ _____ _____    ______ ____
ROOT
ATOM      1  C   LIG    1       27.286 -21.218   6.443  0.00  0.00    +0.287 C 
ENDROOT
BRANCH   1   2
ATOM      2  N   LIG    1       28.389 -20.292   6.578  0.00  0.00    -0.291 N 
ATOM      3  C   LIG    1       29.450 -20.401   7.431  0.00  0.00    +0.171 A 
ATOM      4  N   LIG    1       29.669 -21.378   8.341  0.00  0.00    -0.196 NA
ATOM      5  C   LIG    1       30.769 -21.213   9.021  0.00  0.00    +0.195 C 
ATOM      6  N   LIG    1       31.650 -20.164   8.822  0.00  0.00    -0.293 N 
ATOM      7  H   LIG    1       32.512 -20.125   9.341  0.00  0.00    +0.172 HD
ATOM      8  C   LIG    1       31.474 -19.149   7.889  0.00  0.00    +0.280 C 
ATOM      9  O   LIG    1       32.305 -18.255   7.737  0.00  0.00    -0.265 OA
ATOM     10  C   LIG    1       30.240 -19.299   7.153  0.00  0.00    +0.172 A 
ATOM     11  N   LIG    1       29.652 -18.493   6.210  0.00  0.00    -0.229 NA
ATOM     12  C   LIG    1       28.537 -19.113   5.893  0.00  0.00    +0.203 A 
BRANCH   5  13
ATOM     13  N   LIG    1       31.105 -22.101   9.990  0.00  0.00    -0.329 N 
ATOM     14  H   LIG    1       30.875 -23.069   9.808  0.00  0.00    +0.145 HD
ATOM     15  H   LIG    1       32.070 -21.981  10.285  0.00  0.00    +0.145 HD
ENDBRANCH   5  13
ENDBRANCH   1   2
BRANCH   1  16
ATOM     16  O   LIG    1       26.076 -20.466   6.468  0.00  0.00    -0.356 OA
BRANCH  16  17
ATOM     17  C   LIG    1       24.941 -21.266   6.133  0.00  0.00    +0.203 C 
BRANCH  17  18
ATOM     18  C   LIG    1       24.571 -22.137   7.335  0.00  0.00    +0.260 C 
BRANCH  18  19
ATOM     19  O   LIG    1       24.780 -23.539   7.083  0.00  0.00    -0.461 OA
BRANCH  19  20
ATOM     20  C   LIG    1       23.703 -24.245   6.646  0.00  0.00    +0.324 C 
ATOM     21  O   LIG    1       22.537 -23.902   6.811  0.00  0.00    -0.249 OA
BRANCH  20  22
ATOM     22  C   LIG    1       24.132 -25.431   5.750  0.00  0.00    +0.163 C 
BRANCH  22  24
ATOM     23  C   LIG    1       26.489 -26.424   5.989  0.00  0.00    +0.009 C 
ATOM     24  C   LIG    1       25.033 -26.464   6.473  0.00  0.00    +0.011 C 
ATOM     25  C   LIG    1       24.509 -27.894   6.283  0.00  0.00    +0.009 C 
ENDBRANCH  22  24
BRANCH  22  26
ATOM     26  N   LIG    1       24.809 -24.877   4.551  0.00  0.00    -0.318 NA
ATOM     27  H   LIG    1       25.662 -25.414   4.381  0.00  0.00    +0.119 HD
ATOM     28  H   LIG    1       24.212 -25.032   3.737  0.00  0.00    +0.119 HD
ENDBRANCH  22  26
ENDBRANCH  20  22
ENDBRANCH  19  20
ENDBRANCH  18  19
ENDBRANCH  17  18
ENDBRANCH  16  17
ENDBRANCH   1  16
TORSDOF 10
ENDMDL
MODEL 6
REMARK VINA RESULT:      -7.8      2.465      8.165
REMARK  Name = *****
REMARK                            x       y       z     vdW  Elec       q    Type
REMARK                         _______ _______ _______ _____ _____    ______ ____
ROOT
ATOM      1  C   LIG    1       27.864 -20.914   5.877  0.00  0.00    +0.287 C 
ENDROOT
BRANCH   1   2
ATOM      2  N   LIG    1       28.853 -19.936   6.274  0.00  0.00    -0.291 N 
ATOM      3  C   LIG    1       29.783 -20.068   7.265  0.00  0.00    +0.171 A 
ATOM      4  N   LIG    1       29.949 -21.124   8.094  0.00  0.00    -0.196 NA
ATOM      5  C   LIG    1       30.920 -20.962   8.949  0.00  0.00    +0.195 C 
ATOM      6  N   LIG    1       31.729 -19.839   8.996  0.00  0.00    -0.293 N 
ATOM      7  H   LIG    1       32.498 -19.800   9.643  0.00  0.00    +0.172 HD
ATOM      8  C   LIG    1       31.605 -18.740   8.155  0.00  0.00    +0.280 C 
ATOM      9  O   LIG    1       32.371 -17.780   8.224  0.00  0.00    -0.265 OA
ATOM     10  C   LIG    1       30.510 -18.890   7.226  0.00  0.00    +0.172 A 
ATOM     11  N   LIG    1       30.000 -18.025   6.289  0.00  0.00    -0.229 NA
ATOM     12  C   LIG    1       28.999 -18.679   5.743  0.00  0.00    +0.203 A 
BRANCH   5  13
ATOM     13  N   LIG    1       31.185 -21.928   9.863  0.00  0.00    -0.329 N 
ATOM     14  H   LIG    1       30.767 -21.805  10.776  0.00  0.00    +0.145 HD
ATOM     15  H   LIG    1       31.019 -22.855   9.483  0.00  0.00    +0.145 HD
ENDBRANCH   5  13
ENDBRANCH   1   2
BRANCH   1  16
ATOM     16  O   LIG    1       26.790 -20.856   6.811  0.00  0.00    -0.356 OA
BRANCH  16  17
ATOM     17  C   LIG    1       26.522 -22.130   7.399  0.00  0.00    +0.203 C 
BRANCH  17  18
ATOM     18  C   LIG    1       25.408 -22.820   6.609  0.00  0.00    +0.260 C 
BRANCH  18  19
ATOM     19  O   LIG    1       24.115 -22.648   7.217  0.00  0.00    -0.461 OA
BRANCH  19  20
ATOM     20  C   LIG    1       23.471 -21.479   6.956  0.00  0.00    +0.324 C 
ATOM     21  O   LIG    1       23.200 -20.634   7.803  0.00  0.00    -0.249 OA
BRANCH  20  22
ATOM     22  C   LIG    1       23.296 -21.259   5.434  0.00  0.00    +0.163 C 
BRANCH  22  24
ATOM     23  C   LIG    1       22.316 -19.022   4.638  0.00  0.00    +0.009 C 
ATOM     24  C   LIG    1       23.590 -19.807   4.978  0.00  0.00    +0.011 C 
ATOM     25  C   LIG    1       24.505 -19.782   3.746  0.00  0.00    +0.009 C 
ENDBRANCH  22  24
BRANCH  22  26
ATOM     26  N   LIG    1       21.918 -21.666   5.069  0.00  0.00    -0.318 NA
ATOM     27  H   LIG    1       21.473 -22.083   5.890  0.00  0.00    +0.119 HD
ATOM     28  H   LIG    1       21.376 -20.829   4.849  0.00  0.00    +0.119 HD
ENDBRANCH  22  26
ENDBRANCH  20  22
ENDBRANCH  19  20
ENDBRANCH  18  19
ENDBRANCH  17  18
ENDBRANCH  16  17
ENDBRANCH   1  16
TORSDOF 10
ENDMDL
MODEL 7
REMARK VINA RESULT:      -7.8      1.811      2.233
REMARK  Name = *****
REMARK                            x       y       z     vdW  Elec       q    Type
REMARK                         _______ _______ _______ _____ _____    ______ ____
ROOT
ATOM      1  C   LIG    1       27.582 -21.744   7.293  0.00  0.00    +0.287 C 
ENDROOT
BRANCH   1   2
ATOM      2  N   LIG    1       26.170 -21.663   6.994  0.00  0.00    -0.291 N 
ATOM      3  C   LIG    1       25.584 -20.941   5.995  0.00  0.00    +0.171 A 
ATOM      4  N   LIG    1       26.201 -20.134   5.101  0.00  0.00    -0.196 NA
ATOM      5  C   LIG    1       25.379 -19.567   4.263  0.00  0.00    +0.195 C 
ATOM      6  N   LIG    1       24.011 -19.784   4.256  0.00  0.00    -0.293 N 
ATOM      7  H   LIG    1       23.438 -19.360   3.546  0.00  0.00    +0.172 HD
ATOM      8  C   LIG    1       23.338 -20.616   5.143  0.00  0.00    +0.280 C 
ATOM      9  O   LIG    1       22.123 -20.792   5.073  0.00  0.00    -0.265 OA
ATOM     10  C   LIG    1       24.233 -21.222   6.101  0.00  0.00    +0.172 A 
ATOM     11  N   LIG    1       23.980 -22.035   7.178  0.00  0.00    -0.229 NA
ATOM     12  C   LIG    1       25.163 -22.273   7.699  0.00  0.00    +0.203 A 
BRANCH   5  13
ATOM     13  N   LIG    1       25.852 -18.707   3.327  0.00  0.00    -0.329 N 
ATOM     14  H   LIG    1       26.779 -18.899   2.972  0.00  0.00    +0.145 HD
ATOM     15  H   LIG    1       25.176 -18.559   2.583  0.00  0.00    +0.145 HD
ENDBRANCH   5  13
ENDBRANCH   1   2
BRANCH   1  16
ATOM     16  O   LIG    1       27.891 -20.724   8.237  0.00  0.00    -0.356 OA
BRANCH  16  17
ATOM     17  C   LIG    1       29.001 -19.926   7.821  0.00  0.00    +0.203 C 
BRANCH  17  18
ATOM     18  C   LIG    1       30.293 -20.554   8.345  0.00  0.00    +0.260 C 
BRANCH  18  19
ATOM     19  O   LIG    1       30.911 -19.763   9.376  0.00  0.00    -0.461 OA
BRANCH  19  20
ATOM     20  C   LIG    1       31.486 -18.595   8.984  0.00  0.00    +0.324 C 
ATOM     21  O   LIG    1       32.093 -18.442   7.930  0.00  0.00    -0.249 OA
BRANCH  20  22
ATOM     22  C   LIG    1       31.113 -17.434   9.938  0.00  0.00    +0.163 C 
BRANCH  22  24
ATOM     23  C   LIG    1       31.918 -16.311  12.104  0.00  0.00    +0.009 C 
ATOM     24  C   LIG    1       32.319 -16.868  10.731  0.00  0.00    +0.011 C 
ATOM     25  C   LIG    1       33.024 -15.749   9.952  0.00  0.00    +0.009 C 
ENDBRANCH  22  24
BRANCH  22  26
ATOM     26  N   LIG    1       30.050 -17.919  10.854  0.00  0.00    -0.318 NA
ATOM     27  H   LIG    1       30.493 -18.398  11.642  0.00  0.00    +0.119 HD
ATOM     28  H   LIG    1       29.567 -17.112  11.250  0.00  0.00    +0.119 HD
ENDBRANCH  22  26
ENDBRANCH  20  22
ENDBRANCH  19  20
ENDBRANCH  18  19
ENDBRANCH  17  18
ENDBRANCH  16  17
ENDBRANCH   1  16
TORSDOF 10
ENDMDL
MODEL 8
REMARK VINA RESULT:      -7.7      4.071      6.534
REMARK  Name = *****
REMARK                            x       y       z     vdW  Elec       q    Type
REMARK                         _______ _______ _______ _____ _____    ______ ____
ROOT
ATOM      1  C   LIG    1       27.488 -21.646   8.047  0.00  0.00    +0.287 C 
ENDROOT
BRANCH   1   2
ATOM      2  N   LIG    1       26.083 -21.893   7.811  0.00  0.00    -0.291 N 
ATOM      3  C   LIG    1       25.535 -22.981   7.196  0.00  0.00    +0.171 A 
ATOM      4  N   LIG    1       26.193 -24.033   6.657  0.00  0.00    -0.196 NA
ATOM      5  C   LIG    1       25.402 -24.924   6.130  0.00  0.00    +0.195 C 
ATOM      6  N   LIG    1       24.020 -24.831   6.139  0.00  0.00    -0.293 N 
ATOM      7  H   LIG    1       23.463 -25.582   5.766  0.00  0.00    +0.172 HD
ATOM      8  C   LIG    1       23.302 -23.780   6.695  0.00  0.00    +0.280 C 
ATOM      9  O   LIG    1       22.072 -23.763   6.698  0.00  0.00    -0.265 OA
ATOM     10  C   LIG    1       24.168 -22.767   7.250  0.00  0.00    +0.172 A 
ATOM     11  N   LIG    1       23.881 -21.549   7.816  0.00  0.00    -0.229 NA
ATOM     12  C   LIG    1       25.053 -21.045   8.132  0.00  0.00    +0.203 A 
BRANCH   5  13
ATOM     13  N   LIG    1       25.923 -26.021   5.527  0.00  0.00    -0.329 N 
ATOM     14  H   LIG    1       25.948 -26.006   4.516  0.00  0.00    +0.145 HD
ATOM     15  H   LIG    1       26.818 -26.278   5.932  0.00  0.00    +0.145 HD
ENDBRANCH   5  13
ENDBRANCH   1   2
BRANCH   1  16
ATOM     16  O   LIG    1       28.097 -21.336   6.797  0.00  0.00    -0.356 OA
BRANCH  16  17
ATOM     17  C   LIG    1       28.037 -19.939   6.504  0.00  0.00    +0.203 C 
BRANCH  17  18
ATOM     18  C   LIG    1       27.489 -19.748   5.088  0.00  0.00    +0.260 C 
BRANCH  18  19
ATOM     19  O   LIG    1       26.118 -20.166   4.968  0.00  0.00    -0.461 OA
BRANCH  19  20
ATOM     20  C   LIG    1       25.343 -19.466   4.097  0.00  0.00    +0.324 C 
ATOM     21  O   LIG    1       25.716 -18.474   3.481  0.00  0.00    -0.249 OA
BRANCH  20  22
ATOM     22  C   LIG    1       23.999 -20.188   3.832  0.00  0.00    +0.163 C 
BRANCH  22  24
ATOM     23  C   LIG    1       21.764 -20.854   4.910  0.00  0.00    +0.009 C 
ATOM     24  C   LIG    1       22.877 -19.799   4.828  0.00  0.00    +0.011 C 
ATOM     25  C   LIG    1       22.233 -18.458   4.449  0.00  0.00    +0.009 C 
ENDBRANCH  22  24
BRANCH  22  26
ATOM     26  N   LIG    1       24.253 -21.650   3.855  0.00  0.00    -0.318 NA
ATOM     27  H   LIG    1       24.448 -21.962   2.901  0.00  0.00    +0.119 HD
ATOM     28  H   LIG    1       25.105 -21.826   4.389  0.00  0.00    +0.119 HD
ENDBRANCH  22  26
ENDBRANCH  20  22
ENDBRANCH  19  20
ENDBRANCH  18  19
ENDBRANCH  17  18
ENDBRANCH  16  17
ENDBRANCH   1  16
TORSDOF 10
ENDMDL
MODEL 9
REMARK VINA RESULT:      -7.7      2.021      2.912
REMARK  Name = *****
REMARK                            x       y       z     vdW  Elec       q    Type
REMARK                         _______ _______ _______ _____ _____    ______ ____
ROOT
ATOM      1  C   LIG    1       26.360 -22.363   6.936  0.00  0.00    +0.287 C 
ENDROOT
BRANCH   1   2
ATOM      2  N   LIG    1       25.065 -21.831   6.573  0.00  0.00    -0.291 N 
ATOM      3  C   LIG    1       24.806 -20.873   5.636  0.00  0.00    +0.171 A 
ATOM      4  N   LIG    1       25.708 -20.206   4.879  0.00  0.00    -0.196 NA
ATOM      5  C   LIG    1       25.165 -19.339   4.071  0.00  0.00    +0.195 C 
ATOM      6  N   LIG    1       23.800 -19.133   3.965  0.00  0.00    -0.293 N 
ATOM      7  H   LIG    1       23.440 -18.489   3.280  0.00  0.00    +0.172 HD
ATOM      8  C   LIG    1       22.838 -19.805   4.708  0.00  0.00    +0.280 C 
ATOM      9  O   LIG    1       21.635 -19.599   4.553  0.00  0.00    -0.265 OA
ATOM     10  C   LIG    1       23.428 -20.743   5.635  0.00  0.00    +0.172 A 
ATOM     11  N   LIG    1       22.855 -21.542   6.593  0.00  0.00    -0.229 NA
ATOM     12  C   LIG    1       23.866 -22.175   7.145  0.00  0.00    +0.203 A 
BRANCH   5  13
ATOM     13  N   LIG    1       25.949 -18.576   3.271  0.00  0.00    -0.329 N 
ATOM     14  H   LIG    1       25.705 -17.596   3.209  0.00  0.00    +0.145 HD
ATOM     15  H   LIG    1       26.935 -18.717   3.472  0.00  0.00    +0.145 HD
ENDBRANCH   5  13
ENDBRANCH   1   2
BRANCH   1  16
ATOM     16  O   LIG    1       26.709 -21.836   8.212  0.00  0.00    -0.356 OA
BRANCH  16  17
ATOM     17  C   LIG    1       27.279 -20.528   8.115  0.00  0.00    +0.203 C 
BRANCH  17  18
ATOM     18  C   LIG    1       28.559 -20.602   7.281  0.00  0.00    +0.260 C 
BRANCH  18  19
ATOM     19  O   LIG    1       29.173 -19.313   7.101  0.00  0.00    -0.461 OA
BRANCH  19  20
ATOM     20  C   LIG    1       30.504 -19.232   7.369  0.00  0.00    +0.324 C 
ATOM     21  O   LIG    1       31.381 -19.177   6.512  0.00  0.00    -0.249 OA
BRANCH  20  22
ATOM     22  C   LIG    1       30.763 -19.020   8.880  0.00  0.00    +0.163 C 
BRANCH  22  24
ATOM     23  C   LIG    1       32.186 -16.903   9.188  0.00  0.00    +0.009 C 
ATOM     24  C   LIG    1       30.789 -17.529   9.304  0.00  0.00    +0.011 C 
ATOM     25  C   LIG    1       30.307 -17.351  10.750  0.00  0.00    +0.009 C 
ENDBRANCH  22  24
BRANCH  22  26
ATOM     26  N   LIG    1       32.038 -19.696   9.225  0.00  0.00    -0.318 NA
ATOM     27  H   LIG    1       31.821 -20.588   9.677  0.00  0.00    +0.119 HD
ATOM     28  H   LIG    1       32.528 -19.931   8.360  0.00  0.00    +0.119 HD
ENDBRANCH  22  26
ENDBRANCH  20  22
ENDBRANCH  19  20
ENDBRANCH  18  19
ENDBRANCH  17  18
ENDBRANCH  16  17
ENDBRANCH   1  16
TORSDOF 10
ENDMDL
