MODEL 1
REMARK VINA RESULT:      -4.7      0.000      0.000
REMARK  Name = *****
REMARK                            x       y       z     vdW  Elec       q    Type
REMARK                         _______ _______ _______ _____ _____    ______ ____
ROOT
ATOM      1  C   LIG    1       25.103 -14.553   4.507  0.00  0.00    +0.155 C 
ATOM      2  C   LIG    1       25.835 -15.635   3.682  0.00  0.00    +0.193 C 
ATOM      3  C   LIG    1       26.524 -15.079   2.424  0.00  0.00    +0.064 C 
ATOM      4  C   LIG    1       27.179 -13.709   2.661  0.00  0.00    +0.060 C 
ATOM      5  N   LIG    1       26.204 -12.724   3.127  0.00  0.00    -0.298 NA
ATOM      6  C   LIG    1       25.134 -12.416   2.202  0.00  0.00    +0.105 C 
ATOM      7  C   LIG    1       28.128 -13.721   3.866  0.00  0.00    +0.020 C 
ATOM      8  C   LIG    1       27.244 -13.335   5.060  0.00  0.00    +0.021 C 
ATOM      9  C   LIG    1       25.831 -13.190   4.468  0.00  0.00    +0.074 C 
ENDROOT
BRANCH   1  10
ATOM     10  C   LIG    1       23.615 -14.390   4.243  0.00  0.00    +0.315 C 
ATOM     11  O   LIG    1       23.095 -14.018   3.203  0.00  0.00    -0.250 OA
BRANCH  10  13
ATOM     12  C   LIG    1       22.095 -15.951   5.200  0.00  0.00    +0.280 C 
ATOM     13  O   LIG    1       22.926 -14.796   5.353  0.00  0.00    -0.468 OA
ENDBRANCH  10  13
ENDBRANCH   1  10
BRANCH   2  14
ATOM     14  O   LIG    1       24.950 -16.725   3.359  0.00  0.00    -0.457 OA
BRANCH  14  15
ATOM     15  C   LIG    1       25.467 -17.977   3.383  0.00  0.00    +0.340 C 
ATOM     16  O   LIG    1       26.553 -18.310   2.938  0.00  0.00    -0.245 OA
BRANCH  15  17
ATOM     17  C   LIG    1       24.506 -18.924   4.010  0.00  0.00    +0.059 A 
ATOM     18  C   LIG    1       23.123 -18.692   4.027  0.00  0.00    +0.015 A 
ATOM     19  C   LIG    1       22.265 -19.616   4.630  0.00  0.00    +0.001 A 
ATOM     20  C   LIG    1       22.778 -20.774   5.208  0.00  0.00    +0.000 A 
ATOM     21  C   LIG    1       24.153 -21.013   5.189  0.00  0.00    +0.001 A 
ATOM     22  C   LIG    1       25.014 -20.090   4.592  0.00  0.00    +0.015 A 
ENDBRANCH  15  17
ENDBRANCH  14  15
ENDBRANCH   2  14
TORSDOF 5
ENDMDL
MODEL 2
REMARK VINA RESULT:      -4.6      1.559      3.188
REMARK  Name = *****
REMARK                            x       y       z     vdW  Elec       q    Type
REMARK                         _______ _______ _______ _____ _____    ______ ____
ROOT
ATOM      1  C   LIG    1       26.368 -14.661   2.961  0.00  0.00    +0.155 C 
ATOM      2  C   LIG    1       25.284 -15.695   3.342  0.00  0.00    +0.193 C 
ATOM      3  C   LIG    1       24.233 -15.142   4.321  0.00  0.00    +0.064 C 
ATOM      4  C   LIG    1       23.844 -13.687   4.017  0.00  0.00    +0.060 C 
ATOM      5  N   LIG    1       25.009 -12.805   4.045  0.00  0.00    -0.298 NA
ATOM      6  C   LIG    1       25.685 -12.700   5.322  0.00  0.00    +0.105 C 
ATOM      7  C   LIG    1       23.413 -13.495   2.557  0.00  0.00    +0.020 C 
ATOM      8  C   LIG    1       24.709 -13.144   1.812  0.00  0.00    +0.021 C 
ATOM      9  C   LIG    1       25.808 -13.222   2.886  0.00  0.00    +0.074 C 
ENDROOT
BRANCH   1  10
ATOM     10  C   LIG    1       27.660 -14.708   3.761  0.00  0.00    +0.315 C 
ATOM     11  O   LIG    1       27.958 -15.523   4.620  0.00  0.00    -0.250 OA
BRANCH  10  13
ATOM     12  C   LIG    1       28.924 -12.764   4.293  0.00  0.00    +0.280 C 
ATOM     13  O   LIG    1       28.486 -13.713   3.316  0.00  0.00    -0.468 OA
ENDBRANCH  10  13
ENDBRANCH   1  10
BRANCH   2  14
ATOM     14  O   LIG    1       25.880 -16.908   3.840  0.00  0.00    -0.457 OA
BRANCH  14  15
ATOM     15  C   LIG    1       25.561 -18.063   3.210  0.00  0.00    +0.340 C 
ATOM     16  O   LIG    1       26.000 -18.436   2.134  0.00  0.00    -0.245 OA
BRANCH  15  17
ATOM     17  C   LIG    1       24.559 -18.828   4.002  0.00  0.00    +0.059 A 
ATOM     18  C   LIG    1       23.196 -18.500   4.007  0.00  0.00    +0.015 A 
ATOM     19  C   LIG    1       22.298 -19.253   4.769  0.00  0.00    +0.001 A 
ATOM     20  C   LIG    1       22.751 -20.335   5.519  0.00  0.00    +0.000 A 
ATOM     21  C   LIG    1       24.106 -20.669   5.513  0.00  0.00    +0.001 A 
ATOM     22  C   LIG    1       25.008 -19.917   4.756  0.00  0.00    +0.015 A 
ENDBRANCH  15  17
ENDBRANCH  14  15
ENDBRANCH   2  14
TORSDOF 5
ENDMDL
MODEL 3
REMARK VINA RESULT:      -4.1      1.410      3.191
REMARK  Name = *****
REMARK                            x       y       z     vdW  Elec       q    Type
REMARK                         _______ _______ _______ _____ _____    ______ ____
ROOT
ATOM      1  C   LIG    1       25.748 -14.814   2.995  0.00  0.00    +0.155 C 
ATOM      2  C   LIG    1       24.375 -15.160   3.615  0.00  0.00    +0.193 C 
ATOM      3  C   LIG    1       23.972 -14.221   4.765  0.00  0.00    +0.064 C 
ATOM      4  C   LIG    1       24.356 -12.757   4.500  0.00  0.00    +0.060 C 
ATOM      5  N   LIG    1       25.793 -12.614   4.270  0.00  0.00    -0.298 NA
ATOM      6  C   LIG    1       26.644 -12.976   5.383  0.00  0.00    +0.105 C 
ATOM      7  C   LIG    1       23.829 -12.254   3.150  0.00  0.00    +0.020 C 
ATOM      8  C   LIG    1       24.952 -12.571   2.152  0.00  0.00    +0.021 C 
ATOM      9  C   LIG    1       26.024 -13.293   2.988  0.00  0.00    +0.074 C 
ENDROOT
BRANCH   1  10
ATOM     10  C   LIG    1       26.944 -15.588   3.524  0.00  0.00    +0.315 C 
ATOM     11  O   LIG    1       27.915 -15.126   4.104  0.00  0.00    -0.250 OA
BRANCH  10  13
ATOM     12  C   LIG    1       27.478 -17.827   4.125  0.00  0.00    +0.280 C 
ATOM     13  O   LIG    1       26.735 -16.922   3.304  0.00  0.00    -0.468 OA
ENDBRANCH  10  13
ENDBRANCH   1  10
BRANCH   2  14
ATOM     14  O   LIG    1       24.325 -16.541   4.021  0.00  0.00    -0.457 OA
BRANCH  14  15
ATOM     15  C   LIG    1       23.108 -17.069   4.292  0.00  0.00    +0.340 C 
ATOM     16  O   LIG    1       22.083 -16.437   4.491  0.00  0.00    -0.245 OA
BRANCH  15  17
ATOM     17  C   LIG    1       23.186 -18.554   4.347  0.00  0.00    +0.059 A 
ATOM     18  C   LIG    1       22.356 -19.320   5.178  0.00  0.00    +0.015 A 
ATOM     19  C   LIG    1       22.471 -20.713   5.189  0.00  0.00    +0.001 A 
ATOM     20  C   LIG    1       23.403 -21.345   4.371  0.00  0.00    +0.000 A 
ATOM     21  C   LIG    1       24.227 -20.588   3.538  0.00  0.00    +0.001 A 
ATOM     22  C   LIG    1       24.119 -19.196   3.525  0.00  0.00    +0.015 A 
ENDBRANCH  15  17
ENDBRANCH  14  15
ENDBRANCH   2  14
TORSDOF 5
ENDMDL
MODEL 4
REMARK VINA RESULT:      -4.0      2.241      3.971
REMARK  Name = *****
REMARK                            x       y       z     vdW  Elec       q    Type
REMARK                         _______ _______ _______ _____ _____    ______ ____
ROOT
ATOM      1  C   LIG    1       26.617 -14.272   2.909  0.00  0.00    +0.155 C 
ATOM      2  C   LIG    1       25.758 -15.548   3.060  0.00  0.00    +0.193 C 
ATOM      3  C   LIG    1       24.626 -15.400   4.091  0.00  0.00    +0.064 C 
ATOM      4  C   LIG    1       23.958 -14.017   4.048  0.00  0.00    +0.060 C 
ATOM      5  N   LIG    1       24.929 -12.947   4.274  0.00  0.00    -0.298 NA
ATOM      6  C   LIG    1       25.579 -12.955   5.568  0.00  0.00    +0.105 C 
ATOM      7  C   LIG    1       23.489 -13.643   2.636  0.00  0.00    +0.020 C 
ATOM      8  C   LIG    1       24.687 -12.917   2.008  0.00  0.00    +0.021 C 
ATOM      9  C   LIG    1       25.787 -12.979   3.082  0.00  0.00    +0.074 C 
ENDROOT
BRANCH   1  10
ATOM     10  C   LIG    1       27.898 -14.217   3.725  0.00  0.00    +0.315 C 
ATOM     11  O   LIG    1       28.286 -15.048   4.532  0.00  0.00    -0.250 OA
BRANCH  10  13
ATOM     12  C   LIG    1       29.054 -12.260   4.429  0.00  0.00    +0.280 C 
ATOM     13  O   LIG    1       28.601 -13.100   3.364  0.00  0.00    -0.468 OA
ENDBRANCH  10  13
ENDBRANCH   1  10
BRANCH   2  14
ATOM     14  O   LIG    1       26.582 -16.694   3.344  0.00  0.00    -0.457 OA
BRANCH  14  15
ATOM     15  C   LIG    1       25.959 -17.884   3.518  0.00  0.00    +0.340 C 
ATOM     16  O   LIG    1       24.907 -18.222   2.999  0.00  0.00    -0.245 OA
BRANCH  15  17
ATOM     17  C   LIG    1       26.721 -18.736   4.470  0.00  0.00    +0.059 A 
ATOM     18  C   LIG    1       28.047 -18.461   4.830  0.00  0.00    +0.015 A 
ATOM     19  C   LIG    1       28.716 -19.295   5.731  0.00  0.00    +0.001 A 
ATOM     20  C   LIG    1       28.066 -20.397   6.279  0.00  0.00    +0.000 A 
ATOM     21  C   LIG    1       26.744 -20.673   5.929  0.00  0.00    +0.001 A 
ATOM     22  C   LIG    1       26.073 -19.844   5.027  0.00  0.00    +0.015 A 
ENDBRANCH  15  17
ENDBRANCH  14  15
ENDBRANCH   2  14
TORSDOF 5
ENDMDL
MODEL 5
REMARK VINA RESULT:      -3.6      1.367      2.353
REMARK  Name = *****
REMARK                            x       y       z     vdW  Elec       q    Type
REMARK                         _______ _______ _______ _____ _____    ______ ____
ROOT
ATOM      1  C   LIG    1       24.835 -13.627   4.430  0.00  0.00    +0.155 C 
ATOM      2  C   LIG    1       24.960 -15.148   4.188  0.00  0.00    +0.193 C 
ATOM      3  C   LIG    1       26.170 -15.528   3.318  0.00  0.00    +0.064 C 
ATOM      4  C   LIG    1       27.418 -14.689   3.633  0.00  0.00    +0.060 C 
ATOM      5  N   LIG    1       27.158 -13.261   3.463  0.00  0.00    -0.298 NA
ATOM      6  C   LIG    1       26.816 -12.843   2.119  0.00  0.00    +0.105 C 
ATOM      7  C   LIG    1       27.768 -14.709   5.127  0.00  0.00    +0.020 C 
ATOM      8  C   LIG    1       27.002 -13.518   5.721  0.00  0.00    +0.021 C 
ATOM      9  C   LIG    1       26.212 -12.933   4.537  0.00  0.00    +0.074 C 
ENDROOT
BRANCH   1  10
ATOM     10  C   LIG    1       23.906 -12.866   3.498  0.00  0.00    +0.315 C 
ATOM     11  O   LIG    1       23.322 -13.315   2.524  0.00  0.00    -0.250 OA
BRANCH  10  13
ATOM     12  C   LIG    1       23.428 -11.447   5.346  0.00  0.00    +0.280 C 
ATOM     13  O   LIG    1       23.769 -11.587   3.964  0.00  0.00    -0.468 OA
ENDBRANCH  10  13
ENDBRANCH   1  10
BRANCH   2  14
ATOM     14  O   LIG    1       23.736 -15.688   3.654  0.00  0.00    -0.457 OA
BRANCH  14  15
ATOM     15  C   LIG    1       22.932 -16.370   4.503  0.00  0.00    +0.340 C 
ATOM     16  O   LIG    1       22.148 -15.876   5.298  0.00  0.00    -0.245 OA
BRANCH  15  17
ATOM     17  C   LIG    1       23.151 -17.835   4.362  0.00  0.00    +0.059 A 
ATOM     18  C   LIG    1       24.249 -18.369   3.673  0.00  0.00    +0.015 A 
ATOM     19  C   LIG    1       24.407 -19.754   3.572  0.00  0.00    +0.001 A 
ATOM     20  C   LIG    1       23.480 -20.609   4.162  0.00  0.00    +0.000 A 
ATOM     21  C   LIG    1       22.388 -20.084   4.853  0.00  0.00    +0.001 A 
ATOM     22  C   LIG    1       22.224 -18.700   4.954  0.00  0.00    +0.015 A 
ENDBRANCH  15  17
ENDBRANCH  14  15
ENDBRANCH   2  14
TORSDOF 5
ENDMDL
MODEL 6
REMARK VINA RESULT:      -3.3      2.525      6.253
REMARK  Name = *****
REMARK                            x       y       z     vdW  Elec       q    Type
REMARK                         _______ _______ _______ _____ _____    ______ ____
ROOT
ATOM      1  C   LIG    1       23.098 -19.195   3.676  0.00  0.00    +0.155 C 
ATOM      2  C   LIG    1       24.539 -18.639   3.730  0.00  0.00    +0.193 C 
ATOM      3  C   LIG    1       25.345 -19.152   4.936  0.00  0.00    +0.064 C 
ATOM      4  C   LIG    1       25.075 -20.632   5.246  0.00  0.00    +0.060 C 
ATOM      5  N   LIG    1       23.656 -20.873   5.504  0.00  0.00    -0.298 NA
ATOM      6  C   LIG    1       23.105 -20.193   6.657  0.00  0.00    +0.105 C 
ATOM      7  C   LIG    1       25.267 -21.528   4.015  0.00  0.00    +0.020 C 
ATOM      8  C   LIG    1       23.885 -21.572   3.347  0.00  0.00    +0.021 C 
ATOM      9  C   LIG    1       23.007 -20.645   4.206  0.00  0.00    +0.074 C 
ENDROOT
BRANCH   1  10
ATOM     10  C   LIG    1       22.011 -18.320   4.277  0.00  0.00    +0.315 C 
ATOM     11  O   LIG    1       22.167 -17.254   4.853  0.00  0.00    -0.250 OA
BRANCH  10  13
ATOM     12  C   LIG    1       20.017 -18.276   2.980  0.00  0.00    +0.280 C 
ATOM     13  O   LIG    1       20.795 -18.888   4.012  0.00  0.00    -0.468 OA
ENDBRANCH  10  13
ENDBRANCH   1  10
BRANCH   2  14
ATOM     14  O   LIG    1       24.539 -17.200   3.670  0.00  0.00    -0.457 OA
BRANCH  14  15
ATOM     15  C   LIG    1       25.716 -16.586   3.404  0.00  0.00    +0.340 C 
ATOM     16  O   LIG    1       26.800 -17.136   3.295  0.00  0.00    -0.245 OA
BRANCH  15  17
ATOM     17  C   LIG    1       25.521 -15.115   3.289  0.00  0.00    +0.059 A 
ATOM     18  C   LIG    1       26.405 -14.293   2.577  0.00  0.00    +0.015 A 
ATOM     19  C   LIG    1       26.174 -12.916   2.500  0.00  0.00    +0.001 A 
ATOM     20  C   LIG    1       25.061 -12.358   3.123  0.00  0.00    +0.000 A 
ATOM     21  C   LIG    1       24.175 -13.172   3.829  0.00  0.00    +0.001 A 
ATOM     22  C   LIG    1       24.404 -14.548   3.911  0.00  0.00    +0.015 A 
ENDBRANCH  15  17
ENDBRANCH  14  15
ENDBRANCH   2  14
TORSDOF 5
ENDMDL
MODEL 7
REMARK VINA RESULT:      -2.7      2.322      6.593
REMARK  Name = *****
REMARK                            x       y       z     vdW  Elec       q    Type
REMARK                         _______ _______ _______ _____ _____    ______ ____
ROOT
ATOM      1  C   LIG    1       24.826 -18.995   4.651  0.00  0.00    +0.155 C 
ATOM      2  C   LIG    1       23.420 -18.359   4.742  0.00  0.00    +0.193 C 
ATOM      3  C   LIG    1       22.282 -19.357   4.466  0.00  0.00    +0.064 C 
ATOM      4  C   LIG    1       22.546 -20.744   5.071  0.00  0.00    +0.060 C 
ATOM      5  N   LIG    1       23.794 -21.317   4.570  0.00  0.00    -0.298 NA
ATOM      6  C   LIG    1       23.838 -21.572   3.145  0.00  0.00    +0.105 C 
ATOM      7  C   LIG    1       22.881 -20.670   6.567  0.00  0.00    +0.020 C 
ATOM      8  C   LIG    1       24.409 -20.525   6.615  0.00  0.00    +0.021 C 
ATOM      9  C   LIG    1       24.841 -20.461   5.140  0.00  0.00    +0.074 C 
ENDROOT
BRANCH   1  10
ATOM     10  C   LIG    1       25.550 -18.850   3.322  0.00  0.00    +0.315 C 
ATOM     11  O   LIG    1       25.298 -19.444   2.285  0.00  0.00    -0.250 OA
BRANCH  10  13
ATOM     12  C   LIG    1       27.560 -18.147   4.382  0.00  0.00    +0.280 C 
ATOM     13  O   LIG    1       26.509 -17.883   3.449  0.00  0.00    -0.468 OA
ENDBRANCH  10  13
ENDBRANCH   1  10
BRANCH   2  14
ATOM     14  O   LIG    1       23.322 -17.200   3.893  0.00  0.00    -0.457 OA
BRANCH  14  15
ATOM     15  C   LIG    1       23.136 -16.001   4.494  0.00  0.00    +0.340 C 
ATOM     16  O   LIG    1       22.333 -15.762   5.381  0.00  0.00    -0.245 OA
BRANCH  15  17
ATOM     17  C   LIG    1       24.036 -14.976   3.899  0.00  0.00    +0.059 A 
ATOM     18  C   LIG    1       25.410 -15.194   3.721  0.00  0.00    +0.015 A 
ATOM     19  C   LIG    1       26.210 -14.197   3.155  0.00  0.00    +0.001 A 
ATOM     20  C   LIG    1       25.645 -12.987   2.760  0.00  0.00    +0.000 A 
ATOM     21  C   LIG    1       24.278 -12.767   2.929  0.00  0.00    +0.001 A 
ATOM     22  C   LIG    1       23.475 -13.759   3.497  0.00  0.00    +0.015 A 
ENDBRANCH  15  17
ENDBRANCH  14  15
ENDBRANCH   2  14
TORSDOF 5
ENDMDL
MODEL 8
REMARK VINA RESULT:      -1.9      2.670      6.315
REMARK  Name = *****
REMARK                            x       y       z     vdW  Elec       q    Type
REMARK                         _______ _______ _______ _____ _____    ______ ____
ROOT
ATOM      1  C   LIG    1       25.123 -19.043   4.891  0.00  0.00    +0.155 C 
ATOM      2  C   LIG    1       24.802 -18.067   3.737  0.00  0.00    +0.193 C 
ATOM      3  C   LIG    1       23.818 -18.647   2.706  0.00  0.00    +0.064 C 
ATOM      4  C   LIG    1       22.698 -19.477   3.352  0.00  0.00    +0.060 C 
ATOM      5  N   LIG    1       23.241 -20.581   4.144  0.00  0.00    -0.298 NA
ATOM      6  C   LIG    1       23.993 -21.572   3.403  0.00  0.00    +0.105 C 
ATOM      7  C   LIG    1       21.967 -18.704   4.458  0.00  0.00    +0.020 C 
ATOM      8  C   LIG    1       22.745 -19.033   5.740  0.00  0.00    +0.021 C 
ATOM      9  C   LIG    1       23.910 -19.923   5.273  0.00  0.00    +0.074 C 
ENDROOT
BRANCH   1  10
ATOM     10  C   LIG    1       26.383 -19.879   4.742  0.00  0.00    +0.315 C 
ATOM     11  O   LIG    1       26.879 -20.272   3.697  0.00  0.00    -0.250 OA
BRANCH  10  13
ATOM     12  C   LIG    1       28.353 -19.976   6.073  0.00  0.00    +0.280 C 
ATOM     13  O   LIG    1       26.929 -20.075   5.981  0.00  0.00    -0.468 OA
ENDBRANCH  10  13
ENDBRANCH   1  10
BRANCH   2  14
ATOM     14  O   LIG    1       26.009 -17.598   3.107  0.00  0.00    -0.457 OA
BRANCH  14  15
ATOM     15  C   LIG    1       26.618 -16.519   3.652  0.00  0.00    +0.340 C 
ATOM     16  O   LIG    1       27.661 -16.532   4.287  0.00  0.00    -0.245 OA
BRANCH  15  17
ATOM     17  C   LIG    1       25.821 -15.288   3.399  0.00  0.00    +0.059 A 
ATOM     18  C   LIG    1       24.590 -15.048   4.026  0.00  0.00    +0.015 A 
ATOM     19  C   LIG    1       23.883 -13.874   3.752  0.00  0.00    +0.001 A 
ATOM     20  C   LIG    1       24.401 -12.935   2.864  0.00  0.00    +0.000 A 
ATOM     21  C   LIG    1       25.628 -13.167   2.242  0.00  0.00    +0.001 A 
ATOM     22  C   LIG    1       26.337 -14.340   2.509  0.00  0.00    +0.015 A 
ENDBRANCH  15  17
ENDBRANCH  14  15
ENDBRANCH   2  14
TORSDOF 5
ENDMDL
