MODEL 1
REMARK VINA RESULT:      -4.0      0.000      0.000
REMARK  Name = *****
REMARK                            x       y       z     vdW  Elec       q    Type
REMARK                         _______ _______ _______ _____ _____    ______ ____
ROOT
ATOM      1  C   LIG    1       23.036 -21.572   6.555  0.00  0.00    +0.014 C 
ATOM      2  C   LIG    1       23.302 -20.541   5.446  0.00  0.00    +0.030 C 
ATOM      3  C   LIG    1       24.778 -20.201   5.233  0.00  0.00    -0.039 A 
ATOM      4  C   LIG    1       25.160 -19.430   4.112  0.00  0.00    -0.043 A 
ATOM      5  C   LIG    1       26.510 -19.096   3.912  0.00  0.00    +0.005 A 
ATOM      6  C   LIG    1       27.487 -19.506   4.815  0.00  0.00    +0.020 A 
ATOM      7  C   LIG    1       27.117 -20.258   5.924  0.00  0.00    +0.041 A 
ATOM      8 CL   LIG    1       28.316 -20.748   7.057  0.00  0.00    -0.084 Cl
ATOM      9  C   LIG    1       24.127 -18.907   3.140  0.00  0.00    +0.050 C 
ATOM     10  C   LIG    1       23.186 -17.896   3.804  0.00  0.00    +0.085 C 
ATOM     11  N   LIG    1       22.071 -18.501   4.540  0.00  0.00    -0.315 NA
ATOM     12  H   LIG    1       21.447 -17.752   4.841  0.00  0.00    +0.122 HD
ATOM     13  C   LIG    1       25.782 -20.607   6.131  0.00  0.00    +0.024 A 
ATOM     14  C   LIG    1       22.478 -19.259   5.731  0.00  0.00    +0.088 C 
ENDROOT
TORSDOF 0
ENDMDL
MODEL 2
REMARK VINA RESULT:      -3.6      4.724      6.229
REMARK  Name = *****
REMARK                            x       y       z     vdW  Elec       q    Type
REMARK                         _______ _______ _______ _____ _____    ______ ____
ROOT
ATOM      1  C   LIG    1       23.783 -12.484   4.456  0.00  0.00    +0.014 C 
ATOM      2  C   LIG    1       25.067 -13.258   4.121  0.00  0.00    +0.030 C 
ATOM      3  C   LIG    1       24.875 -14.764   3.935  0.00  0.00    -0.039 A 
ATOM      4  C   LIG    1       25.936 -15.544   3.423  0.00  0.00    -0.043 A 
ATOM      5  C   LIG    1       25.779 -16.931   3.263  0.00  0.00    +0.005 A 
ATOM      6  C   LIG    1       24.587 -17.559   3.614  0.00  0.00    +0.020 A 
ATOM      7  C   LIG    1       23.542 -16.799   4.126  0.00  0.00    +0.041 A 
ATOM      8 CL   LIG    1       22.075 -17.571   4.584  0.00  0.00    -0.084 Cl
ATOM      9  C   LIG    1       27.271 -14.917   3.090  0.00  0.00    +0.050 C 
ATOM     10  C   LIG    1       27.969 -14.372   4.342  0.00  0.00    +0.085 C 
ATOM     11  N   LIG    1       27.530 -13.032   4.743  0.00  0.00    -0.315 NA
ATOM     12  H   LIG    1       28.130 -12.718   5.506  0.00  0.00    +0.122 HD
ATOM     13  C   LIG    1       23.678 -15.419   4.281  0.00  0.00    +0.024 A 
ATOM     14  C   LIG    1       26.136 -12.970   5.206  0.00  0.00    +0.088 C 
ENDROOT
TORSDOF 0
ENDMDL
MODEL 3
REMARK VINA RESULT:      -3.5      2.719      4.176
REMARK  Name = *****
REMARK                            x       y       z     vdW  Elec       q    Type
REMARK                         _______ _______ _______ _____ _____    ______ ____
ROOT
ATOM      1  C   LIG    1       29.087 -19.883   5.941  0.00  0.00    +0.014 C 
ATOM      2  C   LIG    1       27.639 -20.336   5.695  0.00  0.00    +0.030 C 
ATOM      3  C   LIG    1       26.822 -19.402   4.801  0.00  0.00    -0.039 A 
ATOM      4  C   LIG    1       25.553 -19.817   4.338  0.00  0.00    -0.043 A 
ATOM      5  C   LIG    1       24.783 -18.963   3.529  0.00  0.00    +0.005 A 
ATOM      6  C   LIG    1       25.249 -17.698   3.183  0.00  0.00    +0.020 A 
ATOM      7  C   LIG    1       26.493 -17.281   3.643  0.00  0.00    +0.041 A 
ATOM      8 CL   LIG    1       27.065 -15.709   3.239  0.00  0.00    -0.084 Cl
ATOM      9  C   LIG    1       24.977 -21.155   4.741  0.00  0.00    +0.050 C 
ATOM     10  C   LIG    1       24.704 -21.223   6.248  0.00  0.00    +0.085 C 
ATOM     11  N   LIG    1       25.874 -21.571   7.059  0.00  0.00    -0.315 NA
ATOM     12  H   LIG    1       25.564 -21.704   8.023  0.00  0.00    +0.122 HD
ATOM     13  C   LIG    1       27.274 -18.121   4.438  0.00  0.00    +0.024 A 
ATOM     14  C   LIG    1       26.932 -20.551   7.058  0.00  0.00    +0.088 C 
ENDROOT
TORSDOF 0
ENDMDL
MODEL 4
REMARK VINA RESULT:      -3.4      4.789      6.479
REMARK  Name = *****
REMARK                            x       y       z     vdW  Elec       q    Type
REMARK                         _______ _______ _______ _____ _____    ______ ____
ROOT
ATOM      1  C   LIG    1       27.945 -14.072   3.115  0.00  0.00    +0.014 C 
ATOM      2  C   LIG    1       26.521 -13.558   3.376  0.00  0.00    +0.030 C 
ATOM      3  C   LIG    1       25.491 -14.652   3.662  0.00  0.00    -0.039 A 
ATOM      4  C   LIG    1       24.202 -14.293   4.118  0.00  0.00    -0.043 A 
ATOM      5  C   LIG    1       23.240 -15.286   4.369  0.00  0.00    +0.005 A 
ATOM      6  C   LIG    1       23.534 -16.631   4.163  0.00  0.00    +0.020 A 
ATOM      7  C   LIG    1       24.796 -16.990   3.706  0.00  0.00    +0.041 A 
ATOM      8 CL   LIG    1       25.159 -18.649   3.426  0.00  0.00    -0.084 Cl
ATOM      9  C   LIG    1       23.816 -12.842   4.294  0.00  0.00    +0.050 C 
ATOM     10  C   LIG    1       23.803 -12.094   2.956  0.00  0.00    +0.085 C 
ATOM     11  N   LIG    1       25.117 -11.609   2.522  0.00  0.00    -0.315 NA
ATOM     12  H   LIG    1       24.982 -11.031   1.691  0.00  0.00    +0.122 HD
ATOM     13  C   LIG    1       25.766 -16.017   3.462  0.00  0.00    +0.024 A 
ATOM     14  C   LIG    1       26.069 -12.676   2.184  0.00  0.00    +0.088 C 
ENDROOT
TORSDOF 0
ENDMDL
MODEL 5
REMARK VINA RESULT:      -3.1      2.844      4.579
REMARK  Name = *****
REMARK                            x       y       z     vdW  Elec       q    Type
REMARK                         _______ _______ _______ _____ _____    ______ ____
ROOT
ATOM      1  C   LIG    1       25.719 -18.325   2.943  0.00  0.00    +0.014 C 
ATOM      2  C   LIG    1       26.823 -18.805   3.899  0.00  0.00    +0.030 C 
ATOM      3  C   LIG    1       26.347 -19.761   4.994  0.00  0.00    -0.039 A 
ATOM      4  C   LIG    1       27.299 -20.427   5.798  0.00  0.00    -0.043 A 
ATOM      5  C   LIG    1       26.877 -21.296   6.819  0.00  0.00    +0.005 A 
ATOM      6  C   LIG    1       25.522 -21.505   7.061  0.00  0.00    +0.020 A 
ATOM      7  C   LIG    1       24.580 -20.846   6.279  0.00  0.00    +0.041 A 
ATOM      8 CL   LIG    1       22.904 -21.081   6.589  0.00  0.00    -0.084 Cl
ATOM      9  C   LIG    1       28.779 -20.181   5.615  0.00  0.00    +0.050 C 
ATOM     10  C   LIG    1       29.160 -18.736   5.958  0.00  0.00    +0.085 C 
ATOM     11  N   LIG    1       28.947 -17.781   4.867  0.00  0.00    -0.315 NA
ATOM     12  H   LIG    1       29.337 -16.882   5.153  0.00  0.00    +0.122 HD
ATOM     13  C   LIG    1       24.983 -19.989   5.255  0.00  0.00    +0.024 A 
ATOM     14  C   LIG    1       27.536 -17.574   4.515  0.00  0.00    +0.088 C 
ENDROOT
TORSDOF 0
ENDMDL
MODEL 6
REMARK VINA RESULT:      -3.0      2.954      4.857
REMARK  Name = *****
REMARK                            x       y       z     vdW  Elec       q    Type
REMARK                         _______ _______ _______ _____ _____    ______ ____
ROOT
ATOM      1  C   LIG    1       26.137 -18.872   2.559  0.00  0.00    +0.014 C 
ATOM      2  C   LIG    1       26.095 -19.706   3.849  0.00  0.00    +0.030 C 
ATOM      3  C   LIG    1       24.700 -19.873   4.454  0.00  0.00    -0.039 A 
ATOM      4  C   LIG    1       24.507 -20.785   5.517  0.00  0.00    -0.043 A 
ATOM      5  C   LIG    1       23.235 -20.937   6.094  0.00  0.00    +0.005 A 
ATOM      6  C   LIG    1       22.152 -20.189   5.640  0.00  0.00    +0.020 A 
ATOM      7  C   LIG    1       22.337 -19.284   4.601  0.00  0.00    +0.041 A 
ATOM      8 CL   LIG    1       21.009 -18.337   4.052  0.00  0.00    -0.084 Cl
ATOM      9  C   LIG    1       25.665 -21.571   6.086  0.00  0.00    +0.050 C 
ATOM     10  C   LIG    1       26.697 -20.656   6.754  0.00  0.00    +0.085 C 
ATOM     11  N   LIG    1       27.663 -20.056   5.828  0.00  0.00    -0.315 NA
ATOM     12  H   LIG    1       28.368 -19.566   6.379  0.00  0.00    +0.122 HD
ATOM     13  C   LIG    1       23.592 -19.129   4.011  0.00  0.00    +0.024 A 
ATOM     14  C   LIG    1       27.074 -19.097   4.884  0.00  0.00    +0.088 C 
ENDROOT
TORSDOF 0
ENDMDL
MODEL 7
REMARK VINA RESULT:      -3.0      2.775      4.547
REMARK  Name = *****
REMARK                            x       y       z     vdW  Elec       q    Type
REMARK                         _______ _______ _______ _____ _____    ______ ____
ROOT
ATOM      1  C   LIG    1       25.957 -19.581   2.836  0.00  0.00    +0.014 C 
ATOM      2  C   LIG    1       24.711 -19.883   3.684  0.00  0.00    +0.030 C 
ATOM      3  C   LIG    1       23.859 -18.659   4.024  0.00  0.00    -0.039 A 
ATOM      4  C   LIG    1       22.589 -18.839   4.617  0.00  0.00    -0.043 A 
ATOM      5  C   LIG    1       21.801 -17.724   4.950  0.00  0.00    +0.005 A 
ATOM      6  C   LIG    1       22.260 -16.431   4.714  0.00  0.00    +0.020 A 
ATOM      7  C   LIG    1       23.512 -16.247   4.139  0.00  0.00    +0.041 A 
ATOM      8 CL   LIG    1       24.096 -14.652   3.866  0.00  0.00    -0.084 Cl
ATOM      9  C   LIG    1       22.076 -20.221   4.953  0.00  0.00    +0.050 C 
ATOM     10  C   LIG    1       22.930 -20.895   6.032  0.00  0.00    +0.085 C 
ATOM     11  N   LIG    1       24.137 -21.554   5.523  0.00  0.00    -0.315 NA
ATOM     12  H   LIG    1       24.568 -22.065   6.294  0.00  0.00    +0.122 HD
ATOM     13  C   LIG    1       24.302 -17.344   3.793  0.00  0.00    +0.024 A 
ATOM     14  C   LIG    1       25.139 -20.630   4.974  0.00  0.00    +0.088 C 
ENDROOT
TORSDOF 0
ENDMDL
MODEL 8
REMARK VINA RESULT:      -2.4      4.661      6.000
REMARK  Name = *****
REMARK                            x       y       z     vdW  Elec       q    Type
REMARK                         _______ _______ _______ _____ _____    ______ ____
ROOT
ATOM      1  C   LIG    1       22.352 -15.572   5.122  0.00  0.00    +0.014 C 
ATOM      2  C   LIG    1       23.691 -16.090   4.573  0.00  0.00    +0.030 C 
ATOM      3  C   LIG    1       24.490 -15.063   3.769  0.00  0.00    -0.039 A 
ATOM      4  C   LIG    1       25.821 -15.356   3.394  0.00  0.00    -0.043 A 
ATOM      5  C   LIG    1       26.562 -14.429   2.641  0.00  0.00    +0.005 A 
ATOM      6  C   LIG    1       25.998 -13.219   2.245  0.00  0.00    +0.020 A 
ATOM      7  C   LIG    1       24.687 -12.929   2.603  0.00  0.00    +0.041 A 
ATOM      8 CL   LIG    1       23.975 -11.447   2.096  0.00  0.00    -0.084 Cl
ATOM      9  C   LIG    1       26.454 -16.683   3.745  0.00  0.00    +0.050 C 
ATOM     10  C   LIG    1       25.754 -17.849   3.037  0.00  0.00    +0.085 C 
ATOM     11  N   LIG    1       24.549 -18.333   3.718  0.00  0.00    -0.315 NA
ATOM     12  H   LIG    1       24.230 -19.174   3.236  0.00  0.00    +0.122 HD
ATOM     13  C   LIG    1       23.941 -13.834   3.359  0.00  0.00    +0.024 A 
ATOM     14  C   LIG    1       23.440 -17.369   3.735  0.00  0.00    +0.088 C 
ENDROOT
TORSDOF 0
ENDMDL
MODEL 9
REMARK VINA RESULT:      -2.3      5.170      6.966
REMARK  Name = *****
REMARK                            x       y       z     vdW  Elec       q    Type
REMARK                         _______ _______ _______ _____ _____    ______ ____
ROOT
ATOM      1  C   LIG    1       28.523 -13.254   3.686  0.00  0.00    +0.014 C 
ATOM      2  C   LIG    1       27.650 -14.513   3.569  0.00  0.00    +0.030 C 
ATOM      3  C   LIG    1       26.162 -14.285   3.840  0.00  0.00    -0.039 A 
ATOM      4  C   LIG    1       25.237 -15.317   3.562  0.00  0.00    -0.043 A 
ATOM      5  C   LIG    1       23.869 -15.128   3.821  0.00  0.00    +0.005 A 
ATOM      6  C   LIG    1       23.405 -13.933   4.364  0.00  0.00    +0.020 A 
ATOM      7  C   LIG    1       24.311 -12.917   4.649  0.00  0.00    +0.041 A 
ATOM      8 CL   LIG    1       23.748 -11.447   5.343  0.00  0.00    -0.084 Cl
ATOM      9  C   LIG    1       25.702 -16.655   3.033  0.00  0.00    +0.050 C 
ATOM     10  C   LIG    1       26.572 -17.396   4.054  0.00  0.00    +0.085 C 
ATOM     11  N   LIG    1       27.982 -16.995   4.050  0.00  0.00    -0.315 NA
ATOM     12  H   LIG    1       28.492 -17.621   4.674  0.00  0.00    +0.122 HD
ATOM     13  C   LIG    1       25.671 -13.085   4.387  0.00  0.00    +0.024 A 
ATOM     14  C   LIG    1       28.216 -15.615   4.501  0.00  0.00    +0.088 C 
ENDROOT
TORSDOF 0
ENDMDL
