MODEL 1
REMARK VINA RESULT:      -4.4      0.000      0.000
REMARK  Name = *****
REMARK                            x       y       z     vdW  Elec       q    Type
REMARK                         _______ _______ _______ _____ _____    ______ ____
ROOT
ATOM      1  C   LIG    1       23.112 -21.467   7.062  0.00  0.00    +0.086 C 
ATOM      2  C   LIG    1       23.297 -20.558   5.899  0.00  0.00    +0.112 A 
ATOM      3  N   LIG    1       24.467 -20.436   5.158  0.00  0.00    -0.268 N 
ATOM      4  C   LIG    1       24.205 -19.494   4.187  0.00  0.00    +0.368 A 
ATOM      5  C   LIG    1       22.907 -19.098   4.375  0.00  0.00    +0.217 A 
ATOM      6  N   LIG    1       22.352 -19.767   5.430  0.00  0.00    -0.234 NA
ENDROOT
BRANCH   4   7
ATOM      7  N   LIG    1       25.099 -19.017   3.186  0.00  0.00    +0.100 N 
ATOM      8  O   LIG    1       25.571 -17.880   3.323  0.00  0.00    -0.575 OA
ATOM      9  O   LIG    1       25.354 -19.787   2.256  0.00  0.00    +0.043 OA
ENDBRANCH   4   7
BRANCH   3  10
ATOM     10  C   LIG    1       25.674 -21.224   5.366  0.00  0.00    +0.160 C 
BRANCH  10  11
ATOM     11  C   LIG    1       26.805 -20.450   6.064  0.00  0.00    +0.131 C 
ATOM     12  C   LIG    1       27.553 -21.328   7.062  0.00  0.00    +0.039 C 
BRANCH  11  13
ATOM     13  O   LIG    1       27.756 -19.946   5.129  0.00  0.00    -0.390 OA
ATOM     14  H   LIG    1       27.413 -20.091   4.224  0.00  0.00    +0.210 HD
ENDBRANCH  11  13
ENDBRANCH  10  11
ENDBRANCH   3  10
TORSDOF 4
ENDMDL
MODEL 2
REMARK VINA RESULT:      -4.1      5.907      6.991
REMARK  Name = *****
REMARK                            x       y       z     vdW  Elec       q    Type
REMARK                         _______ _______ _______ _____ _____    ______ ____
ROOT
ATOM      1  C   LIG    1       26.418 -16.396   3.314  0.00  0.00    +0.086 C 
ATOM      2  C   LIG    1       25.387 -15.357   3.580  0.00  0.00    +0.112 A 
ATOM      3  N   LIG    1       25.536 -13.998   3.325  0.00  0.00    -0.268 N 
ATOM      4  C   LIG    1       24.355 -13.407   3.718  0.00  0.00    +0.368 A 
ATOM      5  C   LIG    1       23.553 -14.417   4.181  0.00  0.00    +0.217 A 
ATOM      6  N   LIG    1       24.197 -15.619   4.085  0.00  0.00    -0.234 NA
ENDROOT
BRANCH   4   7
ATOM      7  N   LIG    1       24.025 -12.023   3.663  0.00  0.00    +0.100 N 
ATOM      8  O   LIG    1       23.911 -11.497   2.547  0.00  0.00    -0.575 OA
ATOM      9  O   LIG    1       23.857 -11.448   4.742  0.00  0.00    +0.043 OA
ENDBRANCH   4   7
BRANCH   3  10
ATOM     10  C   LIG    1       26.701 -13.389   2.699  0.00  0.00    +0.160 C 
BRANCH  10  11
ATOM     11  C   LIG    1       27.764 -12.913   3.703  0.00  0.00    +0.131 C 
ATOM     12  C   LIG    1       27.450 -13.386   5.119  0.00  0.00    +0.039 C 
BRANCH  11  13
ATOM     13  O   LIG    1       29.064 -13.391   3.362  0.00  0.00    -0.390 OA
ATOM     14  H   LIG    1       29.100 -14.353   3.536  0.00  0.00    +0.210 HD
ENDBRANCH  11  13
ENDBRANCH  10  11
ENDBRANCH   3  10
TORSDOF 4
ENDMDL
MODEL 3
REMARK VINA RESULT:      -3.9      5.373      6.512
REMARK  Name = *****
REMARK                            x       y       z     vdW  Elec       q    Type
REMARK                         _______ _______ _______ _____ _____    ______ ____
ROOT
ATOM      1  C   LIG    1       24.174 -11.914   3.221  0.00  0.00    +0.086 C 
ATOM      2  C   LIG    1       24.429 -13.356   3.480  0.00  0.00    +0.112 A 
ATOM      3  N   LIG    1       25.597 -14.033   3.151  0.00  0.00    -0.268 N 
ATOM      4  C   LIG    1       25.410 -15.335   3.562  0.00  0.00    +0.368 A 
ATOM      5  C   LIG    1       24.158 -15.387   4.119  0.00  0.00    +0.217 A 
ATOM      6  N   LIG    1       23.564 -14.158   4.071  0.00  0.00    -0.234 NA
ENDROOT
BRANCH   4   7
ATOM      7  N   LIG    1       26.325 -16.419   3.435  0.00  0.00    +0.100 N 
ATOM      8  O   LIG    1       27.497 -16.234   3.792  0.00  0.00    -0.575 OA
ATOM      9  O   LIG    1       25.873 -17.478   2.992  0.00  0.00    +0.043 OA
ENDBRANCH   4   7
BRANCH   3  10
ATOM     10  C   LIG    1       26.779 -13.422   2.558  0.00  0.00    +0.160 C 
BRANCH  10  11
ATOM     11  C   LIG    1       27.813 -12.946   3.592  0.00  0.00    +0.131 C 
ATOM     12  C   LIG    1       27.344 -13.214   5.019  0.00  0.00    +0.039 C 
BRANCH  11  13
ATOM     13  O   LIG    1       29.071 -13.595   3.418  0.00  0.00    -0.390 OA
ATOM     14  H   LIG    1       29.489 -13.707   4.295  0.00  0.00    +0.210 HD
ENDBRANCH  11  13
ENDBRANCH  10  11
ENDBRANCH   3  10
TORSDOF 4
ENDMDL
MODEL 4
REMARK VINA RESULT:      -3.9      1.532      3.338
REMARK  Name = *****
REMARK                            x       y       z     vdW  Elec       q    Type
REMARK                         _______ _______ _______ _____ _____    ______ ____
ROOT
ATOM      1  C   LIG    1       21.880 -20.824   4.551  0.00  0.00    +0.086 C 
ATOM      2  C   LIG    1       23.120 -20.839   5.373  0.00  0.00    +0.112 A 
ATOM      3  N   LIG    1       24.408 -20.666   4.880  0.00  0.00    -0.268 N 
ATOM      4  C   LIG    1       25.247 -20.753   5.970  0.00  0.00    +0.368 A 
ATOM      5  C   LIG    1       24.442 -20.964   7.059  0.00  0.00    +0.217 A 
ATOM      6  N   LIG    1       23.130 -21.007   6.681  0.00  0.00    -0.234 NA
ENDROOT
BRANCH   4   7
ATOM      7  N   LIG    1       26.667 -20.649   5.975  0.00  0.00    +0.100 N 
ATOM      8  O   LIG    1       27.185 -19.731   5.323  0.00  0.00    -0.575 OA
ATOM      9  O   LIG    1       27.282 -21.479   6.650  0.00  0.00    +0.043 OA
ENDBRANCH   4   7
BRANCH   3  10
ATOM     10  C   LIG    1       24.740 -20.383   3.490  0.00  0.00    +0.160 C 
BRANCH  10  11
ATOM     11  C   LIG    1       24.723 -18.884   3.145  0.00  0.00    +0.131 C 
ATOM     12  C   LIG    1       23.638 -18.142   3.919  0.00  0.00    +0.039 C 
BRANCH  11  13
ATOM     13  O   LIG    1       25.972 -18.260   3.439  0.00  0.00    -0.390 OA
ATOM     14  H   LIG    1       26.572 -18.388   2.678  0.00  0.00    +0.210 HD
ENDBRANCH  11  13
ENDBRANCH  10  11
ENDBRANCH   3  10
TORSDOF 4
ENDMDL
MODEL 5
REMARK VINA RESULT:      -3.7      2.345      3.143
REMARK  Name = *****
REMARK                            x       y       z     vdW  Elec       q    Type
REMARK                         _______ _______ _______ _____ _____    ______ ____
ROOT
ATOM      1  C   LIG    1       25.681 -18.056   3.310  0.00  0.00    +0.086 C 
ATOM      2  C   LIG    1       24.416 -18.607   3.865  0.00  0.00    +0.112 A 
ATOM      3  N   LIG    1       24.275 -19.866   4.437  0.00  0.00    -0.268 N 
ATOM      4  C   LIG    1       22.953 -19.966   4.813  0.00  0.00    +0.368 A 
ATOM      5  C   LIG    1       22.362 -18.780   4.464  0.00  0.00    +0.217 A 
ATOM      6  N   LIG    1       23.276 -17.944   3.886  0.00  0.00    -0.234 NA
ENDROOT
BRANCH   4   7
ATOM      7  N   LIG    1       22.316 -21.077   5.436  0.00  0.00    +0.100 N 
ATOM      8  O   LIG    1       22.754 -21.458   6.531  0.00  0.00    -0.575 OA
ATOM      9  O   LIG    1       21.354 -21.572   4.842  0.00  0.00    +0.043 OA
ENDBRANCH   4   7
BRANCH   3  10
ATOM     10  C   LIG    1       25.358 -20.818   4.638  0.00  0.00    +0.160 C 
BRANCH  10  11
ATOM     11  C   LIG    1       26.306 -20.442   5.789  0.00  0.00    +0.131 C 
ATOM     12  C   LIG    1       26.300 -21.499   6.889  0.00  0.00    +0.039 C 
BRANCH  11  13
ATOM     13  O   LIG    1       27.650 -20.289   5.339  0.00  0.00    -0.390 OA
ATOM     14  H   LIG    1       27.811 -19.344   5.148  0.00  0.00    +0.210 HD
ENDBRANCH  11  13
ENDBRANCH  10  11
ENDBRANCH   3  10
TORSDOF 4
ENDMDL
MODEL 6
REMARK VINA RESULT:      -3.4      2.442      4.330
REMARK  Name = *****
REMARK                            x       y       z     vdW  Elec       q    Type
REMARK                         _______ _______ _______ _____ _____    ______ ____
ROOT
ATOM      1  C   LIG    1       28.403 -19.468   5.420  0.00  0.00    +0.086 C 
ATOM      2  C   LIG    1       27.193 -20.198   5.880  0.00  0.00    +0.112 A 
ATOM      3  N   LIG    1       25.976 -20.233   5.209  0.00  0.00    -0.268 N 
ATOM      4  C   LIG    1       25.140 -21.013   5.978  0.00  0.00    +0.368 A 
ATOM      5  C   LIG    1       25.877 -21.416   7.061  0.00  0.00    +0.217 A 
ATOM      6  N   LIG    1       27.146 -20.914   6.988  0.00  0.00    -0.234 NA
ENDROOT
BRANCH   4   7
ATOM      7  N   LIG    1       23.779 -21.339   5.712  0.00  0.00    +0.100 N 
ATOM      8  O   LIG    1       23.454 -21.563   4.537  0.00  0.00    -0.575 OA
ATOM      9  O   LIG    1       23.021 -21.394   6.684  0.00  0.00    +0.043 OA
ENDBRANCH   4   7
BRANCH   3  10
ATOM     10  C   LIG    1       25.716 -19.611   3.918  0.00  0.00    +0.160 C 
BRANCH  10  11
ATOM     11  C   LIG    1       24.761 -18.408   3.993  0.00  0.00    +0.131 C 
ATOM     12  C   LIG    1       25.348 -17.181   3.303  0.00  0.00    +0.039 C 
BRANCH  11  13
ATOM     13  O   LIG    1       23.504 -18.692   3.382  0.00  0.00    -0.390 OA
ATOM     14  H   LIG    1       23.418 -18.146   2.575  0.00  0.00    +0.210 HD
ENDBRANCH  11  13
ENDBRANCH  10  11
ENDBRANCH   3  10
TORSDOF 4
ENDMDL
MODEL 7
REMARK VINA RESULT:      -3.3      2.741      4.795
REMARK  Name = *****
REMARK                            x       y       z     vdW  Elec       q    Type
REMARK                         _______ _______ _______ _____ _____    ______ ____
ROOT
ATOM      1  C   LIG    1       26.130 -18.266   3.313  0.00  0.00    +0.086 C 
ATOM      2  C   LIG    1       25.593 -19.295   4.243  0.00  0.00    +0.112 A 
ATOM      3  N   LIG    1       24.250 -19.627   4.380  0.00  0.00    -0.268 N 
ATOM      4  C   LIG    1       24.198 -20.614   5.339  0.00  0.00    +0.368 A 
ATOM      5  C   LIG    1       25.492 -20.838   5.732  0.00  0.00    +0.217 A 
ATOM      6  N   LIG    1       26.347 -20.024   5.043  0.00  0.00    -0.234 NA
ENDROOT
BRANCH   4   7
ATOM      7  N   LIG    1       23.037 -21.274   5.835  0.00  0.00    +0.100 N 
ATOM      8  O   LIG    1       22.124 -21.522   5.035  0.00  0.00    -0.575 OA
ATOM      9  O   LIG    1       23.035 -21.568   7.033  0.00  0.00    +0.043 OA
ENDBRANCH   4   7
BRANCH   3  10
ATOM     10  C   LIG    1       23.165 -19.062   3.588  0.00  0.00    +0.160 C 
BRANCH  10  11
ATOM     11  C   LIG    1       22.061 -18.406   4.433  0.00  0.00    +0.131 C 
ATOM     12  C   LIG    1       22.327 -16.920   4.649  0.00  0.00    +0.039 C 
BRANCH  11  13
ATOM     13  O   LIG    1       20.779 -18.534   3.819  0.00  0.00    -0.390 OA
ATOM     14  H   LIG    1       20.862 -18.305   2.872  0.00  0.00    +0.210 HD
ENDBRANCH  11  13
ENDBRANCH  10  11
ENDBRANCH   3  10
TORSDOF 4
ENDMDL
MODEL 8
REMARK VINA RESULT:      -3.3      1.901      3.868
REMARK  Name = *****
REMARK                            x       y       z     vdW  Elec       q    Type
REMARK                         _______ _______ _______ _____ _____    ______ ____
ROOT
ATOM      1  C   LIG    1       23.491 -21.375   5.131  0.00  0.00    +0.086 C 
ATOM      2  C   LIG    1       24.841 -21.131   5.706  0.00  0.00    +0.112 A 
ATOM      3  N   LIG    1       25.856 -20.409   5.087  0.00  0.00    -0.268 N 
ATOM      4  C   LIG    1       26.923 -20.433   5.958  0.00  0.00    +0.368 A 
ATOM      5  C   LIG    1       26.514 -21.151   7.051  0.00  0.00    +0.217 A 
ATOM      6  N   LIG    1       25.224 -21.571   6.889  0.00  0.00    -0.234 NA
ENDROOT
BRANCH   4   7
ATOM      7  N   LIG    1       28.203 -19.837   5.768  0.00  0.00    +0.100 N 
ATOM      8  O   LIG    1       29.193 -20.433   6.215  0.00  0.00    -0.575 OA
ATOM      9  O   LIG    1       28.232 -18.769   5.151  0.00  0.00    +0.043 OA
ENDBRANCH   4   7
BRANCH   3  10
ATOM     10  C   LIG    1       25.733 -19.726   3.807  0.00  0.00    +0.160 C 
BRANCH  10  11
ATOM     11  C   LIG    1       25.046 -18.354   3.903  0.00  0.00    +0.131 C 
ATOM     12  C   LIG    1       25.773 -17.302   3.070  0.00  0.00    +0.039 C 
BRANCH  11  13
ATOM     13  O   LIG    1       23.693 -18.407   3.453  0.00  0.00    -0.390 OA
ATOM     14  H   LIG    1       23.129 -18.710   4.192  0.00  0.00    +0.210 HD
ENDBRANCH  11  13
ENDBRANCH  10  11
ENDBRANCH   3  10
TORSDOF 4
ENDMDL
MODEL 9
REMARK VINA RESULT:      -2.8      4.710      6.488
REMARK  Name = *****
REMARK                            x       y       z     vdW  Elec       q    Type
REMARK                         _______ _______ _______ _____ _____    ______ ____
ROOT
ATOM      1  C   LIG    1       22.696 -16.223   4.510  0.00  0.00    +0.086 C 
ATOM      2  C   LIG    1       24.098 -16.201   4.014  0.00  0.00    +0.112 A 
ATOM      3  N   LIG    1       24.879 -15.059   3.873  0.00  0.00    -0.268 N 
ATOM      4  C   LIG    1       26.095 -15.487   3.388  0.00  0.00    +0.368 A 
ATOM      5  C   LIG    1       26.002 -16.849   3.264  0.00  0.00    +0.217 A 
ATOM      6  N   LIG    1       24.768 -17.281   3.661  0.00  0.00    -0.234 NA
ENDROOT
BRANCH   4   7
ATOM      7  N   LIG    1       27.228 -14.684   3.071  0.00  0.00    +0.100 N 
ATOM      8  O   LIG    1       27.285 -14.181   1.940  0.00  0.00    -0.575 OA
ATOM      9  O   LIG    1       28.068 -14.533   3.962  0.00  0.00    +0.043 OA
ENDBRANCH   4   7
BRANCH   3  10
ATOM     10  C   LIG    1       24.466 -13.713   4.248  0.00  0.00    +0.160 C 
BRANCH  10  11
ATOM     11  C   LIG    1       23.872 -12.903   3.084  0.00  0.00    +0.131 C 
ATOM     12  C   LIG    1       23.639 -11.447   3.476  0.00  0.00    +0.039 C 
BRANCH  11  13
ATOM     13  O   LIG    1       24.725 -12.915   1.942  0.00  0.00    -0.390 OA
ATOM     14  H   LIG    1       25.589 -13.293   2.200  0.00  0.00    +0.210 HD
ENDBRANCH  11  13
ENDBRANCH  10  11
ENDBRANCH   3  10
TORSDOF 4
ENDMDL
