MODEL 1
REMARK VINA RESULT:      -4.9      0.000      0.000
REMARK  Name = *****
REMARK                            x       y       z     vdW  Elec       q    Type
REMARK                         _______ _______ _______ _____ _____    ______ ____
ROOT
ATOM      1  C   LIG    1       27.426 -17.887   4.230  0.00  0.00    -0.016 A 
ATOM      2  C   LIG    1       27.262 -19.222   4.662  0.00  0.00    +0.035 A 
ATOM      3  C   LIG    1       28.272 -19.805   5.441  0.00  0.00    +0.023 A 
ATOM      4  C   LIG    1       29.336 -19.047   5.930  0.00  0.00    +0.002 A 
ATOM      5  C   LIG    1       29.449 -17.708   5.578  0.00  0.00    +0.000 A 
ATOM      6  C   LIG    1       28.521 -17.140   4.706  0.00  0.00    +0.006 A 
ENDROOT
BRANCH   2   7
ATOM      7  N   LIG    1       26.101 -19.949   4.316  0.00  0.00    -0.312 N 
ATOM      8  H   LIG    1       26.288 -20.607   3.559  0.00  0.00    +0.152 HD
BRANCH   7   9
ATOM      9  C   LIG    1       25.021 -20.400   5.133  0.00  0.00    +0.068 A 
ATOM     10  C   LIG    1       23.704 -19.994   4.803  0.00  0.00    +0.064 A 
ATOM     11 CL   LIG    1       23.408 -19.004   3.408  0.00  0.00    -0.082 Cl
ATOM     12  C   LIG    1       22.594 -20.360   5.577  0.00  0.00    +0.022 A 
ATOM     13  C   LIG    1       22.761 -21.164   6.697  0.00  0.00    +0.003 A 
ATOM     14  C   LIG    1       24.042 -21.563   7.062  0.00  0.00    +0.022 A 
ATOM     15  C   LIG    1       25.163 -21.151   6.323  0.00  0.00    +0.064 A 
ATOM     16 CL   LIG    1       26.686 -21.532   7.062  0.00  0.00    -0.082 Cl
ENDBRANCH   7   9
ENDBRANCH   2   7
BRANCH   1  17
ATOM     17  C   LIG    1       26.426 -17.205   3.325  0.00  0.00    +0.157 C 
BRANCH  17  18
ATOM     18  C   LIG    1       26.555 -15.705   3.330  0.00  0.00    +0.312 C 
ATOM     19  O   LIG    1       27.417 -15.075   2.722  0.00  0.00    -0.251 OA
BRANCH  18  20
ATOM     20  O   LIG    1       25.567 -15.136   4.071  0.00  0.00    -0.453 OA
BRANCH  20  21
ATOM     21  C   LIG    1       25.667 -13.721   4.308  0.00  0.00    +0.352 C 
BRANCH  21  23
ATOM     22  O   LIG    1       23.837 -12.219   3.791  0.00  0.00    -0.247 OA
ATOM     23  C   LIG    1       24.706 -12.983   3.395  0.00  0.00    +0.343 C 
BRANCH  23  24
ATOM     24  O   LIG    1       24.918 -13.217   2.078  0.00  0.00    -0.478 OA
ATOM     25  H   LIG    1       25.014 -12.387   1.568  0.00  0.00    +0.295 HD
ENDBRANCH  23  24
ENDBRANCH  21  23
ENDBRANCH  20  21
ENDBRANCH  18  20
ENDBRANCH  17  18
ENDBRANCH   1  17
TORSDOF 8
ENDMDL
MODEL 2
REMARK VINA RESULT:      -4.6      2.366      3.874
REMARK  Name = *****
REMARK                            x       y       z     vdW  Elec       q    Type
REMARK                         _______ _______ _______ _____ _____    ______ ____
ROOT
ATOM      1  C   LIG    1       24.962 -16.302   3.763  0.00  0.00    -0.016 A 
ATOM      2  C   LIG    1       24.189 -17.450   4.045  0.00  0.00    +0.035 A 
ATOM      3  C   LIG    1       22.883 -17.279   4.527  0.00  0.00    +0.023 A 
ATOM      4  C   LIG    1       22.288 -16.018   4.568  0.00  0.00    +0.002 A 
ATOM      5  C   LIG    1       23.021 -14.896   4.204  0.00  0.00    +0.000 A 
ATOM      6  C   LIG    1       24.359 -15.032   3.837  0.00  0.00    +0.006 A 
ENDROOT
BRANCH   2   7
ATOM      7  N   LIG    1       24.725 -18.742   3.841  0.00  0.00    -0.312 N 
ATOM      8  H   LIG    1       25.222 -18.801   2.952  0.00  0.00    +0.152 HD
BRANCH   7   9
ATOM      9  C   LIG    1       25.245 -19.679   4.784  0.00  0.00    +0.068 A 
ATOM     10  C   LIG    1       24.345 -20.566   5.426  0.00  0.00    +0.064 A 
ATOM     11 CL   LIG    1       22.653 -20.541   5.041  0.00  0.00    -0.082 Cl
ATOM     12  C   LIG    1       24.769 -21.489   6.393  0.00  0.00    +0.022 A 
ATOM     13  C   LIG    1       26.113 -21.571   6.735  0.00  0.00    +0.003 A 
ATOM     14  C   LIG    1       27.019 -20.700   6.140  0.00  0.00    +0.022 A 
ATOM     15  C   LIG    1       26.591 -19.735   5.214  0.00  0.00    +0.064 A 
ATOM     16 CL   LIG    1       27.808 -18.582   4.768  0.00  0.00    -0.082 Cl
ENDBRANCH   7   9
ENDBRANCH   2   7
BRANCH   1  17
ATOM     17  C   LIG    1       26.402 -16.392   3.313  0.00  0.00    +0.157 C 
BRANCH  17  18
ATOM     18  C   LIG    1       27.030 -15.044   3.072  0.00  0.00    +0.312 C 
ATOM     19  O   LIG    1       26.868 -14.368   2.060  0.00  0.00    -0.251 OA
BRANCH  18  20
ATOM     20  O   LIG    1       27.774 -14.659   4.144  0.00  0.00    -0.453 OA
BRANCH  20  21
ATOM     21  C   LIG    1       27.504 -13.354   4.685  0.00  0.00    +0.352 C 
BRANCH  21  23
ATOM     22  O   LIG    1       29.432 -12.398   3.572  0.00  0.00    -0.247 OA
ATOM     23  C   LIG    1       28.749 -12.493   4.582  0.00  0.00    +0.343 C 
BRANCH  23  24
ATOM     24  O   LIG    1       29.026 -11.798   5.711  0.00  0.00    -0.478 OA
ATOM     25  H   LIG    1       29.508 -12.341   6.367  0.00  0.00    +0.295 HD
ENDBRANCH  23  24
ENDBRANCH  21  23
ENDBRANCH  20  21
ENDBRANCH  18  20
ENDBRANCH  17  18
ENDBRANCH   1  17
TORSDOF 8
ENDMDL
MODEL 3
REMARK VINA RESULT:      -4.5      1.932      4.395
REMARK  Name = *****
REMARK                            x       y       z     vdW  Elec       q    Type
REMARK                         _______ _______ _______ _____ _____    ______ ____
ROOT
ATOM      1  C   LIG    1       24.115 -17.787   4.053  0.00  0.00    -0.016 A 
ATOM      2  C   LIG    1       24.609 -19.090   4.285  0.00  0.00    +0.035 A 
ATOM      3  C   LIG    1       23.713 -20.083   4.706  0.00  0.00    +0.023 A 
ATOM      4  C   LIG    1       22.338 -19.851   4.732  0.00  0.00    +0.002 A 
ATOM      5  C   LIG    1       21.843 -18.592   4.415  0.00  0.00    +0.000 A 
ATOM      6  C   LIG    1       22.727 -17.558   4.111  0.00  0.00    +0.006 A 
ENDROOT
BRANCH   2   7
ATOM      7  N   LIG    1       25.979 -19.381   4.094  0.00  0.00    -0.312 N 
ATOM      8  H   LIG    1       26.315 -19.012   3.204  0.00  0.00    +0.152 HD
BRANCH   7   9
ATOM      9  C   LIG    1       27.039 -19.475   5.044  0.00  0.00    +0.068 A 
ATOM     10  C   LIG    1       26.960 -20.467   6.054  0.00  0.00    +0.064 A 
ATOM     11 CL   LIG    1       25.621 -21.571   6.105  0.00  0.00    -0.082 Cl
ATOM     12  C   LIG    1       27.938 -20.600   7.049  0.00  0.00    +0.022 A 
ATOM     13  C   LIG    1       29.043 -19.758   7.055  0.00  0.00    +0.003 A 
ATOM     14  C   LIG    1       29.142 -18.760   6.092  0.00  0.00    +0.022 A 
ATOM     15  C   LIG    1       28.135 -18.586   5.128  0.00  0.00    +0.064 A 
ATOM     16 CL   LIG    1       28.301 -17.147   4.173  0.00  0.00    -0.082 Cl
ENDBRANCH   7   9
ENDBRANCH   2   7
BRANCH   1  17
ATOM     17  C   LIG    1       25.021 -16.639   3.671  0.00  0.00    +0.157 C 
BRANCH  17  18
ATOM     18  C   LIG    1       24.394 -15.291   3.907  0.00  0.00    +0.312 C 
ATOM     19  O   LIG    1       23.322 -15.108   4.478  0.00  0.00    -0.251 OA
BRANCH  18  20
ATOM     20  O   LIG    1       25.193 -14.296   3.433  0.00  0.00    -0.453 OA
BRANCH  20  21
ATOM     21  C   LIG    1       26.382 -14.005   4.187  0.00  0.00    +0.352 C 
BRANCH  21  23
ATOM     22  O   LIG    1       28.645 -13.381   3.586  0.00  0.00    -0.247 OA
ATOM     23  C   LIG    1       27.547 -13.791   3.238  0.00  0.00    +0.343 C 
BRANCH  23  24
ATOM     24  O   LIG    1       27.273 -14.132   1.956  0.00  0.00    -0.478 OA
ATOM     25  H   LIG    1       26.477 -14.697   1.888  0.00  0.00    +0.295 HD
ENDBRANCH  23  24
ENDBRANCH  21  23
ENDBRANCH  20  21
ENDBRANCH  18  20
ENDBRANCH  17  18
ENDBRANCH   1  17
TORSDOF 8
ENDMDL
MODEL 4
REMARK VINA RESULT:      -4.3      1.146      2.591
REMARK  Name = *****
REMARK                            x       y       z     vdW  Elec       q    Type
REMARK                         _______ _______ _______ _____ _____    ______ ____
ROOT
ATOM      1  C   LIG    1       27.211 -17.893   4.129  0.00  0.00    -0.016 A 
ATOM      2  C   LIG    1       27.261 -19.190   4.685  0.00  0.00    +0.035 A 
ATOM      3  C   LIG    1       28.354 -19.532   5.495  0.00  0.00    +0.023 A 
ATOM      4  C   LIG    1       29.286 -18.574   5.893  0.00  0.00    +0.002 A 
ATOM      5  C   LIG    1       29.186 -17.273   5.417  0.00  0.00    +0.000 A 
ATOM      6  C   LIG    1       28.176 -16.942   4.514  0.00  0.00    +0.006 A 
ENDROOT
BRANCH   2   7
ATOM      7  N   LIG    1       26.228 -20.119   4.429  0.00  0.00    -0.312 N 
ATOM      8  H   LIG    1       26.601 -20.996   4.062  0.00  0.00    +0.152 HD
BRANCH   7   9
ATOM      9  C   LIG    1       24.993 -20.333   5.113  0.00  0.00    +0.068 A 
ATOM     10  C   LIG    1       25.014 -21.029   6.347  0.00  0.00    +0.064 A 
ATOM     11 CL   LIG    1       26.513 -21.571   7.032  0.00  0.00    -0.082 Cl
ATOM     12  C   LIG    1       23.842 -21.316   7.062  0.00  0.00    +0.022 A 
ATOM     13  C   LIG    1       22.611 -20.896   6.576  0.00  0.00    +0.003 A 
ATOM     14  C   LIG    1       22.552 -20.230   5.357  0.00  0.00    +0.022 A 
ATOM     15  C   LIG    1       23.717 -19.991   4.609  0.00  0.00    +0.064 A 
ATOM     16 CL   LIG    1       23.429 -19.377   3.013  0.00  0.00    -0.082 Cl
ENDBRANCH   7   9
ENDBRANCH   2   7
BRANCH   1  17
ATOM     17  C   LIG    1       26.112 -17.464   3.185  0.00  0.00    +0.157 C 
BRANCH  17  18
ATOM     18  C   LIG    1       25.660 -16.045   3.413  0.00  0.00    +0.312 C 
ATOM     19  O   LIG    1       24.632 -15.725   4.004  0.00  0.00    -0.251 OA
BRANCH  18  20
ATOM     20  O   LIG    1       26.562 -15.162   2.906  0.00  0.00    -0.453 OA
BRANCH  20  21
ATOM     21  C   LIG    1       26.477 -13.806   3.377  0.00  0.00    +0.352 C 
BRANCH  21  23
ATOM     22  O   LIG    1       28.826 -13.286   3.662  0.00  0.00    -0.247 OA
ATOM     23  C   LIG    1       27.727 -13.462   4.167  0.00  0.00    +0.343 C 
BRANCH  23  24
ATOM     24  O   LIG    1       27.510 -13.330   5.498  0.00  0.00    -0.478 OA
ATOM     25  H   LIG    1       28.337 -13.148   5.988  0.00  0.00    +0.295 HD
ENDBRANCH  23  24
ENDBRANCH  21  23
ENDBRANCH  20  21
ENDBRANCH  18  20
ENDBRANCH  17  18
ENDBRANCH   1  17
TORSDOF 8
ENDMDL
MODEL 5
REMARK VINA RESULT:      -4.2      1.130      1.521
REMARK  Name = *****
REMARK                            x       y       z     vdW  Elec       q    Type
REMARK                         _______ _______ _______ _____ _____    ______ ____
ROOT
ATOM      1  C   LIG    1       27.332 -17.682   4.227  0.00  0.00    -0.016 A 
ATOM      2  C   LIG    1       27.270 -19.038   4.619  0.00  0.00    +0.035 A 
ATOM      3  C   LIG    1       28.353 -19.583   5.324  0.00  0.00    +0.023 A 
ATOM      4  C   LIG    1       29.393 -18.778   5.786  0.00  0.00    +0.002 A 
ATOM      5  C   LIG    1       29.408 -17.423   5.477  0.00  0.00    +0.000 A 
ATOM      6  C   LIG    1       28.403 -16.885   4.674  0.00  0.00    +0.006 A 
ENDROOT
BRANCH   2   7
ATOM      7  N   LIG    1       26.138 -19.823   4.305  0.00  0.00    -0.312 N 
ATOM      8  H   LIG    1       26.342 -20.485   3.556  0.00  0.00    +0.152 HD
BRANCH   7   9
ATOM      9  C   LIG    1       25.094 -20.309   5.149  0.00  0.00    +0.068 A 
ATOM     10  C   LIG    1       23.768 -19.869   4.911  0.00  0.00    +0.064 A 
ATOM     11 CL   LIG    1       23.416 -18.795   3.593  0.00  0.00    -0.082 Cl
ATOM     12  C   LIG    1       22.693 -20.267   5.718  0.00  0.00    +0.022 A 
ATOM     13  C   LIG    1       22.905 -21.137   6.779  0.00  0.00    +0.003 A 
ATOM     14  C   LIG    1       24.196 -21.572   7.054  0.00  0.00    +0.022 A 
ATOM     15  C   LIG    1       25.285 -21.130   6.284  0.00  0.00    +0.064 A 
ATOM     16 CL   LIG    1       26.837 -21.572   6.921  0.00  0.00    -0.082 Cl
ENDBRANCH   7   9
ENDBRANCH   2   7
BRANCH   1  17
ATOM     17  C   LIG    1       26.246 -17.033   3.400  0.00  0.00    +0.157 C 
BRANCH  17  18
ATOM     18  C   LIG    1       26.424 -15.544   3.258  0.00  0.00    +0.312 C 
ATOM     19  O   LIG    1       26.432 -14.939   2.190  0.00  0.00    -0.251 OA
BRANCH  18  20
ATOM     20  O   LIG    1       26.540 -14.953   4.478  0.00  0.00    -0.453 OA
BRANCH  20  21
ATOM     21  C   LIG    1       26.514 -13.515   4.506  0.00  0.00    +0.352 C 
BRANCH  21  23
ATOM     22  O   LIG    1       28.616 -12.563   5.245  0.00  0.00    -0.247 OA
ATOM     23  C   LIG    1       27.922 -12.977   4.327  0.00  0.00    +0.343 C 
BRANCH  23  24
ATOM     24  O   LIG    1       28.365 -13.027   3.048  0.00  0.00    -0.478 OA
ATOM     25  H   LIG    1       28.041 -12.272   2.517  0.00  0.00    +0.295 HD
ENDBRANCH  23  24
ENDBRANCH  21  23
ENDBRANCH  20  21
ENDBRANCH  18  20
ENDBRANCH  17  18
ENDBRANCH   1  17
TORSDOF 8
ENDMDL
MODEL 6
REMARK VINA RESULT:      -4.1      3.348      5.976
REMARK  Name = *****
REMARK                            x       y       z     vdW  Elec       q    Type
REMARK                         _______ _______ _______ _____ _____    ______ ____
ROOT
ATOM      1  C   LIG    1       26.678 -18.864   4.309  0.00  0.00    -0.016 A 
ATOM      2  C   LIG    1       27.213 -17.566   4.146  0.00  0.00    +0.035 A 
ATOM      3  C   LIG    1       28.394 -17.236   4.827  0.00  0.00    +0.023 A 
ATOM      4  C   LIG    1       29.128 -18.204   5.511  0.00  0.00    +0.002 A 
ATOM      5  C   LIG    1       28.647 -19.505   5.595  0.00  0.00    +0.000 A 
ATOM      6  C   LIG    1       27.414 -19.825   5.029  0.00  0.00    +0.006 A 
ENDROOT
BRANCH   2   7
ATOM      7  N   LIG    1       26.567 -16.626   3.312  0.00  0.00    -0.312 N 
ATOM      8  H   LIG    1       26.163 -17.076   2.490  0.00  0.00    +0.152 HD
BRANCH   7   9
ATOM      9  C   LIG    1       25.853 -15.437   3.650  0.00  0.00    +0.068 A 
ATOM     10  C   LIG    1       26.580 -14.229   3.804  0.00  0.00    +0.064 A 
ATOM     11 CL   LIG    1       28.295 -14.191   3.543  0.00  0.00    -0.082 Cl
ATOM     12  C   LIG    1       25.961 -13.027   4.173  0.00  0.00    +0.022 A 
ATOM     13  C   LIG    1       24.588 -12.987   4.381  0.00  0.00    +0.003 A 
ATOM     14  C   LIG    1       23.848 -14.157   4.260  0.00  0.00    +0.022 A 
ATOM     15  C   LIG    1       24.472 -15.376   3.946  0.00  0.00    +0.064 A 
ATOM     16 CL   LIG    1       23.440 -16.764   4.083  0.00  0.00    -0.082 Cl
ENDBRANCH   7   9
ENDBRANCH   2   7
BRANCH   1  17
ATOM     17  C   LIG    1       25.371 -19.281   3.676  0.00  0.00    +0.157 C 
BRANCH  17  18
ATOM     18  C   LIG    1       24.728 -20.453   4.370  0.00  0.00    +0.312 C 
ATOM     19  O   LIG    1       24.570 -21.563   3.868  0.00  0.00    -0.251 OA
BRANCH  18  20
ATOM     20  O   LIG    1       24.376 -20.128   5.643  0.00  0.00    -0.453 OA
BRANCH  20  21
ATOM     21  C   LIG    1       23.127 -20.654   6.124  0.00  0.00    +0.352 C 
BRANCH  21  23
ATOM     22  O   LIG    1       21.743 -19.331   4.639  0.00  0.00    -0.247 OA
ATOM     23  C   LIG    1       22.046 -20.429   5.083  0.00  0.00    +0.343 C 
BRANCH  23  24
ATOM     24  O   LIG    1       21.457 -21.571   4.654  0.00  0.00    -0.478 OA
ATOM     25  H   LIG    1       21.052 -21.465   3.769  0.00  0.00    +0.295 HD
ENDBRANCH  23  24
ENDBRANCH  21  23
ENDBRANCH  20  21
ENDBRANCH  18  20
ENDBRANCH  17  18
ENDBRANCH   1  17
TORSDOF 8
ENDMDL
MODEL 7
REMARK VINA RESULT:      -4.1      3.321      5.896
REMARK  Name = *****
REMARK                            x       y       z     vdW  Elec       q    Type
REMARK                         _______ _______ _______ _____ _____    ______ ____
ROOT
ATOM      1  C   LIG    1       26.769 -18.927   4.438  0.00  0.00    -0.016 A 
ATOM      2  C   LIG    1       27.370 -17.667   4.224  0.00  0.00    +0.035 A 
ATOM      3  C   LIG    1       28.582 -17.382   4.870  0.00  0.00    +0.023 A 
ATOM      4  C   LIG    1       29.276 -18.368   5.570  0.00  0.00    +0.002 A 
ATOM      5  C   LIG    1       28.727 -19.637   5.705  0.00  0.00    +0.000 A 
ATOM      6  C   LIG    1       27.466 -19.905   5.172  0.00  0.00    +0.006 A 
ENDROOT
BRANCH   2   7
ATOM      7  N   LIG    1       26.759 -16.717   3.374  0.00  0.00    -0.312 N 
ATOM      8  H   LIG    1       26.346 -17.165   2.555  0.00  0.00    +0.152 HD
BRANCH   7   9
ATOM      9  C   LIG    1       26.080 -15.502   3.692  0.00  0.00    +0.068 A 
ATOM     10  C   LIG    1       24.670 -15.531   3.838  0.00  0.00    +0.064 A 
ATOM     11 CL   LIG    1       23.795 -17.021   3.677  0.00  0.00    -0.082 Cl
ATOM     12  C   LIG    1       23.925 -14.375   4.109  0.00  0.00    +0.022 A 
ATOM     13  C   LIG    1       24.567 -13.153   4.265  0.00  0.00    +0.003 A 
ATOM     14  C   LIG    1       25.946 -13.086   4.106  0.00  0.00    +0.022 A 
ATOM     15  C   LIG    1       26.691 -14.230   3.777  0.00  0.00    +0.064 A 
ATOM     16 CL   LIG    1       28.349 -13.913   3.376  0.00  0.00    -0.082 Cl
ENDBRANCH   7   9
ENDBRANCH   2   7
BRANCH   1  17
ATOM     17  C   LIG    1       25.428 -19.291   3.844  0.00  0.00    +0.157 C 
BRANCH  17  18
ATOM     18  C   LIG    1       24.779 -20.465   4.528  0.00  0.00    +0.312 C 
ATOM     19  O   LIG    1       24.622 -21.572   4.019  0.00  0.00    -0.251 OA
BRANCH  18  20
ATOM     20  O   LIG    1       24.421 -20.146   5.801  0.00  0.00    -0.453 OA
BRANCH  20  21
ATOM     21  C   LIG    1       23.154 -20.647   6.262  0.00  0.00    +0.352 C 
BRANCH  21  23
ATOM     22  O   LIG    1       21.838 -19.342   4.702  0.00  0.00    -0.247 OA
ATOM     23  C   LIG    1       22.101 -20.431   5.191  0.00  0.00    +0.343 C 
BRANCH  23  24
ATOM     24  O   LIG    1       21.491 -21.572   4.790  0.00  0.00    -0.478 OA
ATOM     25  H   LIG    1       21.305 -22.172   5.540  0.00  0.00    +0.295 HD
ENDBRANCH  23  24
ENDBRANCH  21  23
ENDBRANCH  20  21
ENDBRANCH  18  20
ENDBRANCH  17  18
ENDBRANCH   1  17
TORSDOF 8
ENDMDL
MODEL 8
REMARK VINA RESULT:      -4.0      2.325      3.991
REMARK  Name = *****
REMARK                            x       y       z     vdW  Elec       q    Type
REMARK                         _______ _______ _______ _____ _____    ______ ____
ROOT
ATOM      1  C   LIG    1       25.236 -16.125   3.702  0.00  0.00    -0.016 A 
ATOM      2  C   LIG    1       24.593 -17.353   3.971  0.00  0.00    +0.035 A 
ATOM      3  C   LIG    1       23.260 -17.333   4.409  0.00  0.00    +0.023 A 
ATOM      4  C   LIG    1       22.521 -16.150   4.416  0.00  0.00    +0.002 A 
ATOM      5  C   LIG    1       23.130 -14.952   4.064  0.00  0.00    +0.000 A 
ATOM      6  C   LIG    1       24.486 -14.933   3.742  0.00  0.00    +0.006 A 
ENDROOT
BRANCH   2   7
ATOM      7  N   LIG    1       25.283 -18.575   3.800  0.00  0.00    -0.312 N 
ATOM      8  H   LIG    1       26.005 -18.495   3.084  0.00  0.00    +0.152 HD
BRANCH   7   9
ATOM      9  C   LIG    1       25.615 -19.584   4.754  0.00  0.00    +0.068 A 
ATOM     10  C   LIG    1       26.938 -19.630   5.260  0.00  0.00    +0.064 A 
ATOM     11 CL   LIG    1       28.116 -18.456   4.763  0.00  0.00    -0.082 Cl
ATOM     12  C   LIG    1       27.356 -20.613   6.168  0.00  0.00    +0.022 A 
ATOM     13  C   LIG    1       26.458 -21.572   6.618  0.00  0.00    +0.003 A 
ATOM     14  C   LIG    1       25.158 -21.569   6.125  0.00  0.00    +0.022 A 
ATOM     15  C   LIG    1       24.750 -20.622   5.172  0.00  0.00    +0.064 A 
ATOM     16 CL   LIG    1       23.183 -20.922   4.490  0.00  0.00    -0.082 Cl
ENDBRANCH   7   9
ENDBRANCH   2   7
BRANCH   1  17
ATOM     17  C   LIG    1       26.691 -16.048   3.300  0.00  0.00    +0.157 C 
BRANCH  17  18
ATOM     18  C   LIG    1       27.091 -14.689   2.791  0.00  0.00    +0.312 C 
ATOM     19  O   LIG    1       26.463 -14.041   1.957  0.00  0.00    -0.251 OA
BRANCH  18  20
ATOM     20  O   LIG    1       28.225 -14.257   3.405  0.00  0.00    -0.453 OA
BRANCH  20  21
ATOM     21  C   LIG    1       28.309 -12.851   3.697  0.00  0.00    +0.352 C 
BRANCH  21  23
ATOM     22  O   LIG    1       27.252 -13.142   5.858  0.00  0.00    -0.247 OA
ATOM     23  C   LIG    1       28.138 -12.629   5.188  0.00  0.00    +0.343 C 
BRANCH  23  24
ATOM     24  O   LIG    1       29.086 -11.830   5.733  0.00  0.00    -0.478 OA
ATOM     25  H   LIG    1       29.464 -12.213   6.551  0.00  0.00    +0.295 HD
ENDBRANCH  23  24
ENDBRANCH  21  23
ENDBRANCH  20  21
ENDBRANCH  18  20
ENDBRANCH  17  18
ENDBRANCH   1  17
TORSDOF 8
ENDMDL
MODEL 9
REMARK VINA RESULT:      -3.9      1.909      4.301
REMARK  Name = *****
REMARK                            x       y       z     vdW  Elec       q    Type
REMARK                         _______ _______ _______ _____ _____    ______ ____
ROOT
ATOM      1  C   LIG    1       23.917 -17.668   4.054  0.00  0.00    -0.016 A 
ATOM      2  C   LIG    1       24.487 -18.936   4.304  0.00  0.00    +0.035 A 
ATOM      3  C   LIG    1       23.649 -19.978   4.726  0.00  0.00    +0.023 A 
ATOM      4  C   LIG    1       22.262 -19.831   4.736  0.00  0.00    +0.002 A 
ATOM      5  C   LIG    1       21.695 -18.607   4.401  0.00  0.00    +0.000 A 
ATOM      6  C   LIG    1       22.517 -17.523   4.096  0.00  0.00    +0.006 A 
ENDROOT
BRANCH   2   7
ATOM      7  N   LIG    1       25.874 -19.144   4.130  0.00  0.00    -0.312 N 
ATOM      8  H   LIG    1       26.214 -18.682   3.286  0.00  0.00    +0.152 HD
BRANCH   7   9
ATOM      9  C   LIG    1       26.913 -19.271   5.100  0.00  0.00    +0.068 A 
ATOM     10  C   LIG    1       28.039 -18.415   5.005  0.00  0.00    +0.064 A 
ATOM     11 CL   LIG    1       28.130 -17.210   3.759  0.00  0.00    -0.082 Cl
ATOM     12  C   LIG    1       29.120 -18.502   5.893  0.00  0.00    +0.022 A 
ATOM     13  C   LIG    1       29.102 -19.435   6.921  0.00  0.00    +0.003 A 
ATOM     14  C   LIG    1       28.023 -20.305   7.031  0.00  0.00    +0.022 A 
ATOM     15  C   LIG    1       26.964 -20.260   6.109  0.00  0.00    +0.064 A 
ATOM     16 CL   LIG    1       25.837 -21.572   6.250  0.00  0.00    -0.082 Cl
ENDBRANCH   7   9
ENDBRANCH   2   7
BRANCH   1  17
ATOM     17  C   LIG    1       24.754 -16.470   3.670  0.00  0.00    +0.157 C 
BRANCH  17  18
ATOM     18  C   LIG    1       24.121 -15.160   4.058  0.00  0.00    +0.312 C 
ATOM     19  O   LIG    1       23.185 -15.040   4.844  0.00  0.00    -0.251 OA
BRANCH  18  20
ATOM     20  O   LIG    1       24.747 -14.119   3.444  0.00  0.00    -0.453 OA
BRANCH  20  21
ATOM     21  C   LIG    1       25.934 -13.613   4.079  0.00  0.00    +0.352 C 
BRANCH  21  23
ATOM     22  O   LIG    1       28.283 -13.629   3.485  0.00  0.00    -0.247 OA
ATOM     23  C   LIG    1       27.118 -13.770   3.142  0.00  0.00    +0.343 C 
BRANCH  23  24
ATOM     24  O   LIG    1       26.771 -14.120   1.880  0.00  0.00    -0.478 OA
ATOM     25  H   LIG    1       27.462 -13.880   1.230  0.00  0.00    +0.295 HD
ENDBRANCH  23  24
ENDBRANCH  21  23
ENDBRANCH  20  21
ENDBRANCH  18  20
ENDBRANCH  17  18
ENDBRANCH   1  17
TORSDOF 8
ENDMDL
