MODEL 1
REMARK VINA RESULT:      -6.7      0.000      0.000
REMARK  Name = *****
REMARK                            x       y       z     vdW  Elec       q    Type
REMARK                         _______ _______ _______ _____ _____    ______ ____
ROOT
ATOM      1  C   LIG    1       25.091 -21.586   6.504  0.00  0.00    +0.146 C 
ENDROOT
BRANCH   1   2
ATOM      2  C   LIG    1       24.931 -23.138   6.468  0.00  0.00    -0.004 A 
ATOM      3  C   LIG    1       26.053 -23.996   6.448  0.00  0.00    +0.007 A 
ATOM      4  C   LIG    1       25.928 -25.394   6.462  0.00  0.00    +0.000 A 
ATOM      5  C   LIG    1       24.673 -25.985   6.436  0.00  0.00    +0.000 A 
ATOM      6  C   LIG    1       23.548 -25.173   6.424  0.00  0.00    +0.000 A 
ATOM      7  C   LIG    1       23.677 -23.775   6.449  0.00  0.00    +0.007 A 
ENDBRANCH   1   2
BRANCH   1   8
ATOM      8  C   LIG    1       26.327 -21.144   7.467  0.00  0.00    +0.049 C 
ATOM      9  C   LIG    1       25.851 -20.414   8.744  0.00  0.00    +0.013 C 
BRANCH   8  10
ATOM     10  C   LIG    1       27.443 -20.246   6.774  0.00  0.00    +0.091 C 
BRANCH  10  11
ATOM     11  N   LIG    1       28.684 -19.916   7.553  0.00  0.00    -0.308 NA
ATOM     12  C   LIG    1       29.607 -18.956   6.946  0.00  0.00    +0.104 C 
ATOM     13  C   LIG    1       29.467 -21.127   7.850  0.00  0.00    +0.104 C 
ENDBRANCH  10  11
ENDBRANCH   8  10
ENDBRANCH   1   8
BRANCH   1  14
ATOM     14  O   LIG    1       25.528 -21.057   5.174  0.00  0.00    -0.453 OA
BRANCH  14  15
ATOM     15  C   LIG    1       24.882 -21.221   3.966  0.00  0.00    +0.308 C 
ATOM     16  O   LIG    1       24.366 -22.230   3.541  0.00  0.00    -0.251 OA
BRANCH  15  18
ATOM     17  C   LIG    1       25.885 -18.928   3.868  0.00  0.00    +0.015 C 
ATOM     18  C   LIG    1       24.974 -19.921   3.174  0.00  0.00    +0.117 C 
ENDBRANCH  15  18
ENDBRANCH  14  15
ENDBRANCH   1  14
BRANCH   1  19
ATOM     19  C   LIG    1       23.721 -20.885   6.943  0.00  0.00    +0.088 C 
BRANCH  19  20
ATOM     20  C   LIG    1       22.783 -20.202   5.941  0.00  0.00    -0.043 A 
ATOM     21  C   LIG    1       21.905 -20.976   5.157  0.00  0.00    +0.004 A 
ATOM     22  C   LIG    1       21.115 -20.400   4.153  0.00  0.00    +0.000 A 
ATOM     23  C   LIG    1       21.189 -19.033   3.903  0.00  0.00    +0.000 A 
ATOM     24  C   LIG    1       22.036 -18.244   4.677  0.00  0.00    +0.000 A 
ATOM     25  C   LIG    1       22.824 -18.821   5.688  0.00  0.00    +0.004 A 
ENDBRANCH  19  20
ENDBRANCH   1  19
TORSDOF 9
ENDMDL
MODEL 2
REMARK VINA RESULT:      -6.6      2.015      5.145
REMARK  Name = *****
REMARK                            x       y       z     vdW  Elec       q    Type
REMARK                         _______ _______ _______ _____ _____    ______ ____
ROOT
ATOM      1  C   LIG    1       25.915 -22.470   6.872  0.00  0.00    +0.146 C 
ENDROOT
BRANCH   1   2
ATOM      2  C   LIG    1       25.590 -21.519   5.677  0.00  0.00    -0.004 A 
ATOM      3  C   LIG    1       24.637 -21.867   4.695  0.00  0.00    +0.007 A 
ATOM      4  C   LIG    1       24.298 -21.005   3.640  0.00  0.00    +0.000 A 
ATOM      5  C   LIG    1       24.947 -19.787   3.495  0.00  0.00    +0.000 A 
ATOM      6  C   LIG    1       25.912 -19.425   4.425  0.00  0.00    +0.000 A 
ATOM      7  C   LIG    1       26.219 -20.273   5.500  0.00  0.00    +0.007 A 
ENDBRANCH   1   2
BRANCH   1   8
ATOM      8  C   LIG    1       26.885 -21.741   7.957  0.00  0.00    +0.049 C 
ATOM      9  C   LIG    1       26.253 -20.460   8.550  0.00  0.00    +0.013 C 
BRANCH   8  10
ATOM     10  C   LIG    1       28.341 -21.374   7.432  0.00  0.00    +0.091 C 
BRANCH  10  11
ATOM     11  N   LIG    1       29.253 -20.593   8.333  0.00  0.00    -0.308 NA
ATOM     12  C   LIG    1       29.661 -19.267   7.868  0.00  0.00    +0.104 C 
ATOM     13  C   LIG    1       30.490 -21.341   8.619  0.00  0.00    +0.104 C 
ENDBRANCH  10  11
ENDBRANCH   8  10
ENDBRANCH   1   8
BRANCH   1  14
ATOM     14  O   LIG    1       24.691 -22.750   7.687  0.00  0.00    -0.453 OA
BRANCH  14  15
ATOM     15  C   LIG    1       23.442 -22.189   7.522  0.00  0.00    +0.308 C 
ATOM     16  O   LIG    1       23.086 -21.081   7.855  0.00  0.00    -0.251 OA
BRANCH  15  18
ATOM     17  C   LIG    1       21.641 -22.602   5.831  0.00  0.00    +0.015 C 
ATOM     18  C   LIG    1       22.510 -23.226   6.904  0.00  0.00    +0.117 C 
ENDBRANCH  15  18
ENDBRANCH  14  15
ENDBRANCH   1  14
BRANCH   1  19
ATOM     19  C   LIG    1       26.544 -23.845   6.347  0.00  0.00    +0.088 C 
BRANCH  19  20
ATOM     20  C   LIG    1       25.739 -25.147   6.269  0.00  0.00    -0.043 A 
ATOM     21  C   LIG    1       26.048 -26.218   7.130  0.00  0.00    +0.004 A 
ATOM     22  C   LIG    1       25.411 -27.461   7.014  0.00  0.00    +0.000 A 
ATOM     23  C   LIG    1       24.452 -27.666   6.027  0.00  0.00    +0.000 A 
ATOM     24  C   LIG    1       24.115 -26.616   5.176  0.00  0.00    +0.000 A 
ATOM     25  C   LIG    1       24.750 -25.368   5.296  0.00  0.00    +0.004 A 
ENDBRANCH  19  20
ENDBRANCH   1  19
TORSDOF 9
ENDMDL
MODEL 3
REMARK VINA RESULT:      -5.9      2.022      5.529
REMARK  Name = *****
REMARK                            x       y       z     vdW  Elec       q    Type
REMARK                         _______ _______ _______ _____ _____    ______ ____
ROOT
ATOM      1  C   LIG    1       25.146 -21.227   5.495  0.00  0.00    +0.146 C 
ENDROOT
BRANCH   1   2
ATOM      2  C   LIG    1       25.256 -22.777   5.647  0.00  0.00    -0.004 A 
ATOM      3  C   LIG    1       24.704 -23.653   4.688  0.00  0.00    +0.007 A 
ATOM      4  C   LIG    1       24.833 -25.048   4.783  0.00  0.00    +0.000 A 
ATOM      5  C   LIG    1       25.470 -25.619   5.877  0.00  0.00    +0.000 A 
ATOM      6  C   LIG    1       25.998 -24.789   6.855  0.00  0.00    +0.000 A 
ATOM      7  C   LIG    1       25.900 -23.393   6.735  0.00  0.00    +0.007 A 
ENDBRANCH   1   2
BRANCH   1   8
ATOM      8  C   LIG    1       23.886 -20.816   4.550  0.00  0.00    +0.049 C 
ATOM      9  C   LIG    1       24.328 -20.363   3.139  0.00  0.00    +0.013 C 
BRANCH   8  10
ATOM     10  C   LIG    1       22.923 -19.699   5.147  0.00  0.00    +0.091 C 
BRANCH  10  11
ATOM     11  N   LIG    1       22.416 -18.624   4.230  0.00  0.00    -0.308 NA
ATOM     12  C   LIG    1       22.402 -17.259   4.759  0.00  0.00    +0.104 C 
ATOM     13  C   LIG    1       21.047 -18.914   3.771  0.00  0.00    +0.104 C 
ENDBRANCH  10  11
ENDBRANCH   8  10
ENDBRANCH   1   8
BRANCH   1  14
ATOM     14  O   LIG    1       24.784 -20.582   6.796  0.00  0.00    -0.453 OA
BRANCH  14  15
ATOM     15  C   LIG    1       24.212 -21.194   7.892  0.00  0.00    +0.308 C 
ATOM     16  O   LIG    1       23.049 -21.490   8.044  0.00  0.00    -0.251 OA
BRANCH  15  18
ATOM     17  C   LIG    1       26.159 -20.161   9.082  0.00  0.00    +0.015 C 
ATOM     18  C   LIG    1       25.281 -21.390   8.963  0.00  0.00    +0.117 C 
ENDBRANCH  15  18
ENDBRANCH  14  15
ENDBRANCH   1  14
BRANCH   1  19
ATOM     19  C   LIG    1       26.520 -20.613   4.949  0.00  0.00    +0.088 C 
BRANCH  19  20
ATOM     20  C   LIG    1       27.711 -20.305   5.865  0.00  0.00    -0.043 A 
ATOM     21  C   LIG    1       28.426 -19.102   5.707  0.00  0.00    +0.004 A 
ATOM     22  C   LIG    1       29.585 -18.834   6.448  0.00  0.00    +0.000 A 
ATOM     23  C   LIG    1       30.063 -19.770   7.360  0.00  0.00    +0.000 A 
ATOM     24  C   LIG    1       29.362 -20.958   7.548  0.00  0.00    +0.000 A 
ATOM     25  C   LIG    1       28.196 -21.224   6.809  0.00  0.00    +0.004 A 
ENDBRANCH  19  20
ENDBRANCH   1  19
TORSDOF 9
ENDMDL
MODEL 4
REMARK VINA RESULT:      -5.7      6.947     10.302
REMARK  Name = *****
REMARK                            x       y       z     vdW  Elec       q    Type
REMARK                         _______ _______ _______ _____ _____    ______ ____
ROOT
ATOM      1  C   LIG    1       25.330 -30.886   8.205  0.00  0.00    +0.146 C 
ENDROOT
BRANCH   1   2
ATOM      2  C   LIG    1       25.631 -31.742   6.935  0.00  0.00    -0.004 A 
ATOM      3  C   LIG    1       26.927 -32.234   6.666  0.00  0.00    +0.007 A 
ATOM      4  C   LIG    1       27.206 -33.043   5.553  0.00  0.00    +0.000 A 
ATOM      5  C   LIG    1       26.208 -33.341   4.636  0.00  0.00    +0.000 A 
ATOM      6  C   LIG    1       24.929 -32.848   4.852  0.00  0.00    +0.000 A 
ATOM      7  C   LIG    1       24.646 -32.071   5.986  0.00  0.00    +0.007 A 
ENDBRANCH   1   2
BRANCH   1   8
ATOM      8  C   LIG    1       24.550 -31.762   9.334  0.00  0.00    +0.049 C 
ATOM      9  C   LIG    1       25.008 -33.238   9.359  0.00  0.00    +0.013 C 
BRANCH   8  10
ATOM     10  C   LIG    1       22.962 -31.741   9.235  0.00  0.00    +0.091 C 
BRANCH  10  11
ATOM     11  N   LIG    1       22.208 -30.702  10.015  0.00  0.00    -0.308 NA
ATOM     12  C   LIG    1       22.915 -30.079  11.135  0.00  0.00    +0.104 C 
ATOM     13  C   LIG    1       20.952 -31.248  10.557  0.00  0.00    +0.104 C 
ENDBRANCH  10  11
ENDBRANCH   8  10
ENDBRANCH   1   8
BRANCH   1  14
ATOM     14  O   LIG    1       26.593 -30.514   8.917  0.00  0.00    -0.453 OA
BRANCH  14  15
ATOM     15  C   LIG    1       26.714 -30.123  10.235  0.00  0.00    +0.308 C 
ATOM     16  O   LIG    1       26.641 -30.824  11.218  0.00  0.00    -0.251 OA
BRANCH  15  18
ATOM     17  C   LIG    1       26.473 -28.064  11.640  0.00  0.00    +0.015 C 
ATOM     18  C   LIG    1       26.887 -28.608  10.288  0.00  0.00    +0.117 C 
ENDBRANCH  15  18
ENDBRANCH  14  15
ENDBRANCH   1  14
BRANCH   1  19
ATOM     19  C   LIG    1       24.517 -29.563   7.817  0.00  0.00    +0.088 C 
BRANCH  19  20
ATOM     20  C   LIG    1       25.064 -28.510   6.846  0.00  0.00    -0.043 A 
ATOM     21  C   LIG    1       25.818 -27.426   7.335  0.00  0.00    +0.004 A 
ATOM     22  C   LIG    1       26.239 -26.386   6.495  0.00  0.00    +0.000 A 
ATOM     23  C   LIG    1       25.908 -26.401   5.144  0.00  0.00    +0.000 A 
ATOM     24  C   LIG    1       25.180 -27.472   4.633  0.00  0.00    +0.000 A 
ATOM     25  C   LIG    1       24.763 -28.518   5.474  0.00  0.00    +0.004 A 
ENDBRANCH  19  20
ENDBRANCH   1  19
TORSDOF 9
ENDMDL
MODEL 5
REMARK VINA RESULT:      -5.6      7.650     11.067
REMARK  Name = *****
REMARK                            x       y       z     vdW  Elec       q    Type
REMARK                         _______ _______ _______ _____ _____    ______ ____
ROOT
ATOM      1  C   LIG    1       25.675 -30.237   9.152  0.00  0.00    +0.146 C 
ENDROOT
BRANCH   1   2
ATOM      2  C   LIG    1       25.296 -29.327   7.943  0.00  0.00    -0.004 A 
ATOM      3  C   LIG    1       25.801 -28.014   7.820  0.00  0.00    +0.007 A 
ATOM      4  C   LIG    1       25.508 -27.198   6.716  0.00  0.00    +0.000 A 
ATOM      5  C   LIG    1       24.649 -27.646   5.722  0.00  0.00    +0.000 A 
ATOM      6  C   LIG    1       24.109 -28.920   5.825  0.00  0.00    +0.000 A 
ATOM      7  C   LIG    1       24.436 -29.747   6.911  0.00  0.00    +0.007 A 
ENDBRANCH   1   2
BRANCH   1   8
ATOM      8  C   LIG    1       24.514 -30.214  10.294  0.00  0.00    +0.049 C 
ATOM      9  C   LIG    1       24.730 -31.293  11.380  0.00  0.00    +0.013 C 
BRANCH   8  10
ATOM     10  C   LIG    1       23.024 -30.349   9.754  0.00  0.00    +0.091 C 
BRANCH  10  11
ATOM     11  N   LIG    1       22.122 -31.369  10.385  0.00  0.00    -0.308 NA
ATOM     12  C   LIG    1       21.847 -32.578   9.607  0.00  0.00    +0.104 C 
ATOM     13  C   LIG    1       20.816 -30.785  10.735  0.00  0.00    +0.104 C 
ENDBRANCH  10  11
ENDBRANCH   8  10
ENDBRANCH   1   8
BRANCH   1  14
ATOM     14  O   LIG    1       25.693 -31.681   8.757  0.00  0.00    -0.453 OA
BRANCH  14  15
ATOM     15  C   LIG    1       26.804 -32.438   8.446  0.00  0.00    +0.308 C 
ATOM     16  O   LIG    1       27.534 -33.021   9.215  0.00  0.00    -0.251 OA
BRANCH  15  18
ATOM     17  C   LIG    1       28.164 -33.305   6.529  0.00  0.00    +0.015 C 
ATOM     18  C   LIG    1       27.038 -32.377   6.939  0.00  0.00    +0.117 C 
ENDBRANCH  15  18
ENDBRANCH  14  15
ENDBRANCH   1  14
BRANCH   1  19
ATOM     19  C   LIG    1       27.100 -29.821   9.750  0.00  0.00    +0.088 C 
BRANCH  19  20
ATOM     20  C   LIG    1       27.251 -29.006  11.040  0.00  0.00    -0.043 A 
ATOM     21  C   LIG    1       27.860 -29.584  12.170  0.00  0.00    +0.004 A 
ATOM     22  C   LIG    1       27.916 -28.912  13.399  0.00  0.00    +0.000 A 
ATOM     23  C   LIG    1       27.354 -27.646  13.530  0.00  0.00    +0.000 A 
ATOM     24  C   LIG    1       26.763 -27.045  12.421  0.00  0.00    +0.000 A 
ATOM     25  C   LIG    1       26.713 -27.717  11.187  0.00  0.00    +0.004 A 
ENDBRANCH  19  20
ENDBRANCH   1  19
TORSDOF 9
ENDMDL
MODEL 6
REMARK VINA RESULT:      -5.5      1.907      4.750
REMARK  Name = *****
REMARK                            x       y       z     vdW  Elec       q    Type
REMARK                         _______ _______ _______ _____ _____    ______ ____
ROOT
ATOM      1  C   LIG    1       24.568 -21.872   5.861  0.00  0.00    +0.146 C 
ENDROOT
BRANCH   1   2
ATOM      2  C   LIG    1       25.670 -21.416   6.868  0.00  0.00    -0.004 A 
ATOM      3  C   LIG    1       25.363 -20.598   7.977  0.00  0.00    +0.007 A 
ATOM      4  C   LIG    1       26.332 -20.217   8.919  0.00  0.00    +0.000 A 
ATOM      5  C   LIG    1       27.657 -20.593   8.751  0.00  0.00    +0.000 A 
ATOM      6  C   LIG    1       28.001 -21.372   7.655  0.00  0.00    +0.000 A 
ATOM      7  C   LIG    1       27.022 -21.783   6.737  0.00  0.00    +0.007 A 
ENDBRANCH   1   2
BRANCH   1   8
ATOM      8  C   LIG    1       24.335 -23.482   5.930  0.00  0.00    +0.049 C 
ATOM      9  C   LIG    1       23.043 -23.861   6.689  0.00  0.00    +0.013 C 
BRANCH   8  10
ATOM     10  C   LIG    1       25.536 -24.317   6.554  0.00  0.00    +0.091 C 
BRANCH  10  11
ATOM     11  N   LIG    1       26.023 -25.533   5.819  0.00  0.00    -0.308 NA
ATOM     12  C   LIG    1       25.276 -25.921   4.622  0.00  0.00    +0.104 C 
ATOM     13  C   LIG    1       26.056 -26.713   6.700  0.00  0.00    +0.104 C 
ENDBRANCH  10  11
ENDBRANCH   8  10
ENDBRANCH   1   8
BRANCH   1  14
ATOM     14  O   LIG    1       23.224 -21.345   6.256  0.00  0.00    -0.453 OA
BRANCH  14  15
ATOM     15  C   LIG    1       22.295 -20.747   5.429  0.00  0.00    +0.308 C 
ATOM     16  O   LIG    1       21.493 -21.295   4.708  0.00  0.00    -0.251 OA
BRANCH  15  18
ATOM     17  C   LIG    1       21.833 -18.559   4.301  0.00  0.00    +0.015 C 
ATOM     18  C   LIG    1       22.475 -19.233   5.497  0.00  0.00    +0.117 C 
ENDBRANCH  15  18
ENDBRANCH  14  15
ENDBRANCH   1  14
BRANCH   1  19
ATOM     19  C   LIG    1       24.924 -21.390   4.376  0.00  0.00    +0.088 C 
BRANCH  19  20
ATOM     20  C   LIG    1       25.594 -20.042   4.082  0.00  0.00    -0.043 A 
ATOM     21  C   LIG    1       26.837 -19.733   4.666  0.00  0.00    +0.004 A 
ATOM     22  C   LIG    1       27.427 -18.470   4.512  0.00  0.00    +0.000 A 
ATOM     23  C   LIG    1       26.782 -17.483   3.774  0.00  0.00    +0.000 A 
ATOM     24  C   LIG    1       25.561 -17.772   3.170  0.00  0.00    +0.000 A 
ATOM     25  C   LIG    1       24.972 -19.039   3.320  0.00  0.00    +0.004 A 
ENDBRANCH  19  20
ENDBRANCH   1  19
TORSDOF 9
ENDMDL
MODEL 7
REMARK VINA RESULT:      -5.5      1.949      5.073
REMARK  Name = *****
REMARK                            x       y       z     vdW  Elec       q    Type
REMARK                         _______ _______ _______ _____ _____    ______ ____
ROOT
ATOM      1  C   LIG    1       26.361 -20.793   6.391  0.00  0.00    +0.146 C 
ENDROOT
BRANCH   1   2
ATOM      2  C   LIG    1       27.719 -20.039   6.547  0.00  0.00    -0.004 A 
ATOM      3  C   LIG    1       28.352 -19.424   5.445  0.00  0.00    +0.007 A 
ATOM      4  C   LIG    1       29.549 -18.702   5.575  0.00  0.00    +0.000 A 
ATOM      5  C   LIG    1       30.188 -18.621   6.804  0.00  0.00    +0.000 A 
ATOM      6  C   LIG    1       29.611 -19.241   7.903  0.00  0.00    +0.000 A 
ATOM      7  C   LIG    1       28.393 -19.929   7.777  0.00  0.00    +0.007 A 
ENDBRANCH   1   2
BRANCH   1   8
ATOM      8  C   LIG    1       26.491 -22.346   6.864  0.00  0.00    +0.049 C 
ATOM      9  C   LIG    1       27.962 -22.806   6.983  0.00  0.00    +0.013 C 
BRANCH   8  10
ATOM     10  C   LIG    1       25.717 -23.401   5.959  0.00  0.00    +0.091 C 
BRANCH  10  11
ATOM     11  N   LIG    1       25.418 -24.755   6.534  0.00  0.00    -0.308 NA
ATOM     12  C   LIG    1       26.300 -25.851   6.130  0.00  0.00    +0.104 C 
ATOM     13  C   LIG    1       24.043 -25.179   6.216  0.00  0.00    +0.104 C 
ENDBRANCH  10  11
ENDBRANCH   8  10
ENDBRANCH   1   8
BRANCH   1  14
ATOM     14  O   LIG    1       25.336 -20.262   7.344  0.00  0.00    -0.453 OA
BRANCH  14  15
ATOM     15  C   LIG    1       24.813 -20.914   8.442  0.00  0.00    +0.308 C 
ATOM     16  O   LIG    1       25.423 -21.392   9.371  0.00  0.00    -0.251 OA
BRANCH  15  18
ATOM     17  C   LIG    1       22.920 -22.275   7.528  0.00  0.00    +0.015 C 
ATOM     18  C   LIG    1       23.300 -21.017   8.282  0.00  0.00    +0.117 C 
ENDBRANCH  15  18
ENDBRANCH  14  15
ENDBRANCH   1  14
BRANCH   1  19
ATOM     19  C   LIG    1       25.817 -20.676   4.890  0.00  0.00    +0.088 C 
BRANCH  19  20
ATOM     20  C   LIG    1       24.456 -20.058   4.548  0.00  0.00    -0.043 A 
ATOM     21  C   LIG    1       24.389 -18.754   4.021  0.00  0.00    +0.004 A 
ATOM     22  C   LIG    1       23.161 -18.113   3.802  0.00  0.00    +0.000 A 
ATOM     23  C   LIG    1       21.969 -18.760   4.113  0.00  0.00    +0.000 A 
ATOM     24  C   LIG    1       22.010 -20.058   4.617  0.00  0.00    +0.000 A 
ATOM     25  C   LIG    1       23.241 -20.702   4.831  0.00  0.00    +0.004 A 
ENDBRANCH  19  20
ENDBRANCH   1  19
TORSDOF 9
ENDMDL
MODEL 8
REMARK VINA RESULT:      -5.3      1.624      5.278
REMARK  Name = *****
REMARK                            x       y       z     vdW  Elec       q    Type
REMARK                         _______ _______ _______ _____ _____    ______ ____
ROOT
ATOM      1  C   LIG    1       24.902 -22.200   6.061  0.00  0.00    +0.146 C 
ENDROOT
BRANCH   1   2
ATOM      2  C   LIG    1       24.406 -20.930   5.300  0.00  0.00    -0.004 A 
ATOM      3  C   LIG    1       25.017 -20.501   4.102  0.00  0.00    +0.007 A 
ATOM      4  C   LIG    1       24.555 -19.389   3.380  0.00  0.00    +0.000 A 
ATOM      5  C   LIG    1       23.499 -18.630   3.865  0.00  0.00    +0.000 A 
ATOM      6  C   LIG    1       22.894 -19.004   5.056  0.00  0.00    +0.000 A 
ATOM      7  C   LIG    1       23.334 -20.139   5.755  0.00  0.00    +0.007 A 
ENDBRANCH   1   2
BRANCH   1   8
ATOM      8  C   LIG    1       26.190 -21.860   6.997  0.00  0.00    +0.049 C 
ATOM      9  C   LIG    1       25.851 -21.891   8.505  0.00  0.00    +0.013 C 
BRANCH   8  10
ATOM     10  C   LIG    1       26.915 -20.479   6.683  0.00  0.00    +0.091 C 
BRANCH  10  11
ATOM     11  N   LIG    1       28.382 -20.496   6.364  0.00  0.00    -0.308 NA
ATOM     12  C   LIG    1       29.293 -20.797   7.469  0.00  0.00    +0.104 C 
ATOM     13  C   LIG    1       28.819 -19.210   5.793  0.00  0.00    +0.104 C 
ENDBRANCH  10  11
ENDBRANCH   8  10
ENDBRANCH   1   8
BRANCH   1  14
ATOM     14  O   LIG    1       23.894 -22.653   7.070  0.00  0.00    -0.453 OA
BRANCH  14  15
ATOM     15  C   LIG    1       22.794 -23.453   6.838  0.00  0.00    +0.308 C 
ATOM     16  O   LIG    1       22.772 -24.659   6.738  0.00  0.00    -0.251 OA
BRANCH  15  18
ATOM     17  C   LIG    1       21.321 -22.301   5.173  0.00  0.00    +0.015 C 
ATOM     18  C   LIG    1       21.568 -22.566   6.644  0.00  0.00    +0.117 C 
ENDBRANCH  15  18
ENDBRANCH  14  15
ENDBRANCH   1  14
BRANCH   1  19
ATOM     19  C   LIG    1       25.214 -23.388   5.035  0.00  0.00    +0.088 C 
BRANCH  19  20
ATOM     20  C   LIG    1       25.467 -24.830   5.491  0.00  0.00    -0.043 A 
ATOM     21  C   LIG    1       25.082 -25.906   4.667  0.00  0.00    +0.004 A 
ATOM     22  C   LIG    1       25.194 -27.236   5.096  0.00  0.00    +0.000 A 
ATOM     23  C   LIG    1       25.688 -27.522   6.366  0.00  0.00    +0.000 A 
ATOM     24  C   LIG    1       26.093 -26.475   7.190  0.00  0.00    +0.000 A 
ATOM     25  C   LIG    1       25.986 -25.142   6.758  0.00  0.00    +0.004 A 
ENDBRANCH  19  20
ENDBRANCH   1  19
TORSDOF 9
ENDMDL
MODEL 9
REMARK VINA RESULT:      -5.3      1.854      5.461
REMARK  Name = *****
REMARK                            x       y       z     vdW  Elec       q    Type
REMARK                         _______ _______ _______ _____ _____    ______ ____
ROOT
ATOM      1  C   LIG    1       26.380 -21.775   6.823  0.00  0.00    +0.146 C 
ENDROOT
BRANCH   1   2
ATOM      2  C   LIG    1       27.780 -21.101   6.981  0.00  0.00    -0.004 A 
ATOM      3  C   LIG    1       28.741 -21.600   7.887  0.00  0.00    +0.007 A 
ATOM      4  C   LIG    1       30.021 -21.036   8.008  0.00  0.00    +0.000 A 
ATOM      5  C   LIG    1       30.364 -19.913   7.268  0.00  0.00    +0.000 A 
ATOM      6  C   LIG    1       29.433 -19.377   6.390  0.00  0.00    +0.000 A 
ATOM      7  C   LIG    1       28.168 -19.968   6.243  0.00  0.00    +0.007 A 
ENDBRANCH   1   2
BRANCH   1   8
ATOM      8  C   LIG    1       25.214 -20.882   7.526  0.00  0.00    +0.049 C 
ATOM      9  C   LIG    1       25.638 -20.338   8.910  0.00  0.00    +0.013 C 
BRANCH   8  10
ATOM     10  C   LIG    1       23.808 -21.606   7.691  0.00  0.00    +0.091 C 
BRANCH  10  11
ATOM     11  N   LIG    1       22.656 -21.136   6.849  0.00  0.00    -0.308 NA
ATOM     12  C   LIG    1       22.275 -21.986   5.721  0.00  0.00    +0.104 C 
ATOM     13  C   LIG    1       22.908 -19.792   6.301  0.00  0.00    +0.104 C 
ENDBRANCH  10  11
ENDBRANCH   8  10
ENDBRANCH   1   8
BRANCH   1  14
ATOM     14  O   LIG    1       25.944 -21.785   5.392  0.00  0.00    -0.453 OA
BRANCH  14  15
ATOM     15  C   LIG    1       25.615 -20.690   4.619  0.00  0.00    +0.308 C 
ATOM     16  O   LIG    1       26.046 -19.564   4.721  0.00  0.00    -0.251 OA
BRANCH  15  18
ATOM     17  C   LIG    1       23.992 -19.882   2.892  0.00  0.00    +0.015 C 
ATOM     18  C   LIG    1       24.531 -21.093   3.625  0.00  0.00    +0.117 C 
ENDBRANCH  15  18
ENDBRANCH  14  15
ENDBRANCH   1  14
BRANCH   1  19
ATOM     19  C   LIG    1       26.404 -23.270   7.394  0.00  0.00    +0.088 C 
BRANCH  19  20
ATOM     20  C   LIG    1       25.772 -24.451   6.647  0.00  0.00    -0.043 A 
ATOM     21  C   LIG    1       24.371 -24.569   6.574  0.00  0.00    +0.004 A 
ATOM     22  C   LIG    1       23.757 -25.690   5.999  0.00  0.00    +0.000 A 
ATOM     23  C   LIG    1       24.532 -26.727   5.489  0.00  0.00    +0.000 A 
ATOM     24  C   LIG    1       25.921 -26.624   5.532  0.00  0.00    +0.000 A 
ATOM     25  C   LIG    1       26.536 -25.497   6.104  0.00  0.00    +0.004 A 
ENDBRANCH  19  20
ENDBRANCH   1  19
TORSDOF 9
ENDMDL
