MODEL 1
REMARK VINA RESULT:      -5.6      0.000      0.000
REMARK  Name = *****
REMARK                            x       y       z     vdW  Elec       q    Type
REMARK                         _______ _______ _______ _____ _____    ______ ____
ROOT
ATOM      1  C   LIG    1       25.344 -19.349   3.836  0.00  0.00    +0.064 C 
ATOM      2  C   LIG    1       25.469 -19.662   5.365  0.00  0.00    +0.039 C 
ATOM      3  C   LIG    1       24.388 -20.755   5.572  0.00  0.00    -0.002 C 
ATOM      4  C   LIG    1       24.432 -21.532   4.256  0.00  0.00    +0.009 C 
ATOM      5  C   LIG    1       22.998 -20.083   5.483  0.00  0.00    +0.004 C 
ATOM      6  C   LIG    1       22.831 -19.824   3.979  0.00  0.00    +0.005 C 
ATOM      7  C   LIG    1       24.177 -20.287   3.401  0.00  0.00    +0.007 C 
ENDROOT
BRANCH   2   8
ATOM      8  C   LIG    1       26.846 -20.089   5.855  0.00  0.00    -0.043 A 
ATOM      9  C   LIG    1       27.954 -19.304   5.493  0.00  0.00    +0.004 A 
ATOM     10  C   LIG    1       29.245 -19.651   5.898  0.00  0.00    +0.000 A 
ATOM     11  C   LIG    1       29.453 -20.785   6.682  0.00  0.00    +0.000 A 
ATOM     12  C   LIG    1       28.368 -21.566   7.062  0.00  0.00    +0.000 A 
ATOM     13  C   LIG    1       27.078 -21.216   6.659  0.00  0.00    +0.004 A 
ENDBRANCH   2   8
BRANCH   1  14
ATOM     14  N   LIG    1       25.090 -17.936   3.522  0.00  0.00    -0.313 NA
ATOM     15  H   LIG    1       24.520 -17.877   2.678  0.00  0.00    +0.122 HD
BRANCH  14  17
ATOM     16  C   LIG    1       26.073 -15.698   3.343  0.00  0.00    +0.020 C 
ATOM     17  C   LIG    1       26.338 -17.194   3.314  0.00  0.00    +0.077 C 
ENDBRANCH  14  17
ENDBRANCH   1  14
TORSDOF 3
ENDMDL
MODEL 2
REMARK VINA RESULT:      -5.1      3.717      6.326
REMARK  Name = *****
REMARK                            x       y       z     vdW  Elec       q    Type
REMARK                         _______ _______ _______ _____ _____    ______ ____
ROOT
ATOM      1  C   LIG    1       25.292 -13.910   4.651  0.00  0.00    +0.064 C 
ATOM      2  C   LIG    1       25.146 -14.952   3.490  0.00  0.00    +0.039 C 
ATOM      3  C   LIG    1       26.624 -15.269   3.139  0.00  0.00    -0.002 C 
ATOM      4  C   LIG    1       27.323 -15.185   4.495  0.00  0.00    +0.009 C 
ATOM      5  C   LIG    1       27.220 -14.042   2.411  0.00  0.00    +0.004 C 
ATOM      6  C   LIG    1       27.428 -13.030   3.546  0.00  0.00    +0.005 C 
ATOM      7  C   LIG    1       26.839 -13.757   4.765  0.00  0.00    +0.007 C 
ENDROOT
BRANCH   2   8
ATOM      8  C   LIG    1       24.329 -16.199   3.803  0.00  0.00    -0.043 A 
ATOM      9  C   LIG    1       24.889 -17.453   3.505  0.00  0.00    +0.004 A 
ATOM     10  C   LIG    1       24.184 -18.632   3.754  0.00  0.00    +0.000 A 
ATOM     11  C   LIG    1       22.908 -18.583   4.314  0.00  0.00    +0.000 A 
ATOM     12  C   LIG    1       22.343 -17.352   4.628  0.00  0.00    +0.000 A 
ATOM     13  C   LIG    1       23.051 -16.174   4.381  0.00  0.00    +0.004 A 
ENDBRANCH   2   8
BRANCH   1  14
ATOM     14  N   LIG    1       24.606 -12.633   4.413  0.00  0.00    -0.313 NA
ATOM     15  H   LIG    1       23.962 -12.450   5.183  0.00  0.00    +0.122 HD
BRANCH  14  17
ATOM     16  C   LIG    1       24.306 -11.498   2.261  0.00  0.00    +0.020 C 
ATOM     17  C   LIG    1       23.858 -12.647   3.151  0.00  0.00    +0.077 C 
ENDBRANCH  14  17
ENDBRANCH   1  14
TORSDOF 3
ENDMDL
MODEL 3
REMARK VINA RESULT:      -5.1      1.332      4.478
REMARK  Name = *****
REMARK                            x       y       z     vdW  Elec       q    Type
REMARK                         _______ _______ _______ _____ _____    ______ ____
ROOT
ATOM      1  C   LIG    1       25.641 -19.516   4.958  0.00  0.00    +0.064 C 
ATOM      2  C   LIG    1       25.156 -18.805   3.649  0.00  0.00    +0.039 C 
ATOM      3  C   LIG    1       23.722 -19.370   3.473  0.00  0.00    -0.002 C 
ATOM      4  C   LIG    1       23.239 -19.529   4.915  0.00  0.00    +0.009 C 
ATOM      5  C   LIG    1       23.837 -20.846   3.026  0.00  0.00    +0.004 C 
ATOM      6  C   LIG    1       24.253 -21.570   4.314  0.00  0.00    +0.005 C 
ATOM      7  C   LIG    1       24.421 -20.417   5.315  0.00  0.00    +0.007 C 
ENDROOT
BRANCH   2   8
ATOM      8  C   LIG    1       25.197 -17.282   3.655  0.00  0.00    -0.043 A 
ATOM      9  C   LIG    1       26.396 -16.647   3.290  0.00  0.00    +0.004 A 
ATOM     10  C   LIG    1       26.502 -15.255   3.290  0.00  0.00    +0.000 A 
ATOM     11  C   LIG    1       25.408 -14.468   3.647  0.00  0.00    +0.000 A 
ATOM     12  C   LIG    1       24.209 -15.078   3.998  0.00  0.00    +0.000 A 
ATOM     13  C   LIG    1       24.104 -16.470   3.994  0.00  0.00    +0.004 A 
ENDBRANCH   2   8
BRANCH   1  14
ATOM     14  N   LIG    1       26.890 -20.275   4.810  0.00  0.00    -0.313 NA
ATOM     15  H   LIG    1       26.672 -21.270   4.747  0.00  0.00    +0.122 HD
BRANCH  14  17
ATOM     16  C   LIG    1       28.792 -18.951   5.607  0.00  0.00    +0.020 C 
ATOM     17  C   LIG    1       27.798 -20.051   5.941  0.00  0.00    +0.077 C 
ENDBRANCH  14  17
ENDBRANCH   1  14
TORSDOF 3
ENDMDL
MODEL 4
REMARK VINA RESULT:      -5.0      3.780      6.381
REMARK  Name = *****
REMARK                            x       y       z     vdW  Elec       q    Type
REMARK                         _______ _______ _______ _____ _____    ______ ____
ROOT
ATOM      1  C   LIG    1       25.247 -13.882   4.689  0.00  0.00    +0.064 C 
ATOM      2  C   LIG    1       25.173 -14.921   3.519  0.00  0.00    +0.039 C 
ATOM      3  C   LIG    1       26.670 -15.214   3.237  0.00  0.00    -0.002 C 
ATOM      4  C   LIG    1       27.303 -15.124   4.625  0.00  0.00    +0.009 C 
ATOM      5  C   LIG    1       27.280 -13.976   2.541  0.00  0.00    +0.004 C 
ATOM      6  C   LIG    1       27.419 -12.964   3.687  0.00  0.00    +0.005 C 
ATOM      7  C   LIG    1       26.785 -13.705   4.875  0.00  0.00    +0.007 C 
ENDROOT
BRANCH   2   8
ATOM      8  C   LIG    1       24.361 -16.182   3.789  0.00  0.00    -0.043 A 
ATOM      9  C   LIG    1       23.091 -16.044   4.374  0.00  0.00    +0.004 A 
ATOM     10  C   LIG    1       22.306 -17.162   4.661  0.00  0.00    +0.000 A 
ATOM     11  C   LIG    1       22.770 -18.442   4.360  0.00  0.00    +0.000 A 
ATOM     12  C   LIG    1       24.018 -18.598   3.769  0.00  0.00    +0.000 A 
ATOM     13  C   LIG    1       24.801 -17.478   3.480  0.00  0.00    +0.004 A 
ENDBRANCH   2   8
BRANCH   1  14
ATOM     14  N   LIG    1       24.553 -12.615   4.422  0.00  0.00    -0.313 NA
ATOM     15  H   LIG    1       23.880 -12.438   5.168  0.00  0.00    +0.122 HD
BRANCH  14  17
ATOM     16  C   LIG    1       24.259 -11.447   2.287  0.00  0.00    +0.020 C 
ATOM     17  C   LIG    1       23.851 -12.642   3.134  0.00  0.00    +0.077 C 
ENDBRANCH  14  17
ENDBRANCH   1  14
TORSDOF 3
ENDMDL
MODEL 5
REMARK VINA RESULT:      -4.9      1.344      4.566
REMARK  Name = *****
REMARK                            x       y       z     vdW  Elec       q    Type
REMARK                         _______ _______ _______ _____ _____    ______ ____
ROOT
ATOM      1  C   LIG    1       25.705 -19.526   4.950  0.00  0.00    +0.064 C 
ATOM      2  C   LIG    1       25.255 -18.818   3.627  0.00  0.00    +0.039 C 
ATOM      3  C   LIG    1       23.818 -19.369   3.425  0.00  0.00    -0.002 C 
ATOM      4  C   LIG    1       23.304 -19.513   4.857  0.00  0.00    +0.009 C 
ATOM      5  C   LIG    1       23.926 -20.848   2.989  0.00  0.00    +0.004 C 
ATOM      6  C   LIG    1       24.308 -21.569   4.289  0.00  0.00    +0.005 C 
ATOM      7  C   LIG    1       24.467 -20.411   5.287  0.00  0.00    +0.007 C 
ENDROOT
BRANCH   2   8
ATOM      8  C   LIG    1       25.312 -17.296   3.625  0.00  0.00    -0.043 A 
ATOM      9  C   LIG    1       24.155 -16.585   3.984  0.00  0.00    +0.004 A 
ATOM     10  C   LIG    1       24.139 -15.189   3.986  0.00  0.00    +0.000 A 
ATOM     11  C   LIG    1       25.284 -14.474   3.639  0.00  0.00    +0.000 A 
ATOM     12  C   LIG    1       26.444 -15.159   3.294  0.00  0.00    +0.000 A 
ATOM     13  C   LIG    1       26.458 -16.555   3.295  0.00  0.00    +0.004 A 
ENDBRANCH   2   8
BRANCH   1  14
ATOM     14  N   LIG    1       26.948 -20.300   4.832  0.00  0.00    -0.313 NA
ATOM     15  H   LIG    1       26.722 -21.295   4.807  0.00  0.00    +0.122 HD
BRANCH  14  17
ATOM     16  C   LIG    1       28.855 -18.955   5.583  0.00  0.00    +0.020 C 
ATOM     17  C   LIG    1       27.857 -20.040   5.954  0.00  0.00    +0.077 C 
ENDBRANCH  14  17
ENDBRANCH   1  14
TORSDOF 3
ENDMDL
MODEL 6
REMARK VINA RESULT:      -4.6      3.338      6.066
REMARK  Name = *****
REMARK                            x       y       z     vdW  Elec       q    Type
REMARK                         _______ _______ _______ _____ _____    ______ ____
ROOT
ATOM      1  C   LIG    1       25.753 -14.209   2.422  0.00  0.00    +0.064 C 
ATOM      2  C   LIG    1       25.292 -14.856   3.772  0.00  0.00    +0.039 C 
ATOM      3  C   LIG    1       24.085 -13.967   4.173  0.00  0.00    -0.002 C 
ATOM      4  C   LIG    1       23.461 -13.609   2.824  0.00  0.00    +0.009 C 
ATOM      5  C   LIG    1       24.629 -12.595   4.632  0.00  0.00    +0.004 C 
ATOM      6  C   LIG    1       25.031 -11.919   3.314  0.00  0.00    +0.005 C 
ATOM      7  C   LIG    1       24.761 -13.016   2.272  0.00  0.00    +0.007 C 
ENDROOT
BRANCH   2   8
ATOM      8  C   LIG    1       24.947 -16.339   3.724  0.00  0.00    -0.043 A 
ATOM      9  C   LIG    1       23.649 -16.733   4.090  0.00  0.00    +0.004 A 
ATOM     10  C   LIG    1       23.276 -18.078   4.082  0.00  0.00    +0.000 A 
ATOM     11  C   LIG    1       24.191 -19.058   3.699  0.00  0.00    +0.000 A 
ATOM     12  C   LIG    1       25.476 -18.687   3.321  0.00  0.00    +0.000 A 
ATOM     13  C   LIG    1       25.846 -17.341   3.326  0.00  0.00    +0.004 A 
ENDBRANCH   2   8
BRANCH   1  14
ATOM     14  N   LIG    1       27.161 -13.789   2.399  0.00  0.00    -0.313 NA
ATOM     15  H   LIG    1       27.648 -14.289   1.654  0.00  0.00    +0.122 HD
BRANCH  14  17
ATOM     16  C   LIG    1       28.707 -12.882   4.071  0.00  0.00    +0.020 C 
ATOM     17  C   LIG    1       27.828 -14.058   3.677  0.00  0.00    +0.077 C 
ENDBRANCH  14  17
ENDBRANCH   1  14
TORSDOF 3
ENDMDL
MODEL 7
REMARK VINA RESULT:      -4.0      2.797      5.707
REMARK  Name = *****
REMARK                            x       y       z     vdW  Elec       q    Type
REMARK                         _______ _______ _______ _____ _____    ______ ____
ROOT
ATOM      1  C   LIG    1       24.885 -14.721   4.194  0.00  0.00    +0.064 C 
ATOM      2  C   LIG    1       25.390 -15.811   3.188  0.00  0.00    +0.039 C 
ATOM      3  C   LIG    1       26.920 -15.551   3.155  0.00  0.00    -0.002 C 
ATOM      4  C   LIG    1       27.223 -15.113   4.587  0.00  0.00    +0.009 C 
ATOM      5  C   LIG    1       27.169 -14.239   2.375  0.00  0.00    +0.004 C 
ATOM      6  C   LIG    1       26.736 -13.154   3.370  0.00  0.00    +0.005 C 
ATOM      7  C   LIG    1       26.203 -13.972   4.557  0.00  0.00    +0.007 C 
ENDROOT
BRANCH   2   8
ATOM      8  C   LIG    1       25.041 -17.254   3.528  0.00  0.00    -0.043 A 
ATOM      9  C   LIG    1       23.718 -17.549   3.898  0.00  0.00    +0.004 A 
ATOM     10  C   LIG    1       23.338 -18.850   4.235  0.00  0.00    +0.000 A 
ATOM     11  C   LIG    1       24.272 -19.885   4.200  0.00  0.00    +0.000 A 
ATOM     12  C   LIG    1       25.582 -19.615   3.823  0.00  0.00    +0.000 A 
ATOM     13  C   LIG    1       25.959 -18.315   3.483  0.00  0.00    +0.004 A 
ENDBRANCH   2   8
BRANCH   1  14
ATOM     14  N   LIG    1       23.849 -13.830   3.656  0.00  0.00    -0.313 NA
ATOM     15  H   LIG    1       23.928 -13.799   2.639  0.00  0.00    +0.122 HD
BRANCH  14  17
ATOM     16  C   LIG    1       23.770 -11.447   3.085  0.00  0.00    +0.020 C 
ATOM     17  C   LIG    1       23.971 -12.470   4.192  0.00  0.00    +0.077 C 
ENDBRANCH  14  17
ENDBRANCH   1  14
TORSDOF 3
ENDMDL
MODEL 8
REMARK VINA RESULT:      -3.2      3.319      6.181
REMARK  Name = *****
REMARK                            x       y       z     vdW  Elec       q    Type
REMARK                         _______ _______ _______ _____ _____    ______ ____
ROOT
ATOM      1  C   LIG    1       25.657 -14.653   2.660  0.00  0.00    +0.064 C 
ATOM      2  C   LIG    1       24.865 -14.984   3.970  0.00  0.00    +0.039 C 
ATOM      3  C   LIG    1       23.883 -13.788   4.078  0.00  0.00    -0.002 C 
ATOM      4  C   LIG    1       23.562 -13.477   2.616  0.00  0.00    +0.009 C 
ATOM      5  C   LIG    1       24.692 -12.535   4.487  0.00  0.00    +0.004 C 
ATOM      6  C   LIG    1       25.429 -12.158   3.194  0.00  0.00    +0.005 C 
ATOM      7  C   LIG    1       25.033 -13.290   2.233  0.00  0.00    +0.007 C 
ENDROOT
BRANCH   2   8
ATOM      8  C   LIG    1       24.163 -16.335   4.009  0.00  0.00    -0.043 A 
ATOM      9  C   LIG    1       22.839 -16.383   4.477  0.00  0.00    +0.004 A 
ATOM     10  C   LIG    1       22.146 -17.593   4.552  0.00  0.00    +0.000 A 
ATOM     11  C   LIG    1       22.759 -18.779   4.151  0.00  0.00    +0.000 A 
ATOM     12  C   LIG    1       24.064 -18.750   3.672  0.00  0.00    +0.000 A 
ATOM     13  C   LIG    1       24.754 -17.539   3.595  0.00  0.00    +0.004 A 
ENDBRANCH   2   8
BRANCH   1  14
ATOM     14  N   LIG    1       27.115 -14.587   2.830  0.00  0.00    -0.313 NA
ATOM     15  H   LIG    1       27.558 -15.229   2.172  0.00  0.00    +0.122 HD
BRANCH  14  17
ATOM     16  C   LIG    1       27.905 -16.408   4.269  0.00  0.00    +0.020 C 
ATOM     17  C   LIG    1       27.518 -14.940   4.195  0.00  0.00    +0.077 C 
ENDBRANCH  14  17
ENDBRANCH   1  14
TORSDOF 3
ENDMDL
MODEL 9
REMARK VINA RESULT:      -2.6      2.340      5.339
REMARK  Name = *****
REMARK                            x       y       z     vdW  Elec       q    Type
REMARK                         _______ _______ _______ _____ _____    ______ ____
ROOT
ATOM      1  C   LIG    1       24.875 -14.968   4.327  0.00  0.00    +0.064 C 
ATOM      2  C   LIG    1       25.766 -15.748   3.302  0.00  0.00    +0.039 C 
ATOM      3  C   LIG    1       26.878 -14.718   2.974  0.00  0.00    -0.002 C 
ATOM      4  C   LIG    1       27.068 -13.985   4.302  0.00  0.00    +0.009 C 
ATOM      5  C   LIG    1       26.261 -13.604   2.096  0.00  0.00    +0.004 C 
ATOM      6  C   LIG    1       25.431 -12.790   3.098  0.00  0.00    +0.005 C 
ATOM      7  C   LIG    1       25.592 -13.586   4.403  0.00  0.00    +0.007 C 
ENDROOT
BRANCH   2   8
ATOM      8  C   LIG    1       26.317 -17.088   3.772  0.00  0.00    -0.043 A 
ATOM      9  C   LIG    1       25.506 -18.226   3.636  0.00  0.00    +0.004 A 
ATOM     10  C   LIG    1       25.948 -19.480   4.062  0.00  0.00    +0.000 A 
ATOM     11  C   LIG    1       27.215 -19.624   4.625  0.00  0.00    +0.000 A 
ATOM     12  C   LIG    1       28.038 -18.511   4.755  0.00  0.00    +0.000 A 
ATOM     13  C   LIG    1       27.596 -17.259   4.326  0.00  0.00    +0.004 A 
ENDBRANCH   2   8
BRANCH   1  14
ATOM     14  N   LIG    1       23.461 -14.858   3.945  0.00  0.00    -0.313 NA
ATOM     15  H   LIG    1       23.216 -13.873   3.844  0.00  0.00    +0.122 HD
BRANCH  14  17
ATOM     16  C   LIG    1       22.328 -16.933   4.594  0.00  0.00    +0.020 C 
ATOM     17  C   LIG    1       22.580 -15.475   4.942  0.00  0.00    +0.077 C 
ENDBRANCH  14  17
ENDBRANCH   1  14
TORSDOF 3
ENDMDL
