MODEL 1
REMARK VINA RESULT:      -4.5      0.000      0.000
REMARK  Name = *****
REMARK                            x       y       z     vdW  Elec       q    Type
REMARK                         _______ _______ _______ _____ _____    ______ ____
ROOT
ATOM      1  C   LIG    1       21.862 -17.614   4.861  0.00  0.00    +0.003 C 
ATOM      2  C   LIG    1       22.144 -16.352   5.243  0.00  0.00    -0.050 C 
ATOM      3  C   LIG    1       21.066 -15.502   5.881  0.00  0.00    +0.044 C 
ENDROOT
BRANCH   1   5
ATOM      4  C   LIG    1       23.640 -19.302   4.831  0.00  0.00    +0.003 C 
ATOM      5  C   LIG    1       22.727 -18.559   4.182  0.00  0.00    +0.001 C 
BRANCH   4   7
ATOM      6  C   LIG    1       23.765 -20.975   3.020  0.00  0.00    +0.044 C 
ATOM      7  C   LIG    1       24.459 -20.323   4.194  0.00  0.00    -0.044 C 
ATOM      8  C   LIG    1       25.710 -20.705   4.516  0.00  0.00    +0.094 C 
BRANCH   8   9
ATOM      9  C   LIG    1       26.664 -20.297   5.568  0.00  0.00    +0.330 C 
ATOM     10  O   LIG    1       26.343 -20.310   6.742  0.00  0.00    -0.246 OA
BRANCH   9  11
ATOM     11  O   LIG    1       27.855 -19.843   5.143  0.00  0.00    -0.477 OA
ATOM     12  H   LIG    1       27.791 -19.174   4.442  0.00  0.00    +0.295 HD
ENDBRANCH   9  11
ENDBRANCH   8   9
ENDBRANCH   4   7
ENDBRANCH   1   5
BRANCH   2  13
ATOM     13  C   LIG    1       23.416 -15.659   5.067  0.00  0.00    +0.003 C 
ATOM     14  C   LIG    1       23.849 -15.130   3.909  0.00  0.00    +0.004 C 
BRANCH  14  15
ATOM     15  C   LIG    1       25.149 -14.499   3.612  0.00  0.00    -0.043 C 
ATOM     16  C   LIG    1       25.106 -12.942   3.464  0.00  0.00    -0.010 C 
ATOM     17  C   LIG    1       23.942 -12.430   2.572  0.00  0.00    +0.016 C 
ATOM     18  C   LIG    1       24.944 -12.304   4.861  0.00  0.00    +0.016 C 
ATOM     19  C   LIG    1       26.397 -12.392   2.795  0.00  0.00    +0.011 C 
ATOM     20  C   LIG    1       27.655 -13.022   3.362  0.00  0.00    +0.005 C 
ATOM     21  C   LIG    1       27.635 -14.523   3.126  0.00  0.00    +0.031 C 
ATOM     22  C   LIG    1       26.303 -15.194   3.408  0.00  0.00    -0.069 C 
ATOM     23  C   LIG    1       26.432 -16.700   3.401  0.00  0.00    +0.039 C 
ENDBRANCH  14  15
ENDBRANCH   2  13
TORSDOF 6
ENDMDL
MODEL 2
REMARK VINA RESULT:      -3.8      2.140      4.064
REMARK  Name = *****
REMARK                            x       y       z     vdW  Elec       q    Type
REMARK                         _______ _______ _______ _____ _____    ______ ____
ROOT
ATOM      1  C   LIG    1       26.958 -19.368   4.895  0.00  0.00    +0.003 C 
ATOM      2  C   LIG    1       27.521 -18.225   4.454  0.00  0.00    -0.050 C 
ATOM      3  C   LIG    1       28.999 -17.983   4.675  0.00  0.00    +0.044 C 
ENDROOT
BRANCH   1   5
ATOM      4  C   LIG    1       24.888 -20.190   5.919  0.00  0.00    +0.003 C 
ATOM      5  C   LIG    1       25.563 -19.759   4.840  0.00  0.00    +0.001 C 
BRANCH   4   7
ATOM      6  C   LIG    1       23.104 -21.571   6.923  0.00  0.00    +0.044 C 
ATOM      7  C   LIG    1       23.466 -20.503   5.917  0.00  0.00    -0.044 C 
ATOM      8  C   LIG    1       22.495 -19.949   5.165  0.00  0.00    +0.094 C 
BRANCH   8   9
ATOM      9  C   LIG    1       22.483 -18.910   4.114  0.00  0.00    +0.330 C 
ATOM     10  O   LIG    1       21.524 -18.173   3.975  0.00  0.00    -0.246 OA
BRANCH   9  11
ATOM     11  O   LIG    1       23.542 -18.892   3.288  0.00  0.00    -0.477 OA
ATOM     12  H   LIG    1       24.397 -18.939   3.747  0.00  0.00    +0.295 HD
ENDBRANCH   9  11
ENDBRANCH   8   9
ENDBRANCH   4   7
ENDBRANCH   1   5
BRANCH   2  13
ATOM     13  C   LIG    1       26.833 -17.121   3.792  0.00  0.00    +0.003 C 
ATOM     14  C   LIG    1       26.670 -15.894   4.314  0.00  0.00    +0.004 C 
BRANCH  14  15
ATOM     15  C   LIG    1       25.915 -14.751   3.767  0.00  0.00    -0.043 C 
ATOM     16  C   LIG    1       26.797 -13.606   3.168  0.00  0.00    -0.010 C 
ATOM     17  C   LIG    1       27.988 -13.194   4.074  0.00  0.00    +0.016 C 
ATOM     18  C   LIG    1       27.375 -14.068   1.812  0.00  0.00    +0.016 C 
ATOM     19  C   LIG    1       25.979 -12.300   2.958  0.00  0.00    +0.011 C 
ATOM     20  C   LIG    1       24.623 -12.560   2.332  0.00  0.00    +0.005 C 
ATOM     21  C   LIG    1       23.799 -13.463   3.235  0.00  0.00    +0.031 C 
ATOM     22  C   LIG    1       24.559 -14.637   3.826  0.00  0.00    -0.069 C 
ATOM     23  C   LIG    1       23.622 -15.619   4.494  0.00  0.00    +0.039 C 
ENDBRANCH  14  15
ENDBRANCH   2  13
TORSDOF 6
ENDMDL
MODEL 3
REMARK VINA RESULT:      -3.1      2.607      6.431
REMARK  Name = *****
REMARK                            x       y       z     vdW  Elec       q    Type
REMARK                         _______ _______ _______ _____ _____    ______ ____
ROOT
ATOM      1  C   LIG    1       23.117 -14.262   4.947  0.00  0.00    +0.003 C 
ATOM      2  C   LIG    1       22.439 -15.401   5.195  0.00  0.00    -0.050 C 
ATOM      3  C   LIG    1       21.369 -15.419   6.266  0.00  0.00    +0.044 C 
ENDROOT
BRANCH   1   5
ATOM      4  C   LIG    1       25.488 -13.939   4.417  0.00  0.00    +0.003 C 
ATOM      5  C   LIG    1       24.210 -14.055   4.018  0.00  0.00    +0.001 C 
BRANCH   4   7
ATOM      6  C   LIG    1       26.326 -14.402   2.141  0.00  0.00    +0.044 C 
ATOM      7  C   LIG    1       26.617 -13.822   3.506  0.00  0.00    -0.044 C 
ATOM      8  C   LIG    1       27.819 -13.259   3.740  0.00  0.00    +0.094 C 
BRANCH   8   9
ATOM      9  C   LIG    1       28.433 -12.612   4.919  0.00  0.00    +0.330 C 
ATOM     10  O   LIG    1       29.343 -11.814   4.791  0.00  0.00    -0.246 OA
BRANCH   9  11
ATOM     11  O   LIG    1       27.983 -13.019   6.117  0.00  0.00    -0.477 OA
ATOM     12  H   LIG    1       27.216 -13.613   6.067  0.00  0.00    +0.295 HD
ENDBRANCH   9  11
ENDBRANCH   8   9
ENDBRANCH   4   7
ENDBRANCH   1   5
BRANCH   2  13
ATOM     13  C   LIG    1       22.654 -16.693   4.552  0.00  0.00    +0.003 C 
ATOM     14  C   LIG    1       23.410 -17.685   5.054  0.00  0.00    +0.004 C 
BRANCH  14  15
ATOM     15  C   LIG    1       23.761 -18.979   4.440  0.00  0.00    -0.043 C 
ATOM     16  C   LIG    1       22.952 -20.204   4.980  0.00  0.00    -0.010 C 
ATOM     17  C   LIG    1       22.849 -20.253   6.529  0.00  0.00    +0.016 C 
ATOM     18  C   LIG    1       21.516 -20.153   4.414  0.00  0.00    +0.016 C 
ATOM     19  C   LIG    1       23.613 -21.552   4.578  0.00  0.00    +0.011 C 
ATOM     20  C   LIG    1       24.055 -21.571   3.128  0.00  0.00    +0.005 C 
ATOM     21  C   LIG    1       25.083 -20.479   2.885  0.00  0.00    +0.031 C 
ATOM     22  C   LIG    1       24.754 -19.141   3.522  0.00  0.00    -0.069 C 
ATOM     23  C   LIG    1       25.679 -18.052   3.027  0.00  0.00    +0.039 C 
ENDBRANCH  14  15
ENDBRANCH   2  13
TORSDOF 6
ENDMDL
MODEL 4
REMARK VINA RESULT:      -2.8      2.551      7.047
REMARK  Name = *****
REMARK                            x       y       z     vdW  Elec       q    Type
REMARK                         _______ _______ _______ _____ _____    ______ ____
ROOT
ATOM      1  C   LIG    1       28.165 -16.813   4.023  0.00  0.00    +0.003 C 
ATOM      2  C   LIG    1       28.086 -17.932   4.772  0.00  0.00    -0.050 C 
ATOM      3  C   LIG    1       29.351 -18.674   5.146  0.00  0.00    +0.044 C 
ENDROOT
BRANCH   1   5
ATOM      4  C   LIG    1       26.924 -14.707   3.840  0.00  0.00    +0.003 C 
ATOM      5  C   LIG    1       27.080 -16.001   3.510  0.00  0.00    +0.001 C 
BRANCH   4   7
ATOM      6  C   LIG    1       26.459 -12.870   2.257  0.00  0.00    +0.044 C 
ATOM      7  C   LIG    1       25.901 -13.840   3.273  0.00  0.00    -0.044 C 
ATOM      8  C   LIG    1       24.579 -13.835   3.533  0.00  0.00    +0.094 C 
BRANCH   8   9
ATOM      9  C   LIG    1       23.712 -14.619   4.438  0.00  0.00    +0.330 C 
ATOM     10  O   LIG    1       23.142 -15.620   4.045  0.00  0.00    -0.246 OA
BRANCH   9  11
ATOM     11  O   LIG    1       23.534 -14.115   5.670  0.00  0.00    -0.477 OA
ATOM     12  H   LIG    1       23.780 -13.179   5.750  0.00  0.00    +0.295 HD
ENDBRANCH   9  11
ENDBRANCH   8   9
ENDBRANCH   4   7
ENDBRANCH   1   5
BRANCH   2  13
ATOM     13  C   LIG    1       26.863 -18.566   5.253  0.00  0.00    +0.003 C 
ATOM     14  C   LIG    1       26.164 -19.496   4.580  0.00  0.00    +0.004 C 
BRANCH  14  15
ATOM     15  C   LIG    1       24.877 -20.122   4.938  0.00  0.00    -0.043 C 
ATOM     16  C   LIG    1       23.679 -19.742   4.006  0.00  0.00    -0.010 C 
ATOM     17  C   LIG    1       23.575 -18.221   3.709  0.00  0.00    +0.016 C 
ATOM     18  C   LIG    1       23.834 -20.476   2.656  0.00  0.00    +0.016 C 
ATOM     19  C   LIG    1       22.313 -20.122   4.642  0.00  0.00    +0.011 C 
ATOM     20  C   LIG    1       22.327 -21.507   5.259  0.00  0.00    +0.005 C 
ATOM     21  C   LIG    1       23.368 -21.572   6.365  0.00  0.00    +0.031 C 
ATOM     22  C   LIG    1       24.696 -20.918   6.028  0.00  0.00    -0.069 C 
ATOM     23  C   LIG    1       25.749 -21.246   7.062  0.00  0.00    +0.039 C 
ENDBRANCH  14  15
ENDBRANCH   2  13
TORSDOF 6
ENDMDL
MODEL 5
REMARK VINA RESULT:      -2.1      1.097      2.153
REMARK  Name = *****
REMARK                            x       y       z     vdW  Elec       q    Type
REMARK                         _______ _______ _______ _____ _____    ______ ____
ROOT
ATOM      1  C   LIG    1       21.980 -17.404   5.158  0.00  0.00    +0.003 C 
ATOM      2  C   LIG    1       22.396 -16.122   5.129  0.00  0.00    -0.050 C 
ATOM      3  C   LIG    1       21.618 -15.063   5.882  0.00  0.00    +0.044 C 
ENDROOT
BRANCH   1   5
ATOM      4  C   LIG    1       23.711 -19.104   4.810  0.00  0.00    +0.003 C 
ATOM      5  C   LIG    1       22.541 -18.543   4.460  0.00  0.00    +0.001 C 
BRANCH   4   7
ATOM      6  C   LIG    1       23.846 -20.448   2.743  0.00  0.00    +0.044 C 
ATOM      7  C   LIG    1       24.257 -20.302   4.190  0.00  0.00    -0.044 C 
ATOM      8  C   LIG    1       25.064 -21.229   4.742  0.00  0.00    +0.094 C 
BRANCH   8   9
ATOM      9  C   LIG    1       25.651 -21.403   6.088  0.00  0.00    +0.330 C 
ATOM     10  O   LIG    1       24.941 -21.572   7.062  0.00  0.00    -0.246 OA
BRANCH   9  11
ATOM     11  O   LIG    1       26.986 -21.281   6.171  0.00  0.00    -0.477 OA
ATOM     12  H   LIG    1       27.410 -21.973   6.707  0.00  0.00    +0.295 HD
ENDBRANCH   9  11
ENDBRANCH   8   9
ENDBRANCH   4   7
ENDBRANCH   1   5
BRANCH   2  13
ATOM     13  C   LIG    1       23.539 -15.600   4.387  0.00  0.00    +0.003 C 
ATOM     14  C   LIG    1       24.236 -14.500   4.722  0.00  0.00    +0.004 C 
BRANCH  14  15
ATOM     15  C   LIG    1       25.337 -13.846   3.991  0.00  0.00    -0.043 C 
ATOM     16  C   LIG    1       26.762 -14.103   4.582  0.00  0.00    -0.010 C 
ATOM     17  C   LIG    1       26.842 -13.926   6.123  0.00  0.00    +0.016 C 
ATOM     18  C   LIG    1       27.197 -15.547   4.251  0.00  0.00    +0.016 C 
ATOM     19  C   LIG    1       27.810 -13.107   4.008  0.00  0.00    +0.011 C 
ATOM     20  C   LIG    1       27.680 -12.931   2.508  0.00  0.00    +0.005 C 
ATOM     21  C   LIG    1       26.306 -12.378   2.168  0.00  0.00    +0.031 C 
ATOM     22  C   LIG    1       25.156 -13.022   2.922  0.00  0.00    -0.069 C 
ATOM     23  C   LIG    1       23.820 -12.606   2.349  0.00  0.00    +0.039 C 
ENDBRANCH  14  15
ENDBRANCH   2  13
TORSDOF 6
ENDMDL
MODEL 6
REMARK VINA RESULT:      -2.0      1.463      3.147
REMARK  Name = *****
REMARK                            x       y       z     vdW  Elec       q    Type
REMARK                         _______ _______ _______ _____ _____    ______ ____
ROOT
ATOM      1  C   LIG    1       22.950 -19.788   4.682  0.00  0.00    +0.003 C 
ATOM      2  C   LIG    1       22.371 -18.628   4.311  0.00  0.00    -0.050 C 
ATOM      3  C   LIG    1       21.244 -18.642   3.300  0.00  0.00    +0.044 C 
ENDROOT
BRANCH   1   5
ATOM      4  C   LIG    1       25.282 -20.385   5.148  0.00  0.00    +0.003 C 
ATOM      5  C   LIG    1       24.073 -19.983   5.577  0.00  0.00    +0.001 C 
BRANCH   4   7
ATOM      6  C   LIG    1       26.295 -21.572   7.061  0.00  0.00    +0.044 C 
ATOM      7  C   LIG    1       26.452 -20.501   6.005  0.00  0.00    -0.044 C 
ATOM      8  C   LIG    1       27.603 -19.805   5.940  0.00  0.00    +0.094 C 
BRANCH   8   9
ATOM      9  C   LIG    1       28.092 -18.719   5.064  0.00  0.00    +0.330 C 
ATOM     10  O   LIG    1       27.405 -18.292   4.154  0.00  0.00    -0.246 OA
BRANCH   9  11
ATOM     11  O   LIG    1       29.350 -18.303   5.285  0.00  0.00    -0.477 OA
ATOM     12  H   LIG    1       30.027 -18.955   5.039  0.00  0.00    +0.295 HD
ENDBRANCH   9  11
ENDBRANCH   8   9
ENDBRANCH   4   7
ENDBRANCH   1   5
BRANCH   2  13
ATOM     13  C   LIG    1       22.748 -17.292   4.759  0.00  0.00    +0.003 C 
ATOM     14  C   LIG    1       23.236 -16.324   3.964  0.00  0.00    +0.004 C 
BRANCH  14  15
ATOM     15  C   LIG    1       23.729 -14.985   4.336  0.00  0.00    -0.043 C 
ATOM     16  C   LIG    1       24.980 -14.498   3.533  0.00  0.00    -0.010 C 
ATOM     17  C   LIG    1       26.100 -15.567   3.410  0.00  0.00    +0.016 C 
ATOM     18  C   LIG    1       24.545 -14.107   2.103  0.00  0.00    +0.016 C 
ATOM     19  C   LIG    1       25.661 -13.277   4.213  0.00  0.00    +0.011 C 
ATOM     20  C   LIG    1       24.659 -12.237   4.674  0.00  0.00    +0.005 C 
ATOM     21  C   LIG    1       23.711 -12.846   5.694  0.00  0.00    +0.031 C 
ATOM     22  C   LIG    1       23.203 -14.233   5.343  0.00  0.00    -0.069 C 
ATOM     23  C   LIG    1       22.081 -14.658   6.263  0.00  0.00    +0.039 C 
ENDBRANCH  14  15
ENDBRANCH   2  13
TORSDOF 6
ENDMDL
MODEL 7
REMARK VINA RESULT:      -1.8      2.199      6.296
REMARK  Name = *****
REMARK                            x       y       z     vdW  Elec       q    Type
REMARK                         _______ _______ _______ _____ _____    ______ ____
ROOT
ATOM      1  C   LIG    1       21.810 -16.352   4.031  0.00  0.00    +0.003 C 
ATOM      2  C   LIG    1       21.774 -17.678   4.268  0.00  0.00    -0.050 C 
ATOM      3  C   LIG    1       20.627 -18.506   3.727  0.00  0.00    +0.044 C 
ENDROOT
BRANCH   1   5
ATOM      4  C   LIG    1       23.657 -14.775   3.695  0.00  0.00    +0.003 C 
ATOM      5  C   LIG    1       22.776 -15.382   4.508  0.00  0.00    +0.001 C 
BRANCH   4   7
ATOM      6  C   LIG    1       23.899 -12.664   4.953  0.00  0.00    +0.044 C 
ATOM      7  C   LIG    1       24.576 -13.732   4.125  0.00  0.00    -0.044 C 
ATOM      8  C   LIG    1       25.900 -13.643   3.890  0.00  0.00    +0.094 C 
BRANCH   8   9
ATOM      9  C   LIG    1       26.865 -14.479   3.146  0.00  0.00    +0.330 C 
ATOM     10  O   LIG    1       27.541 -15.313   3.718  0.00  0.00    -0.246 OA
BRANCH   9  11
ATOM     11  O   LIG    1       27.000 -14.204   1.838  0.00  0.00    -0.477 OA
ATOM     12  H   LIG    1       26.158 -14.186   1.352  0.00  0.00    +0.295 HD
ENDBRANCH   9  11
ENDBRANCH   8   9
ENDBRANCH   4   7
ENDBRANCH   1   5
BRANCH   2  13
ATOM     13  C   LIG    1       22.734 -18.442   5.058  0.00  0.00    +0.003 C 
ATOM     14  C   LIG    1       23.810 -19.075   4.558  0.00  0.00    +0.004 C 
BRANCH  14  15
ATOM     15  C   LIG    1       24.777 -19.942   5.256  0.00  0.00    -0.043 C 
ATOM     16  C   LIG    1       26.199 -19.998   4.606  0.00  0.00    -0.010 C 
ATOM     17  C   LIG    1       26.175 -20.198   3.066  0.00  0.00    +0.016 C 
ATOM     18  C   LIG    1       26.943 -18.677   4.898  0.00  0.00    +0.016 C 
ATOM     19  C   LIG    1       27.035 -21.189   5.154  0.00  0.00    +0.011 C 
ATOM     20  C   LIG    1       26.932 -21.324   6.661  0.00  0.00    +0.005 C 
ATOM     21  C   LIG    1       25.488 -21.570   7.062  0.00  0.00    +0.031 C 
ATOM     22  C   LIG    1       24.470 -20.702   6.344  0.00  0.00    -0.069 C 
ATOM     23  C   LIG    1       23.101 -20.822   6.974  0.00  0.00    +0.039 C 
ENDBRANCH  14  15
ENDBRANCH   2  13
TORSDOF 6
ENDMDL
MODEL 8
REMARK VINA RESULT:      -1.7      2.245      6.348
REMARK  Name = *****
REMARK                            x       y       z     vdW  Elec       q    Type
REMARK                         _______ _______ _______ _____ _____    ______ ____
ROOT
ATOM      1  C   LIG    1       22.404 -16.087   3.758  0.00  0.00    +0.003 C 
ATOM      2  C   LIG    1       22.340 -17.398   4.063  0.00  0.00    -0.050 C 
ATOM      3  C   LIG    1       21.107 -18.195   3.692  0.00  0.00    +0.044 C 
ENDROOT
BRANCH   1   5
ATOM      4  C   LIG    1       23.491 -13.897   3.575  0.00  0.00    +0.003 C 
ATOM      5  C   LIG    1       23.456 -15.143   4.080  0.00  0.00    +0.001 C 
BRANCH   4   7
ATOM      6  C   LIG    1       23.862 -11.680   4.597  0.00  0.00    +0.044 C 
ATOM      7  C   LIG    1       24.481 -12.897   3.948  0.00  0.00    -0.044 C 
ATOM      8  C   LIG    1       25.818 -12.956   3.799  0.00  0.00    +0.094 C 
BRANCH   8   9
ATOM      9  C   LIG    1       26.740 -13.960   3.227  0.00  0.00    +0.330 C 
ATOM     10  O   LIG    1       26.660 -14.285   2.056  0.00  0.00    -0.246 OA
BRANCH   9  11
ATOM     11  O   LIG    1       27.596 -14.536   4.087  0.00  0.00    -0.477 OA
ATOM     12  H   LIG    1       28.284 -15.071   3.656  0.00  0.00    +0.295 HD
ENDBRANCH   9  11
ENDBRANCH   8   9
ENDBRANCH   4   7
ENDBRANCH   1   5
BRANCH   2  13
ATOM     13  C   LIG    1       23.349 -18.170   4.781  0.00  0.00    +0.003 C 
ATOM     14  C   LIG    1       24.592 -18.414   4.332  0.00  0.00    +0.004 C 
BRANCH  14  15
ATOM     15  C   LIG    1       25.644 -19.254   4.936  0.00  0.00    -0.043 C 
ATOM     16  C   LIG    1       25.120 -20.516   5.698  0.00  0.00    -0.010 C 
ATOM     17  C   LIG    1       23.928 -20.223   6.649  0.00  0.00    +0.016 C 
ATOM     18  C   LIG    1       24.654 -21.572   4.672  0.00  0.00    +0.016 C 
ATOM     19  C   LIG    1       26.219 -21.135   6.607  0.00  0.00    +0.011 C 
ATOM     20  C   LIG    1       27.562 -21.227   5.911  0.00  0.00    +0.005 C 
ATOM     21  C   LIG    1       28.039 -19.838   5.518  0.00  0.00    +0.031 C 
ATOM     22  C   LIG    1       26.970 -18.947   4.910  0.00  0.00    -0.069 C 
ATOM     23  C   LIG    1       27.571 -17.694   4.316  0.00  0.00    +0.039 C 
ENDBRANCH  14  15
ENDBRANCH   2  13
TORSDOF 6
ENDMDL
