MODEL 1
REMARK VINA RESULT:      -5.1      0.000      0.000
REMARK  Name = *****
REMARK                            x       y       z     vdW  Elec       q    Type
REMARK                         _______ _______ _______ _____ _____    ______ ____
ROOT
ATOM      1  C   LIG    1       25.932 -17.728   3.317  0.00  0.00    +0.205 C 
ENDROOT
BRANCH   1   2
ATOM      2  C   LIG    1       25.952 -16.210   3.512  0.00  0.00    -0.007 A 
ATOM      3  C   LIG    1       27.123 -15.442   3.467  0.00  0.00    +0.007 A 
ATOM      4  C   LIG    1       27.081 -14.063   3.722  0.00  0.00    +0.000 A 
ATOM      5  C   LIG    1       25.874 -13.436   4.018  0.00  0.00    +0.000 A 
ATOM      6  C   LIG    1       24.702 -14.182   4.064  0.00  0.00    +0.000 A 
ATOM      7  C   LIG    1       24.743 -15.554   3.815  0.00  0.00    +0.007 A 
ENDBRANCH   1   2
BRANCH   1   8
ATOM      8  C   LIG    1       26.658 -18.480   4.454  0.00  0.00    +0.064 C 
BRANCH   8   9
ATOM      9  C   LIG    1       28.132 -18.105   4.646  0.00  0.00    +0.084 C 
BRANCH   9  11
ATOM     10  C   LIG    1       27.816 -20.045   6.061  0.00  0.00    +0.101 C 
ATOM     11  N   LIG    1       28.784 -19.194   5.387  0.00  0.00    -0.319 NA
ATOM     12  H   LIG    1       29.337 -19.759   4.742  0.00  0.00    +0.122 HD
ENDBRANCH   9  11
ENDBRANCH   8   9
ENDBRANCH   1   8
BRANCH   1  13
ATOM     13  O   LIG    1       24.606 -18.255   3.098  0.00  0.00    -0.484 OA
BRANCH  13  14
ATOM     14  C   LIG    1       24.214 -19.324   3.877  0.00  0.00    +0.124 A 
ATOM     15  C   LIG    1       23.042 -19.172   4.645  0.00  0.00    -0.009 A 
ATOM     16  C   LIG    1       22.174 -17.951   4.526  0.00  0.00    +0.048 C 
ATOM     17  C   LIG    1       22.638 -20.207   5.508  0.00  0.00    +0.007 A 
ATOM     18  C   LIG    1       23.365 -21.391   5.595  0.00  0.00    +0.001 A 
ATOM     19  C   LIG    1       24.479 -21.571   4.786  0.00  0.00    +0.004 A 
ATOM     20  C   LIG    1       24.895 -20.548   3.929  0.00  0.00    +0.046 A 
ENDBRANCH  13  14
ENDBRANCH   1  13
TORSDOF 6
ENDMDL
MODEL 2
REMARK VINA RESULT:      -4.9      0.969      5.255
REMARK  Name = *****
REMARK                            x       y       z     vdW  Elec       q    Type
REMARK                         _______ _______ _______ _____ _____    ______ ____
ROOT
ATOM      1  C   LIG    1       25.388 -18.037   4.084  0.00  0.00    +0.205 C 
ENDROOT
BRANCH   1   2
ATOM      2  C   LIG    1       24.124 -18.887   4.230  0.00  0.00    -0.007 A 
ATOM      3  C   LIG    1       22.828 -18.374   4.084  0.00  0.00    +0.007 A 
ATOM      4  C   LIG    1       21.709 -19.193   4.299  0.00  0.00    +0.000 A 
ATOM      5  C   LIG    1       21.870 -20.529   4.654  0.00  0.00    +0.000 A 
ATOM      6  C   LIG    1       23.149 -21.056   4.799  0.00  0.00    +0.000 A 
ATOM      7  C   LIG    1       24.262 -20.242   4.592  0.00  0.00    +0.007 A 
ENDBRANCH   1   2
BRANCH   1   8
ATOM      8  C   LIG    1       26.637 -18.884   3.756  0.00  0.00    +0.064 C 
BRANCH   8   9
ATOM      9  C   LIG    1       27.709 -18.914   4.851  0.00  0.00    +0.084 C 
BRANCH   9  11
ATOM     10  C   LIG    1       27.398 -20.433   6.711  0.00  0.00    +0.101 C 
ATOM     11  N   LIG    1       27.832 -20.298   5.329  0.00  0.00    -0.319 NA
ATOM     12  H   LIG    1       27.270 -20.912   4.739  0.00  0.00    +0.122 HD
ENDBRANCH   9  11
ENDBRANCH   8   9
ENDBRANCH   1   8
BRANCH   1  13
ATOM     13  O   LIG    1       25.233 -16.944   3.154  0.00  0.00    -0.484 OA
BRANCH  13  14
ATOM     14  C   LIG    1       25.797 -15.734   3.501  0.00  0.00    +0.124 A 
ATOM     15  C   LIG    1       24.930 -14.718   3.949  0.00  0.00    -0.009 A 
ATOM     16  C   LIG    1       23.465 -14.972   4.171  0.00  0.00    +0.048 C 
ATOM     17  C   LIG    1       25.447 -13.444   4.250  0.00  0.00    +0.007 A 
ATOM     18  C   LIG    1       26.809 -13.180   4.136  0.00  0.00    +0.001 A 
ATOM     19  C   LIG    1       27.675 -14.200   3.763  0.00  0.00    +0.004 A 
ATOM     20  C   LIG    1       27.173 -15.468   3.457  0.00  0.00    +0.046 A 
ENDBRANCH  13  14
ENDBRANCH   1  13
TORSDOF 6
ENDMDL
MODEL 3
REMARK VINA RESULT:      -4.7      1.871      3.690
REMARK  Name = *****
REMARK                            x       y       z     vdW  Elec       q    Type
REMARK                         _______ _______ _______ _____ _____    ______ ____
ROOT
ATOM      1  C   LIG    1       24.946 -18.096   4.131  0.00  0.00    +0.205 C 
ENDROOT
BRANCH   1   2
ATOM      2  C   LIG    1       25.212 -16.637   3.753  0.00  0.00    -0.007 A 
ATOM      3  C   LIG    1       26.426 -16.188   3.218  0.00  0.00    +0.007 A 
ATOM      4  C   LIG    1       26.629 -14.825   2.957  0.00  0.00    +0.000 A 
ATOM      5  C   LIG    1       25.624 -13.898   3.220  0.00  0.00    +0.000 A 
ATOM      6  C   LIG    1       24.411 -14.327   3.748  0.00  0.00    +0.000 A 
ATOM      7  C   LIG    1       24.210 -15.681   4.013  0.00  0.00    +0.007 A 
ENDBRANCH   1   2
BRANCH   1   8
ATOM      8  C   LIG    1       23.687 -18.666   3.442  0.00  0.00    +0.064 C 
BRANCH   8   9
ATOM      9  C   LIG    1       22.379 -18.485   4.221  0.00  0.00    +0.084 C 
BRANCH   9  11
ATOM     10  C   LIG    1       22.313 -20.804   4.918  0.00  0.00    +0.101 C 
ATOM     11  N   LIG    1       22.394 -19.419   5.355  0.00  0.00    -0.319 NA
ATOM     12  H   LIG    1       23.252 -19.286   5.892  0.00  0.00    +0.122 HD
ENDBRANCH   9  11
ENDBRANCH   8   9
ENDBRANCH   1   8
BRANCH   1  13
ATOM     13  O   LIG    1       26.091 -18.953   3.931  0.00  0.00    -0.484 OA
BRANCH  13  14
ATOM     14  C   LIG    1       26.467 -19.761   4.984  0.00  0.00    +0.124 A 
ATOM     15  C   LIG    1       27.769 -19.594   5.497  0.00  0.00    -0.009 A 
ATOM     16  C   LIG    1       28.672 -18.494   5.014  0.00  0.00    +0.048 C 
ATOM     17  C   LIG    1       28.225 -20.440   6.524  0.00  0.00    +0.007 A 
ATOM     18  C   LIG    1       27.399 -21.424   7.061  0.00  0.00    +0.001 A 
ATOM     19  C   LIG    1       26.092 -21.542   6.606  0.00  0.00    +0.004 A 
ATOM     20  C   LIG    1       25.629 -20.712   5.582  0.00  0.00    +0.046 A 
ENDBRANCH  13  14
ENDBRANCH   1  13
TORSDOF 6
ENDMDL
MODEL 4
REMARK VINA RESULT:      -4.7      2.422      4.067
REMARK  Name = *****
REMARK                            x       y       z     vdW  Elec       q    Type
REMARK                         _______ _______ _______ _____ _____    ______ ____
ROOT
ATOM      1  C   LIG    1       24.715 -15.372   4.224  0.00  0.00    +0.205 C 
ENDROOT
BRANCH   1   2
ATOM      2  C   LIG    1       26.042 -14.614   4.146  0.00  0.00    -0.007 A 
ATOM      3  C   LIG    1       26.568 -13.870   5.211  0.00  0.00    +0.007 A 
ATOM      4  C   LIG    1       27.757 -13.141   5.051  0.00  0.00    +0.000 A 
ATOM      5  C   LIG    1       28.434 -13.151   3.836  0.00  0.00    +0.000 A 
ATOM      6  C   LIG    1       27.929 -13.888   2.770  0.00  0.00    +0.000 A 
ATOM      7  C   LIG    1       26.745 -14.608   2.925  0.00  0.00    +0.007 A 
ENDBRANCH   1   2
BRANCH   1   8
ATOM      8  C   LIG    1       23.492 -14.430   4.193  0.00  0.00    +0.064 C 
BRANCH   8   9
ATOM      9  C   LIG    1       23.800 -12.975   3.823  0.00  0.00    +0.084 C 
BRANCH   9  11
ATOM     10  C   LIG    1       24.550 -11.776   1.857  0.00  0.00    +0.101 C 
ATOM     11  N   LIG    1       23.706 -12.848   2.362  0.00  0.00    -0.319 NA
ATOM     12  H   LIG    1       23.985 -13.727   1.926  0.00  0.00    +0.122 HD
ENDBRANCH   9  11
ENDBRANCH   8   9
ENDBRANCH   1   8
BRANCH   1  13
ATOM     13  O   LIG    1       24.601 -16.418   3.235  0.00  0.00    -0.484 OA
BRANCH  13  14
ATOM     14  C   LIG    1       24.735 -17.719   3.674  0.00  0.00    +0.124 A 
ATOM     15  C   LIG    1       23.577 -18.365   4.154  0.00  0.00    -0.009 A 
ATOM     16  C   LIG    1       22.223 -17.718   4.072  0.00  0.00    +0.048 C 
ATOM     17  C   LIG    1       23.673 -19.668   4.676  0.00  0.00    +0.007 A 
ATOM     18  C   LIG    1       24.892 -20.340   4.701  0.00  0.00    +0.001 A 
ATOM     19  C   LIG    1       26.019 -19.733   4.163  0.00  0.00    +0.004 A 
ATOM     20  C   LIG    1       25.938 -18.437   3.646  0.00  0.00    +0.046 A 
ENDBRANCH  13  14
ENDBRANCH   1  13
TORSDOF 6
ENDMDL
MODEL 5
REMARK VINA RESULT:      -4.6      1.716      5.377
REMARK  Name = *****
REMARK                            x       y       z     vdW  Elec       q    Type
REMARK                         _______ _______ _______ _____ _____    ______ ____
ROOT
ATOM      1  C   LIG    1       26.014 -18.005   3.519  0.00  0.00    +0.205 C 
ENDROOT
BRANCH   1   2
ATOM      2  C   LIG    1       27.089 -18.500   4.490  0.00  0.00    -0.007 A 
ATOM      3  C   LIG    1       28.307 -17.839   4.695  0.00  0.00    +0.007 A 
ATOM      4  C   LIG    1       29.278 -18.383   5.549  0.00  0.00    +0.000 A 
ATOM      5  C   LIG    1       29.043 -19.584   6.210  0.00  0.00    +0.000 A 
ATOM      6  C   LIG    1       27.838 -20.252   6.022  0.00  0.00    +0.000 A 
ATOM      7  C   LIG    1       26.873 -19.715   5.170  0.00  0.00    +0.007 A 
ENDBRANCH   1   2
BRANCH   1   8
ATOM      8  C   LIG    1       25.106 -19.145   3.010  0.00  0.00    +0.064 C 
BRANCH   8   9
ATOM      9  C   LIG    1       23.682 -19.147   3.577  0.00  0.00    +0.084 C 
BRANCH   9  11
ATOM     10  C   LIG    1       22.773 -20.182   5.569  0.00  0.00    +0.101 C 
ATOM     11  N   LIG    1       23.491 -20.399   4.322  0.00  0.00    -0.319 NA
ATOM     12  H   LIG    1       22.970 -21.060   3.746  0.00  0.00    +0.122 HD
ENDBRANCH   9  11
ENDBRANCH   8   9
ENDBRANCH   1   8
BRANCH   1  13
ATOM     13  O   LIG    1       25.238 -16.906   4.043  0.00  0.00    -0.484 OA
BRANCH  13  14
ATOM     14  C   LIG    1       25.549 -15.641   3.591  0.00  0.00    +0.124 A 
ATOM     15  C   LIG    1       24.563 -14.642   3.726  0.00  0.00    -0.009 A 
ATOM     16  C   LIG    1       23.273 -14.902   4.452  0.00  0.00    +0.048 C 
ATOM     17  C   LIG    1       24.805 -13.353   3.218  0.00  0.00    +0.007 A 
ATOM     18  C   LIG    1       26.016 -13.040   2.607  0.00  0.00    +0.001 A 
ATOM     19  C   LIG    1       27.015 -14.002   2.537  0.00  0.00    +0.004 A 
ATOM     20  C   LIG    1       26.785 -15.289   3.032  0.00  0.00    +0.046 A 
ENDBRANCH  13  14
ENDBRANCH   1  13
TORSDOF 6
ENDMDL
MODEL 6
REMARK VINA RESULT:      -4.2      1.609      4.414
REMARK  Name = *****
REMARK                            x       y       z     vdW  Elec       q    Type
REMARK                         _______ _______ _______ _____ _____    ______ ____
ROOT
ATOM      1  C   LIG    1       26.194 -18.181   4.193  0.00  0.00    +0.205 C 
ENDROOT
BRANCH   1   2
ATOM      2  C   LIG    1       27.231 -18.905   5.055  0.00  0.00    -0.007 A 
ATOM      3  C   LIG    1       26.961 -20.088   5.754  0.00  0.00    +0.007 A 
ATOM      4  C   LIG    1       27.937 -20.664   6.582  0.00  0.00    +0.000 A 
ATOM      5  C   LIG    1       29.189 -20.071   6.716  0.00  0.00    +0.000 A 
ATOM      6  C   LIG    1       29.475 -18.898   6.026  0.00  0.00    +0.000 A 
ATOM      7  C   LIG    1       28.505 -18.322   5.207  0.00  0.00    +0.007 A 
ENDBRANCH   1   2
BRANCH   1   8
ATOM      8  C   LIG    1       26.825 -17.094   3.295  0.00  0.00    +0.064 C 
BRANCH   8   9
ATOM      9  C   LIG    1       26.171 -15.711   3.389  0.00  0.00    +0.084 C 
BRANCH   9  11
ATOM     10  C   LIG    1       27.117 -13.723   4.397  0.00  0.00    +0.101 C 
ATOM     11  N   LIG    1       27.235 -14.700   3.326  0.00  0.00    -0.319 NA
ATOM     12  H   LIG    1       28.144 -15.160   3.390  0.00  0.00    +0.122 HD
ENDBRANCH   9  11
ENDBRANCH   8   9
ENDBRANCH   1   8
BRANCH   1  13
ATOM     13  O   LIG    1       25.364 -19.081   3.428  0.00  0.00    -0.484 OA
BRANCH  13  14
ATOM     14  C   LIG    1       24.042 -19.197   3.806  0.00  0.00    +0.124 A 
ATOM     15  C   LIG    1       23.617 -20.445   4.304  0.00  0.00    -0.009 A 
ATOM     16  C   LIG    1       24.586 -21.570   4.543  0.00  0.00    +0.048 C 
ATOM     17  C   LIG    1       22.265 -20.637   4.640  0.00  0.00    +0.007 A 
ATOM     18  C   LIG    1       21.343 -19.601   4.511  0.00  0.00    +0.001 A 
ATOM     19  C   LIG    1       21.773 -18.350   4.089  0.00  0.00    +0.004 A 
ATOM     20  C   LIG    1       23.114 -18.149   3.747  0.00  0.00    +0.046 A 
ENDBRANCH  13  14
ENDBRANCH   1  13
TORSDOF 6
ENDMDL
MODEL 7
REMARK VINA RESULT:      -4.2      1.859      5.458
REMARK  Name = *****
REMARK                            x       y       z     vdW  Elec       q    Type
REMARK                         _______ _______ _______ _____ _____    ______ ____
ROOT
ATOM      1  C   LIG    1       26.055 -17.891   3.393  0.00  0.00    +0.205 C 
ENDROOT
BRANCH   1   2
ATOM      2  C   LIG    1       27.036 -18.468   4.417  0.00  0.00    -0.007 A 
ATOM      3  C   LIG    1       28.283 -17.894   4.699  0.00  0.00    +0.007 A 
ATOM      4  C   LIG    1       29.164 -18.513   5.600  0.00  0.00    +0.000 A 
ATOM      5  C   LIG    1       28.809 -19.701   6.231  0.00  0.00    +0.000 A 
ATOM      6  C   LIG    1       27.574 -20.282   5.966  0.00  0.00    +0.000 A 
ATOM      7  C   LIG    1       26.699 -19.672   5.067  0.00  0.00    +0.007 A 
ENDBRANCH   1   2
BRANCH   1   8
ATOM      8  C   LIG    1       24.590 -17.956   3.876  0.00  0.00    +0.064 C 
BRANCH   8   9
ATOM      9  C   LIG    1       23.869 -19.279   3.593  0.00  0.00    +0.084 C 
BRANCH   9  11
ATOM     10  C   LIG    1       22.834 -20.331   5.513  0.00  0.00    +0.101 C 
ATOM     11  N   LIG    1       22.682 -19.343   4.456  0.00  0.00    -0.319 NA
ATOM     12  H   LIG    1       22.517 -18.427   4.875  0.00  0.00    +0.122 HD
ENDBRANCH   9  11
ENDBRANCH   8   9
ENDBRANCH   1   8
BRANCH   1  13
ATOM     13  O   LIG    1       26.409 -16.561   2.956  0.00  0.00    -0.484 OA
BRANCH  13  14
ATOM     14  C   LIG    1       25.730 -15.506   3.530  0.00  0.00    +0.124 A 
ATOM     15  C   LIG    1       26.497 -14.420   3.999  0.00  0.00    -0.009 A 
ATOM     16  C   LIG    1       27.980 -14.344   3.768  0.00  0.00    +0.048 C 
ATOM     17  C   LIG    1       25.860 -13.350   4.654  0.00  0.00    +0.007 A 
ATOM     18  C   LIG    1       24.478 -13.337   4.824  0.00  0.00    +0.001 A 
ATOM     19  C   LIG    1       23.714 -14.371   4.299  0.00  0.00    +0.004 A 
ATOM     20  C   LIG    1       24.336 -15.442   3.651  0.00  0.00    +0.046 A 
ENDBRANCH  13  14
ENDBRANCH   1  13
TORSDOF 6
ENDMDL
MODEL 8
REMARK VINA RESULT:      -3.9      1.067      5.345
REMARK  Name = *****
REMARK                            x       y       z     vdW  Elec       q    Type
REMARK                         _______ _______ _______ _____ _____    ______ ____
ROOT
ATOM      1  C   LIG    1       25.573 -17.652   3.994  0.00  0.00    +0.205 C 
ENDROOT
BRANCH   1   2
ATOM      2  C   LIG    1       24.307 -18.506   4.102  0.00  0.00    -0.007 A 
ATOM      3  C   LIG    1       23.016 -17.965   4.177  0.00  0.00    +0.007 A 
ATOM      4  C   LIG    1       21.902 -18.802   4.345  0.00  0.00    +0.000 A 
ATOM      5  C   LIG    1       22.062 -20.182   4.432  0.00  0.00    +0.000 A 
ATOM      6  C   LIG    1       23.336 -20.735   4.355  0.00  0.00    +0.000 A 
ATOM      7  C   LIG    1       24.445 -19.905   4.194  0.00  0.00    +0.007 A 
ENDBRANCH   1   2
BRANCH   1   8
ATOM      8  C   LIG    1       26.828 -18.493   3.676  0.00  0.00    +0.064 C 
BRANCH   8   9
ATOM      9  C   LIG    1       27.827 -18.633   4.829  0.00  0.00    +0.084 C 
BRANCH   9  11
ATOM     10  C   LIG    1       28.721 -20.264   6.380  0.00  0.00    +0.101 C 
ATOM     11  N   LIG    1       27.890 -20.053   5.205  0.00  0.00    -0.319 NA
ATOM     12  H   LIG    1       26.948 -20.395   5.395  0.00  0.00    +0.122 HD
ENDBRANCH   9  11
ENDBRANCH   8   9
ENDBRANCH   1   8
BRANCH   1  13
ATOM     13  O   LIG    1       25.434 -16.544   3.079  0.00  0.00    -0.484 OA
BRANCH  13  14
ATOM     14  C   LIG    1       25.219 -15.296   3.626  0.00  0.00    +0.124 A 
ATOM     15  C   LIG    1       26.352 -14.564   4.037  0.00  0.00    -0.009 A 
ATOM     16  C   LIG    1       27.747 -15.056   3.772  0.00  0.00    +0.048 C 
ATOM     17  C   LIG    1       26.184 -13.316   4.664  0.00  0.00    +0.007 A 
ATOM     18  C   LIG    1       24.914 -12.780   4.861  0.00  0.00    +0.001 A 
ATOM     19  C   LIG    1       23.801 -13.466   4.393  0.00  0.00    +0.004 A 
ATOM     20  C   LIG    1       23.955 -14.710   3.773  0.00  0.00    +0.046 A 
ENDBRANCH  13  14
ENDBRANCH   1  13
TORSDOF 6
ENDMDL
MODEL 9
REMARK VINA RESULT:      -3.7      2.628      4.451
REMARK  Name = *****
REMARK                            x       y       z     vdW  Elec       q    Type
REMARK                         _______ _______ _______ _____ _____    ______ ____
ROOT
ATOM      1  C   LIG    1       25.544 -15.176   4.002  0.00  0.00    +0.205 C 
ENDROOT
BRANCH   1   2
ATOM      2  C   LIG    1       26.717 -14.198   4.098  0.00  0.00    -0.007 A 
ATOM      3  C   LIG    1       27.640 -13.997   3.063  0.00  0.00    +0.007 A 
ATOM      4  C   LIG    1       28.733 -13.136   3.241  0.00  0.00    +0.000 A 
ATOM      5  C   LIG    1       28.914 -12.463   4.446  0.00  0.00    +0.000 A 
ATOM      6  C   LIG    1       28.005 -12.647   5.482  0.00  0.00    +0.000 A 
ATOM      7  C   LIG    1       26.920 -13.507   5.309  0.00  0.00    +0.007 A 
ENDBRANCH   1   2
BRANCH   1   8
ATOM      8  C   LIG    1       24.228 -14.483   3.585  0.00  0.00    +0.064 C 
BRANCH   8   9
ATOM      9  C   LIG    1       24.339 -13.551   2.373  0.00  0.00    +0.084 C 
BRANCH   9  11
ATOM     10  C   LIG    1       23.780 -12.094   4.225  0.00  0.00    +0.101 C 
ATOM     11  N   LIG    1       24.273 -12.165   2.858  0.00  0.00    -0.319 NA
ATOM     12  H   LIG    1       25.202 -11.746   2.814  0.00  0.00    +0.122 HD
ENDBRANCH   9  11
ENDBRANCH   8   9
ENDBRANCH   1   8
BRANCH   1  13
ATOM     13  O   LIG    1       25.825 -16.320   3.168  0.00  0.00    -0.484 OA
BRANCH  13  14
ATOM     14  C   LIG    1       26.388 -17.423   3.778  0.00  0.00    +0.124 A 
ATOM     15  C   LIG    1       25.578 -18.567   3.925  0.00  0.00    -0.009 A 
ATOM     16  C   LIG    1       24.201 -18.641   3.327  0.00  0.00    +0.048 C 
ATOM     17  C   LIG    1       26.082 -19.694   4.600  0.00  0.00    +0.007 A 
ATOM     18  C   LIG    1       27.380 -19.704   5.104  0.00  0.00    +0.001 A 
ATOM     19  C   LIG    1       28.203 -18.605   4.897  0.00  0.00    +0.004 A 
ATOM     20  C   LIG    1       27.712 -17.478   4.232  0.00  0.00    +0.046 A 
ENDBRANCH  13  14
ENDBRANCH   1  13
TORSDOF 6
ENDMDL
