MODEL 1
REMARK VINA RESULT:      -7.1      0.000      0.000
REMARK  Name = *****
REMARK                            x       y       z     vdW  Elec       q    Type
REMARK                         _______ _______ _______ _____ _____    ______ ____
ROOT
ATOM      1  C   LIG    1       25.038 -23.660   6.937  0.00  0.00    +0.284 C 
ENDROOT
BRANCH   1   3
ATOM      2  O   LIG    1       26.486 -25.843   5.811  0.00  0.00    -0.257 OA
ATOM      3  P   LIG    1       25.180 -25.130   5.869  0.00  0.00    +0.356 P 
BRANCH   3   4
ATOM      4  O   LIG    1       23.988 -26.132   6.278  0.00  0.00    -0.323 OA
ATOM      5  H   LIG    1       24.299 -27.039   6.440  0.00  0.00    +0.220 HD
ENDBRANCH   3   4
BRANCH   3   6
ATOM      6  O   LIG    1       24.667 -24.698   4.410  0.00  0.00    -0.323 OA
ATOM      7  H   LIG    1       24.864 -23.769   4.193  0.00  0.00    +0.220 HD
ENDBRANCH   3   6
ENDBRANCH   1   3
BRANCH   1   8
ATOM      8  P   LIG    1       23.467 -22.787   6.770  0.00  0.00    +0.356 P 
ATOM      9  O   LIG    1       23.097 -21.748   7.768  0.00  0.00    -0.257 OA
BRANCH   8  10
ATOM     10  O   LIG    1       22.299 -23.869   6.599  0.00  0.00    -0.323 OA
ATOM     11  H   LIG    1       22.589 -24.780   6.819  0.00  0.00    +0.220 HD
ENDBRANCH   8  10
BRANCH   8  12
ATOM     12  O   LIG    1       23.466 -22.139   5.302  0.00  0.00    -0.323 OA
ATOM     13  H   LIG    1       22.642 -22.325   4.806  0.00  0.00    +0.220 HD
ENDBRANCH   8  12
ENDBRANCH   1   8
BRANCH   1  14
ATOM     14  N   LIG    1       26.203 -22.783   6.559  0.00  0.00    -0.291 NA
ATOM     15  H   LIG    1       26.060 -22.482   5.589  0.00  0.00    +0.124 HD
BRANCH  14  16
ATOM     16  C   LIG    1       26.409 -21.591   7.397  0.00  0.00    +0.055 C 
ATOM     17  C   LIG    1       27.787 -21.510   8.072  0.00  0.00    +0.019 C 
ATOM     18  C   LIG    1       28.921 -21.268   7.082  0.00  0.00    +0.002 C 
ATOM     19  C   LIG    1       28.683 -19.993   6.282  0.00  0.00    +0.000 C 
ATOM     20  C   LIG    1       27.330 -20.017   5.577  0.00  0.00    +0.002 C 
ATOM     21  C   LIG    1       26.187 -20.319   6.546  0.00  0.00    +0.019 C 
ENDBRANCH  14  16
ENDBRANCH   1  14
TORSDOF 8
ENDMDL
MODEL 2
REMARK VINA RESULT:      -7.0      5.638      6.551
REMARK  Name = *****
REMARK                            x       y       z     vdW  Elec       q    Type
REMARK                         _______ _______ _______ _____ _____    ______ ____
ROOT
ATOM      1  C   LIG    1       29.975 -21.025   7.788  0.00  0.00    +0.284 C 
ENDROOT
BRANCH   1   3
ATOM      2  O   LIG    1       30.606 -22.140  10.335  0.00  0.00    -0.257 OA
ATOM      3  P   LIG    1       31.148 -21.548   9.081  0.00  0.00    +0.356 P 
BRANCH   3   4
ATOM      4  O   LIG    1       32.213 -22.535   8.386  0.00  0.00    -0.323 OA
ATOM      5  H   LIG    1       32.967 -22.058   7.996  0.00  0.00    +0.220 HD
ENDBRANCH   3   4
BRANCH   3   6
ATOM      6  O   LIG    1       32.108 -20.294   9.374  0.00  0.00    -0.323 OA
ATOM      7  H   LIG    1       32.255 -20.137  10.324  0.00  0.00    +0.220 HD
ENDBRANCH   3   6
ENDBRANCH   1   3
BRANCH   1   8
ATOM      8  P   LIG    1       30.297 -19.372   7.138  0.00  0.00    +0.356 P 
ATOM      9  O   LIG    1       29.529 -18.886   5.960  0.00  0.00    -0.257 OA
BRANCH   8  10
ATOM     10  O   LIG    1       31.874 -19.214   6.908  0.00  0.00    -0.323 OA
ATOM     11  H   LIG    1       32.366 -20.050   7.058  0.00  0.00    +0.220 HD
ENDBRANCH   8  10
BRANCH   8  12
ATOM     12  O   LIG    1       30.089 -18.357   8.364  0.00  0.00    -0.323 OA
ATOM     13  H   LIG    1       30.335 -18.750   9.226  0.00  0.00    +0.220 HD
ENDBRANCH   8  12
ENDBRANCH   1   8
BRANCH   1  14
ATOM     14  N   LIG    1       28.615 -21.113   8.429  0.00  0.00    -0.291 NA
ATOM     15  H   LIG    1       28.663 -20.616   9.325  0.00  0.00    +0.124 HD
BRANCH  14  16
ATOM     16  C   LIG    1       27.497 -20.562   7.646  0.00  0.00    +0.055 C 
ATOM     17  C   LIG    1       27.063 -21.425   6.450  0.00  0.00    +0.019 C 
ATOM     18  C   LIG    1       26.399 -22.731   6.870  0.00  0.00    +0.002 C 
ATOM     19  C   LIG    1       25.189 -22.466   7.758  0.00  0.00    +0.000 C 
ATOM     20  C   LIG    1       25.560 -21.620   8.973  0.00  0.00    +0.002 C 
ATOM     21  C   LIG    1       26.282 -20.333   8.574  0.00  0.00    +0.019 C 
ENDBRANCH  14  16
ENDBRANCH   1  14
TORSDOF 8
ENDMDL
MODEL 3
REMARK VINA RESULT:      -6.9      3.037      4.463
REMARK  Name = *****
REMARK                            x       y       z     vdW  Elec       q    Type
REMARK                         _______ _______ _______ _____ _____    ______ ____
ROOT
ATOM      1  C   LIG    1       24.696 -22.312   6.481  0.00  0.00    +0.284 C 
ENDROOT
BRANCH   1   3
ATOM      2  O   LIG    1       25.514 -21.787   9.161  0.00  0.00    -0.257 OA
ATOM      3  P   LIG    1       25.869 -21.671   7.720  0.00  0.00    +0.356 P 
BRANCH   3   4
ATOM      4  O   LIG    1       27.299 -22.344   7.416  0.00  0.00    -0.323 OA
ATOM      5  H   LIG    1       27.976 -21.692   7.167  0.00  0.00    +0.220 HD
ENDBRANCH   3   4
BRANCH   3   6
ATOM      6  O   LIG    1       26.203 -20.155   7.305  0.00  0.00    -0.323 OA
ATOM      7  H   LIG    1       26.687 -19.666   7.994  0.00  0.00    +0.220 HD
ENDBRANCH   3   6
ENDBRANCH   1   3
BRANCH   1   8
ATOM      8  P   LIG    1       24.817 -24.093   6.217  0.00  0.00    +0.356 P 
ATOM      9  O   LIG    1       25.785 -24.888   7.019  0.00  0.00    -0.257 OA
BRANCH   8  10
ATOM     10  O   LIG    1       25.002 -24.365   4.649  0.00  0.00    -0.323 OA
ATOM     11  H   LIG    1       25.918 -24.197   4.340  0.00  0.00    +0.220 HD
ENDBRANCH   8  10
BRANCH   8  12
ATOM     12  O   LIG    1       23.339 -24.681   6.430  0.00  0.00    -0.323 OA
ATOM     13  H   LIG    1       23.068 -25.293   5.715  0.00  0.00    +0.220 HD
ENDBRANCH   8  12
ENDBRANCH   1   8
BRANCH   1  14
ATOM     14  N   LIG    1       24.994 -21.543   5.221  0.00  0.00    -0.291 NA
ATOM     15  H   LIG    1       25.764 -22.021   4.742  0.00  0.00    +0.124 HD
BRANCH  14  16
ATOM     16  C   LIG    1       23.874 -21.395   4.278  0.00  0.00    +0.055 C 
ATOM     17  C   LIG    1       22.542 -20.980   4.921  0.00  0.00    +0.019 C 
ATOM     18  C   LIG    1       22.557 -19.550   5.451  0.00  0.00    +0.002 C 
ATOM     19  C   LIG    1       22.904 -18.563   4.344  0.00  0.00    +0.000 C 
ATOM     20  C   LIG    1       24.227 -18.916   3.671  0.00  0.00    +0.002 C 
ATOM     21  C   LIG    1       24.252 -20.367   3.186  0.00  0.00    +0.019 C 
ENDBRANCH  14  16
ENDBRANCH   1  14
TORSDOF 8
ENDMDL
MODEL 4
REMARK VINA RESULT:      -6.7      3.942      5.192
REMARK  Name = *****
REMARK                            x       y       z     vdW  Elec       q    Type
REMARK                         _______ _______ _______ _____ _____    ______ ____
ROOT
ATOM      1  C   LIG    1       26.737 -21.150   6.373  0.00  0.00    +0.284 C 
ENDROOT
BRANCH   1   3
ATOM      2  O   LIG    1       25.079 -23.045   7.710  0.00  0.00    -0.257 OA
ATOM      3  P   LIG    1       25.940 -21.840   7.860  0.00  0.00    +0.356 P 
BRANCH   3   4
ATOM      4  O   LIG    1       27.098 -22.084   8.951  0.00  0.00    -0.323 OA
ATOM      5  H   LIG    1       27.120 -23.000   9.277  0.00  0.00    +0.220 HD
ENDBRANCH   3   4
BRANCH   3   6
ATOM      6  O   LIG    1       25.161 -20.630   8.575  0.00  0.00    -0.323 OA
ATOM      7  H   LIG    1       25.308 -20.594   9.537  0.00  0.00    +0.220 HD
ENDBRANCH   3   6
ENDBRANCH   1   3
BRANCH   1   8
ATOM      8  P   LIG    1       28.294 -20.300   6.709  0.00  0.00    +0.356 P 
ATOM      9  O   LIG    1       28.754 -19.224   5.790  0.00  0.00    -0.257 OA
BRANCH   8  10
ATOM     10  O   LIG    1       29.437 -21.400   6.932  0.00  0.00    -0.323 OA
ATOM     11  H   LIG    1       29.298 -22.207   6.392  0.00  0.00    +0.220 HD
ENDBRANCH   8  10
BRANCH   8  12
ATOM     12  O   LIG    1       28.176 -19.714   8.198  0.00  0.00    -0.323 OA
ATOM     13  H   LIG    1       27.250 -19.668   8.514  0.00  0.00    +0.220 HD
ENDBRANCH   8  12
ENDBRANCH   1   8
BRANCH   1  14
ATOM     14  N   LIG    1       25.717 -20.220   5.773  0.00  0.00    -0.291 NA
ATOM     15  H   LIG    1       26.226 -19.456   5.316  0.00  0.00    +0.124 HD
BRANCH  14  16
ATOM     16  C   LIG    1       24.794 -20.821   4.796  0.00  0.00    +0.055 C 
ATOM     17  C   LIG    1       23.357 -21.013   5.304  0.00  0.00    +0.019 C 
ATOM     18  C   LIG    1       22.616 -19.696   5.506  0.00  0.00    +0.002 C 
ATOM     19  C   LIG    1       22.584 -18.885   4.216  0.00  0.00    +0.000 C 
ATOM     20  C   LIG    1       23.988 -18.650   3.666  0.00  0.00    +0.002 C 
ATOM     21  C   LIG    1       24.768 -19.957   3.514  0.00  0.00    +0.019 C 
ENDBRANCH  14  16
ENDBRANCH   1  14
TORSDOF 8
ENDMDL
MODEL 5
REMARK VINA RESULT:      -6.6      1.301      1.605
REMARK  Name = *****
REMARK                            x       y       z     vdW  Elec       q    Type
REMARK                         _______ _______ _______ _____ _____    ______ ____
ROOT
ATOM      1  C   LIG    1       24.669 -22.232   6.395  0.00  0.00    +0.284 C 
ENDROOT
BRANCH   1   3
ATOM      2  O   LIG    1       25.875 -24.793   6.744  0.00  0.00    -0.257 OA
ATOM      3  P   LIG    1       24.794 -24.021   6.070  0.00  0.00    +0.356 P 
BRANCH   3   4
ATOM      4  O   LIG    1       23.348 -24.662   6.369  0.00  0.00    -0.323 OA
ATOM      5  H   LIG    1       23.405 -25.552   6.757  0.00  0.00    +0.220 HD
ENDBRANCH   3   4
BRANCH   3   6
ATOM      6  O   LIG    1       24.833 -24.203   4.474  0.00  0.00    -0.323 OA
ATOM      7  H   LIG    1       24.361 -23.498   3.996  0.00  0.00    +0.220 HD
ENDBRANCH   3   6
ENDBRANCH   1   3
BRANCH   1   8
ATOM      8  P   LIG    1       23.260 -21.442   5.591  0.00  0.00    +0.356 P 
ATOM      9  O   LIG    1       22.897 -20.046   5.954  0.00  0.00    -0.257 OA
BRANCH   8  10
ATOM     10  O   LIG    1       21.994 -22.418   5.705  0.00  0.00    -0.323 OA
ATOM     11  H   LIG    1       22.101 -23.097   6.406  0.00  0.00    +0.220 HD
ENDBRANCH   8  10
BRANCH   8  12
ATOM     12  O   LIG    1       23.536 -21.526   4.012  0.00  0.00    -0.323 OA
ATOM     13  H   LIG    1       24.068 -20.774   3.680  0.00  0.00    +0.220 HD
ENDBRANCH   8  12
ENDBRANCH   1   8
BRANCH   1  14
ATOM     14  N   LIG    1       25.975 -21.652   5.921  0.00  0.00    -0.291 NA
ATOM     15  H   LIG    1       25.895 -21.498   4.910  0.00  0.00    +0.124 HD
BRANCH  14  16
ATOM     16  C   LIG    1       26.388 -20.391   6.557  0.00  0.00    +0.055 C 
ATOM     17  C   LIG    1       26.672 -20.493   8.064  0.00  0.00    +0.019 C 
ATOM     18  C   LIG    1       27.924 -21.305   8.379  0.00  0.00    +0.002 C 
ATOM     19  C   LIG    1       29.144 -20.716   7.682  0.00  0.00    +0.000 C 
ATOM     20  C   LIG    1       28.927 -20.598   6.176  0.00  0.00    +0.002 C 
ATOM     21  C   LIG    1       27.642 -19.839   5.842  0.00  0.00    +0.019 C 
ENDBRANCH  14  16
ENDBRANCH   1  14
TORSDOF 8
ENDMDL
MODEL 6
REMARK VINA RESULT:      -6.5      3.138      4.207
REMARK  Name = *****
REMARK                            x       y       z     vdW  Elec       q    Type
REMARK                         _______ _______ _______ _____ _____    ______ ____
ROOT
ATOM      1  C   LIG    1       25.169 -22.229   6.264  0.00  0.00    +0.284 C 
ENDROOT
BRANCH   1   3
ATOM      2  O   LIG    1       23.301 -24.310   6.820  0.00  0.00    -0.257 OA
ATOM      3  P   LIG    1       24.656 -23.978   6.301  0.00  0.00    +0.356 P 
BRANCH   3   4
ATOM      4  O   LIG    1       24.873 -24.568   4.819  0.00  0.00    -0.323 OA
ATOM      5  H   LIG    1       24.788 -23.889   4.128  0.00  0.00    +0.220 HD
ENDBRANCH   3   4
BRANCH   3   6
ATOM      6  O   LIG    1       25.810 -24.786   7.073  0.00  0.00    -0.323 OA
ATOM      7  H   LIG    1       26.705 -24.575   6.754  0.00  0.00    +0.220 HD
ENDBRANCH   3   6
ENDBRANCH   1   3
BRANCH   1   8
ATOM      8  P   LIG    1       26.184 -21.738   7.674  0.00  0.00    +0.356 P 
ATOM      9  O   LIG    1       25.846 -22.245   9.031  0.00  0.00    -0.257 OA
BRANCH   8  10
ATOM     10  O   LIG    1       26.326 -20.143   7.669  0.00  0.00    -0.323 OA
ATOM     11  H   LIG    1       27.261 -19.845   7.670  0.00  0.00    +0.220 HD
ENDBRANCH   8  10
BRANCH   8  12
ATOM     12  O   LIG    1       27.691 -22.155   7.311  0.00  0.00    -0.323 OA
ATOM     13  H   LIG    1       27.737 -22.834   6.607  0.00  0.00    +0.220 HD
ENDBRANCH   8  12
ENDBRANCH   1   8
BRANCH   1  14
ATOM     14  N   LIG    1       23.887 -21.442   6.204  0.00  0.00    -0.291 NA
ATOM     15  H   LIG    1       24.100 -20.482   6.495  0.00  0.00    +0.124 HD
BRANCH  14  16
ATOM     16  C   LIG    1       23.221 -21.398   4.892  0.00  0.00    +0.055 C 
ATOM     17  C   LIG    1       22.013 -20.450   4.817  0.00  0.00    +0.019 C 
ATOM     18  C   LIG    1       22.405 -18.979   4.901  0.00  0.00    +0.002 C 
ATOM     19  C   LIG    1       23.393 -18.615   3.799  0.00  0.00    +0.000 C 
ATOM     20  C   LIG    1       24.624 -19.516   3.829  0.00  0.00    +0.002 C 
ATOM     21  C   LIG    1       24.247 -20.998   3.806  0.00  0.00    +0.019 C 
ENDBRANCH  14  16
ENDBRANCH   1  14
TORSDOF 8
ENDMDL
MODEL 7
REMARK VINA RESULT:      -6.2      5.457      6.634
REMARK  Name = *****
REMARK                            x       y       z     vdW  Elec       q    Type
REMARK                         _______ _______ _______ _____ _____    ______ ____
ROOT
ATOM      1  C   LIG    1       29.567 -20.449   8.335  0.00  0.00    +0.284 C 
ENDROOT
BRANCH   1   3
ATOM      2  O   LIG    1       29.219 -19.572   5.644  0.00  0.00    -0.257 OA
ATOM      3  P   LIG    1       30.032 -19.447   6.885  0.00  0.00    +0.356 P 
BRANCH   3   4
ATOM      4  O   LIG    1       30.118 -17.915   7.373  0.00  0.00    -0.323 OA
ATOM      5  H   LIG    1       30.655 -17.807   8.177  0.00  0.00    +0.220 HD
ENDBRANCH   3   4
BRANCH   3   6
ATOM      6  O   LIG    1       31.592 -19.720   6.611  0.00  0.00    -0.323 OA
ATOM      7  H   LIG    1       32.171 -19.367   7.310  0.00  0.00    +0.220 HD
ENDBRANCH   3   6
ENDBRANCH   1   3
BRANCH   1   8
ATOM      8  P   LIG    1       30.965 -21.258   9.141  0.00  0.00    +0.356 P 
ATOM      9  O   LIG    1       30.733 -22.081  10.357  0.00  0.00    -0.257 OA
BRANCH   8  10
ATOM     10  O   LIG    1       32.111 -20.166   9.389  0.00  0.00    -0.323 OA
ATOM     11  H   LIG    1       32.800 -20.475  10.016  0.00  0.00    +0.220 HD
ENDBRANCH   8  10
BRANCH   8  12
ATOM     12  O   LIG    1       31.675 -22.157   8.017  0.00  0.00    -0.323 OA
ATOM     13  H   LIG    1       32.571 -22.453   8.278  0.00  0.00    +0.220 HD
ENDBRANCH   8  12
ENDBRANCH   1   8
BRANCH   1  14
ATOM     14  N   LIG    1       28.569 -21.452   7.818  0.00  0.00    -0.291 NA
ATOM     15  H   LIG    1       28.911 -22.385   8.071  0.00  0.00    +0.124 HD
BRANCH  14  16
ATOM     16  C   LIG    1       27.192 -21.304   8.316  0.00  0.00    +0.055 C 
ATOM     17  C   LIG    1       26.334 -20.291   7.542  0.00  0.00    +0.019 C 
ATOM     18  C   LIG    1       25.996 -20.755   6.129  0.00  0.00    +0.002 C 
ATOM     19  C   LIG    1       25.278 -22.099   6.155  0.00  0.00    +0.000 C 
ATOM     20  C   LIG    1       26.089 -23.154   6.902  0.00  0.00    +0.002 C 
ATOM     21  C   LIG    1       26.489 -22.681   8.301  0.00  0.00    +0.019 C 
ENDBRANCH  14  16
ENDBRANCH   1  14
TORSDOF 8
ENDMDL
MODEL 8
REMARK VINA RESULT:      -6.2      0.832      3.023
REMARK  Name = *****
REMARK                            x       y       z     vdW  Elec       q    Type
REMARK                         _______ _______ _______ _____ _____    ______ ____
ROOT
ATOM      1  C   LIG    1       24.725 -23.017   5.864  0.00  0.00    +0.284 C 
ENDROOT
BRANCH   1   3
ATOM      2  O   LIG    1       23.191 -21.785   7.928  0.00  0.00    -0.257 OA
ATOM      3  P   LIG    1       23.154 -22.460   6.601  0.00  0.00    +0.356 P 
BRANCH   3   4
ATOM      4  O   LIG    1       22.411 -21.547   5.504  0.00  0.00    -0.323 OA
ATOM      5  H   LIG    1       21.447 -21.678   5.497  0.00  0.00    +0.220 HD
ENDBRANCH   3   4
BRANCH   3   6
ATOM      6  O   LIG    1       22.164 -23.726   6.599  0.00  0.00    -0.323 OA
ATOM      7  H   LIG    1       21.987 -24.075   7.490  0.00  0.00    +0.220 HD
ENDBRANCH   3   6
ENDBRANCH   1   3
BRANCH   1   8
ATOM      8  P   LIG    1       24.889 -24.812   5.766  0.00  0.00    +0.356 P 
ATOM      9  O   LIG    1       23.909 -25.676   6.478  0.00  0.00    -0.257 OA
BRANCH   8  10
ATOM     10  O   LIG    1       26.394 -25.208   6.144  0.00  0.00    -0.323 OA
ATOM     11  H   LIG    1       26.474 -25.572   7.052  0.00  0.00    +0.220 HD
ENDBRANCH   8  10
BRANCH   8  12
ATOM     12  O   LIG    1       24.887 -25.180   4.204  0.00  0.00    -0.323 OA
ATOM     13  H   LIG    1       24.525 -26.072   4.026  0.00  0.00    +0.220 HD
ENDBRANCH   8  12
ENDBRANCH   1   8
BRANCH   1  14
ATOM     14  N   LIG    1       25.802 -22.408   6.722  0.00  0.00    -0.291 NA
ATOM     15  H   LIG    1       26.705 -22.631   6.290  0.00  0.00    +0.124 HD
BRANCH  14  16
ATOM     16  C   LIG    1       25.722 -20.952   6.919  0.00  0.00    +0.055 C 
ATOM     17  C   LIG    1       26.406 -20.436   8.195  0.00  0.00    +0.019 C 
ATOM     18  C   LIG    1       27.925 -20.557   8.146  0.00  0.00    +0.002 C 
ATOM     19  C   LIG    1       28.492 -19.813   6.943  0.00  0.00    +0.000 C 
ATOM     20  C   LIG    1       27.858 -20.289   5.639  0.00  0.00    +0.002 C 
ATOM     21  C   LIG    1       26.331 -20.232   5.693  0.00  0.00    +0.019 C 
ENDBRANCH  14  16
ENDBRANCH   1  14
TORSDOF 8
ENDMDL
MODEL 9
REMARK VINA RESULT:      -6.1      2.864      4.881
REMARK  Name = *****
REMARK                            x       y       z     vdW  Elec       q    Type
REMARK                         _______ _______ _______ _____ _____    ______ ____
ROOT
ATOM      1  C   LIG    1       25.152 -23.001   6.596  0.00  0.00    +0.284 C 
ENDROOT
BRANCH   1   3
ATOM      2  O   LIG    1       27.647 -21.967   7.511  0.00  0.00    -0.257 OA
ATOM      3  P   LIG    1       26.164 -21.850   7.583  0.00  0.00    +0.356 P 
BRANCH   3   4
ATOM      4  O   LIG    1       25.679 -20.359   7.220  0.00  0.00    -0.323 OA
ATOM      5  H   LIG    1       25.531 -19.810   8.009  0.00  0.00    +0.220 HD
ENDBRANCH   3   4
BRANCH   3   6
ATOM      6  O   LIG    1       25.627 -21.936   9.095  0.00  0.00    -0.323 OA
ATOM      7  H   LIG    1       26.337 -21.883   9.758  0.00  0.00    +0.220 HD
ENDBRANCH   3   6
ENDBRANCH   1   3
BRANCH   1   8
ATOM      8  P   LIG    1       23.379 -22.674   6.687  0.00  0.00    +0.356 P 
ATOM      9  O   LIG    1       22.434 -23.809   6.865  0.00  0.00    -0.257 OA
BRANCH   8  10
ATOM     10  O   LIG    1       22.964 -21.764   5.436  0.00  0.00    -0.323 OA
ATOM     11  H   LIG    1       22.046 -21.422   5.504  0.00  0.00    +0.220 HD
ENDBRANCH   8  10
BRANCH   8  12
ATOM     12  O   LIG    1       23.176 -21.620   7.880  0.00  0.00    -0.323 OA
ATOM     13  H   LIG    1       23.870 -21.688   8.568  0.00  0.00    +0.220 HD
ENDBRANCH   8  12
ENDBRANCH   1   8
BRANCH   1  14
ATOM     14  N   LIG    1       25.491 -24.372   7.117  0.00  0.00    -0.291 NA
ATOM     15  H   LIG    1       24.617 -24.806   7.436  0.00  0.00    +0.124 HD
BRANCH  14  16
ATOM     16  C   LIG    1       26.145 -25.281   6.162  0.00  0.00    +0.055 C 
ATOM     17  C   LIG    1       26.526 -26.653   6.739  0.00  0.00    +0.019 C 
ATOM     18  C   LIG    1       25.314 -27.523   7.057  0.00  0.00    +0.002 C 
ATOM     19  C   LIG    1       24.450 -27.726   5.818  0.00  0.00    +0.000 C 
ATOM     20  C   LIG    1       24.028 -26.394   5.203  0.00  0.00    +0.002 C 
ATOM     21  C   LIG    1       25.227 -25.484   4.934  0.00  0.00    +0.019 C 
ENDBRANCH  14  16
ENDBRANCH   1  14
TORSDOF 8
ENDMDL
