MODEL 1
REMARK VINA RESULT:      -6.4      0.000      0.000
REMARK  Name = *****
REMARK                            x       y       z     vdW  Elec       q    Type
REMARK                         _______ _______ _______ _____ _____    ______ ____
ROOT
ATOM      1  C   LIG    1       24.386 -21.689   7.251  0.00  0.00    +0.161 C 
ENDROOT
BRANCH   1   2
ATOM      2  N   LIG    1       24.594 -23.073   6.808  0.00  0.00    -0.290 N 
ATOM      3  C   LIG    1       23.560 -23.980   6.654  0.00  0.00    +0.216 C 
ATOM      4  O   LIG    1       22.365 -23.738   6.768  0.00  0.00    -0.276 OA
ATOM      5  C   LIG    1       24.158 -25.339   6.394  0.00  0.00    +0.097 C 
ATOM      6  C   LIG    1       25.614 -25.024   6.075  0.00  0.00    +0.028 C 
ATOM      7  C   LIG    1       25.877 -23.739   6.837  0.00  0.00    +0.109 C 
ENDBRANCH   1   2
BRANCH   1   8
ATOM      8  C   LIG    1       25.516 -21.261   8.209  0.00  0.00    +0.231 C 
ATOM      9  O   LIG    1       25.586 -21.602   9.386  0.00  0.00    -0.274 OA
ATOM     10  N   LIG    1       26.421 -20.375   7.695  0.00  0.00    -0.328 N 
ATOM     11  H   LIG    1       26.305 -19.952   6.781  0.00  0.00    +0.145 HD
ATOM     12  H   LIG    1       27.160 -20.043   8.299  0.00  0.00    +0.145 HD
ENDBRANCH   1   8
BRANCH   1  14
ATOM     13  C   LIG    1       22.833 -20.264   5.829  0.00  0.00    +0.006 C 
ATOM     14  C   LIG    1       24.269 -20.715   6.071  0.00  0.00    +0.028 C 
ENDBRANCH   1  14
TORSDOF 3
ENDMDL
MODEL 2
REMARK VINA RESULT:      -5.9      1.736      3.615
REMARK  Name = *****
REMARK                            x       y       z     vdW  Elec       q    Type
REMARK                         _______ _______ _______ _____ _____    ______ ____
ROOT
ATOM      1  C   LIG    1       25.782 -22.154   6.890  0.00  0.00    +0.161 C 
ENDROOT
BRANCH   1   2
ATOM      2  N   LIG    1       24.672 -21.521   6.167  0.00  0.00    -0.290 N 
ATOM      3  C   LIG    1       24.856 -20.514   5.236  0.00  0.00    +0.216 C 
ATOM      4  O   LIG    1       25.931 -20.092   4.831  0.00  0.00    -0.276 OA
ATOM      5  C   LIG    1       23.502 -19.968   4.858  0.00  0.00    +0.097 C 
ATOM      6  C   LIG    1       22.539 -21.011   5.412  0.00  0.00    +0.028 C 
ATOM      7  C   LIG    1       23.292 -21.604   6.587  0.00  0.00    +0.109 C 
ENDBRANCH   1   2
BRANCH   1   8
ATOM      8  C   LIG    1       26.128 -21.340   8.153  0.00  0.00    +0.231 C 
ATOM      9  O   LIG    1       25.621 -21.532   9.256  0.00  0.00    -0.274 OA
ATOM     10  N   LIG    1       26.987 -20.295   7.964  0.00  0.00    -0.328 N 
ATOM     11  H   LIG    1       27.301 -20.012   7.043  0.00  0.00    +0.145 HD
ATOM     12  H   LIG    1       27.216 -19.715   8.760  0.00  0.00    +0.145 HD
ENDBRANCH   1   8
BRANCH   1  14
ATOM     13  C   LIG    1       25.483 -24.525   6.022  0.00  0.00    +0.006 C 
ATOM     14  C   LIG    1       25.482 -23.617   7.245  0.00  0.00    +0.028 C 
ENDBRANCH   1  14
TORSDOF 3
ENDMDL
MODEL 3
REMARK VINA RESULT:      -5.9      2.256      3.303
REMARK  Name = *****
REMARK                            x       y       z     vdW  Elec       q    Type
REMARK                         _______ _______ _______ _____ _____    ______ ____
ROOT
ATOM      1  C   LIG    1       24.231 -20.354   5.495  0.00  0.00    +0.161 C 
ENDROOT
BRANCH   1   2
ATOM      2  N   LIG    1       24.608 -21.568   6.228  0.00  0.00    -0.290 N 
ATOM      3  C   LIG    1       25.148 -21.543   7.502  0.00  0.00    +0.216 C 
ATOM      4  O   LIG    1       25.292 -20.552   8.205  0.00  0.00    -0.276 OA
ATOM      5  C   LIG    1       25.600 -22.939   7.850  0.00  0.00    +0.097 C 
ATOM      6  C   LIG    1       24.937 -23.797   6.780  0.00  0.00    +0.028 C 
ATOM      7  C   LIG    1       24.803 -22.855   5.599  0.00  0.00    +0.109 C 
ENDBRANCH   1   2
BRANCH   1   8
ATOM      8  C   LIG    1       25.043 -20.246   4.188  0.00  0.00    +0.231 C 
ATOM      9  O   LIG    1       24.584 -20.475   3.072  0.00  0.00    -0.274 OA
ATOM     10  N   LIG    1       26.371 -19.964   4.341  0.00  0.00    -0.328 N 
ATOM     11  H   LIG    1       26.815 -19.924   5.251  0.00  0.00    +0.145 HD
ATOM     12  H   LIG    1       26.948 -19.917   3.511  0.00  0.00    +0.145 HD
ENDBRANCH   1   8
BRANCH   1  14
ATOM     13  C   LIG    1       22.264 -18.897   4.807  0.00  0.00    +0.006 C 
ATOM     14  C   LIG    1       22.724 -20.293   5.210  0.00  0.00    +0.028 C 
ENDBRANCH   1  14
TORSDOF 3
ENDMDL
MODEL 4
REMARK VINA RESULT:      -5.9      2.102      3.956
REMARK  Name = *****
REMARK                            x       y       z     vdW  Elec       q    Type
REMARK                         _______ _______ _______ _____ _____    ______ ____
ROOT
ATOM      1  C   LIG    1       24.282 -21.902   5.782  0.00  0.00    +0.161 C 
ENDROOT
BRANCH   1   2
ATOM      2  N   LIG    1       25.205 -21.302   6.753  0.00  0.00    -0.290 N 
ATOM      3  C   LIG    1       26.304 -20.547   6.382  0.00  0.00    +0.216 C 
ATOM      4  O   LIG    1       26.595 -20.207   5.243  0.00  0.00    -0.276 OA
ATOM      5  C   LIG    1       27.129 -20.276   7.615  0.00  0.00    +0.097 C 
ATOM      6  C   LIG    1       26.190 -20.660   8.753  0.00  0.00    +0.028 C 
ATOM      7  C   LIG    1       25.293 -21.716   8.135  0.00  0.00    +0.109 C 
ENDBRANCH   1   2
BRANCH   1   8
ATOM      8  C   LIG    1       24.314 -23.440   5.896  0.00  0.00    +0.231 C 
ATOM      9  O   LIG    1       25.237 -24.141   5.489  0.00  0.00    -0.274 OA
ATOM     10  N   LIG    1       23.185 -24.016   6.406  0.00  0.00    -0.328 N 
ATOM     11  H   LIG    1       22.347 -23.483   6.606  0.00  0.00    +0.145 HD
ATOM     12  H   LIG    1       23.151 -25.025   6.468  0.00  0.00    +0.145 HD
ENDBRANCH   1   8
BRANCH   1  14
ATOM     13  C   LIG    1       22.715 -19.923   5.483  0.00  0.00    +0.006 C 
ATOM     14  C   LIG    1       22.851 -21.370   5.938  0.00  0.00    +0.028 C 
ENDBRANCH   1  14
TORSDOF 3
ENDMDL
MODEL 5
REMARK VINA RESULT:      -5.9      5.007      6.667
REMARK  Name = *****
REMARK                            x       y       z     vdW  Elec       q    Type
REMARK                         _______ _______ _______ _____ _____    ______ ____
ROOT
ATOM      1  C   LIG    1       30.016 -19.114   8.816  0.00  0.00    +0.161 C 
ENDROOT
BRANCH   1   2
ATOM      2  N   LIG    1       29.299 -19.208   7.538  0.00  0.00    -0.290 N 
ATOM      3  C   LIG    1       28.196 -20.021   7.350  0.00  0.00    +0.216 C 
ATOM      4  O   LIG    1       27.627 -20.677   8.213  0.00  0.00    -0.276 OA
ATOM      5  C   LIG    1       27.855 -20.023   5.881  0.00  0.00    +0.097 C 
ATOM      6  C   LIG    1       28.667 -18.855   5.335  0.00  0.00    +0.028 C 
ATOM      7  C   LIG    1       29.853 -18.771   6.276  0.00  0.00    +0.109 C 
ENDBRANCH   1   2
BRANCH   1   8
ATOM      8  C   LIG    1       31.129 -20.179   8.882  0.00  0.00    +0.231 C 
ATOM      9  O   LIG    1       32.291 -19.941   9.203  0.00  0.00    -0.274 OA
ATOM     10  N   LIG    1       30.774 -21.429   8.462  0.00  0.00    -0.328 N 
ATOM     11  H   LIG    1       29.872 -21.625   8.043  0.00  0.00    +0.145 HD
ATOM     12  H   LIG    1       31.483 -22.151   8.458  0.00  0.00    +0.145 HD
ENDBRANCH   1   8
BRANCH   1  14
ATOM     13  C   LIG    1       30.381 -17.240  10.495  0.00  0.00    +0.006 C 
ATOM     14  C   LIG    1       30.585 -17.709   9.060  0.00  0.00    +0.028 C 
ENDBRANCH   1  14
TORSDOF 3
ENDMDL
MODEL 6
REMARK VINA RESULT:      -5.8      1.763      3.472
REMARK  Name = *****
REMARK                            x       y       z     vdW  Elec       q    Type
REMARK                         _______ _______ _______ _____ _____    ______ ____
ROOT
ATOM      1  C   LIG    1       26.025 -21.604   6.965  0.00  0.00    +0.161 C 
ENDROOT
BRANCH   1   2
ATOM      2  N   LIG    1       24.957 -20.950   6.199  0.00  0.00    -0.290 N 
ATOM      3  C   LIG    1       23.655 -20.848   6.657  0.00  0.00    +0.216 C 
ATOM      4  O   LIG    1       23.248 -21.190   7.759  0.00  0.00    -0.276 OA
ATOM      5  C   LIG    1       22.801 -20.313   5.535  0.00  0.00    +0.097 C 
ATOM      6  C   LIG    1       23.827 -19.803   4.530  0.00  0.00    +0.028 C 
ATOM      7  C   LIG    1       25.040 -20.677   4.782  0.00  0.00    +0.109 C 
ENDBRANCH   1   2
BRANCH   1   8
ATOM      8  C   LIG    1       26.529 -20.667   8.082  0.00  0.00    +0.231 C 
ATOM      9  O   LIG    1       27.625 -20.114   8.074  0.00  0.00    -0.274 OA
ATOM     10  N   LIG    1       25.707 -20.550   9.168  0.00  0.00    -0.328 N 
ATOM     11  H   LIG    1       24.871 -21.113   9.278  0.00  0.00    +0.145 HD
ATOM     12  H   LIG    1       26.014 -19.971   9.938  0.00  0.00    +0.145 HD
ENDBRANCH   1   8
BRANCH   1  14
ATOM     13  C   LIG    1       25.615 -24.070   6.502  0.00  0.00    +0.006 C 
ATOM     14  C   LIG    1       25.582 -22.956   7.541  0.00  0.00    +0.028 C 
ENDBRANCH   1  14
TORSDOF 3
ENDMDL
MODEL 7
REMARK VINA RESULT:      -5.8      1.943      4.132
REMARK  Name = *****
REMARK                            x       y       z     vdW  Elec       q    Type
REMARK                         _______ _______ _______ _____ _____    ______ ____
ROOT
ATOM      1  C   LIG    1       24.054 -21.691   7.103  0.00  0.00    +0.161 C 
ENDROOT
BRANCH   1   2
ATOM      2  N   LIG    1       25.427 -21.172   7.099  0.00  0.00    -0.290 N 
ATOM      3  C   LIG    1       26.118 -20.858   8.257  0.00  0.00    +0.216 C 
ATOM      4  O   LIG    1       25.732 -21.051   9.403  0.00  0.00    -0.276 OA
ATOM      5  C   LIG    1       27.399 -20.165   7.869  0.00  0.00    +0.097 C 
ATOM      6  C   LIG    1       27.506 -20.442   6.375  0.00  0.00    +0.028 C 
ATOM      7  C   LIG    1       26.063 -20.598   5.935  0.00  0.00    +0.109 C 
ENDBRANCH   1   2
BRANCH   1   8
ATOM      8  C   LIG    1       23.201 -20.949   6.054  0.00  0.00    +0.231 C 
ATOM      9  O   LIG    1       22.790 -19.800   6.190  0.00  0.00    -0.274 OA
ATOM     10  N   LIG    1       22.830 -21.688   4.966  0.00  0.00    -0.328 N 
ATOM     11  H   LIG    1       23.018 -22.682   4.896  0.00  0.00    +0.145 HD
ATOM     12  H   LIG    1       22.243 -21.250   4.269  0.00  0.00    +0.145 HD
ENDBRANCH   1   8
BRANCH   1  14
ATOM     13  C   LIG    1       25.382 -23.856   6.991  0.00  0.00    +0.006 C 
ATOM     14  C   LIG    1       24.008 -23.208   6.873  0.00  0.00    +0.028 C 
ENDBRANCH   1  14
TORSDOF 3
ENDMDL
MODEL 8
REMARK VINA RESULT:      -5.8      1.851      3.987
REMARK  Name = *****
REMARK                            x       y       z     vdW  Elec       q    Type
REMARK                         _______ _______ _______ _____ _____    ______ ____
ROOT
ATOM      1  C   LIG    1       25.077 -22.794   6.975  0.00  0.00    +0.161 C 
ENDROOT
BRANCH   1   2
ATOM      2  N   LIG    1       24.442 -21.709   6.217  0.00  0.00    -0.290 N 
ATOM      3  C   LIG    1       23.484 -20.870   6.760  0.00  0.00    +0.216 C 
ATOM      4  O   LIG    1       23.117 -20.854   7.928  0.00  0.00    -0.276 OA
ATOM      5  C   LIG    1       22.912 -20.026   5.650  0.00  0.00    +0.097 C 
ATOM      6  C   LIG    1       23.896 -20.240   4.507  0.00  0.00    +0.028 C 
ATOM      7  C   LIG    1       24.460 -21.623   4.774  0.00  0.00    +0.109 C 
ENDBRANCH   1   2
BRANCH   1   8
ATOM      8  C   LIG    1       24.783 -24.153   6.308  0.00  0.00    +0.231 C 
ATOM      9  O   LIG    1       25.607 -24.797   5.665  0.00  0.00    -0.274 OA
ATOM     10  N   LIG    1       23.488 -24.581   6.390  0.00  0.00    -0.328 N 
ATOM     11  H   LIG    1       22.749 -24.003   6.775  0.00  0.00    +0.145 HD
ATOM     12  H   LIG    1       23.244 -25.452   5.938  0.00  0.00    +0.145 HD
ENDBRANCH   1   8
BRANCH   1  14
ATOM     13  C   LIG    1       26.914 -21.407   8.055  0.00  0.00    +0.006 C 
ATOM     14  C   LIG    1       26.588 -22.579   7.138  0.00  0.00    +0.028 C 
ENDBRANCH   1  14
TORSDOF 3
ENDMDL
MODEL 9
REMARK VINA RESULT:      -5.7      1.689      3.761
REMARK  Name = *****
REMARK                            x       y       z     vdW  Elec       q    Type
REMARK                         _______ _______ _______ _____ _____    ______ ____
ROOT
ATOM      1  C   LIG    1       24.428 -21.249   5.726  0.00  0.00    +0.161 C 
ENDROOT
BRANCH   1   2
ATOM      2  N   LIG    1       25.724 -20.880   6.311  0.00  0.00    -0.290 N 
ATOM      3  C   LIG    1       25.949 -20.832   7.676  0.00  0.00    +0.216 C 
ATOM      4  O   LIG    1       25.161 -21.168   8.550  0.00  0.00    -0.276 OA
ATOM      5  C   LIG    1       27.308 -20.222   7.908  0.00  0.00    +0.097 C 
ATOM      6  C   LIG    1       27.949 -20.262   6.526  0.00  0.00    +0.028 C 
ATOM      7  C   LIG    1       26.765 -20.194   5.580  0.00  0.00    +0.109 C 
ENDBRANCH   1   2
BRANCH   1   8
ATOM      8  C   LIG    1       24.179 -22.761   5.895  0.00  0.00    +0.231 C 
ATOM      9  O   LIG    1       23.451 -23.247   6.757  0.00  0.00    -0.274 OA
ATOM     10  N   LIG    1       24.903 -23.573   5.069  0.00  0.00    -0.328 N 
ATOM     11  H   LIG    1       25.627 -23.216   4.455  0.00  0.00    +0.145 HD
ATOM     12  H   LIG    1       24.794 -24.574   5.168  0.00  0.00    +0.145 HD
ENDBRANCH   1   8
BRANCH   1  14
ATOM     13  C   LIG    1       22.558 -19.587   5.272  0.00  0.00    +0.006 C 
ATOM     14  C   LIG    1       23.272 -20.433   6.320  0.00  0.00    +0.028 C 
ENDBRANCH   1  14
TORSDOF 3
ENDMDL
