MODEL 1
REMARK VINA RESULT:     -10.3      0.000      0.000
REMARK  Name = *****
REMARK                            x       y       z     vdW  Elec       q    Type
REMARK                         _______ _______ _______ _____ _____    ______ ____
ROOT
ATOM      1  C   LIG    1       25.425 -21.744   7.193  0.00  0.00    +0.099 A 
ATOM      2  C   LIG    1       25.371 -22.879   6.363  0.00  0.00    +0.137 A 
ATOM      3  N   LIG    1       24.759 -22.805   5.153  0.00  0.00    -0.239 NA
ATOM      4  C   LIG    1       24.222 -21.628   4.754  0.00  0.00    +0.113 A 
ATOM      5  C   LIG    1       24.255 -20.472   5.506  0.00  0.00    +0.021 A 
ATOM      6  C   LIG    1       24.868 -20.533   6.746  0.00  0.00    +0.020 A 
ENDROOT
BRANCH   1   8
ATOM      7  O   LIG    1       25.535 -22.410   9.497  0.00  0.00    -0.245 OA
ATOM      8  C   LIG    1       26.016 -21.818   8.554  0.00  0.00    +0.346 C 
BRANCH   8   9
ATOM      9  O   LIG    1       27.141 -21.066   8.552  0.00  0.00    -0.417 OA
BRANCH   9  10
ATOM     10  C   LIG    1       28.270 -21.592   7.862  0.00  0.00    +0.403 C 
ATOM     11  C   LIG    1       28.759 -20.507   6.970  0.00  0.00    +0.047 A 
ATOM     12  C   LIG    1       30.000 -20.094   7.399  0.00  0.00    +0.069 A 
ATOM     13  C   LIG    1       30.674 -19.026   6.834  0.00  0.00    +0.015 A 
ATOM     14  C   LIG    1       30.048 -18.353   5.783  0.00  0.00    +0.001 A 
ATOM     15  C   LIG    1       28.795 -18.781   5.315  0.00  0.00    +0.001 A 
ATOM     16  C   LIG    1       30.410 -20.931   8.524  0.00  0.00    +0.343 C 
ATOM     17  O   LIG    1       31.466 -20.880   9.111  0.00  0.00    -0.245 OA
ATOM     18  C   LIG    1       28.142 -19.871   5.905  0.00  0.00    +0.012 A 
ATOM     19  O   LIG    1       29.367 -21.784   8.774  0.00  0.00    -0.417 OA
ENDBRANCH   9  10
ENDBRANCH   8   9
ENDBRANCH   1   8
BRANCH   2  20
ATOM     20  N   LIG    1       25.876 -24.116   6.821  0.00  0.00    -0.299 N 
ATOM     21  H   LIG    1       26.660 -23.982   7.457  0.00  0.00    +0.154 HD
BRANCH  20  22
ATOM     22  C   LIG    1       25.765 -25.432   6.331  0.00  0.00    +0.033 A 
ATOM     23  C   LIG    1       25.743 -26.490   7.257  0.00  0.00    +0.035 A 
ATOM     24  C   LIG    1       25.518 -27.825   6.865  0.00  0.00    +0.057 A 
ATOM     25  C   LIG    1       25.311 -28.105   5.511  0.00  0.00    +0.012 A 
ATOM     26  C   LIG    1       25.326 -27.071   4.578  0.00  0.00    +0.002 A 
ATOM     27  C   LIG    1       25.542 -25.749   4.988  0.00  0.00    +0.023 A 
BRANCH  24  28
ATOM     28  C   LIG    1       25.481 -28.916   7.904  0.00  0.00    +0.417 C 
ATOM     29  F   LIG    1       24.228 -29.136   8.390  0.00  0.00    -0.166 F 
ATOM     30  F   LIG    1       26.255 -28.630   8.989  0.00  0.00    -0.166 F 
ATOM     31  F   LIG    1       25.918 -30.124   7.448  0.00  0.00    -0.166 F 
ENDBRANCH  24  28
ENDBRANCH  20  22
ENDBRANCH   2  20
TORSDOF 6
ENDMDL
MODEL 2
REMARK VINA RESULT:     -10.2      4.174      8.194
REMARK  Name = *****
REMARK                            x       y       z     vdW  Elec       q    Type
REMARK                         _______ _______ _______ _____ _____    ______ ____
ROOT
ATOM      1  C   LIG    1       24.615 -23.928   6.765  0.00  0.00    +0.099 A 
ATOM      2  C   LIG    1       25.169 -22.690   7.140  0.00  0.00    +0.137 A 
ATOM      3  N   LIG    1       24.358 -21.625   7.368  0.00  0.00    -0.239 NA
ATOM      4  C   LIG    1       23.018 -21.776   7.245  0.00  0.00    +0.113 A 
ATOM      5  C   LIG    1       22.405 -22.963   6.899  0.00  0.00    +0.021 A 
ATOM      6  C   LIG    1       23.219 -24.056   6.657  0.00  0.00    +0.020 A 
ENDROOT
BRANCH   1   8
ATOM      7  O   LIG    1       26.641 -25.017   6.079  0.00  0.00    -0.245 OA
ATOM      8  C   LIG    1       25.483 -25.087   6.431  0.00  0.00    +0.346 C 
BRANCH   8   9
ATOM      9  O   LIG    1       24.730 -26.206   6.540  0.00  0.00    -0.417 OA
BRANCH   9  10
ATOM     10  C   LIG    1       25.339 -27.436   6.160  0.00  0.00    +0.403 C 
ATOM     11  C   LIG    1       25.610 -28.177   7.420  0.00  0.00    +0.047 A 
ATOM     12  C   LIG    1       24.818 -29.303   7.461  0.00  0.00    +0.069 A 
ATOM     13  C   LIG    1       24.768 -30.147   8.556  0.00  0.00    +0.015 A 
ATOM     14  C   LIG    1       25.562 -29.822   9.657  0.00  0.00    +0.001 A 
ATOM     15  C   LIG    1       26.397 -28.692   9.618  0.00  0.00    +0.001 A 
ATOM     16  C   LIG    1       24.064 -29.392   6.212  0.00  0.00    +0.343 C 
ATOM     17  O   LIG    1       23.313 -30.282   5.889  0.00  0.00    -0.245 OA
ATOM     18  C   LIG    1       26.430 -27.862   8.491  0.00  0.00    +0.012 A 
ATOM     19  O   LIG    1       24.384 -28.276   5.485  0.00  0.00    -0.417 OA
ENDBRANCH   9  10
ENDBRANCH   8   9
ENDBRANCH   1   8
BRANCH   2  20
ATOM     20  N   LIG    1       26.571 -22.532   7.198  0.00  0.00    -0.299 N 
ATOM     21  H   LIG    1       27.004 -23.262   7.763  0.00  0.00    +0.154 HD
BRANCH  20  22
ATOM     22  C   LIG    1       27.417 -21.432   6.955  0.00  0.00    +0.033 A 
ATOM     23  C   LIG    1       28.617 -21.338   7.684  0.00  0.00    +0.035 A 
ATOM     24  C   LIG    1       29.576 -20.340   7.423  0.00  0.00    +0.057 A 
ATOM     25  C   LIG    1       29.325 -19.411   6.408  0.00  0.00    +0.012 A 
ATOM     26  C   LIG    1       28.145 -19.488   5.673  0.00  0.00    +0.002 A 
ATOM     27  C   LIG    1       27.208 -20.494   5.941  0.00  0.00    +0.023 A 
BRANCH  24  28
ATOM     28  C   LIG    1       30.856 -20.301   8.220  0.00  0.00    +0.417 C 
ATOM     29  F   LIG    1       31.898 -19.781   7.513  0.00  0.00    -0.166 F 
ATOM     30  F   LIG    1       31.259 -21.540   8.619  0.00  0.00    -0.166 F 
ATOM     31  F   LIG    1       30.772 -19.556   9.358  0.00  0.00    -0.166 F 
ENDBRANCH  24  28
ENDBRANCH  20  22
ENDBRANCH   2  20
TORSDOF 6
ENDMDL
MODEL 3
REMARK VINA RESULT:      -9.7      4.321      6.118
REMARK  Name = *****
REMARK                            x       y       z     vdW  Elec       q    Type
REMARK                         _______ _______ _______ _____ _____    ______ ____
ROOT
ATOM      1  C   LIG    1       25.281 -23.288   7.383  0.00  0.00    +0.099 A 
ATOM      2  C   LIG    1       24.234 -23.183   6.449  0.00  0.00    +0.137 A 
ATOM      3  N   LIG    1       23.885 -24.259   5.697  0.00  0.00    -0.239 NA
ATOM      4  C   LIG    1       24.543 -25.429   5.872  0.00  0.00    +0.113 A 
ATOM      5  C   LIG    1       25.564 -25.610   6.781  0.00  0.00    +0.021 A 
ATOM      6  C   LIG    1       25.937 -24.521   7.550  0.00  0.00    +0.020 A 
ENDROOT
BRANCH   1   8
ATOM      7  O   LIG    1       25.510 -21.909   9.334  0.00  0.00    -0.245 OA
ATOM      8  C   LIG    1       25.737 -22.107   8.160  0.00  0.00    +0.346 C 
BRANCH   8   9
ATOM      9  O   LIG    1       26.392 -21.286   7.307  0.00  0.00    -0.417 OA
BRANCH   9  10
ATOM     10  C   LIG    1       27.697 -21.683   6.899  0.00  0.00    +0.403 C 
ATOM     11  C   LIG    1       28.382 -20.452   6.423  0.00  0.00    +0.047 A 
ATOM     12  C   LIG    1       29.419 -20.153   7.277  0.00  0.00    +0.069 A 
ATOM     13  C   LIG    1       30.184 -19.006   7.157  0.00  0.00    +0.015 A 
ATOM     14  C   LIG    1       29.870 -18.128   6.118  0.00  0.00    +0.001 A 
ATOM     15  C   LIG    1       28.833 -18.434   5.222  0.00  0.00    +0.001 A 
ATOM     16  C   LIG    1       29.512 -21.202   8.289  0.00  0.00    +0.343 C 
ATOM     17  O   LIG    1       30.342 -21.285   9.164  0.00  0.00    -0.245 OA
ATOM     18  C   LIG    1       28.083 -19.608   5.366  0.00  0.00    +0.012 A 
ATOM     19  O   LIG    1       28.481 -22.070   8.044  0.00  0.00    -0.417 OA
ENDBRANCH   9  10
ENDBRANCH   8   9
ENDBRANCH   1   8
BRANCH   2  20
ATOM     20  N   LIG    1       23.604 -21.938   6.231  0.00  0.00    -0.299 N 
ATOM     21  H   LIG    1       22.709 -21.886   6.715  0.00  0.00    +0.154 HD
BRANCH  20  22
ATOM     22  C   LIG    1       23.770 -20.945   5.245  0.00  0.00    +0.033 A 
ATOM     23  C   LIG    1       22.923 -19.822   5.279  0.00  0.00    +0.035 A 
ATOM     24  C   LIG    1       23.094 -18.728   4.408  0.00  0.00    +0.057 A 
ATOM     25  C   LIG    1       24.139 -18.761   3.479  0.00  0.00    +0.012 A 
ATOM     26  C   LIG    1       24.991 -19.862   3.432  0.00  0.00    +0.002 A 
ATOM     27  C   LIG    1       24.811 -20.936   4.312  0.00  0.00    +0.023 A 
BRANCH  24  28
ATOM     28  C   LIG    1       22.171 -17.540   4.504  0.00  0.00    +0.417 C 
ATOM     29  F   LIG    1       20.988 -17.742   3.858  0.00  0.00    -0.166 F 
ATOM     30  F   LIG    1       22.708 -16.415   3.953  0.00  0.00    -0.166 F 
ATOM     31  F   LIG    1       21.840 -17.203   5.783  0.00  0.00    -0.166 F 
ENDBRANCH  24  28
ENDBRANCH  20  22
ENDBRANCH   2  20
TORSDOF 6
ENDMDL
MODEL 4
REMARK VINA RESULT:      -9.6      4.020      7.112
REMARK  Name = *****
REMARK                            x       y       z     vdW  Elec       q    Type
REMARK                         _______ _______ _______ _____ _____    ______ ____
ROOT
ATOM      1  C   LIG    1       28.330 -20.027   7.297  0.00  0.00    +0.099 A 
ATOM      2  C   LIG    1       28.411 -19.795   5.911  0.00  0.00    +0.137 A 
ATOM      3  N   LIG    1       29.449 -19.083   5.402  0.00  0.00    -0.239 NA
ATOM      4  C   LIG    1       30.406 -18.618   6.240  0.00  0.00    +0.113 A 
ATOM      5  C   LIG    1       30.401 -18.822   7.605  0.00  0.00    +0.021 A 
ATOM      6  C   LIG    1       29.345 -19.540   8.140  0.00  0.00    +0.020 A 
ENDROOT
BRANCH   1   8
ATOM      7  O   LIG    1       26.631 -20.446   8.940  0.00  0.00    -0.245 OA
ATOM      8  C   LIG    1       27.164 -20.732   7.889  0.00  0.00    +0.346 C 
BRANCH   8   9
ATOM      9  O   LIG    1       26.856 -21.768   7.075  0.00  0.00    -0.417 OA
BRANCH   9  10
ATOM     10  C   LIG    1       26.383 -22.960   7.694  0.00  0.00    +0.403 C 
ATOM     11  C   LIG    1       24.916 -23.001   7.460  0.00  0.00    +0.047 A 
ATOM     12  C   LIG    1       24.620 -24.058   6.630  0.00  0.00    +0.069 A 
ATOM     13  C   LIG    1       23.347 -24.301   6.146  0.00  0.00    +0.015 A 
ATOM     14  C   LIG    1       22.333 -23.419   6.528  0.00  0.00    +0.001 A 
ATOM     15  C   LIG    1       22.615 -22.352   7.397  0.00  0.00    +0.001 A 
ATOM     16  C   LIG    1       25.850 -24.796   6.353  0.00  0.00    +0.343 C 
ATOM     17  O   LIG    1       25.949 -25.810   5.703  0.00  0.00    -0.245 OA
ATOM     18  C   LIG    1       23.913 -22.139   7.876  0.00  0.00    +0.012 A 
ATOM     19  O   LIG    1       26.860 -24.115   6.980  0.00  0.00    -0.417 OA
ENDBRANCH   9  10
ENDBRANCH   8   9
ENDBRANCH   1   8
BRANCH   2  20
ATOM     20  N   LIG    1       27.371 -20.229   5.060  0.00  0.00    -0.299 N 
ATOM     21  H   LIG    1       27.615 -21.101   4.592  0.00  0.00    +0.154 HD
BRANCH  20  22
ATOM     22  C   LIG    1       26.277 -19.562   4.475  0.00  0.00    +0.033 A 
ATOM     23  C   LIG    1       24.979 -19.959   4.841  0.00  0.00    +0.035 A 
ATOM     24  C   LIG    1       23.831 -19.271   4.397  0.00  0.00    +0.057 A 
ATOM     25  C   LIG    1       23.991 -18.160   3.564  0.00  0.00    +0.012 A 
ATOM     26  C   LIG    1       25.268 -17.748   3.192  0.00  0.00    +0.002 A 
ATOM     27  C   LIG    1       26.397 -18.439   3.651  0.00  0.00    +0.023 A 
BRANCH  24  28
ATOM     28  C   LIG    1       22.464 -19.728   4.840  0.00  0.00    +0.417 C 
ATOM     29  F   LIG    1       21.461 -18.985   4.294  0.00  0.00    -0.166 F 
ATOM     30  F   LIG    1       22.298 -19.641   6.190  0.00  0.00    -0.166 F 
ATOM     31  F   LIG    1       22.185 -21.022   4.516  0.00  0.00    -0.166 F 
ENDBRANCH  24  28
ENDBRANCH  20  22
ENDBRANCH   2  20
TORSDOF 6
ENDMDL
MODEL 5
REMARK VINA RESULT:      -9.5      1.576      1.937
REMARK  Name = *****
REMARK                            x       y       z     vdW  Elec       q    Type
REMARK                         _______ _______ _______ _____ _____    ______ ____
ROOT
ATOM      1  C   LIG    1       23.877 -21.219   6.735  0.00  0.00    +0.099 A 
ATOM      2  C   LIG    1       23.189 -22.370   6.308  0.00  0.00    +0.137 A 
ATOM      3  N   LIG    1       22.199 -22.265   5.385  0.00  0.00    -0.239 NA
ATOM      4  C   LIG    1       21.898 -21.048   4.874  0.00  0.00    +0.113 A 
ATOM      5  C   LIG    1       22.541 -19.881   5.232  0.00  0.00    +0.021 A 
ATOM      6  C   LIG    1       23.548 -19.970   6.177  0.00  0.00    +0.020 A 
ENDROOT
BRANCH   1   8
ATOM      7  O   LIG    1       24.786 -21.880   8.856  0.00  0.00    -0.245 OA
ATOM      8  C   LIG    1       24.909 -21.293   7.802  0.00  0.00    +0.346 C 
BRANCH   8   9
ATOM      9  O   LIG    1       25.965 -20.549   7.401  0.00  0.00    -0.417 OA
BRANCH   9  10
ATOM     10  C   LIG    1       27.087 -21.249   6.873  0.00  0.00    +0.403 C 
ATOM     11  C   LIG    1       28.021 -20.216   6.353  0.00  0.00    +0.047 A 
ATOM     12  C   LIG    1       29.167 -20.219   7.114  0.00  0.00    +0.069 A 
ATOM     13  C   LIG    1       30.187 -19.299   6.942  0.00  0.00    +0.015 A 
ATOM     14  C   LIG    1       30.022 -18.334   5.947  0.00  0.00    +0.001 A 
ATOM     15  C   LIG    1       28.870 -18.336   5.143  0.00  0.00    +0.001 A 
ATOM     16  C   LIG    1       29.074 -21.293   8.100  0.00  0.00    +0.343 C 
ATOM     17  O   LIG    1       29.925 -21.614   8.896  0.00  0.00    -0.245 OA
ATOM     18  C   LIG    1       27.860 -19.286   5.338  0.00  0.00    +0.012 A 
ATOM     19  O   LIG    1       27.838 -21.862   7.937  0.00  0.00    -0.417 OA
ENDBRANCH   9  10
ENDBRANCH   8   9
ENDBRANCH   1   8
BRANCH   2  20
ATOM     20  N   LIG    1       23.470 -23.621   6.900  0.00  0.00    -0.299 N 
ATOM     21  H   LIG    1       23.065 -23.689   7.832  0.00  0.00    +0.154 HD
BRANCH  20  22
ATOM     22  C   LIG    1       24.444 -24.603   6.636  0.00  0.00    +0.033 A 
ATOM     23  C   LIG    1       24.018 -25.927   6.424  0.00  0.00    +0.035 A 
ATOM     24  C   LIG    1       24.909 -26.949   6.038  0.00  0.00    +0.057 A 
ATOM     25  C   LIG    1       26.261 -26.635   5.864  0.00  0.00    +0.012 A 
ATOM     26  C   LIG    1       26.703 -25.330   6.066  0.00  0.00    +0.002 A 
ATOM     27  C   LIG    1       25.800 -24.326   6.440  0.00  0.00    +0.023 A 
BRANCH  24  28
ATOM     28  C   LIG    1       24.392 -28.345   5.801  0.00  0.00    +0.417 C 
ATOM     29  F   LIG    1       23.715 -28.842   6.874  0.00  0.00    -0.166 F 
ATOM     30  F   LIG    1       25.393 -29.235   5.548  0.00  0.00    -0.166 F 
ATOM     31  F   LIG    1       23.536 -28.442   4.746  0.00  0.00    -0.166 F 
ENDBRANCH  24  28
ENDBRANCH  20  22
ENDBRANCH   2  20
TORSDOF 6
ENDMDL
MODEL 6
REMARK VINA RESULT:      -9.4      4.309      6.250
REMARK  Name = *****
REMARK                            x       y       z     vdW  Elec       q    Type
REMARK                         _______ _______ _______ _____ _____    ______ ____
ROOT
ATOM      1  C   LIG    1       25.409 -23.798   7.072  0.00  0.00    +0.099 A 
ATOM      2  C   LIG    1       24.272 -23.651   6.255  0.00  0.00    +0.137 A 
ATOM      3  N   LIG    1       23.806 -24.711   5.546  0.00  0.00    -0.239 NA
ATOM      4  C   LIG    1       24.436 -25.905   5.650  0.00  0.00    +0.113 A 
ATOM      5  C   LIG    1       25.542 -26.126   6.444  0.00  0.00    +0.021 A 
ATOM      6  C   LIG    1       26.034 -25.053   7.168  0.00  0.00    +0.020 A 
ENDROOT
BRANCH   1   8
ATOM      7  O   LIG    1       25.766 -22.348   8.952  0.00  0.00    -0.245 OA
ATOM      8  C   LIG    1       25.988 -22.636   7.795  0.00  0.00    +0.346 C 
BRANCH   8   9
ATOM      9  O   LIG    1       26.748 -21.945   6.915  0.00  0.00    -0.417 OA
BRANCH   9  10
ATOM     10  C   LIG    1       26.991 -20.573   7.206  0.00  0.00    +0.403 C 
ATOM     11  C   LIG    1       28.429 -20.468   7.570  0.00  0.00    +0.047 A 
ATOM     12  C   LIG    1       29.086 -19.735   6.609  0.00  0.00    +0.069 A 
ATOM     13  C   LIG    1       30.457 -19.547   6.613  0.00  0.00    +0.015 A 
ATOM     14  C   LIG    1       31.185 -20.139   7.647  0.00  0.00    +0.001 A 
ATOM     15  C   LIG    1       30.525 -20.867   8.650  0.00  0.00    +0.001 A 
ATOM     16  C   LIG    1       28.110 -19.262   5.630  0.00  0.00    +0.343 C 
ATOM     17  O   LIG    1       28.332 -18.547   4.681  0.00  0.00    -0.245 OA
ATOM     18  C   LIG    1       29.135 -21.031   8.622  0.00  0.00    +0.012 A 
ATOM     19  O   LIG    1       26.901 -19.785   6.005  0.00  0.00    -0.417 OA
ENDBRANCH   9  10
ENDBRANCH   8   9
ENDBRANCH   1   8
BRANCH   2  20
ATOM     20  N   LIG    1       23.668 -22.384   6.106  0.00  0.00    -0.299 N 
ATOM     21  H   LIG    1       22.812 -22.315   6.655  0.00  0.00    +0.154 HD
BRANCH  20  22
ATOM     22  C   LIG    1       23.793 -21.377   5.129  0.00  0.00    +0.033 A 
ATOM     23  C   LIG    1       22.965 -20.244   5.226  0.00  0.00    +0.035 A 
ATOM     24  C   LIG    1       23.103 -19.138   4.365  0.00  0.00    +0.057 A 
ATOM     25  C   LIG    1       24.096 -19.169   3.380  0.00  0.00    +0.012 A 
ATOM     26  C   LIG    1       24.929 -20.280   3.269  0.00  0.00    +0.002 A 
ATOM     27  C   LIG    1       24.782 -21.366   4.141  0.00  0.00    +0.023 A 
BRANCH  24  28
ATOM     28  C   LIG    1       22.202 -17.940   4.530  0.00  0.00    +0.417 C 
ATOM     29  F   LIG    1       22.768 -16.791   4.068  0.00  0.00    -0.166 F 
ATOM     30  F   LIG    1       21.888 -17.701   5.835  0.00  0.00    -0.166 F 
ATOM     31  F   LIG    1       21.011 -18.054   3.878  0.00  0.00    -0.166 F 
ENDBRANCH  24  28
ENDBRANCH  20  22
ENDBRANCH   2  20
TORSDOF 6
ENDMDL
MODEL 7
REMARK VINA RESULT:      -9.2      4.131      6.579
REMARK  Name = *****
REMARK                            x       y       z     vdW  Elec       q    Type
REMARK                         _______ _______ _______ _____ _____    ______ ____
ROOT
ATOM      1  C   LIG    1       24.683 -24.759   5.796  0.00  0.00    +0.099 A 
ATOM      2  C   LIG    1       25.774 -24.897   6.674  0.00  0.00    +0.137 A 
ATOM      3  N   LIG    1       26.724 -25.836   6.432  0.00  0.00    -0.239 NA
ATOM      4  C   LIG    1       26.616 -26.619   5.333  0.00  0.00    +0.113 A 
ATOM      5  C   LIG    1       25.586 -26.528   4.420  0.00  0.00    +0.021 A 
ATOM      6  C   LIG    1       24.604 -25.580   4.657  0.00  0.00    +0.020 A 
ENDROOT
BRANCH   1   8
ATOM      7  O   LIG    1       22.671 -23.984   6.851  0.00  0.00    -0.245 OA
ATOM      8  C   LIG    1       23.587 -23.797   6.079  0.00  0.00    +0.346 C 
BRANCH   8   9
ATOM      9  O   LIG    1       23.775 -22.718   5.285  0.00  0.00    -0.417 OA
BRANCH   9  10
ATOM     10  C   LIG    1       23.517 -21.439   5.856  0.00  0.00    +0.403 C 
ATOM     11  C   LIG    1       24.400 -20.476   5.148  0.00  0.00    +0.047 A 
ATOM     12  C   LIG    1       23.625 -19.610   4.411  0.00  0.00    +0.069 A 
ATOM     13  C   LIG    1       24.161 -18.659   3.561  0.00  0.00    +0.015 A 
ATOM     14  C   LIG    1       25.552 -18.595   3.461  0.00  0.00    +0.001 A 
ATOM     15  C   LIG    1       26.357 -19.454   4.229  0.00  0.00    +0.001 A 
ATOM     16  C   LIG    1       22.217 -19.909   4.663  0.00  0.00    +0.343 C 
ATOM     17  O   LIG    1       21.265 -19.310   4.221  0.00  0.00    -0.245 OA
ATOM     18  C   LIG    1       25.783 -20.400   5.086  0.00  0.00    +0.012 A 
ATOM     19  O   LIG    1       22.195 -20.993   5.500  0.00  0.00    -0.417 OA
ENDBRANCH   9  10
ENDBRANCH   8   9
ENDBRANCH   1   8
BRANCH   2  20
ATOM     20  N   LIG    1       25.836 -24.119   7.851  0.00  0.00    -0.299 N 
ATOM     21  H   LIG    1       25.269 -24.524   8.594  0.00  0.00    +0.154 HD
BRANCH  20  22
ATOM     22  C   LIG    1       26.206 -22.781   8.090  0.00  0.00    +0.033 A 
ATOM     23  C   LIG    1       27.435 -22.325   7.580  0.00  0.00    +0.035 A 
ATOM     24  C   LIG    1       27.830 -20.975   7.669  0.00  0.00    +0.057 A 
ATOM     25  C   LIG    1       26.972 -20.061   8.288  0.00  0.00    +0.012 A 
ATOM     26  C   LIG    1       25.749 -20.490   8.797  0.00  0.00    +0.002 A 
ATOM     27  C   LIG    1       25.370 -21.834   8.690  0.00  0.00    +0.023 A 
BRANCH  24  28
ATOM     28  C   LIG    1       29.148 -20.539   7.083  0.00  0.00    +0.417 C 
ATOM     29  F   LIG    1       29.371 -19.203   7.232  0.00  0.00    -0.166 F 
ATOM     30  F   LIG    1       29.231 -20.783   5.745  0.00  0.00    -0.166 F 
ATOM     31  F   LIG    1       30.228 -21.158   7.639  0.00  0.00    -0.166 F 
ENDBRANCH  24  28
ENDBRANCH  20  22
ENDBRANCH   2  20
TORSDOF 6
ENDMDL
MODEL 8
REMARK VINA RESULT:      -9.2      4.141      7.561
REMARK  Name = *****
REMARK                            x       y       z     vdW  Elec       q    Type
REMARK                         _______ _______ _______ _____ _____    ______ ____
ROOT
ATOM      1  C   LIG    1       27.731 -21.188   7.670  0.00  0.00    +0.099 A 
ATOM      2  C   LIG    1       27.772 -20.723   6.343  0.00  0.00    +0.137 A 
ATOM      3  N   LIG    1       28.868 -20.063   5.889  0.00  0.00    -0.239 NA
ATOM      4  C   LIG    1       29.920 -19.877   6.721  0.00  0.00    +0.113 A 
ATOM      5  C   LIG    1       29.957 -20.320   8.027  0.00  0.00    +0.021 A 
ATOM      6  C   LIG    1       28.843 -20.988   8.507  0.00  0.00    +0.020 A 
ENDROOT
BRANCH   1   8
ATOM      7  O   LIG    1       25.756 -21.347   9.026  0.00  0.00    -0.245 OA
ATOM      8  C   LIG    1       26.513 -21.840   8.217  0.00  0.00    +0.346 C 
BRANCH   8   9
ATOM      9  O   LIG    1       26.446 -23.085   7.692  0.00  0.00    -0.417 OA
BRANCH   9  10
ATOM     10  C   LIG    1       25.687 -23.245   6.497  0.00  0.00    +0.403 C 
ATOM     11  C   LIG    1       25.600 -24.707   6.247  0.00  0.00    +0.047 A 
ATOM     12  C   LIG    1       24.293 -25.113   6.389  0.00  0.00    +0.069 A 
ATOM     13  C   LIG    1       23.905 -26.439   6.318  0.00  0.00    +0.015 A 
ATOM     14  C   LIG    1       24.901 -27.391   6.092  0.00  0.00    +0.001 A 
ATOM     15  C   LIG    1       26.236 -26.989   5.916  0.00  0.00    +0.001 A 
ATOM     16  C   LIG    1       23.463 -23.940   6.654  0.00  0.00    +0.343 C 
ATOM     17  O   LIG    1       22.261 -23.923   6.780  0.00  0.00    -0.245 OA
ATOM     18  C   LIG    1       26.594 -25.637   5.986  0.00  0.00    +0.012 A 
ATOM     19  O   LIG    1       24.316 -22.870   6.725  0.00  0.00    -0.417 OA
ENDBRANCH   9  10
ENDBRANCH   8   9
ENDBRANCH   1   8
BRANCH   2  20
ATOM     20  N   LIG    1       26.641 -20.866   5.509  0.00  0.00    -0.299 N 
ATOM     21  H   LIG    1       26.520 -21.834   5.212  0.00  0.00    +0.154 HD
BRANCH  20  22
ATOM     22  C   LIG    1       25.896 -19.946   4.746  0.00  0.00    +0.033 A 
ATOM     23  C   LIG    1       24.502 -19.902   4.927  0.00  0.00    +0.035 A 
ATOM     24  C   LIG    1       23.694 -18.935   4.296  0.00  0.00    +0.057 A 
ATOM     25  C   LIG    1       24.299 -17.991   3.461  0.00  0.00    +0.012 A 
ATOM     26  C   LIG    1       25.678 -18.014   3.271  0.00  0.00    +0.002 A 
ATOM     27  C   LIG    1       26.466 -18.977   3.915  0.00  0.00    +0.023 A 
BRANCH  24  28
ATOM     28  C   LIG    1       22.207 -18.921   4.545  0.00  0.00    +0.417 C 
ATOM     29  F   LIG    1       21.845 -18.027   5.507  0.00  0.00    -0.166 F 
ATOM     30  F   LIG    1       21.737 -20.130   4.965  0.00  0.00    -0.166 F 
ATOM     31  F   LIG    1       21.468 -18.600   3.445  0.00  0.00    -0.166 F 
ENDBRANCH  24  28
ENDBRANCH  20  22
ENDBRANCH   2  20
TORSDOF 6
ENDMDL
MODEL 9
REMARK VINA RESULT:      -8.8      3.968      6.719
REMARK  Name = *****
REMARK                            x       y       z     vdW  Elec       q    Type
REMARK                         _______ _______ _______ _____ _____    ______ ____
ROOT
ATOM      1  C   LIG    1       24.225 -23.409   6.879  0.00  0.00    +0.099 A 
ATOM      2  C   LIG    1       25.600 -23.487   7.164  0.00  0.00    +0.137 A 
ATOM      3  N   LIG    1       26.283 -24.631   6.901  0.00  0.00    -0.239 NA
ATOM      4  C   LIG    1       25.629 -25.680   6.349  0.00  0.00    +0.113 A 
ATOM      5  C   LIG    1       24.287 -25.668   6.026  0.00  0.00    +0.021 A 
ATOM      6  C   LIG    1       23.576 -24.511   6.295  0.00  0.00    +0.020 A 
ENDROOT
BRANCH   1   8
ATOM      7  O   LIG    1       22.531 -22.162   8.036  0.00  0.00    -0.245 OA
ATOM      8  C   LIG    1       23.437 -22.199   7.231  0.00  0.00    +0.346 C 
BRANCH   8   9
ATOM      9  O   LIG    1       23.879 -21.183   6.454  0.00  0.00    -0.417 OA
BRANCH   9  10
ATOM     10  C   LIG    1       23.445 -21.169   5.098  0.00  0.00    +0.403 C 
ATOM     11  C   LIG    1       23.080 -19.761   4.789  0.00  0.00    +0.047 A 
ATOM     12  C   LIG    1       23.961 -19.259   3.859  0.00  0.00    +0.069 A 
ATOM     13  C   LIG    1       23.945 -17.940   3.442  0.00  0.00    +0.015 A 
ATOM     14  C   LIG    1       22.984 -17.098   4.006  0.00  0.00    +0.001 A 
ATOM     15  C   LIG    1       22.060 -17.603   4.936  0.00  0.00    +0.001 A 
ATOM     16  C   LIG    1       24.880 -20.324   3.460  0.00  0.00    +0.343 C 
ATOM     17  O   LIG    1       25.748 -20.248   2.623  0.00  0.00    -0.245 OA
ATOM     18  C   LIG    1       22.098 -18.946   5.330  0.00  0.00    +0.012 A 
ATOM     19  O   LIG    1       24.555 -21.419   4.217  0.00  0.00    -0.417 OA
ENDBRANCH   9  10
ENDBRANCH   8   9
ENDBRANCH   1   8
BRANCH   2  20
ATOM     20  N   LIG    1       26.253 -22.409   7.802  0.00  0.00    -0.299 N 
ATOM     21  H   LIG    1       25.781 -22.151   8.668  0.00  0.00    +0.154 HD
BRANCH  20  22
ATOM     22  C   LIG    1       27.155 -21.432   7.339  0.00  0.00    +0.033 A 
ATOM     23  C   LIG    1       28.410 -21.331   7.966  0.00  0.00    +0.035 A 
ATOM     24  C   LIG    1       29.417 -20.465   7.493  0.00  0.00    +0.057 A 
ATOM     25  C   LIG    1       29.157 -19.681   6.365  0.00  0.00    +0.012 A 
ATOM     26  C   LIG    1       27.922 -19.768   5.727  0.00  0.00    +0.002 A 
ATOM     27  C   LIG    1       26.938 -20.642   6.207  0.00  0.00    +0.023 A 
BRANCH  24  28
ATOM     28  C   LIG    1       30.752 -20.415   8.191  0.00  0.00    +0.417 C 
ATOM     29  F   LIG    1       30.737 -19.615   9.293  0.00  0.00    -0.166 F 
ATOM     30  F   LIG    1       31.741 -19.925   7.390  0.00  0.00    -0.166 F 
ATOM     31  F   LIG    1       31.193 -21.630   8.622  0.00  0.00    -0.166 F 
ENDBRANCH  24  28
ENDBRANCH  20  22
ENDBRANCH   2  20
TORSDOF 6
ENDMDL
