MODEL 1
REMARK VINA RESULT:      -6.5      0.000      0.000
REMARK  Name = *****
REMARK                            x       y       z     vdW  Elec       q    Type
REMARK                         _______ _______ _______ _____ _____    ______ ____
ROOT
ATOM      1  C   LIG    1       24.713 -21.269   5.822  0.00  0.00    +0.130 C 
ATOM      2  C   LIG    1       24.573 -21.136   7.336  0.00  0.00    +0.238 C 
ATOM      3  O   LIG    1       23.530 -21.445   7.917  0.00  0.00    -0.274 OA
ATOM      4  N   LIG    1       25.697 -20.717   8.037  0.00  0.00    -0.228 N 
ATOM      5  C   LIG    1       25.564 -20.631   9.483  0.00  0.00    +0.143 C 
ATOM      6  C   LIG    1       26.920 -20.383   7.472  0.00  0.00    +0.317 C 
ATOM      7  O   LIG    1       27.900 -20.087   8.156  0.00  0.00    -0.252 OA
ATOM      8  N   LIG    1       26.969 -20.350   6.090  0.00  0.00    -0.228 N 
ATOM      9  C   LIG    1       28.191 -19.859   5.480  0.00  0.00    +0.143 C 
ATOM     10  C   LIG    1       25.824 -20.352   5.313  0.00  0.00    +0.238 C 
ATOM     11  O   LIG    1       25.763 -19.739   4.254  0.00  0.00    -0.274 OA
ENDROOT
BRANCH   1  12
ATOM     12  C   LIG    1       23.320 -20.953   5.138  0.00  0.00    +0.010 C 
ATOM     13  C   LIG    1       23.327 -21.079   3.604  0.00  0.00    +0.009 C 
BRANCH  12  14
ATOM     14  C   LIG    1       22.757 -19.571   5.579  0.00  0.00    +0.001 C 
ATOM     15  C   LIG    1       22.308 -18.682   4.425  0.00  0.00    +0.004 C 
ENDBRANCH  12  14
ENDBRANCH   1  12
BRANCH   1  16
ATOM     16  C   LIG    1       25.234 -22.716   5.528  0.00  0.00    +0.052 C 
BRANCH  16  18
ATOM     17  C   LIG    1       23.965 -24.702   6.391  0.00  0.00    +0.004 C 
ATOM     18  C   LIG    1       24.925 -23.782   6.546  0.00  0.00    -0.033 C 
ENDBRANCH  16  18
ENDBRANCH   1  16
TORSDOF 4
ENDMDL
MODEL 2
REMARK VINA RESULT:      -6.1      1.839      3.659
REMARK  Name = *****
REMARK                            x       y       z     vdW  Elec       q    Type
REMARK                         _______ _______ _______ _____ _____    ______ ____
ROOT
ATOM      1  C   LIG    1       24.568 -20.982   5.617  0.00  0.00    +0.130 C 
ATOM      2  C   LIG    1       24.458 -22.299   4.854  0.00  0.00    +0.238 C 
ATOM      3  O   LIG    1       23.970 -22.351   3.723  0.00  0.00    -0.274 OA
ATOM      4  N   LIG    1       24.995 -23.426   5.464  0.00  0.00    -0.228 N 
ATOM      5  C   LIG    1       24.919 -24.669   4.711  0.00  0.00    +0.143 C 
ATOM      6  C   LIG    1       25.593 -23.456   6.716  0.00  0.00    +0.317 C 
ATOM      7  O   LIG    1       26.114 -24.475   7.170  0.00  0.00    -0.252 OA
ATOM      8  N   LIG    1       25.530 -22.288   7.454  0.00  0.00    -0.228 N 
ATOM      9  C   LIG    1       26.014 -22.340   8.822  0.00  0.00    +0.143 C 
ATOM     10  C   LIG    1       24.679 -21.251   7.118  0.00  0.00    +0.238 C 
ATOM     11  O   LIG    1       24.146 -20.551   7.971  0.00  0.00    -0.274 OA
ENDROOT
BRANCH   1  12
ATOM     12  C   LIG    1       23.323 -20.069   5.266  0.00  0.00    +0.010 C 
ATOM     13  C   LIG    1       22.017 -20.849   5.024  0.00  0.00    +0.009 C 
BRANCH  12  14
ATOM     14  C   LIG    1       23.623 -19.107   4.081  0.00  0.00    +0.001 C 
ATOM     15  C   LIG    1       22.636 -17.952   3.948  0.00  0.00    +0.004 C 
ENDBRANCH  12  14
ENDBRANCH   1  12
BRANCH   1  16
ATOM     16  C   LIG    1       25.940 -20.335   5.233  0.00  0.00    +0.052 C 
BRANCH  16  18
ATOM     17  C   LIG    1       28.259 -19.933   6.107  0.00  0.00    +0.004 C 
ATOM     18  C   LIG    1       26.961 -20.175   6.329  0.00  0.00    -0.033 C 
ENDBRANCH  16  18
ENDBRANCH   1  16
TORSDOF 4
ENDMDL
MODEL 3
REMARK VINA RESULT:      -5.7      1.862      4.527
REMARK  Name = *****
REMARK                            x       y       z     vdW  Elec       q    Type
REMARK                         _______ _______ _______ _____ _____    ______ ____
ROOT
ATOM      1  C   LIG    1       25.143 -21.476   6.025  0.00  0.00    +0.130 C 
ATOM      2  C   LIG    1       25.836 -20.362   5.245  0.00  0.00    +0.238 C 
ATOM      3  O   LIG    1       27.050 -20.166   5.343  0.00  0.00    -0.274 OA
ATOM      4  N   LIG    1       25.050 -19.623   4.370  0.00  0.00    -0.228 N 
ATOM      5  C   LIG    1       25.729 -18.590   3.604  0.00  0.00    +0.143 C 
ATOM      6  C   LIG    1       23.688 -19.797   4.170  0.00  0.00    +0.317 C 
ATOM      7  O   LIG    1       23.062 -19.156   3.325  0.00  0.00    -0.252 OA
ATOM      8  N   LIG    1       23.054 -20.696   5.008  0.00  0.00    -0.228 N 
ATOM      9  C   LIG    1       21.607 -20.781   4.918  0.00  0.00    +0.143 C 
ATOM     10  C   LIG    1       23.651 -21.173   6.161  0.00  0.00    +0.238 C 
ATOM     11  O   LIG    1       23.000 -21.421   7.169  0.00  0.00    -0.274 OA
ENDROOT
BRANCH   1  12
ATOM     12  C   LIG    1       25.847 -21.645   7.433  0.00  0.00    +0.010 C 
ATOM     13  C   LIG    1       25.836 -20.373   8.301  0.00  0.00    +0.009 C 
BRANCH  12  14
ATOM     14  C   LIG    1       27.289 -22.213   7.298  0.00  0.00    +0.001 C 
ATOM     15  C   LIG    1       28.354 -21.392   8.016  0.00  0.00    +0.004 C 
ENDBRANCH  12  14
ENDBRANCH   1  12
BRANCH   1  16
ATOM     16  C   LIG    1       25.201 -22.767   5.142  0.00  0.00    +0.052 C 
BRANCH  16  18
ATOM     17  C   LIG    1       25.222 -25.268   5.360  0.00  0.00    +0.004 C 
ATOM     18  C   LIG    1       24.815 -24.069   5.795  0.00  0.00    -0.033 C 
ENDBRANCH  16  18
ENDBRANCH   1  16
TORSDOF 4
ENDMDL
MODEL 4
REMARK VINA RESULT:      -5.6      1.664      4.083
REMARK  Name = *****
REMARK                            x       y       z     vdW  Elec       q    Type
REMARK                         _______ _______ _______ _____ _____    ______ ____
ROOT
ATOM      1  C   LIG    1       24.530 -21.909   5.891  0.00  0.00    +0.130 C 
ATOM      2  C   LIG    1       24.750 -21.281   4.518  0.00  0.00    +0.238 C 
ATOM      3  O   LIG    1       24.004 -21.532   3.568  0.00  0.00    -0.274 OA
ATOM      4  N   LIG    1       25.786 -20.363   4.404  0.00  0.00    -0.228 N 
ATOM      5  C   LIG    1       25.961 -19.742   3.101  0.00  0.00    +0.143 C 
ATOM      6  C   LIG    1       26.650 -19.994   5.426  0.00  0.00    +0.317 C 
ATOM      7  O   LIG    1       27.504 -19.119   5.279  0.00  0.00    -0.252 OA
ATOM      8  N   LIG    1       26.537 -20.699   6.610  0.00  0.00    -0.228 N 
ATOM      9  C   LIG    1       27.528 -20.435   7.638  0.00  0.00    +0.143 C 
ATOM     10  C   LIG    1       25.830 -21.886   6.695  0.00  0.00    +0.238 C 
ATOM     11  O   LIG    1       26.183 -22.794   7.438  0.00  0.00    -0.274 OA
ENDROOT
BRANCH   1  12
ATOM     12  C   LIG    1       23.968 -23.378   5.711  0.00  0.00    +0.010 C 
ATOM     13  C   LIG    1       23.032 -23.840   6.843  0.00  0.00    +0.009 C 
BRANCH  12  14
ATOM     14  C   LIG    1       25.107 -24.412   5.478  0.00  0.00    +0.001 C 
ATOM     15  C   LIG    1       24.860 -25.772   6.122  0.00  0.00    +0.004 C 
ENDBRANCH  12  14
ENDBRANCH   1  12
BRANCH   1  16
ATOM     16  C   LIG    1       23.563 -20.968   6.684  0.00  0.00    +0.052 C 
BRANCH  16  18
ATOM     17  C   LIG    1       22.533 -19.095   5.368  0.00  0.00    +0.004 C 
ATOM     18  C   LIG    1       22.446 -20.315   5.912  0.00  0.00    -0.033 C 
ENDBRANCH  16  18
ENDBRANCH   1  16
TORSDOF 4
ENDMDL
MODEL 5
REMARK VINA RESULT:      -5.6      1.991      4.901
REMARK  Name = *****
REMARK                            x       y       z     vdW  Elec       q    Type
REMARK                         _______ _______ _______ _____ _____    ______ ____
ROOT
ATOM      1  C   LIG    1       27.035 -20.958   7.154  0.00  0.00    +0.130 C 
ATOM      2  C   LIG    1       27.061 -20.256   5.799  0.00  0.00    +0.238 C 
ATOM      3  O   LIG    1       28.123 -19.956   5.249  0.00  0.00    -0.274 OA
ATOM      4  N   LIG    1       25.835 -20.033   5.183  0.00  0.00    -0.228 N 
ATOM      5  C   LIG    1       25.875 -19.398   3.874  0.00  0.00    +0.143 C 
ATOM      6  C   LIG    1       24.597 -20.368   5.710  0.00  0.00    +0.317 C 
ATOM      7  O   LIG    1       23.550 -20.207   5.080  0.00  0.00    -0.252 OA
ATOM      8  N   LIG    1       24.591 -20.847   7.007  0.00  0.00    -0.228 N 
ATOM      9  C   LIG    1       23.297 -21.061   7.630  0.00  0.00    +0.143 C 
ATOM     10  C   LIG    1       25.689 -20.728   7.840  0.00  0.00    +0.238 C 
ATOM     11  O   LIG    1       25.566 -20.551   9.047  0.00  0.00    -0.274 OA
ENDROOT
BRANCH   1  12
ATOM     12  C   LIG    1       28.247 -20.443   8.033  0.00  0.00    +0.010 C 
ATOM     13  C   LIG    1       28.791 -19.065   7.612  0.00  0.00    +0.009 C 
BRANCH  12  14
ATOM     14  C   LIG    1       29.393 -21.492   8.114  0.00  0.00    +0.001 C 
ATOM     15  C   LIG    1       30.751 -20.907   8.485  0.00  0.00    +0.004 C 
ENDBRANCH  12  14
ENDBRANCH   1  12
BRANCH   1  16
ATOM     16  C   LIG    1       27.076 -22.499   6.881  0.00  0.00    +0.052 C 
BRANCH  16  18
ATOM     17  C   LIG    1       25.437 -24.400   6.915  0.00  0.00    +0.004 C 
ATOM     18  C   LIG    1       26.001 -23.342   7.513  0.00  0.00    -0.033 C 
ENDBRANCH  16  18
ENDBRANCH   1  16
TORSDOF 4
ENDMDL
MODEL 6
REMARK VINA RESULT:      -5.1      2.208      4.435
REMARK  Name = *****
REMARK                            x       y       z     vdW  Elec       q    Type
REMARK                         _______ _______ _______ _____ _____    ______ ____
ROOT
ATOM      1  C   LIG    1       25.174 -21.706   6.111  0.00  0.00    +0.130 C 
ATOM      2  C   LIG    1       23.714 -21.815   6.541  0.00  0.00    +0.238 C 
ATOM      3  O   LIG    1       23.017 -20.813   6.718  0.00  0.00    -0.274 OA
ATOM      4  N   LIG    1       23.186 -23.095   6.659  0.00  0.00    -0.228 N 
ATOM      5  C   LIG    1       21.783 -23.186   7.031  0.00  0.00    +0.143 C 
ATOM      6  C   LIG    1       23.884 -24.275   6.446  0.00  0.00    +0.317 C 
ATOM      7  O   LIG    1       23.338 -25.378   6.496  0.00  0.00    -0.252 OA
ATOM      8  N   LIG    1       25.243 -24.154   6.223  0.00  0.00    -0.228 N 
ATOM      9  C   LIG    1       26.016 -25.380   6.148  0.00  0.00    +0.143 C 
ATOM     10  C   LIG    1       25.929 -22.981   6.486  0.00  0.00    +0.238 C 
ATOM     11  O   LIG    1       27.086 -22.988   6.891  0.00  0.00    -0.274 OA
ENDROOT
BRANCH   1  12
ATOM     12  C   LIG    1       25.819 -20.418   6.769  0.00  0.00    +0.010 C 
ATOM     13  C   LIG    1       27.098 -19.925   6.069  0.00  0.00    +0.009 C 
BRANCH  12  14
ATOM     14  C   LIG    1       26.057 -20.602   8.295  0.00  0.00    +0.001 C 
ATOM     15  C   LIG    1       27.458 -20.221   8.760  0.00  0.00    +0.004 C 
ENDBRANCH  12  14
ENDBRANCH   1  12
BRANCH   1  16
ATOM     16  C   LIG    1       25.198 -21.682   4.546  0.00  0.00    +0.052 C 
BRANCH  16  18
ATOM     17  C   LIG    1       24.340 -19.547   3.544  0.00  0.00    +0.004 C 
ATOM     18  C   LIG    1       24.162 -20.837   3.852  0.00  0.00    -0.033 C 
ENDBRANCH  16  18
ENDBRANCH   1  16
TORSDOF 4
ENDMDL
MODEL 7
REMARK VINA RESULT:      -5.0      2.107      4.430
REMARK  Name = *****
REMARK                            x       y       z     vdW  Elec       q    Type
REMARK                         _______ _______ _______ _____ _____    ______ ____
ROOT
ATOM      1  C   LIG    1       26.348 -21.116   6.779  0.00  0.00    +0.130 C 
ATOM      2  C   LIG    1       25.986 -22.568   6.478  0.00  0.00    +0.238 C 
ATOM      3  O   LIG    1       26.337 -23.488   7.221  0.00  0.00    -0.274 OA
ATOM      4  N   LIG    1       25.185 -22.800   5.366  0.00  0.00    -0.228 N 
ATOM      5  C   LIG    1       24.815 -24.183   5.112  0.00  0.00    +0.143 C 
ATOM      6  C   LIG    1       24.715 -21.826   4.496  0.00  0.00    +0.317 C 
ATOM      7  O   LIG    1       23.949 -22.090   3.569  0.00  0.00    -0.252 OA
ATOM      8  N   LIG    1       25.194 -20.544   4.693  0.00  0.00    -0.228 N 
ATOM      9  C   LIG    1       24.835 -19.542   3.706  0.00  0.00    +0.143 C 
ATOM     10  C   LIG    1       26.289 -20.283   5.499  0.00  0.00    +0.238 C 
ATOM     11  O   LIG    1       27.080 -19.384   5.239  0.00  0.00    -0.274 OA
ENDROOT
BRANCH   1  12
ATOM     12  C   LIG    1       27.777 -21.063   7.458  0.00  0.00    +0.010 C 
ATOM     13  C   LIG    1       27.900 -20.026   8.589  0.00  0.00    +0.009 C 
BRANCH  12  14
ATOM     14  C   LIG    1       28.912 -20.880   6.410  0.00  0.00    +0.001 C 
ATOM     15  C   LIG    1       30.004 -19.905   6.835  0.00  0.00    +0.004 C 
ENDBRANCH  12  14
ENDBRANCH   1  12
BRANCH   1  16
ATOM     16  C   LIG    1       25.210 -20.530   7.680  0.00  0.00    +0.052 C 
BRANCH  16  18
ATOM     17  C   LIG    1       22.923 -21.550   7.504  0.00  0.00    +0.004 C 
ATOM     18  C   LIG    1       24.115 -21.471   8.110  0.00  0.00    -0.033 C 
ENDBRANCH  16  18
ENDBRANCH   1  16
TORSDOF 4
ENDMDL
MODEL 8
REMARK VINA RESULT:      -4.6      2.199      3.064
REMARK  Name = *****
REMARK                            x       y       z     vdW  Elec       q    Type
REMARK                         _______ _______ _______ _____ _____    ______ ____
ROOT
ATOM      1  C   LIG    1       24.460 -21.038   5.810  0.00  0.00    +0.130 C 
ATOM      2  C   LIG    1       25.656 -20.986   6.756  0.00  0.00    +0.238 C 
ATOM      3  O   LIG    1       25.994 -19.937   7.310  0.00  0.00    -0.274 OA
ATOM      4  N   LIG    1       26.304 -22.187   7.018  0.00  0.00    -0.228 N 
ATOM      5  C   LIG    1       27.419 -22.131   7.952  0.00  0.00    +0.143 C 
ATOM      6  C   LIG    1       25.972 -23.417   6.469  0.00  0.00    +0.317 C 
ATOM      7  O   LIG    1       26.542 -24.458   6.798  0.00  0.00    -0.252 OA
ATOM      8  N   LIG    1       24.996 -23.408   5.490  0.00  0.00    -0.228 N 
ATOM      9  C   LIG    1       24.740 -24.658   4.796  0.00  0.00    +0.143 C 
ATOM     10  C   LIG    1       24.582 -22.240   4.874  0.00  0.00    +0.238 C 
ATOM     11  O   LIG    1       24.248 -22.217   3.695  0.00  0.00    -0.274 OA
ENDROOT
BRANCH   1  12
ATOM     12  C   LIG    1       24.362 -19.673   5.015  0.00  0.00    +0.010 C 
ATOM     13  C   LIG    1       22.947 -19.338   4.507  0.00  0.00    +0.009 C 
BRANCH  12  14
ATOM     14  C   LIG    1       25.398 -19.598   3.857  0.00  0.00    +0.001 C 
ATOM     15  C   LIG    1       25.651 -18.189   3.333  0.00  0.00    +0.004 C 
ENDBRANCH  12  14
ENDBRANCH   1  12
BRANCH   1  16
ATOM     16  C   LIG    1       23.193 -21.344   6.677  0.00  0.00    +0.052 C 
BRANCH  16  18
ATOM     17  C   LIG    1       22.152 -23.615   6.925  0.00  0.00    +0.004 C 
ATOM     18  C   LIG    1       22.309 -22.479   6.233  0.00  0.00    -0.033 C 
ENDBRANCH  16  18
ENDBRANCH   1  16
TORSDOF 4
ENDMDL
MODEL 9
REMARK VINA RESULT:      -4.6      8.540     10.969
REMARK  Name = *****
REMARK                            x       y       z     vdW  Elec       q    Type
REMARK                         _______ _______ _______ _____ _____    ______ ____
ROOT
ATOM      1  C   LIG    1       25.126 -30.544   7.918  0.00  0.00    +0.130 C 
ATOM      2  C   LIG    1       24.132 -31.042   8.963  0.00  0.00    +0.238 C 
ATOM      3  O   LIG    1       24.031 -30.501  10.067  0.00  0.00    -0.274 OA
ATOM      4  N   LIG    1       23.299 -32.090   8.590  0.00  0.00    -0.228 N 
ATOM      5  C   LIG    1       22.329 -32.531   9.580  0.00  0.00    +0.143 C 
ATOM      6  C   LIG    1       23.318 -32.734   7.361  0.00  0.00    +0.317 C 
ATOM      7  O   LIG    1       22.504 -33.610   7.067  0.00  0.00    -0.252 OA
ATOM      8  N   LIG    1       24.337 -32.377   6.497  0.00  0.00    -0.228 N 
ATOM      9  C   LIG    1       24.466 -33.144   5.270  0.00  0.00    +0.143 C 
ATOM     10  C   LIG    1       25.440 -31.655   6.918  0.00  0.00    +0.238 C 
ATOM     11  O   LIG    1       26.552 -31.841   6.439  0.00  0.00    -0.274 OA
ENDROOT
BRANCH   1  12
ATOM     12  C   LIG    1       26.429 -30.014   8.646  0.00  0.00    +0.010 C 
ATOM     13  C   LIG    1       26.936 -30.928   9.777  0.00  0.00    +0.009 C 
BRANCH  12  14
ATOM     14  C   LIG    1       26.260 -28.551   9.148  0.00  0.00    +0.001 C 
ATOM     15  C   LIG    1       26.804 -28.304  10.551  0.00  0.00    +0.004 C 
ENDBRANCH  12  14
ENDBRANCH   1  12
BRANCH   1  16
ATOM     16  C   LIG    1       24.399 -29.447   7.070  0.00  0.00    +0.052 C 
BRANCH  16  18
ATOM     17  C   LIG    1       25.231 -27.751   5.417  0.00  0.00    +0.004 C 
ATOM     18  C   LIG    1       25.050 -29.027   5.778  0.00  0.00    -0.033 C 
ENDBRANCH  16  18
ENDBRANCH   1  16
TORSDOF 4
ENDMDL
