MODEL 1
REMARK VINA RESULT:      -5.5      0.000      0.000
REMARK  Name = *****
REMARK                            x       y       z     vdW  Elec       q    Type
REMARK                         _______ _______ _______ _____ _____    ______ ____
ROOT
ATOM      1  C   LIG    1       24.982 -31.538   9.535  0.00  0.00    +0.176 C 
ATOM      2  C   LIG    1       24.318 -31.719  10.993  0.00  0.00    +0.018 C 
ATOM      3  C   LIG    1       23.810 -33.169  11.230  0.00  0.00    +0.016 C 
ATOM      4  C   LIG    1       23.068 -30.787  10.980  0.00  0.00    +0.006 C 
ATOM      5  C   LIG    1       22.541 -30.315  12.350  0.00  0.00    +0.019 C 
ATOM      6  C   LIG    1       23.547 -30.123  13.505  0.00  0.00    +0.006 C 
ATOM      7  C   LIG    1       24.650 -31.188  13.491  0.00  0.00    +0.006 C 
ATOM      8  C   LIG    1       24.011 -28.648  13.836  0.00  0.00    -0.003 C 
ATOM      9  C   LIG    1       24.164 -28.599  15.393  0.00  0.00    +0.016 C 
ATOM     10  C   LIG    1       23.000 -27.581  13.402  0.00  0.00    -0.038 C 
ATOM     11  C   LIG    1       23.297 -26.270  13.448  0.00  0.00    +0.050 C 
ATOM     12  C   LIG    1       24.673 -25.826  13.774  0.00  0.00    +0.156 C 
ATOM     13  O   LIG    1       24.867 -24.657  14.100  0.00  0.00    -0.293 OA
ATOM     14  C   LIG    1       25.809 -26.821  13.647  0.00  0.00    +0.080 C 
ATOM     15  C   LIG    1       21.744 -27.980  12.805  0.00  0.00    +0.000 C 
ATOM     16  C   LIG    1       25.356 -28.219  13.203  0.00  0.00    +0.019 C 
ATOM     17  C   LIG    1       21.545 -29.194  12.281  0.00  0.00    -0.023 C 
ATOM     18  C   LIG    1       23.386 -29.760   9.902  0.00  0.00    +0.009 C 
ATOM     19  C   LIG    1       25.299 -31.357  12.126  0.00  0.00    +0.011 C 
ATOM     20  C   LIG    1       23.954 -30.658   8.796  0.00  0.00    +0.057 C 
ENDROOT
BRANCH   1  21
ATOM     21  C   LIG    1       26.416 -30.907   9.533  0.00  0.00    +0.174 C 
ATOM     22  O   LIG    1       27.422 -31.627   9.545  0.00  0.00    -0.293 OA
ATOM     23  C   LIG    1       26.590 -29.405   9.417  0.00  0.00    +0.090 C 
ENDBRANCH   1  21
BRANCH   1  24
ATOM     24  O   LIG    1       25.076 -32.872   8.988  0.00  0.00    -0.450 OA
BRANCH  24  26
ATOM     25  C   LIG    1       23.554 -33.824   7.513  0.00  0.00    +0.136 C 
ATOM     26  C   LIG    1       24.861 -33.097   7.674  0.00  0.00    +0.305 C 
ATOM     27  O   LIG    1       25.610 -32.771   6.773  0.00  0.00    -0.251 OA
ENDBRANCH  24  26
ENDBRANCH   1  24
TORSDOF 3
ENDMDL
MODEL 2
REMARK VINA RESULT:      -5.4      2.060      7.190
REMARK  Name = *****
REMARK                            x       y       z     vdW  Elec       q    Type
REMARK                         _______ _______ _______ _____ _____    ______ ____
ROOT
ATOM      1  C   LIG    1       25.917 -26.056  14.321  0.00  0.00    +0.176 C 
ATOM      2  C   LIG    1       26.558 -27.534  14.388  0.00  0.00    +0.018 C 
ATOM      3  C   LIG    1       27.694 -27.632  15.445  0.00  0.00    +0.016 C 
ATOM      4  C   LIG    1       27.209 -27.749  12.988  0.00  0.00    +0.006 C 
ATOM      5  C   LIG    1       27.420 -29.210  12.539  0.00  0.00    +0.019 C 
ATOM      6  C   LIG    1       26.423 -30.285  13.023  0.00  0.00    +0.006 C 
ATOM      7  C   LIG    1       25.966 -30.038  14.465  0.00  0.00    +0.006 C 
ATOM      8  C   LIG    1       25.303 -30.755  12.010  0.00  0.00    -0.003 C 
ATOM      9  C   LIG    1       25.116 -32.286  12.278  0.00  0.00    +0.016 C 
ATOM     10  C   LIG    1       25.688 -30.551  10.541  0.00  0.00    -0.038 C 
ATOM     11  C   LIG    1       24.798 -30.734   9.549  0.00  0.00    +0.050 C 
ATOM     12  C   LIG    1       23.372 -30.988   9.861  0.00  0.00    +0.156 C 
ATOM     13  O   LIG    1       22.636 -31.439   8.986  0.00  0.00    -0.293 OA
ATOM     14  C   LIG    1       22.854 -30.636  11.241  0.00  0.00    +0.080 C 
ATOM     15  C   LIG    1       26.992 -30.024  10.205  0.00  0.00    +0.000 C 
ATOM     16  C   LIG    1       23.929 -30.063  12.174  0.00  0.00    +0.019 C 
ATOM     17  C   LIG    1       27.759 -29.371  11.086  0.00  0.00    -0.023 C 
ATOM     18  C   LIG    1       26.459 -26.785  12.080  0.00  0.00    +0.009 C 
ATOM     19  C   LIG    1       25.502 -28.610  14.709  0.00  0.00    +0.011 C 
ATOM     20  C   LIG    1       26.412 -25.528  12.959  0.00  0.00    +0.057 C 
ENDROOT
BRANCH   1  21
ATOM     21  C   LIG    1       24.355 -26.004  14.447  0.00  0.00    +0.174 C 
ATOM     22  O   LIG    1       23.820 -25.627  15.497  0.00  0.00    -0.293 OA
ATOM     23  C   LIG    1       23.481 -26.324  13.251  0.00  0.00    +0.090 C 
ENDBRANCH   1  21
BRANCH   1  24
ATOM     24  O   LIG    1       26.484 -25.340  15.440  0.00  0.00    -0.450 OA
BRANCH  24  26
ATOM     25  C   LIG    1       28.442 -24.092  15.500  0.00  0.00    +0.136 C 
ATOM     26  C   LIG    1       26.952 -24.083  15.291  0.00  0.00    +0.305 C 
ATOM     27  O   LIG    1       26.276 -23.105  15.037  0.00  0.00    -0.251 OA
ENDBRANCH  24  26
ENDBRANCH   1  24
TORSDOF 3
ENDMDL
MODEL 3
REMARK VINA RESULT:      -5.0      1.980      3.338
REMARK  Name = *****
REMARK                            x       y       z     vdW  Elec       q    Type
REMARK                         _______ _______ _______ _____ _____    ______ ____
ROOT
ATOM      1  C   LIG    1       25.754 -30.730   9.967  0.00  0.00    +0.176 C 
ATOM      2  C   LIG    1       26.390 -29.845  11.155  0.00  0.00    +0.018 C 
ATOM      3  C   LIG    1       27.944 -29.831  11.107  0.00  0.00    +0.016 C 
ATOM      4  C   LIG    1       25.974 -30.581  12.465  0.00  0.00    +0.006 C 
ATOM      5  C   LIG    1       25.947 -29.736  13.756  0.00  0.00    +0.019 C 
ATOM      6  C   LIG    1       25.598 -28.236  13.652  0.00  0.00    +0.006 C 
ATOM      7  C   LIG    1       26.184 -27.595  12.389  0.00  0.00    +0.006 C 
ATOM      8  C   LIG    1       24.127 -27.797  14.035  0.00  0.00    -0.003 C 
ATOM      9  C   LIG    1       24.279 -26.406  14.737  0.00  0.00    +0.016 C 
ATOM     10  C   LIG    1       23.435 -28.767  14.999  0.00  0.00    -0.038 C 
ATOM     11  C   LIG    1       22.130 -28.648  15.299  0.00  0.00    +0.050 C 
ATOM     12  C   LIG    1       21.284 -27.664  14.583  0.00  0.00    +0.156 C 
ATOM     13  O   LIG    1       20.191 -27.355  15.053  0.00  0.00    -0.293 OA
ATOM     14  C   LIG    1       21.776 -27.103  13.264  0.00  0.00    +0.080 C 
ATOM     15  C   LIG    1       24.153 -29.918  15.500  0.00  0.00    +0.000 C 
ATOM     16  C   LIG    1       23.153 -27.636  12.844  0.00  0.00    +0.019 C 
ATOM     17  C   LIG    1       25.258 -30.395  14.915  0.00  0.00    -0.023 C 
ATOM     18  C   LIG    1       24.743 -31.380  12.064  0.00  0.00    +0.009 C 
ATOM     19  C   LIG    1       25.890 -28.388  11.125  0.00  0.00    +0.011 C 
ATOM     20  C   LIG    1       25.190 -31.955  10.714  0.00  0.00    +0.057 C 
ENDROOT
BRANCH   1  21
ATOM     21  C   LIG    1       24.662 -30.002   9.110  0.00  0.00    +0.174 C 
ATOM     22  O   LIG    1       23.467 -30.070   9.422  0.00  0.00    -0.293 OA
ATOM     23  C   LIG    1       25.066 -29.125   7.941  0.00  0.00    +0.090 C 
ENDBRANCH   1  21
BRANCH   1  24
ATOM     24  O   LIG    1       26.861 -31.061   9.100  0.00  0.00    -0.450 OA
BRANCH  24  26
ATOM     25  C   LIG    1       26.625 -32.401   7.216  0.00  0.00    +0.136 C 
ATOM     26  C   LIG    1       27.041 -32.325   8.660  0.00  0.00    +0.305 C 
ATOM     27  O   LIG    1       27.463 -33.249   9.328  0.00  0.00    -0.251 OA
ENDBRANCH  24  26
ENDBRANCH   1  24
TORSDOF 3
ENDMDL
MODEL 4
REMARK VINA RESULT:      -4.9      1.781      2.791
REMARK  Name = *****
REMARK                            x       y       z     vdW  Elec       q    Type
REMARK                         _______ _______ _______ _____ _____    ______ ____
ROOT
ATOM      1  C   LIG    1       25.099 -30.065   8.303  0.00  0.00    +0.176 C 
ATOM      2  C   LIG    1       26.045 -30.574   9.506  0.00  0.00    +0.018 C 
ATOM      3  C   LIG    1       26.710 -31.942   9.189  0.00  0.00    +0.016 C 
ATOM      4  C   LIG    1       25.076 -30.797  10.707  0.00  0.00    +0.006 C 
ATOM      5  C   LIG    1       25.699 -30.753  12.117  0.00  0.00    +0.019 C 
ATOM      6  C   LIG    1       26.919 -29.839  12.360  0.00  0.00    +0.006 C 
ATOM      7  C   LIG    1       27.869 -29.816  11.157  0.00  0.00    +0.006 C 
ATOM      8  C   LIG    1       26.665 -28.450  13.071  0.00  0.00    -0.003 C 
ATOM      9  C   LIG    1       27.915 -28.215  13.984  0.00  0.00    +0.016 C 
ATOM     10  C   LIG    1       25.404 -28.434  13.942  0.00  0.00    -0.038 C 
ATOM     11  C   LIG    1       24.938 -27.295  14.484  0.00  0.00    +0.050 C 
ATOM     12  C   LIG    1       25.546 -25.992  14.125  0.00  0.00    +0.156 C 
ATOM     13  O   LIG    1       25.323 -25.009  14.829  0.00  0.00    -0.293 OA
ATOM     14  C   LIG    1       26.389 -25.902  12.869  0.00  0.00    +0.080 C 
ATOM     15  C   LIG    1       24.613 -29.636  14.084  0.00  0.00    +0.000 C 
ATOM     16  C   LIG    1       26.523 -27.236  12.122  0.00  0.00    +0.019 C 
ATOM     17  C   LIG    1       24.701 -30.667  13.235  0.00  0.00    -0.023 C 
ATOM     18  C   LIG    1       23.881 -29.911  10.385  0.00  0.00    +0.009 C 
ATOM     19  C   LIG    1       27.157 -29.559   9.838  0.00  0.00    +0.011 C 
ATOM     20  C   LIG    1       23.682 -30.212   8.894  0.00  0.00    +0.057 C 
ENDROOT
BRANCH   1  21
ATOM     21  C   LIG    1       25.387 -28.608   7.803  0.00  0.00    +0.174 C 
ATOM     22  O   LIG    1       26.248 -27.911   8.355  0.00  0.00    -0.293 OA
ATOM     23  C   LIG    1       24.682 -28.068   6.575  0.00  0.00    +0.090 C 
ENDBRANCH   1  21
BRANCH   1  24
ATOM     24  O   LIG    1       25.348 -30.975   7.209  0.00  0.00    -0.450 OA
BRANCH  24  26
ATOM     25  C   LIG    1       24.481 -33.082   6.756  0.00  0.00    +0.136 C 
ATOM     26  C   LIG    1       24.327 -31.596   6.580  0.00  0.00    +0.305 C 
ATOM     27  O   LIG    1       23.435 -31.040   5.967  0.00  0.00    -0.251 OA
ENDBRANCH  24  26
ENDBRANCH   1  24
TORSDOF 3
ENDMDL
MODEL 5
REMARK VINA RESULT:      -4.9      2.944      4.703
REMARK  Name = *****
REMARK                            x       y       z     vdW  Elec       q    Type
REMARK                         _______ _______ _______ _____ _____    ______ ____
ROOT
ATOM      1  C   LIG    1       25.448 -32.129   7.588  0.00  0.00    +0.176 C 
ATOM      2  C   LIG    1       25.605 -31.479   9.055  0.00  0.00    +0.018 C 
ATOM      3  C   LIG    1       27.071 -31.058   9.355  0.00  0.00    +0.016 C 
ATOM      4  C   LIG    1       25.243 -32.631  10.041  0.00  0.00    +0.006 C 
ATOM      5  C   LIG    1       24.772 -32.215  11.450  0.00  0.00    +0.019 C 
ATOM      6  C   LIG    1       24.005 -30.886  11.612  0.00  0.00    +0.006 C 
ATOM      7  C   LIG    1       24.549 -29.791  10.686  0.00  0.00    +0.006 C 
ATOM      8  C   LIG    1       22.431 -30.959  11.750  0.00  0.00    -0.003 C 
ATOM      9  C   LIG    1       22.049 -29.828  12.762  0.00  0.00    +0.016 C 
ATOM     10  C   LIG    1       21.931 -32.302  12.293  0.00  0.00    -0.038 C 
ATOM     11  C   LIG    1       20.621 -32.607  12.318  0.00  0.00    +0.050 C 
ATOM     12  C   LIG    1       19.632 -31.711  11.673  0.00  0.00    +0.156 C 
ATOM     13  O   LIG    1       18.440 -31.833  11.947  0.00  0.00    -0.293 OA
ATOM     14  C   LIG    1       20.120 -30.699  10.655  0.00  0.00    +0.080 C 
ATOM     15  C   LIG    1       22.881 -33.325  12.668  0.00  0.00    +0.000 C 
ATOM     16  C   LIG    1       21.640 -30.726  10.440  0.00  0.00    +0.019 C 
ATOM     17  C   LIG    1       24.152 -33.323  12.250  0.00  0.00    -0.023 C 
ATOM     18  C   LIG    1       24.384 -33.573   9.209  0.00  0.00    +0.009 C 
ATOM     19  C   LIG    1       24.697 -30.248   9.243  0.00  0.00    +0.011 C 
ATOM     20  C   LIG    1       25.178 -33.616   7.897  0.00  0.00    +0.057 C 
ENDROOT
BRANCH   1  21
ATOM     21  C   LIG    1       24.326 -31.494   6.697  0.00  0.00    +0.174 C 
ATOM     22  O   LIG    1       23.211 -32.026   6.613  0.00  0.00    -0.293 OA
ATOM     23  C   LIG    1       24.560 -30.167   6.003  0.00  0.00    +0.090 C 
ENDBRANCH   1  21
BRANCH   1  24
ATOM     24  O   LIG    1       26.718 -31.913   6.934  0.00  0.00    -0.450 OA
BRANCH  24  26
ATOM     25  C   LIG    1       28.421 -33.424   6.471  0.00  0.00    +0.136 C 
ATOM     26  C   LIG    1       27.160 -32.764   5.984  0.00  0.00    +0.305 C 
ATOM     27  O   LIG    1       26.627 -32.956   4.907  0.00  0.00    -0.251 OA
ENDBRANCH  24  26
ENDBRANCH   1  24
TORSDOF 3
ENDMDL
MODEL 6
REMARK VINA RESULT:      -4.8      3.173      6.036
REMARK  Name = *****
REMARK                            x       y       z     vdW  Elec       q    Type
REMARK                         _______ _______ _______ _____ _____    ______ ____
ROOT
ATOM      1  C   LIG    1       21.734 -31.355  12.161  0.00  0.00    +0.176 C 
ATOM      2  C   LIG    1       23.234 -31.860  11.855  0.00  0.00    +0.018 C 
ATOM      3  C   LIG    1       23.737 -32.879  12.914  0.00  0.00    +0.016 C 
ATOM      4  C   LIG    1       24.118 -30.582  11.986  0.00  0.00    +0.006 C 
ATOM      5  C   LIG    1       25.471 -30.596  11.244  0.00  0.00    +0.019 C 
ATOM      6  C   LIG    1       25.587 -31.398   9.930  0.00  0.00    +0.006 C 
ATOM      7  C   LIG    1       24.784 -32.703   9.980  0.00  0.00    +0.006 C 
ATOM      8  C   LIG    1       25.519 -30.592   8.571  0.00  0.00    -0.003 C 
ATOM      9  C   LIG    1       26.519 -31.317   7.608  0.00  0.00    +0.016 C 
ATOM     10  C   LIG    1       25.939 -29.126   8.712  0.00  0.00    -0.038 C 
ATOM     11  C   LIG    1       25.783 -28.249   7.703  0.00  0.00    +0.050 C 
ATOM     12  C   LIG    1       25.054 -28.645   6.475  0.00  0.00    +0.156 C 
ATOM     13  O   LIG    1       25.167 -27.960   5.461  0.00  0.00    -0.293 OA
ATOM     14  C   LIG    1       24.149 -29.860   6.524  0.00  0.00    +0.080 C 
ATOM     15  C   LIG    1       26.391 -28.626   9.992  0.00  0.00    +0.000 C 
ATOM     16  C   LIG    1       24.130 -30.558   7.890  0.00  0.00    +0.019 C 
ATOM     17  C   LIG    1       26.139 -29.255  11.145  0.00  0.00    -0.023 C 
ATOM     18  C   LIG    1       23.145 -29.435  11.753  0.00  0.00    +0.009 C 
ATOM     19  C   LIG    1       23.355 -32.508  10.461  0.00  0.00    +0.011 C 
ATOM     20  C   LIG    1       21.945 -29.890  12.594  0.00  0.00    +0.057 C 
ENDROOT
BRANCH   1  21
ATOM     21  C   LIG    1       20.733 -31.482  10.961  0.00  0.00    +0.174 C 
ATOM     22  O   LIG    1       20.537 -30.526  10.200  0.00  0.00    -0.293 OA
ATOM     23  C   LIG    1       20.066 -32.809  10.660  0.00  0.00    +0.090 C 
ENDBRANCH   1  21
BRANCH   1  24
ATOM     24  O   LIG    1       21.258 -32.195  13.236  0.00  0.00    -0.450 OA
BRANCH  24  26
ATOM     25  C   LIG    1       21.176 -31.680  15.500  0.00  0.00    +0.136 C 
ATOM     26  C   LIG    1       20.439 -31.701  14.188  0.00  0.00    +0.305 C 
ATOM     27  O   LIG    1       19.290 -31.341  14.011  0.00  0.00    -0.251 OA
ENDBRANCH  24  26
ENDBRANCH   1  24
TORSDOF 3
ENDMDL
MODEL 7
REMARK VINA RESULT:      -4.6      3.075      5.667
REMARK  Name = *****
REMARK                            x       y       z     vdW  Elec       q    Type
REMARK                         _______ _______ _______ _____ _____    ______ ____
ROOT
ATOM      1  C   LIG    1       26.273 -30.649  13.990  0.00  0.00    +0.176 C 
ATOM      2  C   LIG    1       25.530 -30.067  12.683  0.00  0.00    +0.018 C 
ATOM      3  C   LIG    1       26.529 -29.442  11.670  0.00  0.00    +0.016 C 
ATOM      4  C   LIG    1       24.630 -28.912  13.219  0.00  0.00    +0.006 C 
ATOM      5  C   LIG    1       23.415 -28.521  12.352  0.00  0.00    +0.019 C 
ATOM      6  C   LIG    1       22.725 -29.613  11.506  0.00  0.00    +0.006 C 
ATOM      7  C   LIG    1       23.734 -30.608  10.919  0.00  0.00    +0.006 C 
ATOM      8  C   LIG    1       21.382 -30.234  12.065  0.00  0.00    -0.003 C 
ATOM      9  C   LIG    1       20.489 -30.491  10.805  0.00  0.00    +0.016 C 
ATOM     10  C   LIG    1       20.634 -29.301  13.023  0.00  0.00    -0.038 C 
ATOM     11  C   LIG    1       19.567 -29.723  13.724  0.00  0.00    +0.050 C 
ATOM     12  C   LIG    1       19.177 -31.152  13.706  0.00  0.00    +0.156 C 
ATOM     13  O   LIG    1       18.057 -31.476  14.096  0.00  0.00    -0.293 OA
ATOM     14  C   LIG    1       20.194 -32.180  13.251  0.00  0.00    +0.080 C 
ATOM     15  C   LIG    1       21.153 -27.979  13.291  0.00  0.00    +0.000 C 
ATOM     16  C   LIG    1       21.538 -31.570  12.830  0.00  0.00    +0.019 C 
ATOM     17  C   LIG    1       22.421 -27.632  13.040  0.00  0.00    -0.023 C 
ATOM     18  C   LIG    1       24.426 -29.255  14.688  0.00  0.00    +0.009 C 
ATOM     19  C   LIG    1       24.710 -31.149  11.952  0.00  0.00    +0.011 C 
ATOM     20  C   LIG    1       25.847 -29.663  15.096  0.00  0.00    +0.057 C 
ENDROOT
BRANCH   1  21
ATOM     21  C   LIG    1       25.919 -32.134  14.348  0.00  0.00    +0.174 C 
ATOM     22  O   LIG    1       26.628 -33.065  13.947  0.00  0.00    -0.293 OA
ATOM     23  C   LIG    1       24.758 -32.441  15.273  0.00  0.00    +0.090 C 
ENDBRANCH   1  21
BRANCH   1  24
ATOM     24  O   LIG    1       27.685 -30.582  13.690  0.00  0.00    -0.450 OA
BRANCH  24  26
ATOM     25  C   LIG    1       29.014 -28.878  14.542  0.00  0.00    +0.136 C 
ATOM     26  C   LIG    1       28.585 -30.315  14.660  0.00  0.00    +0.305 C 
ATOM     27  O   LIG    1       28.987 -31.112  15.487  0.00  0.00    -0.251 OA
ENDBRANCH  24  26
ENDBRANCH   1  24
TORSDOF 3
ENDMDL
MODEL 8
REMARK VINA RESULT:      -4.5      1.652      2.200
REMARK  Name = *****
REMARK                            x       y       z     vdW  Elec       q    Type
REMARK                         _______ _______ _______ _____ _____    ______ ____
ROOT
ATOM      1  C   LIG    1       25.054 -31.693   8.396  0.00  0.00    +0.176 C 
ATOM      2  C   LIG    1       24.087 -32.114   9.614  0.00  0.00    +0.018 C 
ATOM      3  C   LIG    1       23.029 -33.168   9.185  0.00  0.00    +0.016 C 
ATOM      4  C   LIG    1       23.318 -30.809   9.982  0.00  0.00    +0.006 C 
ATOM      5  C   LIG    1       22.740 -30.723  11.410  0.00  0.00    +0.019 C 
ATOM      6  C   LIG    1       23.482 -31.446  12.554  0.00  0.00    +0.006 C 
ATOM      7  C   LIG    1       24.074 -32.786  12.100  0.00  0.00    +0.006 C 
ATOM      8  C   LIG    1       24.394 -30.570  13.505  0.00  0.00    -0.003 C 
ATOM      9  C   LIG    1       24.230 -31.197  14.930  0.00  0.00    +0.016 C 
ATOM     10  C   LIG    1       23.978 -29.097  13.558  0.00  0.00    -0.038 C 
ATOM     11  C   LIG    1       24.736 -28.174  14.177  0.00  0.00    +0.050 C 
ATOM     12  C   LIG    1       26.078 -28.532  14.693  0.00  0.00    +0.156 C 
ATOM     13  O   LIG    1       26.631 -27.788  15.499  0.00  0.00    -0.293 OA
ATOM     14  C   LIG    1       26.750 -29.786  14.169  0.00  0.00    +0.080 C 
ATOM     15  C   LIG    1       22.817 -28.650  12.820  0.00  0.00    +0.000 C 
ATOM     16  C   LIG    1       25.901 -30.559  13.151  0.00  0.00    +0.019 C 
ATOM     17  C   LIG    1       22.283 -29.352  11.814  0.00  0.00    -0.023 C 
ATOM     18  C   LIG    1       24.217 -29.694   9.467  0.00  0.00    +0.009 C 
ATOM     19  C   LIG    1       24.876 -32.679  10.812  0.00  0.00    +0.011 C 
ATOM     20  C   LIG    1       24.615 -30.246   8.092  0.00  0.00    +0.057 C 
ENDROOT
BRANCH   1  21
ATOM     21  C   LIG    1       26.588 -31.796   8.699  0.00  0.00    +0.174 C 
ATOM     22  O   LIG    1       27.182 -30.871   9.267  0.00  0.00    -0.293 OA
ATOM     23  C   LIG    1       27.345 -33.073   8.388  0.00  0.00    +0.090 C 
ENDBRANCH   1  21
BRANCH   1  24
ATOM     24  O   LIG    1       24.744 -32.610   7.324  0.00  0.00    -0.450 OA
BRANCH  24  26
ATOM     25  C   LIG    1       25.531 -32.096   5.199  0.00  0.00    +0.136 C 
ATOM     26  C   LIG    1       24.341 -32.155   6.118  0.00  0.00    +0.305 C 
ATOM     27  O   LIG    1       23.203 -31.838   5.829  0.00  0.00    -0.251 OA
ENDBRANCH  24  26
ENDBRANCH   1  24
TORSDOF 3
ENDMDL
MODEL 9
REMARK VINA RESULT:      -4.3      2.672      4.484
REMARK  Name = *****
REMARK                            x       y       z     vdW  Elec       q    Type
REMARK                         _______ _______ _______ _____ _____    ______ ____
ROOT
ATOM      1  C   LIG    1       25.021 -31.743   7.422  0.00  0.00    +0.176 C 
ATOM      2  C   LIG    1       24.551 -30.532   8.376  0.00  0.00    +0.018 C 
ATOM      3  C   LIG    1       24.046 -29.307   7.562  0.00  0.00    +0.016 C 
ATOM      4  C   LIG    1       25.845 -30.089   9.124  0.00  0.00    +0.006 C 
ATOM      5  C   LIG    1       25.652 -29.352  10.465  0.00  0.00    +0.019 C 
ATOM      6  C   LIG    1       24.424 -29.702  11.333  0.00  0.00    +0.006 C 
ATOM      7  C   LIG    1       23.179 -29.979  10.483  0.00  0.00    +0.006 C 
ATOM      8  C   LIG    1       24.649 -30.663  12.569  0.00  0.00    -0.003 C 
ATOM      9  C   LIG    1       23.691 -30.132  13.688  0.00  0.00    +0.016 C 
ATOM     10  C   LIG    1       26.088 -30.647  13.097  0.00  0.00    -0.038 C 
ATOM     11  C   LIG    1       26.504 -31.522  14.029  0.00  0.00    +0.050 C 
ATOM     12  C   LIG    1       25.622 -32.632  14.460  0.00  0.00    +0.156 C 
ATOM     13  O   LIG    1       25.880 -33.238  15.498  0.00  0.00    -0.293 OA
ATOM     14  C   LIG    1       24.452 -33.018  13.578  0.00  0.00    +0.080 C 
ATOM     15  C   LIG    1       27.065 -29.766  12.496  0.00  0.00    +0.000 C 
ATOM     16  C   LIG    1       24.321 -32.154  12.316  0.00  0.00    +0.019 C 
ATOM     17  C   LIG    1       26.901 -29.219  11.287  0.00  0.00    -0.023 C 
ATOM     18  C   LIG    1       26.744 -31.316   9.063  0.00  0.00    +0.009 C 
ATOM     19  C   LIG    1       23.435 -30.960   9.350  0.00  0.00    +0.011 C 
ATOM     20  C   LIG    1       26.552 -31.750   7.604  0.00  0.00    +0.057 C 
ENDROOT
BRANCH   1  21
ATOM     21  C   LIG    1       24.377 -33.134   7.750  0.00  0.00    +0.174 C 
ATOM     22  O   LIG    1       24.802 -33.820   8.688  0.00  0.00    -0.293 OA
ATOM     23  C   LIG    1       23.161 -33.614   6.981  0.00  0.00    +0.090 C 
ENDBRANCH   1  21
BRANCH   1  24
ATOM     24  O   LIG    1       24.616 -31.362   6.089  0.00  0.00    -0.450 OA
BRANCH  24  26
ATOM     25  C   LIG    1       25.914 -32.369   4.446  0.00  0.00    +0.136 C 
ATOM     26  C   LIG    1       25.536 -31.088   5.139  0.00  0.00    +0.305 C 
ATOM     27  O   LIG    1       25.987 -29.986   4.892  0.00  0.00    -0.251 OA
ENDBRANCH  24  26
ENDBRANCH   1  24
TORSDOF 3
ENDMDL
