MODEL 1
REMARK VINA RESULT:      -8.8      0.000      0.000
REMARK  Name = *****
REMARK                            x       y       z     vdW  Elec       q    Type
REMARK                         _______ _______ _______ _____ _____    ______ ____
ROOT
ATOM      1  C   LIG    1       27.008 -20.837   8.013  0.00  0.00    +0.086 A 
ATOM      2  C   LIG    1       25.695 -20.371   8.156  0.00  0.00    +0.031 A 
ATOM      3  C   LIG    1       24.611 -21.141   7.726  0.00  0.00    +0.031 A 
ATOM      4  C   LIG    1       24.843 -22.380   7.129  0.00  0.00    +0.109 A 
ATOM      5  C   LIG    1       26.148 -22.847   6.941  0.00  0.00    +0.031 A 
ATOM      6  C   LIG    1       27.223 -22.078   7.392  0.00  0.00    +0.031 A 
ENDROOT
BRANCH   4   7
ATOM      7  S   LIG    1       23.476 -23.353   6.532  0.00  0.00    +0.073 S 
ATOM      8  O   LIG    1       22.303 -22.831   7.190  0.00  0.00    -0.150 OA
ATOM      9  O   LIG    1       23.832 -24.757   6.647  0.00  0.00    -0.150 OA
BRANCH   7  10
ATOM     10  N   LIG    1       23.373 -22.915   4.897  0.00  0.00    -0.200 N 
ATOM     11  H   LIG    1       22.511 -23.275   4.489  0.00  0.00    +0.175 HD
BRANCH  10  12
ATOM     12  C   LIG    1       23.430 -21.524   4.667  0.00  0.00    +0.138 A 
ATOM     13  N   LIG    1       24.570 -21.081   4.114  0.00  0.00    -0.239 NA
ATOM     14  C   LIG    1       24.621 -19.747   3.870  0.00  0.00    +0.113 A 
ATOM     15  C   LIG    1       23.591 -18.861   4.160  0.00  0.00    +0.020 A 
ATOM     16  C   LIG    1       22.431 -19.366   4.735  0.00  0.00    +0.005 A 
ATOM     17  C   LIG    1       22.343 -20.728   4.991  0.00  0.00    +0.045 A 
ENDBRANCH  10  12
ENDBRANCH   7  10
ENDBRANCH   4   7
BRANCH   1  19
ATOM     18  N   LIG    1       29.039 -20.031   7.688  0.00  0.00    -0.149 NA
ATOM     19  N   LIG    1       28.054 -20.008   8.455  0.00  0.00    -0.149 NA
BRANCH  18  24
ATOM     20  C   LIG    1       30.930 -17.702   9.872  0.00  0.00    +0.102 A 
ATOM     21  C   LIG    1       32.049 -17.432   9.071  0.00  0.00    +0.131 A 
ATOM     22  C   LIG    1       32.192 -18.025   7.820  0.00  0.00    +0.048 A 
ATOM     23  C   LIG    1       31.203 -18.889   7.355  0.00  0.00    +0.033 A 
ATOM     24  C   LIG    1       30.059 -19.162   8.122  0.00  0.00    +0.087 A 
ATOM     25  C   LIG    1       29.943 -18.574   9.386  0.00  0.00    +0.048 A 
BRANCH  20  27
ATOM     26  O   LIG    1       30.034 -16.116  11.409  0.00  0.00    -0.245 OA
ATOM     27  C   LIG    1       30.715 -17.113  11.226  0.00  0.00    +0.340 C 
BRANCH  27  28
ATOM     28  O   LIG    1       31.329 -17.759  12.239  0.00  0.00    -0.477 OA
ATOM     29  H   LIG    1       31.596 -18.674  11.992  0.00  0.00    +0.295 HD
ENDBRANCH  27  28
ENDBRANCH  20  27
BRANCH  21  30
ATOM     30  O   LIG    1       33.024 -16.573   9.511  0.00  0.00    -0.506 OA
ATOM     31  H   LIG    1       32.628 -15.688   9.630  0.00  0.00    +0.292 HD
ENDBRANCH  21  30
ENDBRANCH  18  24
ENDBRANCH   1  19
TORSDOF 8
ENDMDL
MODEL 2
REMARK VINA RESULT:      -8.7      5.157     10.039
REMARK  Name = *****
REMARK                            x       y       z     vdW  Elec       q    Type
REMARK                         _______ _______ _______ _____ _____    ______ ____
ROOT
ATOM      1  C   LIG    1       24.440 -25.381   6.546  0.00  0.00    +0.086 A 
ATOM      2  C   LIG    1       25.769 -24.939   6.535  0.00  0.00    +0.031 A 
ATOM      3  C   LIG    1       26.070 -23.575   6.560  0.00  0.00    +0.031 A 
ATOM      4  C   LIG    1       25.032 -22.643   6.576  0.00  0.00    +0.109 A 
ATOM      5  C   LIG    1       23.697 -23.062   6.549  0.00  0.00    +0.031 A 
ATOM      6  C   LIG    1       23.408 -24.429   6.542  0.00  0.00    +0.031 A 
ENDROOT
BRANCH   4   7
ATOM      7  S   LIG    1       25.397 -20.900   6.560  0.00  0.00    +0.073 S 
ATOM      8  O   LIG    1       25.870 -20.584   7.886  0.00  0.00    -0.150 OA
ATOM      9  O   LIG    1       24.256 -20.201   5.990  0.00  0.00    -0.150 OA
BRANCH   7  10
ATOM     10  N   LIG    1       26.725 -20.791   5.512  0.00  0.00    -0.200 N 
ATOM     11  H   LIG    1       26.512 -20.165   4.737  0.00  0.00    +0.175 HD
BRANCH  10  12
ATOM     12  C   LIG    1       27.913 -20.348   6.131  0.00  0.00    +0.138 A 
ATOM     13  N   LIG    1       28.407 -21.165   7.075  0.00  0.00    -0.239 NA
ATOM     14  C   LIG    1       29.561 -20.754   7.657  0.00  0.00    +0.113 A 
ATOM     15  C   LIG    1       30.222 -19.575   7.335  0.00  0.00    +0.020 A 
ATOM     16  C   LIG    1       29.671 -18.760   6.353  0.00  0.00    +0.005 A 
ATOM     17  C   LIG    1       28.493 -19.155   5.732  0.00  0.00    +0.045 A 
ENDBRANCH  10  12
ENDBRANCH   7  10
ENDBRANCH   4   7
BRANCH   1  19
ATOM     18  N   LIG    1       25.261 -27.432   6.574  0.00  0.00    -0.149 NA
ATOM     19  N   LIG    1       24.206 -26.767   6.507  0.00  0.00    -0.149 NA
BRANCH  18  24
ATOM     20  C   LIG    1       24.161 -30.762   7.786  0.00  0.00    +0.102 A 
ATOM     21  C   LIG    1       24.452 -31.563   6.671  0.00  0.00    +0.131 A 
ATOM     22  C   LIG    1       24.996 -31.008   5.516  0.00  0.00    +0.048 A 
ATOM     23  C   LIG    1       25.264 -29.641   5.473  0.00  0.00    +0.033 A 
ATOM     24  C   LIG    1       25.006 -28.816   6.579  0.00  0.00    +0.087 A 
ATOM     25  C   LIG    1       24.439 -29.388   7.725  0.00  0.00    +0.048 A 
BRANCH  20  27
ATOM     26  O   LIG    1       24.013 -32.260   9.633  0.00  0.00    -0.245 OA
ATOM     27  C   LIG    1       23.567 -31.284   9.052  0.00  0.00    +0.340 C 
BRANCH  27  28
ATOM     28  O   LIG    1       22.499 -30.599   9.511  0.00  0.00    -0.477 OA
ATOM     29  H   LIG    1       22.277 -30.829  10.441  0.00  0.00    +0.295 HD
ENDBRANCH  27  28
ENDBRANCH  20  27
BRANCH  21  30
ATOM     30  O   LIG    1       24.205 -32.912   6.705  0.00  0.00    -0.506 OA
ATOM     31  H   LIG    1       23.306 -33.072   6.359  0.00  0.00    +0.292 HD
ENDBRANCH  21  30
ENDBRANCH  18  24
ENDBRANCH   1  19
TORSDOF 8
ENDMDL
MODEL 3
REMARK VINA RESULT:      -8.4      5.695     10.380
REMARK  Name = *****
REMARK                            x       y       z     vdW  Elec       q    Type
REMARK                         _______ _______ _______ _____ _____    ______ ____
ROOT
ATOM      1  C   LIG    1       24.619 -26.213   6.383  0.00  0.00    +0.086 A 
ATOM      2  C   LIG    1       25.960 -25.814   6.458  0.00  0.00    +0.031 A 
ATOM      3  C   LIG    1       26.302 -24.462   6.541  0.00  0.00    +0.031 A 
ATOM      4  C   LIG    1       25.295 -23.497   6.529  0.00  0.00    +0.109 A 
ATOM      5  C   LIG    1       23.951 -23.872   6.418  0.00  0.00    +0.031 A 
ATOM      6  C   LIG    1       23.620 -25.227   6.353  0.00  0.00    +0.031 A 
ENDROOT
BRANCH   4   7
ATOM      7  S   LIG    1       25.714 -21.768   6.587  0.00  0.00    +0.073 S 
ATOM      8  O   LIG    1       27.115 -21.713   6.929  0.00  0.00    -0.150 OA
ATOM      9  O   LIG    1       24.721 -21.085   7.400  0.00  0.00    -0.150 OA
BRANCH   7  10
ATOM     10  N   LIG    1       25.571 -21.280   4.969  0.00  0.00    -0.200 N 
ATOM     11  H   LIG    1       25.444 -22.091   4.366  0.00  0.00    +0.175 HD
BRANCH  10  12
ATOM     12  C   LIG    1       24.516 -20.374   4.730  0.00  0.00    +0.138 A 
ATOM     13  N   LIG    1       24.847 -19.283   4.022  0.00  0.00    -0.239 NA
ATOM     14  C   LIG    1       23.831 -18.420   3.770  0.00  0.00    +0.113 A 
ATOM     15  C   LIG    1       22.523 -18.608   4.200  0.00  0.00    +0.020 A 
ATOM     16  C   LIG    1       22.229 -19.751   4.933  0.00  0.00    +0.005 A 
ATOM     17  C   LIG    1       23.245 -20.659   5.202  0.00  0.00    +0.045 A 
ENDBRANCH  10  12
ENDBRANCH   7  10
ENDBRANCH   4   7
BRANCH   1  19
ATOM     18  N   LIG    1       25.211 -28.288   6.855  0.00  0.00    -0.149 NA
ATOM     19  N   LIG    1       24.344 -27.588   6.289  0.00  0.00    -0.149 NA
BRANCH  18  24
ATOM     20  C   LIG    1       24.990 -31.748   5.532  0.00  0.00    +0.102 A 
ATOM     21  C   LIG    1       24.327 -32.396   6.584  0.00  0.00    +0.131 A 
ATOM     22  C   LIG    1       23.965 -31.702   7.735  0.00  0.00    +0.048 A 
ATOM     23  C   LIG    1       24.256 -30.342   7.835  0.00  0.00    +0.033 A 
ATOM     24  C   LIG    1       24.898 -29.659   6.790  0.00  0.00    +0.087 A 
ATOM     25  C   LIG    1       25.274 -30.379   5.650  0.00  0.00    +0.048 A 
BRANCH  20  27
ATOM     26  O   LIG    1       26.571 -32.400   3.872  0.00  0.00    -0.245 OA
ATOM     27  C   LIG    1       25.419 -32.429   4.275  0.00  0.00    +0.340 C 
BRANCH  27  28
ATOM     28  O   LIG    1       24.441 -33.080   3.611  0.00  0.00    -0.477 OA
ATOM     29  H   LIG    1       23.614 -32.551   3.549  0.00  0.00    +0.295 HD
ENDBRANCH  27  28
ENDBRANCH  20  27
BRANCH  21  30
ATOM     30  O   LIG    1       24.022 -33.730   6.494  0.00  0.00    -0.506 OA
ATOM     31  H   LIG    1       24.576 -34.220   7.132  0.00  0.00    +0.292 HD
ENDBRANCH  21  30
ENDBRANCH  18  24
ENDBRANCH   1  19
TORSDOF 8
ENDMDL
MODEL 4
REMARK VINA RESULT:      -8.3      5.383     10.342
REMARK  Name = *****
REMARK                            x       y       z     vdW  Elec       q    Type
REMARK                         _______ _______ _______ _____ _____    ______ ____
ROOT
ATOM      1  C   LIG    1       24.602 -25.594   6.498  0.00  0.00    +0.086 A 
ATOM      2  C   LIG    1       23.525 -24.698   6.510  0.00  0.00    +0.031 A 
ATOM      3  C   LIG    1       23.742 -23.318   6.514  0.00  0.00    +0.031 A 
ATOM      4  C   LIG    1       25.048 -22.828   6.526  0.00  0.00    +0.109 A 
ATOM      5  C   LIG    1       26.138 -23.706   6.552  0.00  0.00    +0.031 A 
ATOM      6  C   LIG    1       25.909 -25.084   6.530  0.00  0.00    +0.031 A 
ENDROOT
BRANCH   4   7
ATOM      7  S   LIG    1       25.343 -21.073   6.579  0.00  0.00    +0.073 S 
ATOM      8  O   LIG    1       25.837 -20.796   7.906  0.00  0.00    -0.150 OA
ATOM      9  O   LIG    1       24.163 -20.397   6.067  0.00  0.00    -0.150 OA
BRANCH   7  10
ATOM     10  N   LIG    1       26.640 -20.865   5.506  0.00  0.00    -0.200 N 
ATOM     11  H   LIG    1       26.384 -20.214   4.766  0.00  0.00    +0.175 HD
BRANCH  10  12
ATOM     12  C   LIG    1       27.826 -20.404   6.116  0.00  0.00    +0.138 A 
ATOM     13  N   LIG    1       28.342 -21.216   7.052  0.00  0.00    -0.239 NA
ATOM     14  C   LIG    1       29.494 -20.788   7.626  0.00  0.00    +0.113 A 
ATOM     15  C   LIG    1       30.131 -19.596   7.304  0.00  0.00    +0.020 A 
ATOM     16  C   LIG    1       29.557 -18.786   6.331  0.00  0.00    +0.005 A 
ATOM     17  C   LIG    1       28.381 -19.199   5.718  0.00  0.00    +0.045 A 
ENDBRANCH  10  12
ENDBRANCH   7  10
ENDBRANCH   4   7
BRANCH   1  19
ATOM     18  N   LIG    1       25.334 -27.670   6.687  0.00  0.00    -0.149 NA
ATOM     19  N   LIG    1       24.314 -26.971   6.507  0.00  0.00    -0.149 NA
BRANCH  18  24
ATOM     20  C   LIG    1       25.240 -31.254   5.729  0.00  0.00    +0.102 A 
ATOM     21  C   LIG    1       24.463 -31.789   6.767  0.00  0.00    +0.131 A 
ATOM     22  C   LIG    1       23.982 -30.977   7.790  0.00  0.00    +0.048 A 
ATOM     23  C   LIG    1       24.267 -29.613   7.773  0.00  0.00    +0.033 A 
ATOM     24  C   LIG    1       25.022 -29.042   6.737  0.00  0.00    +0.087 A 
ATOM     25  C   LIG    1       25.517 -29.878   5.729  0.00  0.00    +0.048 A 
BRANCH  20  27
ATOM     26  O   LIG    1       26.732 -32.838   4.756  0.00  0.00    -0.245 OA
ATOM     27  C   LIG    1       25.800 -32.064   4.607  0.00  0.00    +0.340 C 
BRANCH  27  28
ATOM     28  O   LIG    1       25.203 -31.879   3.411  0.00  0.00    -0.477 OA
ATOM     29  H   LIG    1       25.054 -30.927   3.210  0.00  0.00    +0.295 HD
ENDBRANCH  27  28
ENDBRANCH  20  27
BRANCH  21  30
ATOM     30  O   LIG    1       24.163 -33.127   6.788  0.00  0.00    -0.506 OA
ATOM     31  H   LIG    1       23.342 -33.270   6.279  0.00  0.00    +0.292 HD
ENDBRANCH  21  30
ENDBRANCH  18  24
ENDBRANCH   1  19
TORSDOF 8
ENDMDL
MODEL 5
REMARK VINA RESULT:      -8.3      5.188      9.811
REMARK  Name = *****
REMARK                            x       y       z     vdW  Elec       q    Type
REMARK                         _______ _______ _______ _____ _____    ______ ____
ROOT
ATOM      1  C   LIG    1       24.469 -25.302   6.595  0.00  0.00    +0.086 A 
ATOM      2  C   LIG    1       25.794 -24.846   6.570  0.00  0.00    +0.031 A 
ATOM      3  C   LIG    1       26.081 -23.479   6.535  0.00  0.00    +0.031 A 
ATOM      4  C   LIG    1       25.033 -22.559   6.505  0.00  0.00    +0.109 A 
ATOM      5  C   LIG    1       23.703 -22.993   6.492  0.00  0.00    +0.031 A 
ATOM      6  C   LIG    1       23.428 -24.361   6.545  0.00  0.00    +0.031 A 
ENDROOT
BRANCH   4   7
ATOM      7  S   LIG    1       25.380 -20.815   6.412  0.00  0.00    +0.073 S 
ATOM      8  O   LIG    1       25.823 -20.430   7.730  0.00  0.00    -0.150 OA
ATOM      9  O   LIG    1       24.243 -20.157   5.788  0.00  0.00    -0.150 OA
BRANCH   7  10
ATOM     10  N   LIG    1       26.727 -20.740   5.386  0.00  0.00    -0.200 N 
ATOM     11  H   LIG    1       26.532 -20.133   4.592  0.00  0.00    +0.175 HD
BRANCH  10  12
ATOM     12  C   LIG    1       27.907 -20.290   6.014  0.00  0.00    +0.138 A 
ATOM     13  N   LIG    1       28.388 -19.121   5.563  0.00  0.00    -0.239 NA
ATOM     14  C   LIG    1       29.510 -18.673   6.178  0.00  0.00    +0.113 A 
ATOM     15  C   LIG    1       30.157 -19.346   7.208  0.00  0.00    +0.020 A 
ATOM     16  C   LIG    1       29.625 -20.555   7.640  0.00  0.00    +0.005 A 
ATOM     17  C   LIG    1       28.471 -21.038   7.035  0.00  0.00    +0.045 A 
ENDBRANCH  10  12
ENDBRANCH   7  10
ENDBRANCH   4   7
BRANCH   1  19
ATOM     18  N   LIG    1       25.276 -27.331   6.927  0.00  0.00    -0.149 NA
ATOM     19  N   LIG    1       24.250 -26.690   6.618  0.00  0.00    -0.149 NA
BRANCH  18  24
ATOM     20  C   LIG    1       25.282 -30.813   8.211  0.00  0.00    +0.102 A 
ATOM     21  C   LIG    1       24.567 -31.473   7.201  0.00  0.00    +0.131 A 
ATOM     22  C   LIG    1       24.070 -30.773   6.105  0.00  0.00    +0.048 A 
ATOM     23  C   LIG    1       24.297 -29.402   6.007  0.00  0.00    +0.033 A 
ATOM     24  C   LIG    1       25.028 -28.716   6.989  0.00  0.00    +0.087 A 
ATOM     25  C   LIG    1       25.502 -29.431   8.095  0.00  0.00    +0.048 A 
BRANCH  20  27
ATOM     26  O   LIG    1       25.205 -32.332  10.047  0.00  0.00    -0.245 OA
ATOM     27  C   LIG    1       25.834 -31.493   9.420  0.00  0.00    +0.340 C 
BRANCH  27  28
ATOM     28  O   LIG    1       27.079 -31.115   9.774  0.00  0.00    -0.477 OA
ATOM     29  H   LIG    1       27.749 -31.813   9.593  0.00  0.00    +0.295 HD
ENDBRANCH  27  28
ENDBRANCH  20  27
BRANCH  21  30
ATOM     30  O   LIG    1       24.348 -32.825   7.277  0.00  0.00    -0.506 OA
ATOM     31  H   LIG    1       24.266 -33.073   8.219  0.00  0.00    +0.292 HD
ENDBRANCH  21  30
ENDBRANCH  18  24
ENDBRANCH   1  19
TORSDOF 8
ENDMDL
MODEL 6
REMARK VINA RESULT:      -8.1      5.627     10.170
REMARK  Name = *****
REMARK                            x       y       z     vdW  Elec       q    Type
REMARK                         _______ _______ _______ _____ _____    ______ ____
ROOT
ATOM      1  C   LIG    1       24.625 -26.152   6.379  0.00  0.00    +0.086 A 
ATOM      2  C   LIG    1       25.968 -25.766   6.482  0.00  0.00    +0.031 A 
ATOM      3  C   LIG    1       26.320 -24.418   6.577  0.00  0.00    +0.031 A 
ATOM      4  C   LIG    1       25.323 -23.444   6.548  0.00  0.00    +0.109 A 
ATOM      5  C   LIG    1       23.978 -23.805   6.408  0.00  0.00    +0.031 A 
ATOM      6  C   LIG    1       23.635 -25.157   6.333  0.00  0.00    +0.031 A 
ENDROOT
BRANCH   4   7
ATOM      7  S   LIG    1       25.757 -21.718   6.619  0.00  0.00    +0.073 S 
ATOM      8  O   LIG    1       27.156 -21.678   6.970  0.00  0.00    -0.150 OA
ATOM      9  O   LIG    1       24.766 -21.032   7.432  0.00  0.00    -0.150 OA
BRANCH   7  10
ATOM     10  N   LIG    1       25.627 -21.218   5.005  0.00  0.00    -0.200 N 
ATOM     11  H   LIG    1       25.529 -22.026   4.392  0.00  0.00    +0.175 HD
BRANCH  10  12
ATOM     12  C   LIG    1       24.554 -20.336   4.758  0.00  0.00    +0.138 A 
ATOM     13  N   LIG    1       24.865 -19.240   4.047  0.00  0.00    -0.239 NA
ATOM     14  C   LIG    1       23.832 -18.400   3.788  0.00  0.00    +0.113 A 
ATOM     15  C   LIG    1       22.526 -18.613   4.212  0.00  0.00    +0.020 A 
ATOM     16  C   LIG    1       22.254 -19.760   4.949  0.00  0.00    +0.005 A 
ATOM     17  C   LIG    1       23.288 -20.645   5.225  0.00  0.00    +0.045 A 
ENDBRANCH  10  12
ENDBRANCH   7  10
ENDBRANCH   4   7
BRANCH   1  19
ATOM     18  N   LIG    1       25.047 -28.218   7.035  0.00  0.00    -0.149 NA
ATOM     19  N   LIG    1       24.339 -27.525   6.276  0.00  0.00    -0.149 NA
BRANCH  18  24
ATOM     20  C   LIG    1       23.742 -31.549   8.022  0.00  0.00    +0.102 A 
ATOM     21  C   LIG    1       24.014 -32.297   6.867  0.00  0.00    +0.131 A 
ATOM     22  C   LIG    1       24.612 -31.706   5.758  0.00  0.00    +0.048 A 
ATOM     23  C   LIG    1       24.955 -30.356   5.803  0.00  0.00    +0.033 A 
ATOM     24  C   LIG    1       24.718 -29.585   6.952  0.00  0.00    +0.087 A 
ATOM     25  C   LIG    1       24.095 -30.191   8.050  0.00  0.00    +0.048 A 
BRANCH  20  27
ATOM     26  O   LIG    1       23.555 -33.062   9.854  0.00  0.00    -0.245 OA
ATOM     27  C   LIG    1       23.093 -32.111   9.244  0.00  0.00    +0.340 C 
BRANCH  27  28
ATOM     28  O   LIG    1       21.956 -31.494   9.626  0.00  0.00    -0.477 OA
ATOM     29  H   LIG    1       21.634 -30.851   8.955  0.00  0.00    +0.295 HD
ENDBRANCH  27  28
ENDBRANCH  20  27
BRANCH  21  30
ATOM     30  O   LIG    1       23.694 -33.630   6.815  0.00  0.00    -0.506 OA
ATOM     31  H   LIG    1       23.971 -33.982   5.946  0.00  0.00    +0.292 HD
ENDBRANCH  21  30
ENDBRANCH  18  24
ENDBRANCH   1  19
TORSDOF 8
ENDMDL
MODEL 7
REMARK VINA RESULT:      -8.0      5.323     10.158
REMARK  Name = *****
REMARK                            x       y       z     vdW  Elec       q    Type
REMARK                         _______ _______ _______ _____ _____    ______ ____
ROOT
ATOM      1  C   LIG    1       24.064 -25.455   6.151  0.00  0.00    +0.086 A 
ATOM      2  C   LIG    1       25.000 -24.985   5.220  0.00  0.00    +0.031 A 
ATOM      3  C   LIG    1       25.117 -23.620   4.949  0.00  0.00    +0.031 A 
ATOM      4  C   LIG    1       24.277 -22.716   5.600  0.00  0.00    +0.109 A 
ATOM      5  C   LIG    1       23.309 -23.167   6.504  0.00  0.00    +0.031 A 
ATOM      6  C   LIG    1       23.214 -24.533   6.781  0.00  0.00    +0.031 A 
ENDROOT
BRANCH   4   7
ATOM      7  S   LIG    1       24.380 -20.977   5.231  0.00  0.00    +0.073 S 
ATOM      8  O   LIG    1       23.017 -20.509   5.157  0.00  0.00    -0.150 OA
ATOM      9  O   LIG    1       25.290 -20.802   4.111  0.00  0.00    -0.150 OA
BRANCH   7  10
ATOM     10  N   LIG    1       25.061 -20.322   6.639  0.00  0.00    -0.200 N 
ATOM     11  H   LIG    1       24.603 -20.705   7.464  0.00  0.00    +0.175 HD
BRANCH  10  12
ATOM     12  C   LIG    1       26.451 -20.534   6.760  0.00  0.00    +0.138 A 
ATOM     13  N   LIG    1       27.210 -19.889   5.860  0.00  0.00    -0.239 NA
ATOM     14  C   LIG    1       28.548 -20.072   5.986  0.00  0.00    +0.113 A 
ATOM     15  C   LIG    1       29.139 -20.866   6.962  0.00  0.00    +0.020 A 
ATOM     16  C   LIG    1       28.312 -21.516   7.870  0.00  0.00    +0.005 A 
ATOM     17  C   LIG    1       26.937 -21.344   7.773  0.00  0.00    +0.045 A 
ENDBRANCH  10  12
ENDBRANCH   7  10
ENDBRANCH   4   7
BRANCH   1  19
ATOM     18  N   LIG    1       25.069 -27.422   6.128  0.00  0.00    -0.149 NA
ATOM     19  N   LIG    1       23.989 -26.842   6.368  0.00  0.00    -0.149 NA
BRANCH  18  24
ATOM     20  C   LIG    1       25.388 -31.085   5.627  0.00  0.00    +0.102 A 
ATOM     21  C   LIG    1       24.884 -31.567   6.844  0.00  0.00    +0.131 A 
ATOM     22  C   LIG    1       24.452 -30.691   7.835  0.00  0.00    +0.048 A 
ATOM     23  C   LIG    1       24.512 -29.317   7.609  0.00  0.00    +0.033 A 
ATOM     24  C   LIG    1       24.990 -28.803   6.393  0.00  0.00    +0.087 A 
ATOM     25  C   LIG    1       25.440 -29.698   5.417  0.00  0.00    +0.048 A 
BRANCH  20  27
ATOM     26  O   LIG    1       26.795 -32.757   4.674  0.00  0.00    -0.245 OA
ATOM     27  C   LIG    1       25.880 -31.963   4.524  0.00  0.00    +0.340 C 
BRANCH  27  28
ATOM     28  O   LIG    1       25.241 -31.815   3.345  0.00  0.00    -0.477 OA
ATOM     29  H   LIG    1       25.562 -31.034   2.840  0.00  0.00    +0.295 HD
ENDBRANCH  27  28
ENDBRANCH  20  27
BRANCH  21  30
ATOM     30  O   LIG    1       24.806 -32.917   7.074  0.00  0.00    -0.506 OA
ATOM     31  H   LIG    1       25.409 -33.374   6.456  0.00  0.00    +0.292 HD
ENDBRANCH  21  30
ENDBRANCH  18  24
ENDBRANCH   1  19
TORSDOF 8
ENDMDL
MODEL 8
REMARK VINA RESULT:      -8.0      5.765      9.767
REMARK  Name = *****
REMARK                            x       y       z     vdW  Elec       q    Type
REMARK                         _______ _______ _______ _____ _____    ______ ____
ROOT
ATOM      1  C   LIG    1       25.220 -26.401   6.300  0.00  0.00    +0.086 A 
ATOM      2  C   LIG    1       26.188 -25.480   6.723  0.00  0.00    +0.031 A 
ATOM      3  C   LIG    1       25.869 -24.129   6.885  0.00  0.00    +0.031 A 
ATOM      4  C   LIG    1       24.576 -23.691   6.603  0.00  0.00    +0.109 A 
ATOM      5  C   LIG    1       23.604 -24.586   6.143  0.00  0.00    +0.031 A 
ATOM      6  C   LIG    1       23.929 -25.937   6.002  0.00  0.00    +0.031 A 
ENDROOT
BRANCH   4   7
ATOM      7  S   LIG    1       24.164 -21.965   6.758  0.00  0.00    +0.073 S 
ATOM      8  O   LIG    1       25.380 -21.243   6.472  0.00  0.00    -0.150 OA
ATOM      9  O   LIG    1       23.465 -21.775   8.019  0.00  0.00    -0.150 OA
BRANCH   7  10
ATOM     10  N   LIG    1       23.104 -21.701   5.463  0.00  0.00    -0.200 N 
ATOM     11  H   LIG    1       22.139 -21.816   5.768  0.00  0.00    +0.175 HD
BRANCH  10  12
ATOM     12  C   LIG    1       23.233 -20.432   4.860  0.00  0.00    +0.138 A 
ATOM     13  N   LIG    1       24.358 -20.246   4.150  0.00  0.00    -0.239 NA
ATOM     14  C   LIG    1       24.477 -19.035   3.550  0.00  0.00    +0.113 A 
ATOM     15  C   LIG    1       23.529 -18.023   3.640  0.00  0.00    +0.020 A 
ATOM     16  C   LIG    1       22.383 -18.260   4.389  0.00  0.00    +0.005 A 
ATOM     17  C   LIG    1       22.226 -19.493   5.010  0.00  0.00    +0.045 A 
ENDBRANCH  10  12
ENDBRANCH   7  10
ENDBRANCH   4   7
BRANCH   1  19
ATOM     18  N   LIG    1       25.178 -28.473   7.062  0.00  0.00    -0.149 NA
ATOM     19  N   LIG    1       25.610 -27.743   6.145  0.00  0.00    -0.149 NA
BRANCH  18  24
ATOM     20  C   LIG    1       26.294 -31.924   7.849  0.00  0.00    +0.102 A 
ATOM     21  C   LIG    1       26.260 -32.514   6.577  0.00  0.00    +0.131 A 
ATOM     22  C   LIG    1       25.858 -31.784   5.462  0.00  0.00    +0.048 A 
ATOM     23  C   LIG    1       25.495 -30.447   5.613  0.00  0.00    +0.033 A 
ATOM     24  C   LIG    1       25.540 -29.821   6.869  0.00  0.00    +0.087 A 
ATOM     25  C   LIG    1       25.926 -30.576   7.982  0.00  0.00    +0.048 A 
BRANCH  20  27
ATOM     26  O   LIG    1       27.327 -33.694   9.065  0.00  0.00    -0.245 OA
ATOM     27  C   LIG    1       26.702 -32.646   9.090  0.00  0.00    +0.340 C 
BRANCH  27  28
ATOM     28  O   LIG    1       26.330 -32.058  10.246  0.00  0.00    -0.477 OA
ATOM     29  H   LIG    1       25.747 -32.635  10.789  0.00  0.00    +0.295 HD
ENDBRANCH  27  28
ENDBRANCH  20  27
BRANCH  21  30
ATOM     30  O   LIG    1       26.628 -33.825   6.412  0.00  0.00    -0.506 OA
ATOM     31  H   LIG    1       26.554 -34.052   5.465  0.00  0.00    +0.292 HD
ENDBRANCH  21  30
ENDBRANCH  18  24
ENDBRANCH   1  19
TORSDOF 8
ENDMDL
MODEL 9
REMARK VINA RESULT:      -7.8      6.803      9.657
REMARK  Name = *****
REMARK                            x       y       z     vdW  Elec       q    Type
REMARK                         _______ _______ _______ _____ _____    ______ ____
ROOT
ATOM      1  C   LIG    1       24.558 -27.636   6.029  0.00  0.00    +0.086 A 
ATOM      2  C   LIG    1       23.959 -28.678   6.750  0.00  0.00    +0.031 A 
ATOM      3  C   LIG    1       24.301 -30.009   6.502  0.00  0.00    +0.031 A 
ATOM      4  C   LIG    1       25.237 -30.305   5.510  0.00  0.00    +0.109 A 
ATOM      5  C   LIG    1       25.819 -29.282   4.753  0.00  0.00    +0.031 A 
ATOM      6  C   LIG    1       25.483 -27.953   5.021  0.00  0.00    +0.031 A 
ENDROOT
BRANCH   4   7
ATOM      7  S   LIG    1       25.649 -31.998   5.148  0.00  0.00    +0.073 S 
ATOM      8  O   LIG    1       26.205 -31.993   3.817  0.00  0.00    -0.150 OA
ATOM      9  O   LIG    1       24.500 -32.827   5.472  0.00  0.00    -0.150 OA
BRANCH   7  10
ATOM     10  N   LIG    1       26.920 -32.326   6.222  0.00  0.00    -0.200 N 
ATOM     11  H   LIG    1       27.620 -31.588   6.176  0.00  0.00    +0.175 HD
BRANCH  10  12
ATOM     12  C   LIG    1       26.516 -32.476   7.566  0.00  0.00    +0.138 A 
ATOM     13  N   LIG    1       25.979 -33.668   7.874  0.00  0.00    -0.239 NA
ATOM     14  C   LIG    1       25.609 -33.825   9.169  0.00  0.00    +0.113 A 
ATOM     15  C   LIG    1       25.753 -32.847  10.146  0.00  0.00    +0.020 A 
ATOM     16  C   LIG    1       26.311 -31.629   9.779  0.00  0.00    +0.005 A 
ATOM     17  C   LIG    1       26.707 -31.437   8.462  0.00  0.00    +0.045 A 
ENDBRANCH  10  12
ENDBRANCH   7  10
ENDBRANCH   4   7
BRANCH   1  19
ATOM     18  N   LIG    1       25.119 -25.595   6.660  0.00  0.00    -0.149 NA
ATOM     19  N   LIG    1       24.160 -26.319   6.319  0.00  0.00    -0.149 NA
BRANCH  18  24
ATOM     20  C   LIG    1       25.250 -22.070   7.813  0.00  0.00    +0.102 A 
ATOM     21  C   LIG    1       23.986 -21.610   7.416  0.00  0.00    +0.131 A 
ATOM     22  C   LIG    1       23.095 -22.452   6.757  0.00  0.00    +0.048 A 
ATOM     23  C   LIG    1       23.462 -23.772   6.500  0.00  0.00    +0.033 A 
ATOM     24  C   LIG    1       24.711 -24.270   6.904  0.00  0.00    +0.087 A 
ATOM     25  C   LIG    1       25.602 -23.402   7.546  0.00  0.00    +0.048 A 
BRANCH  20  27
ATOM     26  O   LIG    1       25.958 -20.417   9.377  0.00  0.00    -0.245 OA
ATOM     27  C   LIG    1       26.261 -21.223   8.512  0.00  0.00    +0.340 C 
BRANCH  27  28
ATOM     28  O   LIG    1       27.539 -21.411   8.120  0.00  0.00    -0.477 OA
ATOM     29  H   LIG    1       28.138 -21.609   8.875  0.00  0.00    +0.295 HD
ENDBRANCH  27  28
ENDBRANCH  20  27
BRANCH  21  30
ATOM     30  O   LIG    1       23.607 -20.318   7.675  0.00  0.00    -0.506 OA
ATOM     31  H   LIG    1       23.670 -19.803   6.847  0.00  0.00    +0.292 HD
ENDBRANCH  21  30
ENDBRANCH  18  24
ENDBRANCH   1  19
TORSDOF 8
ENDMDL
