MODEL 1
REMARK VINA RESULT:      17.0      0.000      0.000
REMARK  Name = *****
REMARK                            x       y       z     vdW  Elec       q    Type
REMARK                         _______ _______ _______ _____ _____    ______ ____
ROOT
ATOM      1  N   LIG    1       28.547 -13.750   3.224  0.00  0.00    -0.299 NA
ATOM      2  C   LIG    1       27.494 -13.962   2.213  0.00  0.00    +0.103 C 
ATOM      3  C   LIG    1       26.829 -15.351   2.254  0.00  0.00    +0.120 C 
ATOM      4  N   LIG    1       26.356 -15.734   3.604  0.00  0.00    -0.327 NA
ATOM      5  C   LIG    1       27.374 -15.477   4.653  0.00  0.00    +0.120 C 
ATOM      6  C   LIG    1       27.981 -14.064   4.554  0.00  0.00    +0.103 C 
ENDROOT
BRANCH   4   7
ATOM      7  C   LIG    1       25.701 -16.989   3.685  0.00  0.00    +0.030 C 
ATOM      8  C   LIG    1       24.304 -17.079   3.874  0.00  0.00    +0.034 C 
ATOM      9  C   LIG    1       23.667 -18.329   3.993  0.00  0.00    +0.023 C 
ATOM     10  C   LIG    1       24.436 -19.474   3.886  0.00  0.00    +0.136 C 
ATOM     11  O   LIG    1       23.670 -20.582   4.047  0.00  0.00    -0.450 OA
ATOM     12  C   LIG    1       22.385 -20.154   4.263  0.00  0.00    +0.190 C 
ATOM     13  C   LIG    1       25.799 -19.469   3.647  0.00  0.00    +0.049 C 
ATOM     14  C   LIG    1       22.340 -18.773   4.219  0.00  0.00    +0.063 C 
ATOM     15  C   LIG    1       26.403 -18.208   3.540  0.00  0.00    +0.027 C 
BRANCH  12  16
ATOM     16  C   LIG    1       21.354 -21.132   4.494  0.00  0.00    +0.277 C 
ATOM     17  O   LIG    1       21.040 -21.572   5.595  0.00  0.00    -0.267 OA
ATOM     18  N   LIG    1       20.722 -21.570   3.364  0.00  0.00    -0.323 N 
ATOM     19  H   LIG    1       19.995 -22.264   3.449  0.00  0.00    +0.145 HD
ATOM     20  H   LIG    1       20.987 -21.211   2.457  0.00  0.00    +0.145 HD
ENDBRANCH  12  16
ENDBRANCH   4   7
BRANCH   1  21
ATOM     21  C   LIG    1       29.046 -12.363   3.216  0.00  0.00    +0.084 C 
BRANCH  21  22
ATOM     22  C   LIG    1       29.179 -11.762   4.623  0.00  0.00    +0.016 C 
BRANCH  22  23
ATOM     23  C   LIG    1       28.354 -12.484   5.693  0.00  0.00    +0.006 C 
BRANCH  23  24
ATOM     24  C   LIG    1       26.912 -11.984   5.818  0.00  0.00    +0.037 C 
BRANCH  24  33
ATOM     25  C   LIG    1       23.019 -14.408   4.752  0.00  0.00    +0.052 C 
ATOM     26  C   LIG    1       24.203 -13.823   5.229  0.00  0.00    +0.029 C 
ATOM     27  C   LIG    1       24.960 -12.992   4.379  0.00  0.00    +0.004 C 
ATOM     28  C   LIG    1       24.527 -12.818   3.063  0.00  0.00    +0.047 C 
ATOM     29  N   LIG    1       25.447 -12.007   2.440  0.00  0.00    -0.360 NA
ATOM     30  H   LIG    1       25.396 -11.720   1.473  0.00  0.00    +0.165 HD
ATOM     31  C   LIG    1       26.418 -11.627   3.326  0.00  0.00    +0.087 C 
ATOM     32  C   LIG    1       23.355 -13.396   2.565  0.00  0.00    +0.027 C 
ATOM     33  C   LIG    1       26.138 -12.196   4.552  0.00  0.00    -0.022 C 
ATOM     34  C   LIG    1       22.599 -14.187   3.437  0.00  0.00    +0.021 C 
BRANCH  25  36
ATOM     35  N   LIG    1       21.586 -15.866   6.351  0.00  0.00    -0.191 NA
ATOM     36  C   LIG    1       22.232 -15.218   5.631  0.00  0.00    +0.099 C 
ENDBRANCH  25  36
ENDBRANCH  24  33
ENDBRANCH  23  24
ENDBRANCH  22  23
ENDBRANCH  21  22
ENDBRANCH   1  21
TORSDOF 8
ENDMDL
MODEL 2
REMARK VINA RESULT:      19.5      2.012      4.206
REMARK  Name = *****
REMARK                            x       y       z     vdW  Elec       q    Type
REMARK                         _______ _______ _______ _____ _____    ______ ____
ROOT
ATOM      1  N   LIG    1       26.320 -12.251   4.888  0.00  0.00    -0.299 NA
ATOM      2  C   LIG    1       26.598 -13.457   5.691  0.00  0.00    +0.103 C 
ATOM      3  C   LIG    1       25.404 -14.418   5.848  0.00  0.00    +0.120 C 
ATOM      4  N   LIG    1       24.763 -14.771   4.561  0.00  0.00    -0.327 NA
ATOM      5  C   LIG    1       24.522 -13.583   3.705  0.00  0.00    +0.120 C 
ATOM      6  C   LIG    1       25.766 -12.681   3.585  0.00  0.00    +0.103 C 
ENDROOT
BRANCH   4   7
ATOM      7  C   LIG    1       23.681 -15.684   4.652  0.00  0.00    +0.030 C 
ATOM      8  C   LIG    1       23.752 -16.968   4.066  0.00  0.00    +0.034 C 
ATOM      9  C   LIG    1       22.659 -17.854   4.126  0.00  0.00    +0.023 C 
ATOM     10  C   LIG    1       21.522 -17.453   4.805  0.00  0.00    +0.136 C 
ATOM     11  O   LIG    1       20.565 -18.414   4.744  0.00  0.00    -0.450 OA
ATOM     12  C   LIG    1       21.086 -19.453   4.016  0.00  0.00    +0.190 C 
ATOM     13  C   LIG    1       21.396 -16.235   5.450  0.00  0.00    +0.049 C 
ATOM     14  C   LIG    1       22.379 -19.153   3.633  0.00  0.00    +0.063 C 
ATOM     15  C   LIG    1       22.500 -15.375   5.365  0.00  0.00    +0.027 C 
BRANCH  12  16
ATOM     16  C   LIG    1       20.265 -20.611   3.770  0.00  0.00    +0.277 C 
ATOM     17  O   LIG    1       19.543 -20.762   2.790  0.00  0.00    -0.267 OA
ATOM     18  N   LIG    1       20.333 -21.572   4.740  0.00  0.00    -0.323 N 
ATOM     19  H   LIG    1       19.777 -22.407   4.639  0.00  0.00    +0.145 HD
ATOM     20  H   LIG    1       20.924 -21.441   5.550  0.00  0.00    +0.145 HD
ENDBRANCH  12  16
ENDBRANCH   4   7
BRANCH   1  21
ATOM     21  C   LIG    1       27.535 -11.447   4.665  0.00  0.00    +0.084 C 
BRANCH  21  22
ATOM     22  C   LIG    1       28.258 -11.796   3.357  0.00  0.00    +0.016 C 
BRANCH  22  23
ATOM     23  C   LIG    1       29.338 -12.873   3.506  0.00  0.00    +0.006 C 
BRANCH  23  24
ATOM     24  C   LIG    1       28.976 -13.995   4.483  0.00  0.00    +0.037 C 
BRANCH  24  33
ATOM     25  C   LIG    1       28.228 -18.575   5.273  0.00  0.00    +0.052 C 
ATOM     26  C   LIG    1       28.641 -17.242   5.124  0.00  0.00    +0.029 C 
ATOM     27  C   LIG    1       27.990 -16.411   4.190  0.00  0.00    +0.004 C 
ATOM     28  C   LIG    1       26.979 -16.964   3.401  0.00  0.00    +0.047 C 
ATOM     29  N   LIG    1       26.539 -15.972   2.556  0.00  0.00    -0.360 NA
ATOM     30  H   LIG    1       25.816 -16.090   1.861  0.00  0.00    +0.165 HD
ATOM     31  C   LIG    1       27.202 -14.804   2.814  0.00  0.00    +0.087 C 
ATOM     32  C   LIG    1       26.556 -18.292   3.527  0.00  0.00    +0.027 C 
ATOM     33  C   LIG    1       28.096 -15.026   3.843  0.00  0.00    -0.022 C 
ATOM     34  C   LIG    1       27.191 -19.087   4.487  0.00  0.00    +0.021 C 
BRANCH  25  36
ATOM     35  N   LIG    1       29.372 -20.073   7.057  0.00  0.00    -0.191 NA
ATOM     36  C   LIG    1       28.863 -19.403   6.252  0.00  0.00    +0.099 C 
ENDBRANCH  25  36
ENDBRANCH  24  33
ENDBRANCH  23  24
ENDBRANCH  22  23
ENDBRANCH  21  22
ENDBRANCH   1  21
TORSDOF 8
ENDMDL
