MODEL 1
REMARK VINA RESULT:      -5.6      0.000      0.000
REMARK  Name = *****
REMARK                            x       y       z     vdW  Elec       q    Type
REMARK                         _______ _______ _______ _____ _____    ______ ____
ROOT
ATOM      1  C   LIG    1       23.179 -21.458   6.983  0.00  0.00    +0.048 C 
ATOM      2  C   LIG    1       23.361 -20.511   5.831  0.00  0.00    -0.009 A 
ATOM      3  C   LIG    1       24.560 -20.334   5.105  0.00  0.00    +0.126 A 
ATOM      4  C   LIG    1       24.606 -19.364   4.076  0.00  0.00    -0.009 A 
ATOM      5  C   LIG    1       25.855 -19.132   3.270  0.00  0.00    +0.048 C 
ATOM      6  C   LIG    1       23.464 -18.608   3.764  0.00  0.00    +0.007 A 
ATOM      7  C   LIG    1       22.280 -18.795   4.470  0.00  0.00    +0.001 A 
ATOM      8  C   LIG    1       22.233 -19.738   5.484  0.00  0.00    +0.007 A 
ENDROOT
BRANCH   3   9
ATOM      9  O   LIG    1       25.761 -20.952   5.359  0.00  0.00    -0.490 OA
BRANCH   9  10
ATOM     10  C   LIG    1       26.583 -20.439   6.409  0.00  0.00    +0.247 C 
BRANCH  10  11
ATOM     11  C   LIG    1       28.066 -20.406   5.973  0.00  0.00    +0.085 C 
ATOM     12  C   LIG    1       28.566 -18.973   5.774  0.00  0.00    +0.027 C 
BRANCH  11  13
ATOM     13  N   LIG    1       28.912 -21.073   6.977  0.00  0.00    -0.325 NA
ATOM     14  H   LIG    1       29.272 -20.378   7.631  0.00  0.00    +0.119 HD
ATOM     15  H   LIG    1       28.340 -21.705   7.540  0.00  0.00    +0.119 HD
ENDBRANCH  11  13
ENDBRANCH  10  11
ENDBRANCH   9  10
ENDBRANCH   3   9
TORSDOF 4
ENDMDL
MODEL 2
REMARK VINA RESULT:      -5.4      0.920      2.613
REMARK  Name = *****
REMARK                            x       y       z     vdW  Elec       q    Type
REMARK                         _______ _______ _______ _____ _____    ______ ____
ROOT
ATOM      1  C   LIG    1       25.697 -18.163   3.259  0.00  0.00    +0.048 C 
ATOM      2  C   LIG    1       24.591 -18.809   4.044  0.00  0.00    -0.009 A 
ATOM      3  C   LIG    1       24.754 -19.881   4.950  0.00  0.00    +0.126 A 
ATOM      4  C   LIG    1       23.613 -20.430   5.580  0.00  0.00    -0.009 A 
ATOM      5  C   LIG    1       23.726 -21.572   6.554  0.00  0.00    +0.048 C 
ATOM      6  C   LIG    1       22.338 -19.897   5.328  0.00  0.00    +0.007 A 
ATOM      7  C   LIG    1       22.182 -18.831   4.448  0.00  0.00    +0.001 A 
ATOM      8  C   LIG    1       23.296 -18.295   3.822  0.00  0.00    +0.007 A 
ENDROOT
BRANCH   3   9
ATOM      9  O   LIG    1       25.929 -20.539   5.225  0.00  0.00    -0.490 OA
BRANCH   9  10
ATOM     10  C   LIG    1       26.442 -20.487   6.558  0.00  0.00    +0.247 C 
BRANCH  10  11
ATOM     11  C   LIG    1       27.924 -20.048   6.553  0.00  0.00    +0.085 C 
ATOM     12  C   LIG    1       28.850 -21.176   7.016  0.00  0.00    +0.027 C 
BRANCH  11  13
ATOM     13  N   LIG    1       28.330 -19.620   5.203  0.00  0.00    -0.325 NA
ATOM     14  H   LIG    1       27.511 -19.598   4.595  0.00  0.00    +0.119 HD
ATOM     15  H   LIG    1       28.668 -18.657   5.237  0.00  0.00    +0.119 HD
ENDBRANCH  11  13
ENDBRANCH  10  11
ENDBRANCH   9  10
ENDBRANCH   3   9
TORSDOF 4
ENDMDL
MODEL 3
REMARK VINA RESULT:      -4.6      2.144      3.449
REMARK  Name = *****
REMARK                            x       y       z     vdW  Elec       q    Type
REMARK                         _______ _______ _______ _____ _____    ______ ____
ROOT
ATOM      1  C   LIG    1       22.291 -19.141   4.100  0.00  0.00    +0.048 C 
ATOM      2  C   LIG    1       23.328 -19.762   4.992  0.00  0.00    -0.009 A 
ATOM      3  C   LIG    1       24.725 -19.675   4.798  0.00  0.00    +0.126 A 
ATOM      4  C   LIG    1       25.588 -20.358   5.687  0.00  0.00    -0.009 A 
ATOM      5  C   LIG    1       27.084 -20.301   5.530  0.00  0.00    +0.048 C 
ATOM      6  C   LIG    1       25.061 -21.090   6.764  0.00  0.00    +0.007 A 
ATOM      7  C   LIG    1       23.685 -21.161   6.962  0.00  0.00    +0.001 A 
ATOM      8  C   LIG    1       22.837 -20.500   6.089  0.00  0.00    +0.007 A 
ENDROOT
BRANCH   3   9
ATOM      9  O   LIG    1       25.362 -19.059   3.748  0.00  0.00    -0.490 OA
BRANCH   9  10
ATOM     10  C   LIG    1       25.148 -17.660   3.548  0.00  0.00    +0.247 C 
BRANCH  10  11
ATOM     11  C   LIG    1       26.475 -16.954   3.183  0.00  0.00    +0.085 C 
ATOM     12  C   LIG    1       26.384 -15.439   3.388  0.00  0.00    +0.027 C 
BRANCH  11  13
ATOM     13  N   LIG    1       27.580 -17.482   4.001  0.00  0.00    -0.325 NA
ATOM     14  H   LIG    1       27.201 -17.922   4.839  0.00  0.00    +0.119 HD
ATOM     15  H   LIG    1       28.054 -18.230   3.492  0.00  0.00    +0.119 HD
ENDBRANCH  11  13
ENDBRANCH  10  11
ENDBRANCH   9  10
ENDBRANCH   3   9
TORSDOF 4
ENDMDL
MODEL 4
REMARK VINA RESULT:      -4.5      2.095      3.490
REMARK  Name = *****
REMARK                            x       y       z     vdW  Elec       q    Type
REMARK                         _______ _______ _______ _____ _____    ______ ____
ROOT
ATOM      1  C   LIG    1       27.101 -20.412   5.977  0.00  0.00    +0.048 C 
ATOM      2  C   LIG    1       25.601 -20.394   5.896  0.00  0.00    -0.009 A 
ATOM      3  C   LIG    1       24.850 -19.838   4.836  0.00  0.00    +0.126 A 
ATOM      4  C   LIG    1       23.438 -19.839   4.918  0.00  0.00    -0.009 A 
ATOM      5  C   LIG    1       22.587 -19.262   3.818  0.00  0.00    +0.048 C 
ATOM      6  C   LIG    1       22.792 -20.410   6.027  0.00  0.00    +0.007 A 
ATOM      7  C   LIG    1       23.534 -20.971   7.062  0.00  0.00    +0.001 A 
ATOM      8  C   LIG    1       24.918 -20.965   6.990  0.00  0.00    +0.007 A 
ENDROOT
BRANCH   3   9
ATOM      9  O   LIG    1       25.357 -19.185   3.738  0.00  0.00    -0.490 OA
BRANCH   9  10
ATOM     10  C   LIG    1       25.152 -17.775   3.630  0.00  0.00    +0.247 C 
BRANCH  10  11
ATOM     11  C   LIG    1       26.465 -17.064   3.228  0.00  0.00    +0.085 C 
ATOM     12  C   LIG    1       26.349 -15.543   3.363  0.00  0.00    +0.027 C 
BRANCH  11  13
ATOM     13  N   LIG    1       27.582 -17.534   4.066  0.00  0.00    -0.325 NA
ATOM     14  H   LIG    1       27.214 -17.904   4.943  0.00  0.00    +0.119 HD
ATOM     15  H   LIG    1       28.042 -18.324   3.611  0.00  0.00    +0.119 HD
ENDBRANCH  11  13
ENDBRANCH  10  11
ENDBRANCH   9  10
ENDBRANCH   3   9
TORSDOF 4
ENDMDL
MODEL 5
REMARK VINA RESULT:      -4.3      1.983      4.812
REMARK  Name = *****
REMARK                            x       y       z     vdW  Elec       q    Type
REMARK                         _______ _______ _______ _____ _____    ______ ____
ROOT
ATOM      1  C   LIG    1       25.543 -18.620   3.491  0.00  0.00    +0.048 C 
ATOM      2  C   LIG    1       26.666 -18.983   4.421  0.00  0.00    -0.009 A 
ATOM      3  C   LIG    1       26.687 -20.113   5.269  0.00  0.00    +0.126 A 
ATOM      4  C   LIG    1       27.788 -20.302   6.137  0.00  0.00    -0.009 A 
ATOM      5  C   LIG    1       27.866 -21.487   7.062  0.00  0.00    +0.048 C 
ATOM      6  C   LIG    1       28.858 -19.391   6.134  0.00  0.00    +0.007 A 
ATOM      7  C   LIG    1       28.842 -18.288   5.286  0.00  0.00    +0.001 A 
ATOM      8  C   LIG    1       27.761 -18.095   4.441  0.00  0.00    +0.007 A 
ENDROOT
BRANCH   3   9
ATOM      9  O   LIG    1       25.677 -21.032   5.423  0.00  0.00    -0.490 OA
BRANCH   9  10
ATOM     10  C   LIG    1       24.561 -20.686   6.245  0.00  0.00    +0.247 C 
BRANCH  10  11
ATOM     11  C   LIG    1       23.235 -20.884   5.475  0.00  0.00    +0.085 C 
ATOM     12  C   LIG    1       22.535 -19.550   5.200  0.00  0.00    +0.027 C 
BRANCH  11  13
ATOM     13  N   LIG    1       23.482 -21.566   4.193  0.00  0.00    -0.325 NA
ATOM     14  H   LIG    1       23.858 -20.898   3.521  0.00  0.00    +0.119 HD
ATOM     15  H   LIG    1       24.213 -22.268   4.316  0.00  0.00    +0.119 HD
ENDBRANCH  11  13
ENDBRANCH  10  11
ENDBRANCH   9  10
ENDBRANCH   3   9
TORSDOF 4
ENDMDL
MODEL 6
REMARK VINA RESULT:      -4.0      5.881      6.849
REMARK  Name = *****
REMARK                            x       y       z     vdW  Elec       q    Type
REMARK                         _______ _______ _______ _____ _____    ______ ____
ROOT
ATOM      1  C   LIG    1       26.872 -16.408   3.623  0.00  0.00    +0.048 C 
ATOM      2  C   LIG    1       25.835 -15.330   3.482  0.00  0.00    -0.009 A 
ATOM      3  C   LIG    1       26.071 -14.036   2.967  0.00  0.00    +0.126 A 
ATOM      4  C   LIG    1       25.011 -13.099   2.944  0.00  0.00    -0.009 A 
ATOM      5  C   LIG    1       25.204 -11.706   2.406  0.00  0.00    +0.048 C 
ATOM      6  C   LIG    1       23.734 -13.463   3.402  0.00  0.00    +0.007 A 
ATOM      7  C   LIG    1       23.500 -14.743   3.893  0.00  0.00    +0.001 A 
ATOM      8  C   LIG    1       24.538 -15.661   3.926  0.00  0.00    +0.007 A 
ENDROOT
BRANCH   3   9
ATOM      9  O   LIG    1       27.284 -13.533   2.560  0.00  0.00    -0.490 OA
BRANCH   9  10
ATOM     10  C   LIG    1       28.349 -13.471   3.511  0.00  0.00    +0.247 C 
BRANCH  10  11
ATOM     11  C   LIG    1       27.950 -12.592   4.719  0.00  0.00    +0.085 C 
ATOM     12  C   LIG    1       27.350 -13.427   5.853  0.00  0.00    +0.027 C 
BRANCH  11  13
ATOM     13  N   LIG    1       29.120 -11.860   5.231  0.00  0.00    -0.325 NA
ATOM     14  H   LIG    1       28.870 -10.883   5.381  0.00  0.00    +0.119 HD
ATOM     15  H   LIG    1       29.371 -12.220   6.154  0.00  0.00    +0.119 HD
ENDBRANCH  11  13
ENDBRANCH  10  11
ENDBRANCH   9  10
ENDBRANCH   3   9
TORSDOF 4
ENDMDL
MODEL 7
REMARK VINA RESULT:      -3.8      4.427      5.650
REMARK  Name = *****
REMARK                            x       y       z     vdW  Elec       q    Type
REMARK                         _______ _______ _______ _____ _____    ______ ____
ROOT
ATOM      1  C   LIG    1       23.021 -15.526   4.649  0.00  0.00    +0.048 C 
ATOM      2  C   LIG    1       23.976 -14.625   3.920  0.00  0.00    -0.009 A 
ATOM      3  C   LIG    1       25.307 -14.956   3.579  0.00  0.00    +0.126 A 
ATOM      4  C   LIG    1       26.116 -13.986   2.940  0.00  0.00    -0.009 A 
ATOM      5  C   LIG    1       27.540 -14.282   2.553  0.00  0.00    +0.048 C 
ATOM      6  C   LIG    1       25.591 -12.722   2.625  0.00  0.00    +0.007 A 
ATOM      7  C   LIG    1       24.276 -12.404   2.948  0.00  0.00    +0.001 A 
ATOM      8  C   LIG    1       23.483 -13.348   3.581  0.00  0.00    +0.007 A 
ENDROOT
BRANCH   3   9
ATOM      9  O   LIG    1       25.960 -16.122   3.896  0.00  0.00    -0.490 OA
BRANCH   9  10
ATOM     10  C   LIG    1       25.706 -17.283   3.101  0.00  0.00    +0.247 C 
BRANCH  10  11
ATOM     11  C   LIG    1       25.169 -18.437   3.980  0.00  0.00    +0.085 C 
ATOM     12  C   LIG    1       23.778 -18.891   3.529  0.00  0.00    +0.027 C 
BRANCH  11  13
ATOM     13  N   LIG    1       26.086 -19.588   3.933  0.00  0.00    -0.325 NA
ATOM     14  H   LIG    1       27.002 -19.278   3.607  0.00  0.00    +0.119 HD
ATOM     15  H   LIG    1       26.240 -19.941   4.879  0.00  0.00    +0.119 HD
ENDBRANCH  11  13
ENDBRANCH  10  11
ENDBRANCH   9  10
ENDBRANCH   3   9
TORSDOF 4
ENDMDL
MODEL 8
REMARK VINA RESULT:      -3.7      4.061      5.007
REMARK  Name = *****
REMARK                            x       y       z     vdW  Elec       q    Type
REMARK                         _______ _______ _______ _____ _____    ______ ____
ROOT
ATOM      1  C   LIG    1       23.802 -14.367   4.059  0.00  0.00    +0.048 C 
ATOM      2  C   LIG    1       23.707 -15.865   4.102  0.00  0.00    -0.009 A 
ATOM      3  C   LIG    1       24.706 -16.757   3.651  0.00  0.00    +0.126 A 
ATOM      4  C   LIG    1       24.459 -18.150   3.700  0.00  0.00    -0.009 A 
ATOM      5  C   LIG    1       25.485 -19.147   3.234  0.00  0.00    +0.048 C 
ATOM      6  C   LIG    1       23.246 -18.637   4.216  0.00  0.00    +0.007 A 
ATOM      7  C   LIG    1       22.271 -17.757   4.674  0.00  0.00    +0.001 A 
ATOM      8  C   LIG    1       22.506 -16.392   4.620  0.00  0.00    +0.007 A 
ENDROOT
BRANCH   3   9
ATOM      9  O   LIG    1       25.896 -16.411   3.058  0.00  0.00    -0.490 OA
BRANCH   9  10
ATOM     10  C   LIG    1       26.861 -15.698   3.835  0.00  0.00    +0.247 C 
BRANCH  10  11
ATOM     11  C   LIG    1       26.984 -14.237   3.343  0.00  0.00    +0.085 C 
ATOM     12  C   LIG    1       28.320 -13.613   3.753  0.00  0.00    +0.027 C 
BRANCH  11  13
ATOM     13  N   LIG    1       26.858 -14.176   1.877  0.00  0.00    -0.325 NA
ATOM     14  H   LIG    1       26.167 -13.469   1.626  0.00  0.00    +0.119 HD
ATOM     15  H   LIG    1       27.738 -13.851   1.472  0.00  0.00    +0.119 HD
ENDBRANCH  11  13
ENDBRANCH  10  11
ENDBRANCH   9  10
ENDBRANCH   3   9
TORSDOF 4
ENDMDL
MODEL 9
REMARK VINA RESULT:      -3.7      1.889      2.595
REMARK  Name = *****
REMARK                            x       y       z     vdW  Elec       q    Type
REMARK                         _______ _______ _______ _____ _____    ______ ____
ROOT
ATOM      1  C   LIG    1       21.501 -20.332   4.411  0.00  0.00    +0.048 C 
ATOM      2  C   LIG    1       22.435 -19.172   4.208  0.00  0.00    -0.009 A 
ATOM      3  C   LIG    1       23.774 -19.274   3.770  0.00  0.00    +0.126 A 
ATOM      4  C   LIG    1       24.559 -18.101   3.676  0.00  0.00    -0.009 A 
ATOM      5  C   LIG    1       25.991 -18.148   3.215  0.00  0.00    +0.048 C 
ATOM      6  C   LIG    1       24.003 -16.849   3.988  0.00  0.00    +0.007 A 
ATOM      7  C   LIG    1       22.679 -16.750   4.404  0.00  0.00    +0.001 A 
ATOM      8  C   LIG    1       21.910 -17.898   4.505  0.00  0.00    +0.007 A 
ENDROOT
BRANCH   3   9
ATOM      9  O   LIG    1       24.456 -20.438   3.508  0.00  0.00    -0.490 OA
BRANCH   9  10
ATOM     10  C   LIG    1       24.635 -21.377   4.570  0.00  0.00    +0.247 C 
BRANCH  10  11
ATOM     11  C   LIG    1       25.121 -20.662   5.852  0.00  0.00    +0.085 C 
ATOM     12  C   LIG    1       24.251 -21.015   7.061  0.00  0.00    +0.027 C 
BRANCH  11  13
ATOM     13  N   LIG    1       26.518 -21.026   6.145  0.00  0.00    -0.325 NA
ATOM     14  H   LIG    1       26.928 -21.478   5.328  0.00  0.00    +0.119 HD
ATOM     15  H   LIG    1       27.068 -20.178   6.291  0.00  0.00    +0.119 HD
ENDBRANCH  11  13
ENDBRANCH  10  11
ENDBRANCH   9  10
ENDBRANCH   3   9
TORSDOF 4
ENDMDL
