MODEL 1
REMARK VINA RESULT:      -4.2      0.000      0.000
REMARK  Name = *****
REMARK                            x       y       z     vdW  Elec       q    Type
REMARK                         _______ _______ _______ _____ _____    ______ ____
ROOT
ATOM      1  C   LIG    1       25.267 -20.999   4.639  0.00  0.00    +0.161 C 
ATOM      2  C   LIG    1       24.132 -20.867   5.696  0.00  0.00    +0.270 C 
ATOM      3  O   LIG    1       23.718 -19.503   5.794  0.00  0.00    -0.341 OA
ATOM      4  C   LIG    1       23.091 -19.005   4.597  0.00  0.00    +0.178 C 
ATOM      5  C   LIG    1       24.004 -19.181   3.364  0.00  0.00    +0.176 C 
ATOM      6  C   LIG    1       24.654 -20.578   3.278  0.00  0.00    +0.170 C 
ENDROOT
BRANCH   1  10
ATOM      7  C   LIG    1       29.475 -19.953   7.062  0.00  0.00    +0.166 C 
ATOM      8  N   LIG    1       28.521 -19.697   5.993  0.00  0.00    -0.144 N 
ATOM      9  C   LIG    1       27.395 -20.509   5.895  0.00  0.00    +0.324 C 
ATOM     10  N   LIG    1       26.475 -20.184   4.926  0.00  0.00    -0.288 N 
ATOM     11  H   LIG    1       26.779 -19.548   4.199  0.00  0.00    +0.151 HD
ATOM     12  O   LIG    1       27.199 -21.467   6.637  0.00  0.00    -0.251 OA
BRANCH   8  13
ATOM     13  N   LIG    1       28.641 -18.550   5.202  0.00  0.00    +0.052 NA
ATOM     14  O   LIG    1       29.407 -17.698   5.661  0.00  0.00    -0.126 OA
ENDBRANCH   8  13
ENDBRANCH   1  10
BRANCH   2  15
ATOM     15  O   LIG    1       24.437 -21.349   6.991  0.00  0.00    -0.365 OA
ATOM     16  H   LIG    1       25.273 -20.932   7.278  0.00  0.00    +0.212 HD
ENDBRANCH   2  15
BRANCH   5  17
ATOM     17  O   LIG    1       25.060 -18.205   3.406  0.00  0.00    -0.387 OA
ATOM     18  H   LIG    1       25.584 -18.379   4.214  0.00  0.00    +0.210 HD
ENDBRANCH   5  17
BRANCH   6  19
ATOM     19  O   LIG    1       23.694 -21.548   2.852  0.00  0.00    -0.387 OA
ATOM     20  H   LIG    1       22.995 -21.595   3.531  0.00  0.00    +0.210 HD
ENDBRANCH   6  19
BRANCH   4  21
ATOM     21  C   LIG    1       21.686 -19.599   4.418  0.00  0.00    +0.190 C 
BRANCH  21  22
ATOM     22  O   LIG    1       20.802 -18.610   3.892  0.00  0.00    -0.392 OA
ATOM     23  H   LIG    1       21.330 -18.066   3.273  0.00  0.00    +0.209 HD
ENDBRANCH  21  22
ENDBRANCH   4  21
TORSDOF 7
ENDMDL
MODEL 2
REMARK VINA RESULT:      -2.6      2.914      3.669
REMARK  Name = *****
REMARK                            x       y       z     vdW  Elec       q    Type
REMARK                         _______ _______ _______ _____ _____    ______ ____
ROOT
ATOM      1  C   LIG    1       25.008 -18.982   3.337  0.00  0.00    +0.161 C 
ATOM      2  C   LIG    1       25.374 -19.810   4.604  0.00  0.00    +0.270 C 
ATOM      3  O   LIG    1       24.556 -19.403   5.702  0.00  0.00    -0.341 OA
ATOM      4  C   LIG    1       23.160 -19.708   5.520  0.00  0.00    +0.178 C 
ATOM      5  C   LIG    1       22.611 -19.098   4.213  0.00  0.00    +0.176 C 
ATOM      6  C   LIG    1       23.535 -19.325   2.997  0.00  0.00    +0.170 C 
ENDROOT
BRANCH   1  10
ATOM      7  C   LIG    1       27.644 -14.791   3.730  0.00  0.00    +0.166 C 
ATOM      8  N   LIG    1       26.377 -15.492   3.598  0.00  0.00    -0.144 N 
ATOM      9  C   LIG    1       26.386 -16.882   3.533  0.00  0.00    +0.324 C 
ATOM     10  N   LIG    1       25.165 -17.514   3.494  0.00  0.00    -0.288 N 
ATOM     11  H   LIG    1       24.361 -16.943   3.267  0.00  0.00    +0.151 HD
ATOM     12  O   LIG    1       27.423 -17.540   3.526  0.00  0.00    -0.251 OA
BRANCH   8  13
ATOM     13  N   LIG    1       25.170 -14.796   3.722  0.00  0.00    +0.052 NA
ATOM     14  O   LIG    1       25.263 -13.730   4.337  0.00  0.00    -0.126 OA
ENDBRANCH   8  13
ENDBRANCH   1  10
BRANCH   2  15
ATOM     15  O   LIG    1       26.732 -19.760   5.000  0.00  0.00    -0.365 OA
ATOM     16  H   LIG    1       27.160 -19.026   4.517  0.00  0.00    +0.212 HD
ENDBRANCH   2  15
BRANCH   5  17
ATOM     17  O   LIG    1       22.442 -17.679   4.379  0.00  0.00    -0.387 OA
ATOM     18  H   LIG    1       22.765 -17.451   5.274  0.00  0.00    +0.210 HD
ENDBRANCH   5  17
BRANCH   6  19
ATOM     19  O   LIG    1       23.438 -20.678   2.545  0.00  0.00    -0.387 OA
ATOM     20  H   LIG    1       23.701 -20.699   1.607  0.00  0.00    +0.210 HD
ENDBRANCH   6  19
BRANCH   4  21
ATOM     21  C   LIG    1       22.898 -21.215   5.660  0.00  0.00    +0.190 C 
BRANCH  21  22
ATOM     22  O   LIG    1       21.702 -21.568   4.967  0.00  0.00    -0.392 OA
ATOM     23  H   LIG    1       21.607 -22.538   5.054  0.00  0.00    +0.209 HD
ENDBRANCH  21  22
ENDBRANCH   4  21
TORSDOF 7
ENDMDL
MODEL 3
REMARK VINA RESULT:      -2.4      5.084      7.253
REMARK  Name = *****
REMARK                            x       y       z     vdW  Elec       q    Type
REMARK                         _______ _______ _______ _____ _____    ______ ____
ROOT
ATOM      1  C   LIG    1       25.141 -14.104   3.326  0.00  0.00    +0.161 C 
ATOM      2  C   LIG    1       25.258 -13.239   4.615  0.00  0.00    +0.270 C 
ATOM      3  O   LIG    1       26.293 -13.756   5.454  0.00  0.00    -0.341 OA
ATOM      4  C   LIG    1       27.608 -13.641   4.879  0.00  0.00    +0.178 C 
ATOM      5  C   LIG    1       27.682 -14.314   3.492  0.00  0.00    +0.176 C 
ATOM      6  C   LIG    1       26.491 -13.961   2.576  0.00  0.00    +0.170 C 
ENDROOT
BRANCH   1  10
ATOM      7  C   LIG    1       22.226 -17.896   4.665  0.00  0.00    +0.166 C 
ATOM      8  N   LIG    1       23.469 -17.374   4.117  0.00  0.00    -0.144 N 
ATOM      9  C   LIG    1       23.627 -15.996   4.014  0.00  0.00    +0.324 C 
ATOM     10  N   LIG    1       24.846 -15.539   3.571  0.00  0.00    -0.288 N 
ATOM     11  H   LIG    1       25.452 -16.212   3.119  0.00  0.00    +0.151 HD
ATOM     12  O   LIG    1       22.740 -15.201   4.313  0.00  0.00    -0.251 OA
BRANCH   8  13
ATOM     13  N   LIG    1       24.547 -18.232   3.875  0.00  0.00    +0.052 NA
ATOM     14  O   LIG    1       24.222 -19.403   3.658  0.00  0.00    -0.126 OA
ENDBRANCH   8  13
ENDBRANCH   1  10
BRANCH   2  15
ATOM     15  O   LIG    1       24.072 -13.107   5.377  0.00  0.00    -0.365 OA
ATOM     16  H   LIG    1       24.317 -12.752   6.254  0.00  0.00    +0.212 HD
ENDBRANCH   2  15
BRANCH   5  17
ATOM     17  O   LIG    1       27.706 -15.744   3.653  0.00  0.00    -0.387 OA
ATOM     18  H   LIG    1       27.584 -16.138   2.765  0.00  0.00    +0.210 HD
ENDBRANCH   5  17
BRANCH   6  19
ATOM     19  O   LIG    1       26.631 -12.632   2.069  0.00  0.00    -0.387 OA
ATOM     20  H   LIG    1       25.904 -12.475   1.438  0.00  0.00    +0.210 HD
ENDBRANCH   6  19
BRANCH   4  21
ATOM     21  C   LIG    1       28.092 -12.183   4.888  0.00  0.00    +0.190 C 
BRANCH  21  22
ATOM     22  O   LIG    1       29.097 -12.009   5.885  0.00  0.00    -0.392 OA
ATOM     23  H   LIG    1       28.733 -11.380   6.540  0.00  0.00    +0.209 HD
ENDBRANCH  21  22
ENDBRANCH   4  21
TORSDOF 7
ENDMDL
MODEL 4
REMARK VINA RESULT:      -1.8      4.134      5.680
REMARK  Name = *****
REMARK                            x       y       z     vdW  Elec       q    Type
REMARK                         _______ _______ _______ _____ _____    ______ ____
ROOT
ATOM      1  C   LIG    1       25.414 -15.787   3.038  0.00  0.00    +0.161 C 
ATOM      2  C   LIG    1       24.530 -14.934   3.994  0.00  0.00    +0.270 C 
ATOM      3  O   LIG    1       25.262 -14.621   5.180  0.00  0.00    -0.341 OA
ATOM      4  C   LIG    1       26.392 -13.759   4.947  0.00  0.00    +0.178 C 
ATOM      5  C   LIG    1       27.349 -14.353   3.891  0.00  0.00    +0.176 C 
ATOM      6  C   LIG    1       26.622 -14.897   2.643  0.00  0.00    +0.170 C 
ENDROOT
BRANCH   1  10
ATOM      7  C   LIG    1       24.934 -20.552   4.353  0.00  0.00    +0.166 C 
ATOM      8  N   LIG    1       25.737 -19.351   4.181  0.00  0.00    -0.144 N 
ATOM      9  C   LIG    1       25.125 -18.204   3.687  0.00  0.00    +0.324 C 
ATOM     10  N   LIG    1       25.895 -17.066   3.619  0.00  0.00    -0.288 N 
ATOM     11  H   LIG    1       26.898 -17.186   3.690  0.00  0.00    +0.151 HD
ATOM     12  O   LIG    1       23.948 -18.175   3.338  0.00  0.00    -0.251 OA
BRANCH   8  13
ATOM     13  N   LIG    1       27.045 -19.302   4.675  0.00  0.00    +0.052 NA
ATOM     14  O   LIG    1       27.252 -20.055   5.631  0.00  0.00    -0.126 OA
ENDBRANCH   8  13
ENDBRANCH   1  10
BRANCH   2  15
ATOM     15  O   LIG    1       23.288 -15.507   4.358  0.00  0.00    -0.365 OA
ATOM     16  H   LIG    1       23.197 -15.436   5.328  0.00  0.00    +0.212 HD
ENDBRANCH   2  15
BRANCH   5  17
ATOM     17  O   LIG    1       28.095 -15.436   4.474  0.00  0.00    -0.387 OA
ATOM     18  H   LIG    1       27.540 -16.239   4.407  0.00  0.00    +0.210 HD
ENDBRANCH   5  17
BRANCH   6  19
ATOM     19  O   LIG    1       26.185 -13.819   1.813  0.00  0.00    -0.387 OA
ATOM     20  H   LIG    1       26.484 -14.002   0.903  0.00  0.00    +0.210 HD
ENDBRANCH   6  19
BRANCH   4  21
ATOM     21  C   LIG    1       25.941 -12.324   4.639  0.00  0.00    +0.190 C 
BRANCH  21  22
ATOM     22  O   LIG    1       24.969 -11.903   5.595  0.00  0.00    -0.392 OA
ATOM     23  H   LIG    1       25.315 -12.156   6.474  0.00  0.00    +0.209 HD
ENDBRANCH  21  22
ENDBRANCH   4  21
TORSDOF 7
ENDMDL
