MODEL 1
REMARK VINA RESULT:      -8.3      0.000      0.000
REMARK  Name = *****
REMARK                            x       y       z     vdW  Elec       q    Type
REMARK                         _______ _______ _______ _____ _____    ______ ____
ROOT
ATOM      1  C   LIG    1       24.940 -31.520   6.568  0.00  0.00    +0.124 A 
ATOM      2  C   LIG    1       24.510 -30.768   7.688  0.00  0.00    +0.001 A 
ATOM      3  C   LIG    1       24.598 -29.351   7.573  0.00  0.00    +0.016 A 
ATOM      4  C   LIG    1       25.078 -28.675   6.429  0.00  0.00    -0.017 A 
ATOM      5  C   LIG    1       25.487 -29.471   5.359  0.00  0.00    +0.012 A 
ATOM      6  C   LIG    1       25.425 -30.862   5.427  0.00  0.00    +0.046 A 
ENDROOT
BRANCH   2   7
ATOM      7  C   LIG    1       23.974 -31.416   9.003  0.00  0.00    -0.000 C 
ATOM      8  C   LIG    1       22.929 -32.557   8.736  0.00  0.00    +0.015 C 
ATOM      9  C   LIG    1       22.401 -33.195  10.028  0.00  0.00    -0.010 C 
ATOM     10  C   LIG    1       21.715 -32.113  10.870  0.00  0.00    +0.007 C 
ATOM     11  C   LIG    1       22.723 -31.007  11.208  0.00  0.00    -0.010 C 
ATOM     12  C   LIG    1       23.893 -31.624  11.993  0.00  0.00    +0.007 C 
ATOM     13  C   LIG    1       24.591 -32.697  11.140  0.00  0.00    -0.010 C 
ATOM     14  C   LIG    1       23.580 -33.799  10.800  0.00  0.00    +0.007 C 
ATOM     15  C   LIG    1       23.256 -30.367   9.906  0.00  0.00    +0.015 C 
ATOM     16  C   LIG    1       25.124 -32.059   9.839  0.00  0.00    +0.015 C 
ENDBRANCH   2   7
BRANCH   4  17
ATOM     17  C   LIG    1       25.148 -27.191   6.356  0.00  0.00    -0.017 A 
ATOM     18  C   LIG    1       24.000 -26.390   6.529  0.00  0.00    +0.017 A 
ATOM     19  C   LIG    1       24.044 -24.982   6.473  0.00  0.00    -0.017 A 
ATOM     20  C   LIG    1       25.278 -24.343   6.234  0.00  0.00    -0.017 A 
ATOM     21  C   LIG    1       25.336 -22.941   6.176  0.00  0.00    +0.023 A 
ATOM     22  C   LIG    1       24.184 -22.173   6.373  0.00  0.00    +0.059 A 
ATOM     23  C   LIG    1       22.955 -22.806   6.581  0.00  0.00    +0.015 A 
ATOM     24  C   LIG    1       26.423 -25.123   6.051  0.00  0.00    +0.009 A 
ATOM     25  C   LIG    1       22.888 -24.201   6.635  0.00  0.00    +0.009 A 
ATOM     26  C   LIG    1       26.358 -26.520   6.116  0.00  0.00    +0.009 A 
BRANCH  22  27
ATOM     27  C   LIG    1       24.212 -20.688   6.327  0.00  0.00    +0.337 C 
ATOM     28  O   LIG    1       23.208 -20.007   6.368  0.00  0.00    -0.245 OA
BRANCH  27  29
ATOM     29  O   LIG    1       25.458 -20.165   6.283  0.00  0.00    -0.477 OA
ATOM     30  H   LIG    1       25.550 -19.269   6.646  0.00  0.00    +0.295 HD
ENDBRANCH  27  29
ENDBRANCH  22  27
ENDBRANCH   4  17
BRANCH   1  32
ATOM     31  C   LIG    1       26.066 -33.637   6.576  0.00  0.00    +0.277 C 
ATOM     32  O   LIG    1       24.855 -32.887   6.641  0.00  0.00    -0.495 OA
ENDBRANCH   1  32
TORSDOF 5
ENDMDL
MODEL 2
REMARK VINA RESULT:      -8.2      0.107      1.460
REMARK  Name = *****
REMARK                            x       y       z     vdW  Elec       q    Type
REMARK                         _______ _______ _______ _____ _____    ______ ____
ROOT
ATOM      1  C   LIG    1       24.917 -31.558   6.577  0.00  0.00    +0.124 A 
ATOM      2  C   LIG    1       24.507 -30.800   7.700  0.00  0.00    +0.001 A 
ATOM      3  C   LIG    1       24.614 -29.384   7.585  0.00  0.00    +0.016 A 
ATOM      4  C   LIG    1       25.095 -28.715   6.437  0.00  0.00    -0.017 A 
ATOM      5  C   LIG    1       25.484 -29.516   5.364  0.00  0.00    +0.012 A 
ATOM      6  C   LIG    1       25.402 -30.907   5.432  0.00  0.00    +0.046 A 
ENDROOT
BRANCH   2   7
ATOM      7  C   LIG    1       23.973 -31.440   9.020  0.00  0.00    -0.000 C 
ATOM      8  C   LIG    1       25.107 -32.119   9.868  0.00  0.00    +0.015 C 
ATOM      9  C   LIG    1       24.584 -32.750  11.166  0.00  0.00    -0.010 C 
ATOM     10  C   LIG    1       23.550 -33.825  10.812  0.00  0.00    +0.007 C 
ATOM     11  C   LIG    1       22.390 -33.188  10.036  0.00  0.00    -0.010 C 
ATOM     12  C   LIG    1       21.743 -32.102  10.911  0.00  0.00    +0.007 C 
ATOM     13  C   LIG    1       22.777 -31.014  11.251  0.00  0.00    -0.010 C 
ATOM     14  C   LIG    1       23.938 -31.655  12.023  0.00  0.00    +0.007 C 
ATOM     15  C   LIG    1       22.918 -32.552   8.730  0.00  0.00    +0.015 C 
ATOM     16  C   LIG    1       23.306 -30.378   9.947  0.00  0.00    +0.015 C 
ENDBRANCH   2   7
BRANCH   4  17
ATOM     17  C   LIG    1       25.185 -27.232   6.363  0.00  0.00    -0.017 A 
ATOM     18  C   LIG    1       24.041 -26.417   6.488  0.00  0.00    +0.017 A 
ATOM     19  C   LIG    1       24.104 -25.010   6.431  0.00  0.00    -0.017 A 
ATOM     20  C   LIG    1       25.354 -24.386   6.241  0.00  0.00    -0.017 A 
ATOM     21  C   LIG    1       25.432 -22.985   6.183  0.00  0.00    +0.023 A 
ATOM     22  C   LIG    1       24.281 -22.203   6.331  0.00  0.00    +0.059 A 
ATOM     23  C   LIG    1       23.038 -22.821   6.490  0.00  0.00    +0.015 A 
ATOM     24  C   LIG    1       26.496 -25.181   6.106  0.00  0.00    +0.009 A 
ATOM     25  C   LIG    1       22.951 -24.215   6.544  0.00  0.00    +0.009 A 
ATOM     26  C   LIG    1       26.412 -26.576   6.172  0.00  0.00    +0.009 A 
BRANCH  22  27
ATOM     27  C   LIG    1       24.329 -20.719   6.283  0.00  0.00    +0.337 C 
ATOM     28  O   LIG    1       25.328 -20.100   5.979  0.00  0.00    -0.245 OA
BRANCH  27  29
ATOM     29  O   LIG    1       23.147 -20.123   6.563  0.00  0.00    -0.477 OA
ATOM     30  H   LIG    1       22.506 -20.671   7.044  0.00  0.00    +0.295 HD
ENDBRANCH  27  29
ENDBRANCH  22  27
ENDBRANCH   4  17
BRANCH   1  32
ATOM     31  C   LIG    1       26.017 -33.682   6.747  0.00  0.00    +0.277 C 
ATOM     32  O   LIG    1       24.813 -32.923   6.651  0.00  0.00    -0.495 OA
ENDBRANCH   1  32
TORSDOF 5
ENDMDL
MODEL 3
REMARK VINA RESULT:      -7.9      1.089      1.931
REMARK  Name = *****
REMARK                            x       y       z     vdW  Elec       q    Type
REMARK                         _______ _______ _______ _____ _____    ______ ____
ROOT
ATOM      1  C   LIG    1       24.898 -31.243   6.964  0.00  0.00    +0.124 A 
ATOM      2  C   LIG    1       24.666 -30.292   7.987  0.00  0.00    +0.001 A 
ATOM      3  C   LIG    1       24.637 -28.925   7.590  0.00  0.00    +0.016 A 
ATOM      4  C   LIG    1       24.821 -28.480   6.261  0.00  0.00    -0.017 A 
ATOM      5  C   LIG    1       25.047 -29.464   5.299  0.00  0.00    +0.012 A 
ATOM      6  C   LIG    1       25.089 -30.815   5.641  0.00  0.00    +0.046 A 
ENDROOT
BRANCH   2   7
ATOM      7  C   LIG    1       24.461 -30.676   9.486  0.00  0.00    -0.000 C 
ATOM      8  C   LIG    1       24.776 -29.490  10.466  0.00  0.00    +0.015 C 
ATOM      9  C   LIG    1       24.576 -29.865  11.940  0.00  0.00    -0.010 C 
ATOM     10  C   LIG    1       25.515 -31.026  12.287  0.00  0.00    +0.007 C 
ATOM     11  C   LIG    1       25.195 -32.232  11.393  0.00  0.00    -0.010 C 
ATOM     12  C   LIG    1       23.733 -32.648  11.624  0.00  0.00    +0.007 C 
ATOM     13  C   LIG    1       22.791 -31.487  11.258  0.00  0.00    -0.010 C 
ATOM     14  C   LIG    1       23.116 -30.282  12.151  0.00  0.00    +0.007 C 
ATOM     15  C   LIG    1       25.395 -31.852   9.909  0.00  0.00    +0.015 C 
ATOM     16  C   LIG    1       22.990 -31.106   9.775  0.00  0.00    +0.015 C 
ENDBRANCH   2   7
BRANCH   4  17
ATOM     17  C   LIG    1       24.780 -27.039   5.894  0.00  0.00    -0.017 A 
ATOM     18  C   LIG    1       23.970 -26.123   6.597  0.00  0.00    +0.017 A 
ATOM     19  C   LIG    1       23.922 -24.752   6.274  0.00  0.00    -0.017 A 
ATOM     20  C   LIG    1       24.708 -24.271   5.207  0.00  0.00    -0.017 A 
ATOM     21  C   LIG    1       24.669 -22.907   4.874  0.00  0.00    +0.023 A 
ATOM     22  C   LIG    1       23.872 -22.019   5.605  0.00  0.00    +0.059 A 
ATOM     23  C   LIG    1       23.071 -22.500   6.643  0.00  0.00    +0.015 A 
ATOM     24  C   LIG    1       25.508 -25.168   4.494  0.00  0.00    +0.009 A 
ATOM     25  C   LIG    1       23.099 -23.857   6.978  0.00  0.00    +0.009 A 
ATOM     26  C   LIG    1       25.545 -26.524   4.836  0.00  0.00    +0.009 A 
BRANCH  22  27
ATOM     27  C   LIG    1       23.815 -20.569   5.284  0.00  0.00    +0.337 C 
ATOM     28  O   LIG    1       22.804 -19.907   5.400  0.00  0.00    -0.245 OA
BRANCH  27  29
ATOM     29  O   LIG    1       25.001 -20.046   4.898  0.00  0.00    -0.477 OA
ATOM     30  H   LIG    1       24.998 -19.588   4.041  0.00  0.00    +0.295 HD
ENDBRANCH  27  29
ENDBRANCH  22  27
ENDBRANCH   4  17
BRANCH   1  32
ATOM     31  C   LIG    1       23.999 -33.446   6.662  0.00  0.00    +0.277 C 
ATOM     32  O   LIG    1       24.918 -32.569   7.312  0.00  0.00    -0.495 OA
ENDBRANCH   1  32
TORSDOF 5
ENDMDL
MODEL 4
REMARK VINA RESULT:      -7.5      2.891      3.639
REMARK  Name = *****
REMARK                            x       y       z     vdW  Elec       q    Type
REMARK                         _______ _______ _______ _____ _____    ______ ____
ROOT
ATOM      1  C   LIG    1       26.343 -30.748   9.226  0.00  0.00    +0.124 A 
ATOM      2  C   LIG    1       26.374 -29.508   9.909  0.00  0.00    +0.001 A 
ATOM      3  C   LIG    1       26.080 -28.349   9.135  0.00  0.00    +0.016 A 
ATOM      4  C   LIG    1       25.765 -28.373   7.757  0.00  0.00    -0.017 A 
ATOM      5  C   LIG    1       25.752 -29.624   7.141  0.00  0.00    +0.012 A 
ATOM      6  C   LIG    1       26.038 -30.786   7.857  0.00  0.00    +0.046 A 
ENDROOT
BRANCH   2   7
ATOM      7  C   LIG    1       26.721 -29.370  11.424  0.00  0.00    -0.000 C 
ATOM      8  C   LIG    1       25.951 -30.404  12.320  0.00  0.00    +0.015 C 
ATOM      9  C   LIG    1       26.290 -30.270  13.811  0.00  0.00    -0.010 C 
ATOM     10  C   LIG    1       25.908 -28.862  14.280  0.00  0.00    +0.007 C 
ATOM     11  C   LIG    1       26.690 -27.819  13.471  0.00  0.00    -0.010 C 
ATOM     12  C   LIG    1       28.195 -28.055  13.680  0.00  0.00    +0.007 C 
ATOM     13  C   LIG    1       28.581 -29.462  13.191  0.00  0.00    -0.010 C 
ATOM     14  C   LIG    1       27.794 -30.503  14.000  0.00  0.00    +0.007 C 
ATOM     15  C   LIG    1       26.350 -27.957  11.970  0.00  0.00    +0.015 C 
ATOM     16  C   LIG    1       28.241 -29.601  11.691  0.00  0.00    +0.015 C 
ENDBRANCH   2   7
BRANCH   4  17
ATOM     17  C   LIG    1       25.462 -27.134   6.991  0.00  0.00    -0.017 A 
ATOM     18  C   LIG    1       25.846 -25.862   7.466  0.00  0.00    +0.017 A 
ATOM     19  C   LIG    1       25.578 -24.676   6.753  0.00  0.00    -0.017 A 
ATOM     20  C   LIG    1       24.900 -24.755   5.520  0.00  0.00    -0.017 A 
ATOM     21  C   LIG    1       24.626 -23.581   4.798  0.00  0.00    +0.023 A 
ATOM     22  C   LIG    1       25.039 -22.336   5.285  0.00  0.00    +0.059 A 
ATOM     23  C   LIG    1       25.685 -22.254   6.522  0.00  0.00    +0.015 A 
ATOM     24  C   LIG    1       24.504 -26.007   5.040  0.00  0.00    +0.009 A 
ATOM     25  C   LIG    1       25.956 -23.417   7.248  0.00  0.00    +0.009 A 
ATOM     26  C   LIG    1       24.786 -27.173   5.761  0.00  0.00    +0.009 A 
BRANCH  22  27
ATOM     27  C   LIG    1       24.774 -21.076   4.544  0.00  0.00    +0.337 C 
ATOM     28  O   LIG    1       23.658 -20.623   4.390  0.00  0.00    -0.245 OA
BRANCH  27  29
ATOM     29  O   LIG    1       25.891 -20.458   4.097  0.00  0.00    -0.477 OA
ATOM     30  H   LIG    1       26.292 -19.821   4.712  0.00  0.00    +0.295 HD
ENDBRANCH  27  29
ENDBRANCH  22  27
ENDBRANCH   4  17
BRANCH   1  32
ATOM     31  C   LIG    1       25.843 -33.052   9.659  0.00  0.00    +0.277 C 
ATOM     32  O   LIG    1       26.608 -31.884   9.947  0.00  0.00    -0.495 OA
ENDBRANCH   1  32
TORSDOF 5
ENDMDL
MODEL 5
REMARK VINA RESULT:      -7.3      4.648      8.352
REMARK  Name = *****
REMARK                            x       y       z     vdW  Elec       q    Type
REMARK                         _______ _______ _______ _____ _____    ______ ____
ROOT
ATOM      1  C   LIG    1       23.865 -22.933   6.885  0.00  0.00    +0.124 A 
ATOM      2  C   LIG    1       25.120 -23.550   6.661  0.00  0.00    +0.001 A 
ATOM      3  C   LIG    1       26.272 -22.733   6.844  0.00  0.00    +0.016 A 
ATOM      4  C   LIG    1       26.228 -21.373   7.228  0.00  0.00    -0.017 A 
ATOM      5  C   LIG    1       24.964 -20.822   7.433  0.00  0.00    +0.012 A 
ATOM      6  C   LIG    1       23.807 -21.582   7.261  0.00  0.00    +0.046 A 
ENDROOT
BRANCH   2   7
ATOM      7  C   LIG    1       25.278 -25.040   6.223  0.00  0.00    -0.000 C 
ATOM      8  C   LIG    1       26.675 -25.642   6.614  0.00  0.00    +0.015 C 
ATOM      9  C   LIG    1       26.833 -27.107   6.184  0.00  0.00    -0.010 C 
ATOM     10  C   LIG    1       26.690 -27.193   4.660  0.00  0.00    +0.007 C 
ATOM     11  C   LIG    1       25.308 -26.673   4.242  0.00  0.00    -0.010 C 
ATOM     12  C   LIG    1       24.228 -27.529   4.923  0.00  0.00    +0.007 C 
ATOM     13  C   LIG    1       24.361 -27.426   6.453  0.00  0.00    -0.010 C 
ATOM     14  C   LIG    1       25.745 -27.944   6.867  0.00  0.00    +0.007 C 
ATOM     15  C   LIG    1       25.150 -25.199   4.677  0.00  0.00    +0.015 C 
ATOM     16  C   LIG    1       24.203 -25.953   6.889  0.00  0.00    +0.015 C 
ENDBRANCH   2   7
BRANCH   4  17
ATOM     17  C   LIG    1       27.461 -20.560   7.409  0.00  0.00    -0.017 A 
ATOM     18  C   LIG    1       27.747 -19.917   8.632  0.00  0.00    +0.017 A 
ATOM     19  C   LIG    1       28.912 -19.151   8.829  0.00  0.00    -0.017 A 
ATOM     20  C   LIG    1       29.832 -19.014   7.769  0.00  0.00    -0.017 A 
ATOM     21  C   LIG    1       30.998 -18.253   7.952  0.00  0.00    +0.023 A 
ATOM     22  C   LIG    1       31.263 -17.645   9.184  0.00  0.00    +0.059 A 
ATOM     23  C   LIG    1       30.339 -17.755  10.226  0.00  0.00    +0.015 A 
ATOM     24  C   LIG    1       29.558 -19.637   6.548  0.00  0.00    +0.009 A 
ATOM     25  C   LIG    1       29.174 -18.506  10.050  0.00  0.00    +0.009 A 
ATOM     26  C   LIG    1       28.398 -20.399   6.376  0.00  0.00    +0.009 A 
BRANCH  22  27
ATOM     27  C   LIG    1       32.491 -16.840   9.414  0.00  0.00    +0.337 C 
ATOM     28  O   LIG    1       32.948 -16.081   8.584  0.00  0.00    -0.245 OA
BRANCH  27  29
ATOM     29  O   LIG    1       33.025 -16.995  10.647  0.00  0.00    -0.477 OA
ATOM     30  H   LIG    1       33.461 -17.848  10.810  0.00  0.00    +0.295 HD
ENDBRANCH  27  29
ENDBRANCH  22  27
ENDBRANCH   4  17
BRANCH   1  32
ATOM     31  C   LIG    1       21.597 -23.092   6.123  0.00  0.00    +0.277 C 
ATOM     32  O   LIG    1       22.737 -23.697   6.731  0.00  0.00    -0.495 OA
ENDBRANCH   1  32
TORSDOF 5
ENDMDL
MODEL 6
REMARK VINA RESULT:      -7.2      2.261      3.247
REMARK  Name = *****
REMARK                            x       y       z     vdW  Elec       q    Type
REMARK                         _______ _______ _______ _____ _____    ______ ____
ROOT
ATOM      1  C   LIG    1       25.244 -29.328   6.628  0.00  0.00    +0.124 A 
ATOM      2  C   LIG    1       25.553 -28.485   7.722  0.00  0.00    +0.001 A 
ATOM      3  C   LIG    1       25.552 -27.084   7.466  0.00  0.00    +0.016 A 
ATOM      4  C   LIG    1       25.263 -26.507   6.208  0.00  0.00    -0.017 A 
ATOM      5  C   LIG    1       24.967 -27.389   5.170  0.00  0.00    +0.012 A 
ATOM      6  C   LIG    1       24.962 -28.769   5.372  0.00  0.00    +0.046 A 
ENDROOT
BRANCH   2   7
ATOM      7  C   LIG    1       25.898 -29.019   9.148  0.00  0.00    -0.000 C 
ATOM      8  C   LIG    1       26.868 -30.254   9.116  0.00  0.00    +0.015 C 
ATOM      9  C   LIG    1       27.208 -30.781  10.516  0.00  0.00    -0.010 C 
ATOM     10  C   LIG    1       25.911 -31.217  11.209  0.00  0.00    +0.007 C 
ATOM     11  C   LIG    1       24.958 -30.019  11.318  0.00  0.00    -0.010 C 
ATOM     12  C   LIG    1       25.645 -28.911  12.133  0.00  0.00    +0.007 C 
ATOM     13  C   LIG    1       26.937 -28.462  11.428  0.00  0.00    -0.010 C 
ATOM     14  C   LIG    1       27.886 -29.662  11.316  0.00  0.00    +0.007 C 
ATOM     15  C   LIG    1       24.619 -29.488   9.908  0.00  0.00    +0.015 C 
ATOM     16  C   LIG    1       26.599 -27.931  10.018  0.00  0.00    +0.015 C 
ENDBRANCH   2   7
BRANCH   4  17
ATOM     17  C   LIG    1       25.271 -25.035   5.990  0.00  0.00    -0.017 A 
ATOM     18  C   LIG    1       24.701 -24.459   4.835  0.00  0.00    +0.017 A 
ATOM     19  C   LIG    1       24.688 -23.068   4.612  0.00  0.00    -0.017 A 
ATOM     20  C   LIG    1       25.267 -22.213   5.572  0.00  0.00    -0.017 A 
ATOM     21  C   LIG    1       25.262 -20.824   5.362  0.00  0.00    +0.023 A 
ATOM     22  C   LIG    1       24.669 -20.281   4.217  0.00  0.00    +0.059 A 
ATOM     23  C   LIG    1       24.121 -21.129   3.251  0.00  0.00    +0.015 A 
ATOM     24  C   LIG    1       25.846 -22.770   6.716  0.00  0.00    +0.009 A 
ATOM     25  C   LIG    1       24.127 -22.512   3.450  0.00  0.00    +0.009 A 
ATOM     26  C   LIG    1       25.841 -24.154   6.922  0.00  0.00    +0.009 A 
BRANCH  22  27
ATOM     27  C   LIG    1       24.638 -18.817   3.968  0.00  0.00    +0.337 C 
ATOM     28  O   LIG    1       23.651 -18.136   4.157  0.00  0.00    -0.245 OA
BRANCH  27  29
ATOM     29  O   LIG    1       25.821 -18.306   3.557  0.00  0.00    -0.477 OA
ATOM     30  H   LIG    1       26.035 -17.421   3.895  0.00  0.00    +0.295 HD
ENDBRANCH  27  29
ENDBRANCH  22  27
ENDBRANCH   4  17
BRANCH   1  32
ATOM     31  C   LIG    1       25.743 -31.531   5.825  0.00  0.00    +0.277 C 
ATOM     32  O   LIG    1       25.224 -30.681   6.846  0.00  0.00    -0.495 OA
ENDBRANCH   1  32
TORSDOF 5
ENDMDL
MODEL 7
REMARK VINA RESULT:      -7.1      4.914      8.213
REMARK  Name = *****
REMARK                            x       y       z     vdW  Elec       q    Type
REMARK                         _______ _______ _______ _____ _____    ______ ____
ROOT
ATOM      1  C   LIG    1       21.972 -28.983  12.996  0.00  0.00    +0.124 A 
ATOM      2  C   LIG    1       23.285 -28.733  12.528  0.00  0.00    +0.001 A 
ATOM      3  C   LIG    1       23.673 -29.404  11.333  0.00  0.00    +0.016 A 
ATOM      4  C   LIG    1       22.837 -30.283  10.609  0.00  0.00    -0.017 A 
ATOM      5  C   LIG    1       21.556 -30.490  11.120  0.00  0.00    +0.012 A 
ATOM      6  C   LIG    1       21.133 -29.859  12.289  0.00  0.00    +0.046 A 
ENDROOT
BRANCH   2   7
ATOM      7  C   LIG    1       24.292 -27.790  13.259  0.00  0.00    -0.000 C 
ATOM      8  C   LIG    1       23.775 -26.310  13.359  0.00  0.00    +0.015 C 
ATOM      9  C   LIG    1       24.762 -25.381  14.077  0.00  0.00    -0.010 C 
ATOM     10  C   LIG    1       26.083 -25.368  13.299  0.00  0.00    +0.007 C 
ATOM     11  C   LIG    1       26.657 -26.790  13.234  0.00  0.00    -0.010 C 
ATOM     12  C   LIG    1       26.893 -27.297  14.666  0.00  0.00    +0.007 C 
ATOM     13  C   LIG    1       25.563 -27.326  15.440  0.00  0.00    -0.010 C 
ATOM     14  C   LIG    1       24.990 -25.904  15.500  0.00  0.00    +0.007 C 
ATOM     15  C   LIG    1       25.660 -27.725  12.513  0.00  0.00    +0.015 C 
ATOM     16  C   LIG    1       24.566 -28.260  14.721  0.00  0.00    +0.015 C 
ENDBRANCH   2   7
BRANCH   4  17
ATOM     17  C   LIG    1       23.287 -30.960   9.363  0.00  0.00    -0.017 A 
ATOM     18  C   LIG    1       24.024 -30.272   8.376  0.00  0.00    +0.017 A 
ATOM     19  C   LIG    1       24.469 -30.894   7.193  0.00  0.00    -0.017 A 
ATOM     20  C   LIG    1       24.170 -32.255   6.979  0.00  0.00    -0.017 A 
ATOM     21  C   LIG    1       24.608 -32.888   5.804  0.00  0.00    +0.023 A 
ATOM     22  C   LIG    1       25.355 -32.184   4.853  0.00  0.00    +0.059 A 
ATOM     23  C   LIG    1       25.628 -30.828   5.051  0.00  0.00    +0.015 A 
ATOM     24  C   LIG    1       23.432 -32.948   7.942  0.00  0.00    +0.009 A 
ATOM     25  C   LIG    1       25.191 -30.190   6.215  0.00  0.00    +0.009 A 
ATOM     26  C   LIG    1       23.005 -32.312   9.113  0.00  0.00    +0.009 A 
BRANCH  22  27
ATOM     27  C   LIG    1       25.841 -32.826   3.604  0.00  0.00    +0.337 C 
ATOM     28  O   LIG    1       27.019 -33.003   3.368  0.00  0.00    -0.245 OA
BRANCH  27  29
ATOM     29  O   LIG    1       24.852 -33.235   2.778  0.00  0.00    -0.477 OA
ATOM     30  H   LIG    1       24.023 -33.496   3.213  0.00  0.00    +0.295 HD
ENDBRANCH  27  29
ENDBRANCH  22  27
ENDBRANCH   4  17
BRANCH   1  32
ATOM     31  C   LIG    1       20.390 -27.534  14.065  0.00  0.00    +0.277 C 
ATOM     32  O   LIG    1       21.563 -28.341  14.136  0.00  0.00    -0.495 OA
ENDBRANCH   1  32
TORSDOF 5
ENDMDL
MODEL 8
REMARK VINA RESULT:      -7.0      2.193      3.596
REMARK  Name = *****
REMARK                            x       y       z     vdW  Elec       q    Type
REMARK                         _______ _______ _______ _____ _____    ______ ____
ROOT
ATOM      1  C   LIG    1       26.339 -29.451   8.845  0.00  0.00    +0.124 A 
ATOM      2  C   LIG    1       25.727 -29.571   7.574  0.00  0.00    +0.001 A 
ATOM      3  C   LIG    1       25.456 -28.356   6.882  0.00  0.00    +0.016 A 
ATOM      4  C   LIG    1       25.761 -27.071   7.384  0.00  0.00    -0.017 A 
ATOM      5  C   LIG    1       26.362 -27.018   8.642  0.00  0.00    +0.012 A 
ATOM      6  C   LIG    1       26.641 -28.181   9.360  0.00  0.00    +0.046 A 
ENDROOT
BRANCH   2   7
ATOM      7  C   LIG    1       25.339 -30.941   6.933  0.00  0.00    -0.000 C 
ATOM      8  C   LIG    1       25.316 -30.892   5.364  0.00  0.00    +0.015 C 
ATOM      9  C   LIG    1       24.935 -32.237   4.731  0.00  0.00    -0.010 C 
ATOM     10  C   LIG    1       23.534 -32.630   5.213  0.00  0.00    +0.007 C 
ATOM     11  C   LIG    1       23.530 -32.752   6.742  0.00  0.00    -0.010 C 
ATOM     12  C   LIG    1       24.551 -33.824   7.158  0.00  0.00    +0.007 C 
ATOM     13  C   LIG    1       25.960 -33.419   6.690  0.00  0.00    -0.010 C 
ATOM     14  C   LIG    1       25.959 -33.294   5.160  0.00  0.00    +0.007 C 
ATOM     15  C   LIG    1       23.916 -31.398   7.377  0.00  0.00    +0.015 C 
ATOM     16  C   LIG    1       26.347 -32.066   7.324  0.00  0.00    +0.015 C 
ENDBRANCH   2   7
BRANCH   4  17
ATOM     17  C   LIG    1       25.461 -25.829   6.622  0.00  0.00    -0.017 A 
ATOM     18  C   LIG    1       25.676 -24.552   7.180  0.00  0.00    +0.017 A 
ATOM     19  C   LIG    1       25.409 -23.362   6.473  0.00  0.00    -0.017 A 
ATOM     20  C   LIG    1       24.905 -23.444   5.159  0.00  0.00    -0.017 A 
ATOM     21  C   LIG    1       24.634 -22.266   4.443  0.00  0.00    +0.023 A 
ATOM     22  C   LIG    1       24.878 -21.013   5.016  0.00  0.00    +0.059 A 
ATOM     23  C   LIG    1       25.350 -20.932   6.329  0.00  0.00    +0.015 A 
ATOM     24  C   LIG    1       24.677 -24.702   4.595  0.00  0.00    +0.009 A 
ATOM     25  C   LIG    1       25.617 -22.099   7.050  0.00  0.00    +0.009 A 
ATOM     26  C   LIG    1       24.955 -25.871   5.313  0.00  0.00    +0.009 A 
BRANCH  22  27
ATOM     27  C   LIG    1       24.610 -19.749   4.284  0.00  0.00    +0.337 C 
ATOM     28  O   LIG    1       23.515 -19.227   4.246  0.00  0.00    -0.245 OA
BRANCH  27  29
ATOM     29  O   LIG    1       25.706 -19.210   3.703  0.00  0.00    -0.477 OA
ATOM     30  H   LIG    1       25.558 -18.784   2.843  0.00  0.00    +0.295 HD
ENDBRANCH  27  29
ENDBRANCH  22  27
ENDBRANCH   4  17
BRANCH   1  32
ATOM     31  C   LIG    1       26.039 -30.779  10.819  0.00  0.00    +0.277 C 
ATOM     32  O   LIG    1       26.625 -30.603   9.531  0.00  0.00    -0.495 OA
ENDBRANCH   1  32
TORSDOF 5
ENDMDL
MODEL 9
REMARK VINA RESULT:      -7.0      2.463     10.440
REMARK  Name = *****
REMARK                            x       y       z     vdW  Elec       q    Type
REMARK                         _______ _______ _______ _____ _____    ______ ____
ROOT
ATOM      1  C   LIG    1       25.773 -21.812   7.281  0.00  0.00    +0.124 A 
ATOM      2  C   LIG    1       25.129 -22.140   6.064  0.00  0.00    +0.001 A 
ATOM      3  C   LIG    1       25.041 -23.525   5.743  0.00  0.00    +0.016 A 
ATOM      4  C   LIG    1       25.550 -24.562   6.558  0.00  0.00    -0.017 A 
ATOM      5  C   LIG    1       26.174 -24.176   7.743  0.00  0.00    +0.012 A 
ATOM      6  C   LIG    1       26.289 -22.831   8.097  0.00  0.00    +0.046 A 
ENDROOT
BRANCH   2   7
ATOM      7  C   LIG    1       24.543 -21.072   5.087  0.00  0.00    -0.000 C 
ATOM      8  C   LIG    1       25.610 -20.014   4.633  0.00  0.00    +0.015 C 
ATOM      9  C   LIG    1       25.037 -18.963   3.673  0.00  0.00    -0.010 C 
ATOM     10  C   LIG    1       23.901 -18.215   4.381  0.00  0.00    +0.007 C 
ATOM     11  C   LIG    1       22.803 -19.208   4.785  0.00  0.00    -0.010 C 
ATOM     12  C   LIG    1       22.271 -19.901   3.520  0.00  0.00    +0.007 C 
ATOM     13  C   LIG    1       23.408 -20.667   2.821  0.00  0.00    -0.010 C 
ATOM     14  C   LIG    1       24.506 -19.672   2.422  0.00  0.00    +0.007 C 
ATOM     15  C   LIG    1       23.383 -20.266   5.749  0.00  0.00    +0.015 C 
ATOM     16  C   LIG    1       23.988 -21.725   3.784  0.00  0.00    +0.015 C 
ENDBRANCH   2   7
BRANCH   4  17
ATOM     17  C   LIG    1       25.432 -25.996   6.182  0.00  0.00    -0.017 A 
ATOM     18  C   LIG    1       25.135 -26.987   7.141  0.00  0.00    +0.017 A 
ATOM     19  C   LIG    1       25.009 -28.350   6.806  0.00  0.00    -0.017 A 
ATOM     20  C   LIG    1       25.186 -28.747   5.465  0.00  0.00    -0.017 A 
ATOM     21  C   LIG    1       25.063 -30.102   5.117  0.00  0.00    +0.023 A 
ATOM     22  C   LIG    1       24.747 -31.059   6.088  0.00  0.00    +0.059 A 
ATOM     23  C   LIG    1       24.600 -30.671   7.422  0.00  0.00    +0.015 A 
ATOM     24  C   LIG    1       25.490 -27.778   4.504  0.00  0.00    +0.009 A 
ATOM     25  C   LIG    1       24.725 -29.325   7.777  0.00  0.00    +0.009 A 
ATOM     26  C   LIG    1       25.605 -26.429   4.857  0.00  0.00    +0.009 A 
BRANCH  22  27
ATOM     27  C   LIG    1       24.601 -32.499   5.752  0.00  0.00    +0.337 C 
ATOM     28  O   LIG    1       25.350 -33.355   6.177  0.00  0.00    -0.245 OA
BRANCH  27  29
ATOM     29  O   LIG    1       23.532 -32.774   4.971  0.00  0.00    -0.477 OA
ATOM     30  H   LIG    1       23.242 -33.702   4.968  0.00  0.00    +0.295 HD
ENDBRANCH  27  29
ENDBRANCH  22  27
ENDBRANCH   4  17
BRANCH   1  32
ATOM     31  C   LIG    1       27.109 -20.006   8.118  0.00  0.00    +0.277 C 
ATOM     32  O   LIG    1       25.861 -20.488   7.625  0.00  0.00    -0.495 OA
ENDBRANCH   1  32
TORSDOF 5
ENDMDL
