MODEL 1
REMARK VINA RESULT:      -0.7      0.000      0.000
REMARK  Name = *****
REMARK                            x       y       z     vdW  Elec       q    Type
REMARK                         _______ _______ _______ _____ _____    ______ ____
ROOT
ATOM      1  C   LIG    1       23.519 -16.393   4.171  0.00  0.00    -0.015 A 
ATOM      2  C   LIG    1       22.357 -16.781   4.846  0.00  0.00    -0.043 A 
ATOM      3  C   LIG    1       21.302 -15.791   5.256  0.00  0.00    +0.044 C 
ATOM      4  C   LIG    1       22.184 -18.137   5.165  0.00  0.00    +0.008 A 
ATOM      5  C   LIG    1       23.124 -19.132   4.811  0.00  0.00    -0.038 A 
ATOM      6  C   LIG    1       22.836 -20.594   5.184  0.00  0.00    -0.009 C 
ATOM      7  C   LIG    1       23.777 -21.572   4.445  0.00  0.00    +0.012 C 
ATOM      8  C   LIG    1       25.220 -21.095   4.460  0.00  0.00    +0.012 C 
ATOM      9  C   LIG    1       25.390 -19.742   3.733  0.00  0.00    -0.009 C 
ATOM     10  C   LIG    1       25.291 -19.951   2.205  0.00  0.00    +0.016 C 
ATOM     11  C   LIG    1       26.817 -19.246   4.062  0.00  0.00    +0.016 C 
ATOM     12  C   LIG    1       23.007 -20.761   6.710  0.00  0.00    +0.016 C 
ATOM     13  C   LIG    1       21.394 -21.010   4.806  0.00  0.00    +0.016 C 
ATOM     14  C   LIG    1       24.312 -18.736   4.157  0.00  0.00    -0.037 A 
ATOM     15  C   LIG    1       24.480 -17.367   3.844  0.00  0.00    +0.013 A 
ENDROOT
BRANCH   1  17
ATOM     16  C   LIG    1       22.725 -14.331   3.262  0.00  0.00    +0.018 C 
ATOM     17  C   LIG    1       23.782 -14.980   3.790  0.00  0.00    -0.018 C 
BRANCH  17  18
ATOM     18  C   LIG    1       25.078 -14.274   4.011  0.00  0.00    -0.018 A 
ATOM     19  C   LIG    1       25.315 -13.587   5.213  0.00  0.00    +0.009 A 
ATOM     20  C   LIG    1       26.521 -12.910   5.438  0.00  0.00    +0.015 A 
ATOM     21  C   LIG    1       27.525 -12.923   4.466  0.00  0.00    +0.059 A 
ATOM     22  C   LIG    1       27.310 -13.606   3.266  0.00  0.00    +0.015 A 
ATOM     23  C   LIG    1       26.106 -14.288   3.053  0.00  0.00    +0.009 A 
BRANCH  21  24
ATOM     24  C   LIG    1       28.782 -12.176   4.727  0.00  0.00    +0.337 C 
ATOM     25  O   LIG    1       29.473 -11.705   3.837  0.00  0.00    -0.245 OA
BRANCH  24  26
ATOM     26  O   LIG    1       29.072 -12.033   6.037  0.00  0.00    -0.477 OA
ATOM     27  H   LIG    1       29.949 -12.360   6.306  0.00  0.00    +0.295 HD
ENDBRANCH  24  26
ENDBRANCH  21  24
ENDBRANCH  17  18
ENDBRANCH   1  17
TORSDOF 4
ENDMDL
