MODEL 1
REMARK VINA RESULT:       2.9      0.000      0.000
REMARK  Name = *****
REMARK                            x       y       z     vdW  Elec       q    Type
REMARK                         _______ _______ _______ _____ _____    ______ ____
ROOT
ATOM      1  C   LIG    1       24.015 -16.997   3.346  0.00  0.00    +0.225 C 
ATOM      2  C   LIG    1       22.596 -16.498   3.687  0.00  0.00    +0.045 C 
ATOM      3  C   LIG    1       22.383 -16.557   5.215  0.00  0.00    +0.058 C 
ATOM      4  C   LIG    1       22.888 -17.906   5.758  0.00  0.00    +0.133 C 
ATOM      5  N   LIG    1       22.908 -18.927   4.577  0.00  0.00    +0.246 N 
ATOM      6  C   LIG    1       21.559 -18.766   3.835  0.00  0.00    +0.133 C 
ATOM      7  C   LIG    1       21.576 -17.447   3.056  0.00  0.00    +0.058 C 
ATOM      8  C   LIG    1       24.095 -18.517   3.639  0.00  0.00    +0.179 C 
ENDROOT
BRANCH   1   9
ATOM      9  O   LIG    1       24.910 -16.209   4.157  0.00  0.00    -0.453 OA
BRANCH   9  11
ATOM     10  O   LIG    1       26.485 -15.781   2.573  0.00  0.00    -0.247 OA
ATOM     11  C   LIG    1       25.803 -15.412   3.510  0.00  0.00    +0.350 C 
BRANCH  11  12
ATOM     12  C   LIG    1       25.783 -13.993   4.225  0.00  0.00    +0.226 C 
BRANCH  12  13
ATOM     13  C   LIG    1       24.850 -13.028   3.489  0.00  0.00    +0.037 A 
ATOM     14  S   LIG    1       25.017 -12.670   1.812  0.00  0.00    -0.098 S 
ATOM     15  C   LIG    1       23.676 -11.611   1.822  0.00  0.00    +0.045 A 
ATOM     16  C   LIG    1       23.113 -11.504   3.072  0.00  0.00    +0.008 A 
ATOM     17  C   LIG    1       23.787 -12.314   4.027  0.00  0.00    +0.015 A 
ENDBRANCH  12  13
BRANCH  12  18
ATOM     18  C   LIG    1       27.201 -13.459   4.373  0.00  0.00    +0.037 A 
ATOM     19  S   LIG    1       27.696 -12.696   5.840  0.00  0.00    -0.098 S 
ATOM     20  C   LIG    1       29.257 -12.373   5.235  0.00  0.00    +0.045 A 
ATOM     21  C   LIG    1       29.432 -12.869   3.965  0.00  0.00    +0.008 A 
ATOM     22  C   LIG    1       28.255 -13.504   3.473  0.00  0.00    +0.015 A 
ENDBRANCH  12  18
BRANCH  12  23
ATOM     23  O   LIG    1       25.220 -14.125   5.537  0.00  0.00    -0.369 OA
ATOM     24  H   LIG    1       25.767 -13.573   6.120  0.00  0.00    +0.212 HD
ENDBRANCH  12  23
ENDBRANCH  11  12
ENDBRANCH   9  11
ENDBRANCH   1   9
BRANCH   5  25
ATOM     25  C   LIG    1       23.105 -20.380   5.126  0.00  0.00    +0.136 C 
BRANCH  25  26
ATOM     26  C   LIG    1       23.431 -20.399   6.629  0.00  0.00    +0.092 C 
BRANCH  26  27
ATOM     27  C   LIG    1       24.717 -21.144   7.007  0.00  0.00    +0.234 C 
BRANCH  27  28
ATOM     28  O   LIG    1       25.598 -21.264   5.892  0.00  0.00    -0.492 OA
BRANCH  28  29
ATOM     29  C   LIG    1       26.840 -20.681   6.043  0.00  0.00    +0.120 A 
ATOM     30  C   LIG    1       27.153 -19.675   5.121  0.00  0.00    +0.045 A 
ATOM     31  C   LIG    1       28.397 -19.033   5.153  0.00  0.00    +0.004 A 
ATOM     32  C   LIG    1       29.338 -19.378   6.120  0.00  0.00    +0.000 A 
ATOM     33  C   LIG    1       29.026 -20.354   7.062  0.00  0.00    +0.004 A 
ATOM     34  C   LIG    1       27.786 -21.006   7.022  0.00  0.00    +0.045 A 
ENDBRANCH  28  29
ENDBRANCH  27  28
ENDBRANCH  26  27
ENDBRANCH  25  26
ENDBRANCH   5  25
TORSDOF 11
ENDMDL
MODEL 2
REMARK VINA RESULT:       3.1      1.759      3.240
REMARK  Name = *****
REMARK                            x       y       z     vdW  Elec       q    Type
REMARK                         _______ _______ _______ _____ _____    ______ ____
ROOT
ATOM      1  C   LIG    1       24.680 -18.733   3.465  0.00  0.00    +0.225 C 
ATOM      2  C   LIG    1       23.381 -19.200   2.776  0.00  0.00    +0.045 C 
ATOM      3  C   LIG    1       22.163 -18.679   3.568  0.00  0.00    +0.058 C 
ATOM      4  C   LIG    1       22.380 -18.920   5.074  0.00  0.00    +0.133 C 
ATOM      5  N   LIG    1       23.430 -20.064   5.234  0.00  0.00    +0.246 N 
ATOM      6  C   LIG    1       23.015 -21.183   4.249  0.00  0.00    +0.133 C 
ATOM      7  C   LIG    1       23.324 -20.727   2.820  0.00  0.00    +0.058 C 
ATOM      8  C   LIG    1       24.821 -19.468   4.821  0.00  0.00    +0.179 C 
ENDROOT
BRANCH   1   9
ATOM      9  O   LIG    1       24.557 -17.302   3.599  0.00  0.00    -0.453 OA
BRANCH   9  11
ATOM     10  O   LIG    1       26.776 -17.028   3.183  0.00  0.00    -0.247 OA
ATOM     11  C   LIG    1       25.675 -16.555   3.392  0.00  0.00    +0.350 C 
BRANCH  11  12
ATOM     12  C   LIG    1       25.257 -15.026   3.508  0.00  0.00    +0.226 C 
BRANCH  12  13
ATOM     13  C   LIG    1       26.450 -14.169   3.942  0.00  0.00    +0.037 A 
ATOM     14  S   LIG    1       27.610 -13.558   2.825  0.00  0.00    -0.098 S 
ATOM     15  C   LIG    1       28.501 -12.775   4.055  0.00  0.00    +0.045 A 
ATOM     16  C   LIG    1       27.953 -12.982   5.299  0.00  0.00    +0.008 A 
ATOM     17  C   LIG    1       26.779 -13.783   5.234  0.00  0.00    +0.015 A 
ENDBRANCH  12  13
BRANCH  12  18
ATOM     18  C   LIG    1       24.050 -14.879   4.424  0.00  0.00    +0.037 A 
ATOM     19  S   LIG    1       23.771 -13.399   5.267  0.00  0.00    -0.098 S 
ATOM     20  C   LIG    1       22.378 -14.011   6.037  0.00  0.00    +0.045 A 
ATOM     21  C   LIG    1       22.089 -15.295   5.638  0.00  0.00    +0.008 A 
ATOM     22  C   LIG    1       23.042 -15.790   4.701  0.00  0.00    +0.015 A 
ENDBRANCH  12  18
BRANCH  12  23
ATOM     23  O   LIG    1       24.895 -14.529   2.213  0.00  0.00    -0.369 OA
ATOM     24  H   LIG    1       23.944 -14.335   2.257  0.00  0.00    +0.212 HD
ENDBRANCH  12  23
ENDBRANCH  11  12
ENDBRANCH   9  11
ENDBRANCH   1   9
BRANCH   5  25
ATOM     25  C   LIG    1       23.455 -20.567   6.717  0.00  0.00    +0.136 C 
BRANCH  25  26
ATOM     26  C   LIG    1       24.717 -21.386   7.035  0.00  0.00    +0.092 C 
BRANCH  26  27
ATOM     27  C   LIG    1       25.728 -21.497   5.887  0.00  0.00    +0.234 C 
BRANCH  27  28
ATOM     28  O   LIG    1       27.067 -21.554   6.374  0.00  0.00    -0.492 OA
BRANCH  28  29
ATOM     29  C   LIG    1       27.834 -20.428   6.153  0.00  0.00    +0.120 A 
ATOM     30  C   LIG    1       27.676 -19.823   4.901  0.00  0.00    +0.045 A 
ATOM     31  C   LIG    1       28.425 -18.693   4.550  0.00  0.00    +0.004 A 
ATOM     32  C   LIG    1       29.331 -18.146   5.454  0.00  0.00    +0.000 A 
ATOM     33  C   LIG    1       29.475 -18.720   6.714  0.00  0.00    +0.004 A 
ATOM     34  C   LIG    1       28.734 -19.859   7.061  0.00  0.00    +0.045 A 
ENDBRANCH  28  29
ENDBRANCH  27  28
ENDBRANCH  26  27
ENDBRANCH  25  26
ENDBRANCH   5  25
TORSDOF 11
ENDMDL
MODEL 3
REMARK VINA RESULT:       5.3      2.851      6.491
REMARK  Name = *****
REMARK                            x       y       z     vdW  Elec       q    Type
REMARK                         _______ _______ _______ _____ _____    ______ ____
ROOT
ATOM      1  C   LIG    1       23.822 -14.961   4.242  0.00  0.00    +0.225 C 
ATOM      2  C   LIG    1       23.328 -13.685   3.532  0.00  0.00    +0.045 C 
ATOM      3  C   LIG    1       23.820 -13.687   2.068  0.00  0.00    +0.058 C 
ATOM      4  C   LIG    1       25.308 -14.081   2.022  0.00  0.00    +0.133 C 
ATOM      5  N   LIG    1       25.929 -13.795   3.425  0.00  0.00    +0.246 N 
ATOM      6  C   LIG    1       25.440 -12.388   3.844  0.00  0.00    +0.133 C 
ATOM      7  C   LIG    1       23.955 -12.468   4.213  0.00  0.00    +0.058 C 
ATOM      8  C   LIG    1       25.361 -14.880   4.405  0.00  0.00    +0.179 C 
ENDROOT
BRANCH   1   9
ATOM      9  O   LIG    1       23.391 -16.060   3.414  0.00  0.00    -0.453 OA
BRANCH   9  11
ATOM     10  O   LIG    1       24.995 -17.665   3.271  0.00  0.00    -0.247 OA
ATOM     11  C   LIG    1       23.914 -17.288   3.679  0.00  0.00    +0.350 C 
BRANCH  11  12
ATOM     12  C   LIG    1       22.853 -18.080   4.559  0.00  0.00    +0.226 C 
BRANCH  12  13
ATOM     13  C   LIG    1       23.390 -19.462   4.941  0.00  0.00    +0.037 A 
ATOM     14  S   LIG    1       23.200 -20.131   6.517  0.00  0.00    -0.098 S 
ATOM     15  C   LIG    1       24.015 -21.571   6.092  0.00  0.00    +0.045 A 
ATOM     16  C   LIG    1       24.449 -21.552   4.788  0.00  0.00    +0.008 A 
ATOM     17  C   LIG    1       24.093 -20.343   4.129  0.00  0.00    +0.015 A 
ENDBRANCH  12  13
BRANCH  12  18
ATOM     18  C   LIG    1       21.512 -18.136   3.841  0.00  0.00    +0.037 A 
ATOM     19  S   LIG    1       20.630 -19.617   3.759  0.00  0.00    -0.098 S 
ATOM     20  C   LIG    1       19.381 -18.910   2.836  0.00  0.00    +0.045 A 
ATOM     21  C   LIG    1       19.591 -17.568   2.626  0.00  0.00    +0.008 A 
ATOM     22  C   LIG    1       20.808 -17.120   3.214  0.00  0.00    +0.015 A 
ENDBRANCH  12  18
BRANCH  12  23
ATOM     23  O   LIG    1       22.661 -17.400   5.806  0.00  0.00    -0.369 OA
ATOM     24  H   LIG    1       21.764 -17.028   5.773  0.00  0.00    +0.212 HD
ENDBRANCH  12  23
ENDBRANCH  11  12
ENDBRANCH   9  11
ENDBRANCH   1   9
BRANCH   5  25
ATOM     25  C   LIG    1       27.491 -13.874   3.348  0.00  0.00    +0.136 C 
BRANCH  25  26
ATOM     26  C   LIG    1       28.085 -14.788   4.432  0.00  0.00    +0.092 C 
BRANCH  26  27
ATOM     27  C   LIG    1       27.583 -16.237   4.408  0.00  0.00    +0.234 C 
BRANCH  27  28
ATOM     28  O   LIG    1       28.665 -17.163   4.329  0.00  0.00    -0.492 OA
BRANCH  28  29
ATOM     29  C   LIG    1       28.593 -18.244   5.183  0.00  0.00    +0.120 A 
ATOM     30  C   LIG    1       27.544 -19.139   4.943  0.00  0.00    +0.045 A 
ATOM     31  C   LIG    1       27.349 -20.256   5.764  0.00  0.00    +0.004 A 
ATOM     32  C   LIG    1       28.213 -20.500   6.829  0.00  0.00    +0.000 A 
ATOM     33  C   LIG    1       29.278 -19.635   7.060  0.00  0.00    +0.004 A 
ATOM     34  C   LIG    1       29.466 -18.509   6.245  0.00  0.00    +0.045 A 
ENDBRANCH  28  29
ENDBRANCH  27  28
ENDBRANCH  26  27
ENDBRANCH  25  26
ENDBRANCH   5  25
TORSDOF 11
ENDMDL
