MODEL 1
REMARK VINA RESULT:      -6.2      0.000      0.000
REMARK  Name = *****
REMARK                            x       y       z     vdW  Elec       q    Type
REMARK                         _______ _______ _______ _____ _____    ______ ____
ROOT
ATOM      1  C   LIG    1       24.428 -15.007   3.764  0.00  0.00    +0.113 A 
ATOM      2  C   LIG    1       25.233 -16.065   3.350  0.00  0.00    +0.030 A 
ATOM      3  C   LIG    1       24.779 -17.378   3.528  0.00  0.00    +0.010 A 
ATOM      4  C   LIG    1       23.568 -17.654   4.191  0.00  0.00    -0.012 A 
ATOM      5  C   LIG    1       22.790 -16.564   4.613  0.00  0.00    +0.010 A 
ATOM      6  C   LIG    1       23.190 -15.247   4.355  0.00  0.00    +0.030 A 
ENDROOT
BRANCH   4   7
ATOM      7  C   LIG    1       23.152 -19.033   4.469  0.00  0.00    +0.052 A 
ATOM      8  C   LIG    1       23.853 -20.204   4.965  0.00  0.00    +0.121 A 
ATOM      9  N   LIG    1       23.014 -21.255   4.996  0.00  0.00    -0.077 NA
ATOM     10  O   LIG    1       21.802 -20.818   4.544  0.00  0.00    -0.359 OA
ATOM     11  C   LIG    1       21.873 -19.506   4.216  0.00  0.00    +0.142 A 
ATOM     12  C   LIG    1       20.606 -18.948   3.689  0.00  0.00    +0.090 C 
BRANCH   8  13
ATOM     13  C   LIG    1       25.234 -20.402   5.445  0.00  0.00    +0.004 A 
ATOM     14  C   LIG    1       26.313 -19.695   4.903  0.00  0.00    +0.010 A 
ATOM     15  C   LIG    1       27.609 -19.861   5.406  0.00  0.00    +0.001 A 
ATOM     16  C   LIG    1       27.841 -20.694   6.498  0.00  0.00    +0.000 A 
ATOM     17  C   LIG    1       26.782 -21.397   7.062  0.00  0.00    +0.001 A 
ATOM     18  C   LIG    1       25.495 -21.274   6.522  0.00  0.00    +0.010 A 
ENDBRANCH   8  13
ENDBRANCH   4   7
BRANCH   1  19
ATOM     19  S   LIG    1       24.997 -13.326   3.591  0.00  0.00    +0.102 S 
ATOM     20  O   LIG    1       25.939 -13.338   2.477  0.00  0.00    -0.146 OA
ATOM     21  O   LIG    1       23.822 -12.488   3.543  0.00  0.00    -0.146 OA
BRANCH  19  23
ATOM     22  C   LIG    1       27.045 -13.346   5.068  0.00  0.00    +0.207 C 
ATOM     23  N   LIG    1       25.798 -13.060   4.962  0.00  0.00    -0.096 NA
BRANCH  22  25
ATOM     24  C   LIG    1       29.098 -12.973   3.667  0.00  0.00    +0.013 C 
ATOM     25  C   LIG    1       27.993 -13.938   4.052  0.00  0.00    +0.093 C 
ENDBRANCH  22  25
BRANCH  22  26
ATOM     26  O   LIG    1       27.622 -13.103   6.267  0.00  0.00    -0.494 OA
ATOM     27  H   LIG    1       28.195 -13.820   6.579  0.00  0.00    +0.293 HD
ENDBRANCH  22  26
ENDBRANCH  19  23
ENDBRANCH   1  19
TORSDOF 6
ENDMDL
MODEL 2
REMARK VINA RESULT:      -5.7      1.003      1.475
REMARK  Name = *****
REMARK                            x       y       z     vdW  Elec       q    Type
REMARK                         _______ _______ _______ _____ _____    ______ ____
ROOT
ATOM      1  C   LIG    1       24.573 -14.902   3.651  0.00  0.00    +0.113 A 
ATOM      2  C   LIG    1       23.360 -15.099   4.304  0.00  0.00    +0.030 A 
ATOM      3  C   LIG    1       22.957 -16.404   4.617  0.00  0.00    +0.010 A 
ATOM      4  C   LIG    1       23.708 -17.523   4.210  0.00  0.00    -0.012 A 
ATOM      5  C   LIG    1       24.917 -17.289   3.535  0.00  0.00    +0.010 A 
ATOM      6  C   LIG    1       25.376 -15.987   3.303  0.00  0.00    +0.030 A 
ENDROOT
BRANCH   4   7
ATOM      7  C   LIG    1       23.224 -18.888   4.446  0.00  0.00    +0.052 A 
ATOM      8  C   LIG    1       23.861 -20.103   4.921  0.00  0.00    +0.121 A 
ATOM      9  N   LIG    1       22.973 -21.114   4.913  0.00  0.00    -0.077 NA
ATOM     10  O   LIG    1       21.790 -20.609   4.453  0.00  0.00    -0.359 OA
ATOM     11  C   LIG    1       21.928 -19.294   4.161  0.00  0.00    +0.142 A 
ATOM     12  C   LIG    1       20.698 -18.663   3.629  0.00  0.00    +0.090 C 
BRANCH   8  13
ATOM     13  C   LIG    1       25.223 -20.379   5.418  0.00  0.00    +0.004 A 
ATOM     14  C   LIG    1       26.348 -19.746   4.877  0.00  0.00    +0.010 A 
ATOM     15  C   LIG    1       27.627 -19.983   5.395  0.00  0.00    +0.001 A 
ATOM     16  C   LIG    1       27.798 -20.814   6.499  0.00  0.00    +0.000 A 
ATOM     17  C   LIG    1       26.693 -21.444   7.062  0.00  0.00    +0.001 A 
ATOM     18  C   LIG    1       25.421 -21.250   6.508  0.00  0.00    +0.010 A 
ENDBRANCH   8  13
ENDBRANCH   4   7
BRANCH   1  19
ATOM     19  S   LIG    1       25.094 -13.257   3.201  0.00  0.00    +0.102 S 
ATOM     20  O   LIG    1       24.246 -12.865   2.081  0.00  0.00    -0.146 OA
ATOM     21  O   LIG    1       25.108 -12.476   4.414  0.00  0.00    -0.146 OA
BRANCH  19  23
ATOM     22  C   LIG    1       27.598 -13.431   3.487  0.00  0.00    +0.207 C 
ATOM     23  N   LIG    1       26.601 -13.474   2.677  0.00  0.00    -0.096 NA
BRANCH  22  25
ATOM     24  C   LIG    1       28.669 -12.170   5.377  0.00  0.00    +0.013 C 
ATOM     25  C   LIG    1       27.625 -13.194   4.978  0.00  0.00    +0.093 C 
ENDBRANCH  22  25
BRANCH  22  26
ATOM     26  O   LIG    1       28.824 -13.606   2.945  0.00  0.00    -0.494 OA
ATOM     27  H   LIG    1       29.062 -12.934   2.288  0.00  0.00    +0.293 HD
ENDBRANCH  22  26
ENDBRANCH  19  23
ENDBRANCH   1  19
TORSDOF 6
ENDMDL
