MODEL 1
REMARK VINA RESULT:      -6.5      0.000      0.000
REMARK  Name = *****
REMARK                            x       y       z     vdW  Elec       q    Type
REMARK                         _______ _______ _______ _____ _____    ______ ____
ROOT
ATOM      1  C   LIG    1       25.696 -21.050   9.030  0.00  0.00    +0.155 C 
ATOM      2  N   LIG    1       25.598 -20.785   7.609  0.00  0.00    -0.280 N 
ATOM      3  C   LIG    1       24.359 -20.950   6.980  0.00  0.00    +0.333 C 
ATOM      4  O   LIG    1       23.361 -21.313   7.610  0.00  0.00    -0.246 OA
ATOM      5  N   LIG    1       24.297 -20.687   5.595  0.00  0.00    -0.262 N 
ATOM      6  C   LIG    1       23.006 -20.872   4.963  0.00  0.00    +0.157 C 
ATOM      7  C   LIG    1       25.365 -20.270   4.800  0.00  0.00    +0.282 C 
ATOM      8  O   LIG    1       25.303 -20.037   3.597  0.00  0.00    -0.265 OA
ATOM      9  C   LIG    1       26.569 -20.132   5.532  0.00  0.00    +0.150 A 
ATOM     10  N   LIG    1       27.815 -19.756   5.124  0.00  0.00    -0.323 N 
ATOM     11  H   LIG    1       28.102 -19.498   4.190  0.00  0.00    +0.168 HD
ATOM     12  C   LIG    1       28.599 -19.797   6.238  0.00  0.00    +0.203 A 
ATOM     13 CL   LIG    1       30.236 -19.385   6.101  0.00  0.00    -0.043 Cl
ATOM     14  N   LIG    1       27.951 -20.169   7.316  0.00  0.00    -0.199 NA
ATOM     15  C   LIG    1       26.681 -20.378   6.868  0.00  0.00    +0.169 A 
ENDROOT
TORSDOF 0
ENDMDL
MODEL 2
REMARK VINA RESULT:      -6.3      1.341      2.821
REMARK  Name = *****
REMARK                            x       y       z     vdW  Elec       q    Type
REMARK                         _______ _______ _______ _____ _____    ______ ____
ROOT
ATOM      1  C   LIG    1       25.513 -19.885   3.767  0.00  0.00    +0.155 C 
ATOM      2  N   LIG    1       25.553 -20.298   5.155  0.00  0.00    -0.280 N 
ATOM      3  C   LIG    1       24.383 -20.798   5.739  0.00  0.00    +0.333 C 
ATOM      4  O   LIG    1       23.333 -20.892   5.097  0.00  0.00    -0.246 OA
ATOM      5  N   LIG    1       24.453 -21.189   7.093  0.00  0.00    -0.262 N 
ATOM      6  C   LIG    1       23.228 -21.697   7.679  0.00  0.00    +0.157 C 
ATOM      7  C   LIG    1       25.590 -21.126   7.898  0.00  0.00    +0.282 C 
ATOM      8  O   LIG    1       25.646 -21.472   9.073  0.00  0.00    -0.265 OA
ATOM      9  C   LIG    1       26.716 -20.607   7.212  0.00  0.00    +0.150 A 
ATOM     10  N   LIG    1       27.991 -20.387   7.644  0.00  0.00    -0.323 N 
ATOM     11  H   LIG    1       28.365 -20.566   8.566  0.00  0.00    +0.168 HD
ATOM     12  C   LIG    1       28.662 -19.875   6.573  0.00  0.00    +0.203 A 
ATOM     13 CL   LIG    1       30.299 -19.477   6.750  0.00  0.00    -0.043 Cl
ATOM     14  N   LIG    1       27.916 -19.753   5.502  0.00  0.00    -0.199 NA
ATOM     15  C   LIG    1       26.699 -20.213   5.908  0.00  0.00    +0.169 A 
ENDROOT
TORSDOF 0
ENDMDL
MODEL 3
REMARK VINA RESULT:      -6.3      3.009      4.277
REMARK  Name = *****
REMARK                            x       y       z     vdW  Elec       q    Type
REMARK                         _______ _______ _______ _____ _____    ______ ____
ROOT
ATOM      1  C   LIG    1       26.621 -22.312   8.032  0.00  0.00    +0.155 C 
ATOM      2  N   LIG    1       27.339 -21.302   7.281  0.00  0.00    -0.280 N 
ATOM      3  C   LIG    1       28.627 -20.947   7.699  0.00  0.00    +0.333 C 
ATOM      4  O   LIG    1       29.153 -21.475   8.684  0.00  0.00    -0.246 OA
ATOM      5  N   LIG    1       29.299 -19.959   6.949  0.00  0.00    -0.262 N 
ATOM      6  C   LIG    1       30.628 -19.602   7.403  0.00  0.00    +0.157 C 
ATOM      7  C   LIG    1       28.793 -19.311   5.822  0.00  0.00    +0.282 C 
ATOM      8  O   LIG    1       29.385 -18.457   5.171  0.00  0.00    -0.265 OA
ATOM      9  C   LIG    1       27.487 -19.744   5.484  0.00  0.00    +0.150 A 
ATOM     10  N   LIG    1       26.661 -19.357   4.470  0.00  0.00    -0.323 N 
ATOM     11  H   LIG    1       26.850 -18.666   3.756  0.00  0.00    +0.168 HD
ATOM     12  C   LIG    1       25.524 -20.094   4.616  0.00  0.00    +0.203 A 
ATOM     13 CL   LIG    1       24.258 -19.870   3.513  0.00  0.00    -0.043 Cl
ATOM     14  N   LIG    1       25.563 -20.914   5.639  0.00  0.00    -0.199 NA
ATOM     15  C   LIG    1       26.795 -20.691   6.178  0.00  0.00    +0.169 A 
ENDROOT
TORSDOF 0
ENDMDL
MODEL 4
REMARK VINA RESULT:      -6.0      3.062      4.930
REMARK  Name = *****
REMARK                            x       y       z     vdW  Elec       q    Type
REMARK                         _______ _______ _______ _____ _____    ______ ____
ROOT
ATOM      1  C   LIG    1       25.558 -19.805   3.904  0.00  0.00    +0.155 C 
ATOM      2  N   LIG    1       26.033 -20.317   5.173  0.00  0.00    -0.280 N 
ATOM      3  C   LIG    1       27.258 -19.855   5.666  0.00  0.00    +0.333 C 
ATOM      4  O   LIG    1       27.931 -19.027   5.044  0.00  0.00    -0.246 OA
ATOM      5  N   LIG    1       27.695 -20.375   6.902  0.00  0.00    -0.262 N 
ATOM      6  C   LIG    1       28.969 -19.888   7.390  0.00  0.00    +0.157 C 
ATOM      7  C   LIG    1       27.005 -21.306   7.680  0.00  0.00    +0.282 C 
ATOM      8  O   LIG    1       27.388 -21.751   8.757  0.00  0.00    -0.265 OA
ATOM      9  C   LIG    1       25.780 -21.707   7.093  0.00  0.00    +0.150 A 
ATOM     10  N   LIG    1       24.835 -22.588   7.530  0.00  0.00    -0.323 N 
ATOM     11  H   LIG    1       24.849 -23.127   8.386  0.00  0.00    +0.168 HD
ATOM     12  C   LIG    1       23.862 -22.594   6.576  0.00  0.00    +0.203 A 
ATOM     13 CL   LIG    1       22.512 -23.593   6.791  0.00  0.00    -0.043 Cl
ATOM     14  N   LIG    1       24.115 -21.790   5.571  0.00  0.00    -0.199 NA
ATOM     15  C   LIG    1       25.317 -21.237   5.900  0.00  0.00    +0.169 A 
ENDROOT
TORSDOF 0
ENDMDL
MODEL 5
REMARK VINA RESULT:      -5.6      2.695      3.229
REMARK  Name = *****
REMARK                            x       y       z     vdW  Elec       q    Type
REMARK                         _______ _______ _______ _____ _____    ______ ____
ROOT
ATOM      1  C   LIG    1       23.117 -20.633   7.104  0.00  0.00    +0.155 C 
ATOM      2  N   LIG    1       24.027 -21.752   6.959  0.00  0.00    -0.280 N 
ATOM      3  C   LIG    1       23.494 -23.020   6.701  0.00  0.00    +0.333 C 
ATOM      4  O   LIG    1       22.276 -23.197   6.596  0.00  0.00    -0.246 OA
ATOM      5  N   LIG    1       24.405 -24.088   6.567  0.00  0.00    -0.262 N 
ATOM      6  C   LIG    1       23.830 -25.393   6.307  0.00  0.00    +0.157 C 
ATOM      7  C   LIG    1       25.793 -23.988   6.663  0.00  0.00    +0.282 C 
ATOM      8  O   LIG    1       26.580 -24.920   6.540  0.00  0.00    -0.265 OA
ATOM      9  C   LIG    1       26.228 -22.665   6.924  0.00  0.00    +0.150 A 
ATOM     10  N   LIG    1       27.485 -22.163   7.089  0.00  0.00    -0.323 N 
ATOM     11  H   LIG    1       28.358 -22.672   7.049  0.00  0.00    +0.168 HD
ATOM     12  C   LIG    1       27.325 -20.829   7.318  0.00  0.00    +0.203 A 
ATOM     13 CL   LIG    1       28.700 -19.873   7.572  0.00  0.00    -0.043 Cl
ATOM     14  N   LIG    1       26.070 -20.447   7.312  0.00  0.00    -0.199 NA
ATOM     15  C   LIG    1       25.388 -21.601   7.065  0.00  0.00    +0.169 A 
ENDROOT
TORSDOF 0
ENDMDL
MODEL 6
REMARK VINA RESULT:      -5.5      3.146      4.348
REMARK  Name = *****
REMARK                            x       y       z     vdW  Elec       q    Type
REMARK                         _______ _______ _______ _____ _____    ______ ____
ROOT
ATOM      1  C   LIG    1       22.939 -23.600   6.776  0.00  0.00    +0.155 C 
ATOM      2  N   LIG    1       23.953 -22.602   6.501  0.00  0.00    -0.280 N 
ATOM      3  C   LIG    1       25.261 -22.837   6.940  0.00  0.00    +0.333 C 
ATOM      4  O   LIG    1       25.559 -23.869   7.549  0.00  0.00    -0.246 OA
ATOM      5  N   LIG    1       26.225 -21.846   6.659  0.00  0.00    -0.262 N 
ATOM      6  C   LIG    1       27.571 -22.108   7.129  0.00  0.00    +0.157 C 
ATOM      7  C   LIG    1       25.987 -20.653   5.975  0.00  0.00    +0.282 C 
ATOM      8  O   LIG    1       26.831 -19.798   5.730  0.00  0.00    -0.265 OA
ATOM      9  C   LIG    1       24.635 -20.514   5.575  0.00  0.00    +0.150 A 
ATOM     10  N   LIG    1       24.012 -19.507   4.899  0.00  0.00    -0.323 N 
ATOM     11  H   LIG    1       24.427 -18.652   4.554  0.00  0.00    +0.168 HD
ATOM     12  C   LIG    1       22.708 -19.888   4.784  0.00  0.00    +0.203 A 
ATOM     13 CL   LIG    1       21.624 -18.860   3.988  0.00  0.00    -0.043 Cl
ATOM     14  N   LIG    1       22.457 -21.053   5.331  0.00  0.00    -0.199 NA
ATOM     15  C   LIG    1       23.667 -21.440   5.825  0.00  0.00    +0.169 A 
ENDROOT
TORSDOF 0
ENDMDL
MODEL 7
REMARK VINA RESULT:      -5.5      3.364      5.295
REMARK  Name = *****
REMARK                            x       y       z     vdW  Elec       q    Type
REMARK                         _______ _______ _______ _____ _____    ______ ____
ROOT
ATOM      1  C   LIG    1       27.408 -18.779   4.641  0.00  0.00    +0.155 C 
ATOM      2  N   LIG    1       28.017 -19.523   5.725  0.00  0.00    -0.280 N 
ATOM      3  C   LIG    1       29.315 -19.185   6.123  0.00  0.00    +0.333 C 
ATOM      4  O   LIG    1       29.940 -18.273   5.573  0.00  0.00    -0.246 OA
ATOM      5  N   LIG    1       29.881 -19.929   7.179  0.00  0.00    -0.262 N 
ATOM      6  C   LIG    1       31.228 -19.566   7.571  0.00  0.00    +0.157 C 
ATOM      7  C   LIG    1       29.255 -20.971   7.865  0.00  0.00    +0.282 C 
ATOM      8  O   LIG    1       29.751 -21.611   8.786  0.00  0.00    -0.265 OA
ATOM      9  C   LIG    1       27.948 -21.231   7.385  0.00  0.00    +0.150 A 
ATOM     10  N   LIG    1       27.027 -22.157   7.782  0.00  0.00    -0.323 N 
ATOM     11  H   LIG    1       27.126 -22.841   8.519  0.00  0.00    +0.168 HD
ATOM     12  C   LIG    1       25.942 -21.969   6.980  0.00  0.00    +0.203 A 
ATOM     13 CL   LIG    1       24.586 -22.960   7.194  0.00  0.00    -0.043 Cl
ATOM     14  N   LIG    1       26.101 -21.001   6.108  0.00  0.00    -0.199 NA
ATOM     15  C   LIG    1       27.358 -20.543   6.367  0.00  0.00    +0.169 A 
ENDROOT
TORSDOF 0
ENDMDL
MODEL 8
REMARK VINA RESULT:      -5.4      2.012      2.414
REMARK  Name = *****
REMARK                            x       y       z     vdW  Elec       q    Type
REMARK                         _______ _______ _______ _____ _____    ______ ____
ROOT
ATOM      1  C   LIG    1       25.987 -22.685   7.997  0.00  0.00    +0.155 C 
ATOM      2  N   LIG    1       26.585 -21.660   7.166  0.00  0.00    -0.280 N 
ATOM      3  C   LIG    1       25.828 -21.118   6.121  0.00  0.00    +0.333 C 
ATOM      4  O   LIG    1       24.673 -21.495   5.901  0.00  0.00    -0.246 OA
ATOM      5  N   LIG    1       26.439 -20.124   5.329  0.00  0.00    -0.262 N 
ATOM      6  C   LIG    1       25.639 -19.582   4.249  0.00  0.00    +0.157 C 
ATOM      7  C   LIG    1       27.733 -19.630   5.502  0.00  0.00    +0.282 C 
ATOM      8  O   LIG    1       28.256 -18.762   4.812  0.00  0.00    -0.265 OA
ATOM      9  C   LIG    1       28.411 -20.243   6.584  0.00  0.00    +0.150 A 
ATOM     10  N   LIG    1       29.671 -20.043   7.066  0.00  0.00    -0.323 N 
ATOM     11  H   LIG    1       30.364 -19.394   6.718  0.00  0.00    +0.168 HD
ATOM     12  C   LIG    1       29.806 -20.899   8.117  0.00  0.00    +0.203 A 
ATOM     13 CL   LIG    1       31.271 -20.924   8.968  0.00  0.00    -0.043 Cl
ATOM     14  N   LIG    1       28.736 -21.624   8.339  0.00  0.00    -0.199 NA
ATOM     15  C   LIG    1       27.865 -21.209   7.376  0.00  0.00    +0.169 A 
ENDROOT
TORSDOF 0
ENDMDL
MODEL 9
REMARK VINA RESULT:      -5.4      2.481      2.978
REMARK  Name = *****
REMARK                            x       y       z     vdW  Elec       q    Type
REMARK                         _______ _______ _______ _____ _____    ______ ____
ROOT
ATOM      1  C   LIG    1       26.129 -25.003   6.885  0.00  0.00    +0.155 C 
ATOM      2  N   LIG    1       25.344 -23.786   6.853  0.00  0.00    -0.280 N 
ATOM      3  C   LIG    1       23.969 -23.882   6.611  0.00  0.00    +0.333 C 
ATOM      4  O   LIG    1       23.422 -24.974   6.429  0.00  0.00    -0.246 OA
ATOM      5  N   LIG    1       23.233 -22.679   6.583  0.00  0.00    -0.262 N 
ATOM      6  C   LIG    1       21.812 -22.801   6.325  0.00  0.00    +0.157 C 
ATOM      7  C   LIG    1       23.758 -21.401   6.783  0.00  0.00    +0.282 C 
ATOM      8  O   LIG    1       23.111 -20.359   6.762  0.00  0.00    -0.265 OA
ATOM      9  C   LIG    1       25.154 -21.416   7.019  0.00  0.00    +0.150 A 
ATOM     10  N   LIG    1       26.024 -20.391   7.252  0.00  0.00    -0.323 N 
ATOM     11  H   LIG    1       25.809 -19.404   7.297  0.00  0.00    +0.168 HD
ATOM     12  C   LIG    1       27.247 -20.970   7.410  0.00  0.00    +0.203 A 
ATOM     13 CL   LIG    1       28.586 -19.980   7.718  0.00  0.00    -0.043 Cl
ATOM     14  N   LIG    1       27.222 -22.277   7.297  0.00  0.00    -0.199 NA
ATOM     15  C   LIG    1       25.910 -22.550   7.052  0.00  0.00    +0.169 A 
ENDROOT
TORSDOF 0
ENDMDL
