MODEL 1
REMARK VINA RESULT:      -5.6      0.000      0.000
REMARK  Name = *****
REMARK                            x       y       z     vdW  Elec       q    Type
REMARK                         _______ _______ _______ _____ _____    ______ ____
ROOT
ATOM      1  C   LIG    1       26.496 -13.863   4.019  0.00  0.00    +0.174 C 
ATOM      2  C   LIG    1       26.446 -12.949   2.772  0.00  0.00    +0.061 C 
ATOM      3  C   LIG    1       25.132 -13.073   1.988  0.00  0.00    +0.005 C 
ATOM      4  C   LIG    1       23.924 -12.800   2.875  0.00  0.00    +0.000 C 
ATOM      5  C   LIG    1       23.923 -13.699   4.105  0.00  0.00    +0.005 C 
ATOM      6  C   LIG    1       25.237 -13.604   4.880  0.00  0.00    +0.061 C 
ENDROOT
BRANCH   1   8
ATOM      7  C   LIG    1       26.614 -16.400   3.320  0.00  0.00    +0.008 C 
ATOM      8  C   LIG    1       26.561 -15.254   3.636  0.00  0.00    -0.058 C 
ENDBRANCH   1   8
BRANCH   1   9
ATOM      9  O   LIG    1       27.605 -13.530   4.900  0.00  0.00    -0.431 OA
BRANCH   9  10
ATOM     10  C   LIG    1       28.699 -12.898   4.423  0.00  0.00    +0.399 C 
ATOM     11  O   LIG    1       29.358 -13.191   3.443  0.00  0.00    -0.227 OA
ATOM     12  N   LIG    1       28.998 -11.852   5.228  0.00  0.00    -0.295 N 
ATOM     13  H   LIG    1       29.847 -11.334   5.051  0.00  0.00    +0.148 HD
ATOM     14  H   LIG    1       28.513 -11.743   6.106  0.00  0.00    +0.148 HD
ENDBRANCH   9  10
ENDBRANCH   1   9
TORSDOF 3
ENDMDL
MODEL 2
REMARK VINA RESULT:      -5.2      1.831      2.260
REMARK  Name = *****
REMARK                            x       y       z     vdW  Elec       q    Type
REMARK                         _______ _______ _______ _____ _____    ______ ____
ROOT
ATOM      1  C   LIG    1       25.164 -13.785   4.033  0.00  0.00    +0.174 C 
ATOM      2  C   LIG    1       25.421 -13.602   2.518  0.00  0.00    +0.061 C 
ATOM      3  C   LIG    1       24.315 -12.806   1.812  0.00  0.00    +0.005 C 
ATOM      4  C   LIG    1       24.100 -11.447   2.466  0.00  0.00    +0.000 C 
ATOM      5  C   LIG    1       23.819 -11.585   3.957  0.00  0.00    +0.005 C 
ATOM      6  C   LIG    1       24.901 -12.399   4.666  0.00  0.00    +0.061 C 
ENDROOT
BRANCH   1   8
ATOM      7  C   LIG    1       23.111 -15.381   4.450  0.00  0.00    +0.008 C 
ATOM      8  C   LIG    1       24.038 -14.660   4.262  0.00  0.00    -0.058 C 
ENDBRANCH   1   8
BRANCH   1   9
ATOM      9  O   LIG    1       26.339 -14.280   4.733  0.00  0.00    -0.431 OA
BRANCH   9  10
ATOM     10  C   LIG    1       27.499 -14.485   4.074  0.00  0.00    +0.399 C 
ATOM     11  O   LIG    1       28.345 -13.659   3.784  0.00  0.00    -0.227 OA
ATOM     12  N   LIG    1       27.601 -15.793   3.741  0.00  0.00    -0.295 N 
ATOM     13  H   LIG    1       28.376 -16.085   3.163  0.00  0.00    +0.148 HD
ATOM     14  H   LIG    1       26.808 -16.403   3.871  0.00  0.00    +0.148 HD
ENDBRANCH   9  10
ENDBRANCH   1   9
TORSDOF 3
ENDMDL
MODEL 3
REMARK VINA RESULT:      -5.0      2.629      3.910
REMARK  Name = *****
REMARK                            x       y       z     vdW  Elec       q    Type
REMARK                         _______ _______ _______ _____ _____    ______ ____
ROOT
ATOM      1  C   LIG    1       25.712 -13.896   3.524  0.00  0.00    +0.174 C 
ATOM      2  C   LIG    1       25.777 -13.451   5.005  0.00  0.00    +0.061 C 
ATOM      3  C   LIG    1       27.174 -13.613   5.621  0.00  0.00    +0.005 C 
ATOM      4  C   LIG    1       28.231 -12.873   4.812  0.00  0.00    +0.000 C 
ATOM      5  C   LIG    1       28.217 -13.302   3.350  0.00  0.00    +0.005 C 
ATOM      6  C   LIG    1       26.824 -13.169   2.734  0.00  0.00    +0.061 C 
ENDROOT
BRANCH   1   8
ATOM      7  C   LIG    1       26.006 -16.506   3.316  0.00  0.00    +0.008 C 
ATOM      8  C   LIG    1       25.873 -15.327   3.410  0.00  0.00    -0.058 C 
ENDBRANCH   1   8
BRANCH   1   9
ATOM      9  O   LIG    1       24.480 -13.474   2.878  0.00  0.00    -0.431 OA
BRANCH   9  10
ATOM     10  C   LIG    1       24.028 -12.209   3.013  0.00  0.00    +0.399 C 
ATOM     11  O   LIG    1       23.576 -11.684   4.015  0.00  0.00    -0.227 OA
ATOM     12  N   LIG    1       24.126 -11.568   1.826  0.00  0.00    -0.295 N 
ATOM     13  H   LIG    1       23.742 -10.637   1.746  0.00  0.00    +0.148 HD
ATOM     14  H   LIG    1       24.364 -12.090   0.996  0.00  0.00    +0.148 HD
ENDBRANCH   9  10
ENDBRANCH   1   9
TORSDOF 3
ENDMDL
MODEL 4
REMARK VINA RESULT:      -5.0      2.427      3.412
REMARK  Name = *****
REMARK                            x       y       z     vdW  Elec       q    Type
REMARK                         _______ _______ _______ _____ _____    ______ ____
ROOT
ATOM      1  C   LIG    1       26.248 -14.500   3.469  0.00  0.00    +0.174 C 
ATOM      2  C   LIG    1       24.835 -14.923   3.936  0.00  0.00    +0.061 C 
ATOM      3  C   LIG    1       23.902 -13.730   4.187  0.00  0.00    +0.005 C 
ATOM      4  C   LIG    1       23.794 -12.836   2.959  0.00  0.00    +0.000 C 
ATOM      5  C   LIG    1       25.166 -12.376   2.482  0.00  0.00    +0.005 C 
ATOM      6  C   LIG    1       26.112 -13.555   2.253  0.00  0.00    +0.061 C 
ENDROOT
BRANCH   1   8
ATOM      7  C   LIG    1       27.556 -13.296   5.413  0.00  0.00    +0.008 C 
ATOM      8  C   LIG    1       26.965 -13.840   4.535  0.00  0.00    -0.058 C 
ENDBRANCH   1   8
BRANCH   1   9
ATOM      9  O   LIG    1       27.019 -15.624   2.963  0.00  0.00    -0.431 OA
BRANCH   9  10
ATOM     10  C   LIG    1       26.784 -16.878   3.407  0.00  0.00    +0.399 C 
ATOM     11  O   LIG    1       25.811 -17.575   3.183  0.00  0.00    -0.227 OA
ATOM     12  N   LIG    1       27.812 -17.276   4.191  0.00  0.00    -0.295 N 
ATOM     13  H   LIG    1       27.738 -18.161   4.671  0.00  0.00    +0.148 HD
ATOM     14  H   LIG    1       28.517 -16.609   4.465  0.00  0.00    +0.148 HD
ENDBRANCH   9  10
ENDBRANCH   1   9
TORSDOF 3
ENDMDL
MODEL 5
REMARK VINA RESULT:      -3.7      2.833      3.860
REMARK  Name = *****
REMARK                            x       y       z     vdW  Elec       q    Type
REMARK                         _______ _______ _______ _____ _____    ______ ____
ROOT
ATOM      1  C   LIG    1       26.186 -14.431   3.166  0.00  0.00    +0.174 C 
ATOM      2  C   LIG    1       27.705 -14.197   2.986  0.00  0.00    +0.061 C 
ATOM      3  C   LIG    1       28.206 -12.928   3.689  0.00  0.00    +0.005 C 
ATOM      4  C   LIG    1       27.859 -12.937   5.172  0.00  0.00    +0.000 C 
ATOM      5  C   LIG    1       26.365 -13.140   5.393  0.00  0.00    +0.005 C 
ATOM      6  C   LIG    1       25.849 -14.387   4.675  0.00  0.00    +0.061 C 
ENDROOT
BRANCH   1   8
ATOM      7  C   LIG    1       24.796 -12.608   1.870  0.00  0.00    +0.008 C 
ATOM      8  C   LIG    1       25.424 -13.431   2.456  0.00  0.00    -0.058 C 
ENDBRANCH   1   8
BRANCH   1   9
ATOM      9  O   LIG    1       25.783 -15.765   2.749  0.00  0.00    -0.431 OA
BRANCH   9  10
ATOM     10  C   LIG    1       26.310 -16.860   3.336  0.00  0.00    +0.399 C 
ATOM     11  O   LIG    1       27.422 -16.985   3.813  0.00  0.00    -0.227 OA
ATOM     12  N   LIG    1       25.402 -17.864   3.307  0.00  0.00    -0.295 N 
ATOM     13  H   LIG    1       25.684 -18.779   3.630  0.00  0.00    +0.148 HD
ATOM     14  H   LIG    1       24.556 -17.756   2.769  0.00  0.00    +0.148 HD
ENDBRANCH   9  10
ENDBRANCH   1   9
TORSDOF 3
ENDMDL
MODEL 6
REMARK VINA RESULT:      -3.4      1.570      2.792
REMARK  Name = *****
REMARK                            x       y       z     vdW  Elec       q    Type
REMARK                         _______ _______ _______ _____ _____    ______ ____
ROOT
ATOM      1  C   LIG    1       25.634 -13.226   3.269  0.00  0.00    +0.174 C 
ATOM      2  C   LIG    1       25.571 -12.854   4.770  0.00  0.00    +0.061 C 
ATOM      3  C   LIG    1       24.167 -13.006   5.369  0.00  0.00    +0.005 C 
ATOM      4  C   LIG    1       23.620 -14.412   5.164  0.00  0.00    +0.000 C 
ATOM      5  C   LIG    1       23.641 -14.809   3.693  0.00  0.00    +0.005 C 
ATOM      6  C   LIG    1       25.030 -14.636   3.078  0.00  0.00    +0.061 C 
ENDROOT
BRANCH   1   8
ATOM      7  C   LIG    1       24.319 -11.469   1.812  0.00  0.00    +0.008 C 
ATOM      8  C   LIG    1       24.913 -12.262   2.470  0.00  0.00    -0.058 C 
ENDBRANCH   1   8
BRANCH   1   9
ATOM      9  O   LIG    1       27.001 -13.355   2.791  0.00  0.00    -0.431 OA
BRANCH   9  10
ATOM     10  C   LIG    1       27.971 -13.837   3.598  0.00  0.00    +0.399 C 
ATOM     11  O   LIG    1       27.968 -14.883   4.220  0.00  0.00    -0.227 OA
ATOM     12  N   LIG    1       28.994 -12.953   3.646  0.00  0.00    -0.295 N 
ATOM     13  H   LIG    1       29.758 -13.132   4.282  0.00  0.00    +0.148 HD
ATOM     14  H   LIG    1       28.883 -12.039   3.234  0.00  0.00    +0.148 HD
ENDBRANCH   9  10
ENDBRANCH   1   9
TORSDOF 3
ENDMDL
MODEL 7
REMARK VINA RESULT:      -3.4      5.057      6.506
REMARK  Name = *****
REMARK                            x       y       z     vdW  Elec       q    Type
REMARK                         _______ _______ _______ _____ _____    ______ ____
ROOT
ATOM      1  C   LIG    1       24.869 -19.771   4.086  0.00  0.00    +0.174 C 
ATOM      2  C   LIG    1       24.161 -20.987   3.442  0.00  0.00    +0.061 C 
ATOM      3  C   LIG    1       23.040 -21.563   4.318  0.00  0.00    +0.005 C 
ATOM      4  C   LIG    1       22.011 -20.500   4.680  0.00  0.00    +0.000 C 
ATOM      5  C   LIG    1       22.666 -19.293   5.340  0.00  0.00    +0.005 C 
ATOM      6  C   LIG    1       23.802 -18.726   4.488  0.00  0.00    +0.061 C 
ENDROOT
BRANCH   1   8
ATOM      7  C   LIG    1       26.265 -20.505   6.195  0.00  0.00    +0.008 C 
ATOM      8  C   LIG    1       25.634 -20.173   5.242  0.00  0.00    -0.058 C 
ENDBRANCH   1   8
BRANCH   1   9
ATOM      9  O   LIG    1       25.719 -19.066   3.139  0.00  0.00    -0.431 OA
BRANCH   9  10
ATOM     10  C   LIG    1       26.151 -17.814   3.399  0.00  0.00    +0.399 C 
ATOM     11  O   LIG    1       25.627 -16.764   3.074  0.00  0.00    -0.227 OA
ATOM     12  N   LIG    1       27.316 -17.875   4.086  0.00  0.00    -0.295 N 
ATOM     13  H   LIG    1       27.810 -17.015   4.276  0.00  0.00    +0.148 HD
ATOM     14  H   LIG    1       27.782 -18.762   4.198  0.00  0.00    +0.148 HD
ENDBRANCH   9  10
ENDBRANCH   1   9
TORSDOF 3
ENDMDL
MODEL 8
REMARK VINA RESULT:      -3.3      3.283      4.469
REMARK  Name = *****
REMARK                            x       y       z     vdW  Elec       q    Type
REMARK                         _______ _______ _______ _____ _____    ______ ____
ROOT
ATOM      1  C   LIG    1       24.698 -13.883   3.570  0.00  0.00    +0.174 C 
ATOM      2  C   LIG    1       25.639 -14.923   2.915  0.00  0.00    +0.061 C 
ATOM      3  C   LIG    1       27.112 -14.493   2.927  0.00  0.00    +0.005 C 
ATOM      4  C   LIG    1       27.592 -14.181   4.339  0.00  0.00    +0.000 C 
ATOM      5  C   LIG    1       26.705 -13.141   5.012  0.00  0.00    +0.005 C 
ATOM      6  C   LIG    1       25.232 -13.546   4.982  0.00  0.00    +0.061 C 
ENDROOT
BRANCH   1   8
ATOM      7  C   LIG    1       24.552 -11.697   2.107  0.00  0.00    +0.008 C 
ATOM      8  C   LIG    1       24.618 -12.685   2.768  0.00  0.00    -0.058 C 
ENDBRANCH   1   8
BRANCH   1   9
ATOM      9  O   LIG    1       23.368 -14.420   3.809  0.00  0.00    -0.431 OA
BRANCH   9  10
ATOM     10  C   LIG    1       23.206 -15.616   4.414  0.00  0.00    +0.399 C 
ATOM     11  O   LIG    1       23.717 -16.678   4.110  0.00  0.00    -0.227 OA
ATOM     12  N   LIG    1       22.338 -15.484   5.444  0.00  0.00    -0.295 N 
ATOM     13  H   LIG    1       22.046 -16.314   5.939  0.00  0.00    +0.148 HD
ATOM     14  H   LIG    1       21.830 -14.620   5.560  0.00  0.00    +0.148 HD
ENDBRANCH   9  10
ENDBRANCH   1   9
TORSDOF 3
ENDMDL
MODEL 9
REMARK VINA RESULT:      -3.2      6.220      7.848
REMARK  Name = *****
REMARK                            x       y       z     vdW  Elec       q    Type
REMARK                         _______ _______ _______ _____ _____    ______ ____
ROOT
ATOM      1  C   LIG    1       24.000 -19.789   4.727  0.00  0.00    +0.174 C 
ATOM      2  C   LIG    1       23.183 -20.196   5.977  0.00  0.00    +0.061 C 
ATOM      3  C   LIG    1       23.742 -21.438   6.683  0.00  0.00    +0.005 C 
ATOM      4  C   LIG    1       25.206 -21.255   7.062  0.00  0.00    +0.000 C 
ATOM      5  C   LIG    1       26.051 -20.877   5.851  0.00  0.00    +0.005 C 
ATOM      6  C   LIG    1       25.488 -19.656   5.124  0.00  0.00    +0.061 C 
ENDROOT
BRANCH   1   8
ATOM      7  C   LIG    1       23.726 -21.572   2.807  0.00  0.00    +0.008 C 
ATOM      8  C   LIG    1       23.850 -20.766   3.675  0.00  0.00    -0.058 C 
ENDBRANCH   1   8
BRANCH   1   9
ATOM      9  O   LIG    1       23.640 -18.466   4.243  0.00  0.00    -0.431 OA
BRANCH   9  10
ATOM     10  C   LIG    1       22.358 -18.043   4.278  0.00  0.00    +0.399 C 
ATOM     11  O   LIG    1       21.369 -18.637   3.889  0.00  0.00    -0.227 OA
ATOM     12  N   LIG    1       22.311 -16.799   4.809  0.00  0.00    -0.295 N 
ATOM     13  H   LIG    1       21.427 -16.312   4.818  0.00  0.00    +0.148 HD
ATOM     14  H   LIG    1       23.168 -16.295   4.974  0.00  0.00    +0.148 HD
ENDBRANCH   9  10
ENDBRANCH   1   9
TORSDOF 3
ENDMDL
