MODEL 1
REMARK VINA RESULT:      -5.4      0.000      0.000
REMARK  Name = *****
REMARK                            x       y       z     vdW  Elec       q    Type
REMARK                         _______ _______ _______ _____ _____    ______ ____
ROOT
ATOM      1  C   LIG    1       23.388 -32.777   9.351  0.00  0.00    +0.176 C 
ATOM      2  C   LIG    1       23.771 -31.421   8.742  0.00  0.00    +0.239 C 
ATOM      3  O   LIG    1       23.007 -30.818   7.986  0.00  0.00    -0.273 OA
ATOM      4  N   LIG    1       24.976 -30.938   9.201  0.00  0.00    -0.279 N 
ATOM      5  H   LIG    1       25.384 -31.417   9.999  0.00  0.00    +0.155 HD
ATOM      6  C   LIG    1       25.585 -29.731   8.890  0.00  0.00    +0.110 C 
ATOM      7  C   LIG    1       25.262 -28.940   7.841  0.00  0.00    +0.104 C 
ATOM      8  C   LIG    1       26.594 -29.255   9.896  0.00  0.00    +0.260 C 
ATOM      9  O   LIG    1       27.806 -29.299   9.738  0.00  0.00    -0.269 OA
ATOM     10  N   LIG    1       25.920 -28.887  11.031  0.00  0.00    -0.296 N 
ATOM     11  H   LIG    1       24.887 -28.900  11.033  0.00  0.00    +0.150 HD
ATOM     12  C   LIG    1       26.571 -28.362  12.240  0.00  0.00    +0.194 C 
ATOM     13  C   LIG    1       25.501 -27.448  12.855  0.00  0.00    +0.237 C 
ATOM     14  O   LIG    1       25.589 -26.222  12.862  0.00  0.00    -0.274 OA
ATOM     15  N   LIG    1       24.379 -28.124  13.275  0.00  0.00    -0.312 N 
ATOM     16  H   LIG    1       24.412 -29.139  13.206  0.00  0.00    +0.149 HD
ATOM     17  C   LIG    1       23.126 -27.476  13.617  0.00  0.00    +0.132 C 
ATOM     18  CA  LIG    1       22.049 -28.495  14.036  0.00  0.00    +0.155 C 
ATOM     19  C   LIG    1       21.760 -29.440  12.853  0.00  0.00    +0.232 C 
ATOM     20  O   LIG    1       21.890 -29.110  11.678  0.00  0.00    -0.274 OA
ATOM     21  N   LIG    1       21.296 -30.685  13.207  0.00  0.00    -0.301 N 
ATOM     22  H   LIG    1       21.378 -30.910  14.198  0.00  0.00    +0.150 HD
ATOM     23  CA  LIG    1       21.007 -31.733  12.224  0.00  0.00    +0.184 C 
ATOM     24  C   LIG    1       22.317 -32.132  11.483  0.00  0.00    +0.236 C 
ATOM     25  O   LIG    1       23.407 -32.149  12.066  0.00  0.00    -0.274 OA
ATOM     26  N   LIG    1       22.192 -32.536  10.167  0.00  0.00    -0.301 N 
ATOM     27  H   LIG    1       21.419 -32.111   9.653  0.00  0.00    +0.150 HD
ENDROOT
BRANCH   7  28
ATOM     28  N   LIG    1       25.823 -27.710   7.597  0.00  0.00    -0.274 N 
ATOM     29  H   LIG    1       26.152 -27.142   8.376  0.00  0.00    +0.156 HD
ATOM     30  C   LIG    1       26.036 -27.084   6.402  0.00  0.00    +0.301 C 
ATOM     31  O   LIG    1       26.556 -25.971   6.348  0.00  0.00    -0.253 OA
ATOM     32  N   LIG    1       25.644 -27.710   5.273  0.00  0.00    -0.313 N 
ATOM     33  H   LIG    1       25.885 -27.222   4.420  0.00  0.00    +0.146 HD
ATOM     34  H   LIG    1       25.657 -28.717   5.219  0.00  0.00    +0.146 HD
ENDBRANCH   7  28
BRANCH  12  35
ATOM     35  C   LIG    1       27.105 -29.507  13.138  0.00  0.00    +0.168 C 
ATOM     36  N   LIG    1       26.145 -30.611  13.252  0.00  0.00    -0.234 N 
ATOM     37  H   LIG    1       26.409 -31.447  12.739  0.00  0.00    +0.245 HD
ATOM     38  C   LIG    1       25.544 -30.888  14.430  0.00  0.00    +0.362 C 
ATOM     39  N   LIG    1       25.551 -30.184  15.500  0.00  0.00    -0.117 NA
ATOM     40  C   LIG    1       26.383 -28.974  15.500  0.00  0.00    +0.246 C 
ATOM     41  C   LIG    1       27.554 -29.075  14.531  0.00  0.00    +0.081 C 
BRANCH  38  42
ATOM     42  N   LIG    1       24.806 -32.011  14.338  0.00  0.00    -0.252 N 
ATOM     43  H   LIG    1       25.332 -32.880  14.257  0.00  0.00    +0.241 HD
ATOM     44  H   LIG    1       24.060 -31.933  13.655  0.00  0.00    +0.241 HD
ENDBRANCH  38  42
ENDBRANCH  12  35
BRANCH  18  45
ATOM     45  N   LIG    1       22.430 -29.288  15.237  0.00  0.00    -0.319 NA
ATOM     46  H1  LIG    1       22.814 -30.180  14.909  0.00  0.00    +0.119 HD
ATOM     47  H2  LIG    1       21.566 -29.593  15.704  0.00  0.00    +0.119 HD
ENDBRANCH  18  45
BRANCH   1  48
ATOM     48  C   LIG    1       23.147 -33.776   8.212  0.00  0.00    +0.136 C 
BRANCH  48  50
ATOM     49  C   LIG    1       23.688 -33.554   5.814  0.00  0.00    +0.215 C 
ATOM     50  N   LIG    1       24.108 -33.626   7.125  0.00  0.00    -0.313 N 
ATOM     51  H   LIG    1       24.938 -33.042   7.285  0.00  0.00    +0.149 HD
ATOM     52  O   LIG    1       22.527 -33.730   5.464  0.00  0.00    -0.276 OA
BRANCH  49  53
ATOM     53  C   LIG    1       24.816 -33.314   4.823  0.00  0.00    +0.114 C 
BRANCH  53  54
ATOM     54  C   LIG    1       25.487 -31.938   4.943  0.00  0.00    +0.059 C 
BRANCH  54  55
ATOM     55  N   LIG    1       24.498 -30.891   5.284  0.00  0.00    -0.327 NA
ATOM     56  H   LIG    1       23.594 -31.348   5.439  0.00  0.00    +0.118 HD
ATOM     57  H   LIG    1       24.342 -30.294   4.468  0.00  0.00    +0.118 HD
ENDBRANCH  54  55
BRANCH  54  58
ATOM     58  C   LIG    1       26.606 -31.930   6.013  0.00  0.00    +0.020 C 
BRANCH  58  59
ATOM     59  C   LIG    1       27.518 -33.166   6.032  0.00  0.00    +0.016 C 
BRANCH  59  60
ATOM     60  C   LIG    1       27.599 -33.816   7.412  0.00  0.00    +0.077 C 
BRANCH  60  61
ATOM     61  N   LIG    1       27.157 -32.888   8.443  0.00  0.00    -0.330 NA
ATOM     62  H   LIG    1       26.784 -33.415   9.232  0.00  0.00    +0.118 HD
ATOM     63  H   LIG    1       27.954 -32.364   8.803  0.00  0.00    +0.118 HD
ENDBRANCH  60  61
ENDBRANCH  59  60
ENDBRANCH  58  59
ENDBRANCH  54  58
ENDBRANCH  53  54
ENDBRANCH  49  53
ENDBRANCH  48  50
ENDBRANCH   1  48
BRANCH  23  64
ATOM     64  C   LIG    1       19.785 -31.412  11.347  0.00  0.00    +0.187 C 
BRANCH  64  65
ATOM     65  O   LIG    1       20.069 -30.611  10.206  0.00  0.00    -0.393 OA
ATOM     66  H   LIG    1       19.246 -30.520   9.675  0.00  0.00    +0.209 HD
ENDBRANCH  64  65
ENDBRANCH  23  64
TORSDOF 15
ENDMDL
MODEL 2
REMARK VINA RESULT:      -4.8      1.711      2.247
REMARK  Name = *****
REMARK                            x       y       z     vdW  Elec       q    Type
REMARK                         _______ _______ _______ _____ _____    ______ ____
ROOT
ATOM      1  C   LIG    1       23.653 -32.327  11.001  0.00  0.00    +0.176 C 
ATOM      2  C   LIG    1       24.119 -31.192  10.080  0.00  0.00    +0.239 C 
ATOM      3  O   LIG    1       23.456 -30.847   9.099  0.00  0.00    -0.273 OA
ATOM      4  N   LIG    1       25.267 -30.571  10.518  0.00  0.00    -0.279 N 
ATOM      5  H   LIG    1       25.573 -30.794  11.462  0.00  0.00    +0.155 HD
ATOM      6  C   LIG    1       25.922 -29.489   9.948  0.00  0.00    +0.110 C 
ATOM      7  C   LIG    1       25.733 -29.037   8.688  0.00  0.00    +0.104 C 
ATOM      8  C   LIG    1       26.811 -28.722  10.887  0.00  0.00    +0.260 C 
ATOM      9  O   LIG    1       28.033 -28.782  10.890  0.00  0.00    -0.269 OA
ATOM     10  N   LIG    1       26.012 -28.063  11.784  0.00  0.00    -0.296 N 
ATOM     11  H   LIG    1       24.985 -28.099  11.669  0.00  0.00    +0.150 HD
ATOM     12  C   LIG    1       26.522 -27.200  12.860  0.00  0.00    +0.194 C 
ATOM     13  C   LIG    1       25.397 -26.175  13.060  0.00  0.00    +0.237 C 
ATOM     14  O   LIG    1       25.497 -24.996  12.727  0.00  0.00    -0.274 OA
ATOM     15  N   LIG    1       24.226 -26.729  13.522  0.00  0.00    -0.312 N 
ATOM     16  H   LIG    1       24.256 -27.720  13.751  0.00  0.00    +0.149 HD
ATOM     17  C   LIG    1       22.948 -26.040  13.518  0.00  0.00    +0.132 C 
ATOM     18  CA  LIG    1       21.818 -26.921  14.082  0.00  0.00    +0.155 C 
ATOM     19  C   LIG    1       21.660 -28.170  13.192  0.00  0.00    +0.232 C 
ATOM     20  O   LIG    1       21.931 -28.186  11.995  0.00  0.00    -0.274 OA
ATOM     21  N   LIG    1       21.144 -29.273  13.831  0.00  0.00    -0.301 N 
ATOM     22  H   LIG    1       21.106 -29.205  14.847  0.00  0.00    +0.150 HD
ATOM     23  CA  LIG    1       20.962 -30.565  13.161  0.00  0.00    +0.184 C 
ATOM     24  C   LIG    1       22.345 -31.127  12.721  0.00  0.00    +0.236 C 
ATOM     25  O   LIG    1       23.358 -30.952  13.408  0.00  0.00    -0.274 OA
ATOM     26  N   LIG    1       22.371 -31.892  11.570  0.00  0.00    -0.301 N 
ATOM     27  H   LIG    1       21.668 -31.648  10.871  0.00  0.00    +0.150 HD
ENDROOT
BRANCH   7  28
ATOM     28  N   LIG    1       26.333 -27.914   8.170  0.00  0.00    -0.274 N 
ATOM     29  H   LIG    1       27.141 -27.511   8.641  0.00  0.00    +0.156 HD
ATOM     30  C   LIG    1       26.009 -27.206   7.048  0.00  0.00    +0.301 C 
ATOM     31  O   LIG    1       26.650 -26.212   6.712  0.00  0.00    -0.253 OA
ATOM     32  N   LIG    1       24.951 -27.614   6.317  0.00  0.00    -0.313 N 
ATOM     33  H   LIG    1       24.801 -27.086   5.467  0.00  0.00    +0.146 HD
ATOM     34  H   LIG    1       24.711 -28.593   6.271  0.00  0.00    +0.146 HD
ENDBRANCH   7  28
BRANCH  12  35
ATOM     35  C   LIG    1       26.933 -28.031  14.103  0.00  0.00    +0.168 C 
ATOM     36  N   LIG    1       28.365 -28.351  14.102  0.00  0.00    -0.234 N 
ATOM     37  H   LIG    1       28.909 -27.830  14.784  0.00  0.00    +0.245 HD
ATOM     38  C   LIG    1       28.790 -29.625  13.957  0.00  0.00    +0.362 C 
ATOM     39  N   LIG    1       28.098 -30.652  13.628  0.00  0.00    -0.117 NA
ATOM     40  C   LIG    1       26.650 -30.462  13.476  0.00  0.00    +0.246 C 
ATOM     41  C   LIG    1       26.125 -29.307  14.319  0.00  0.00    +0.081 C 
BRANCH  38  42
ATOM     42  N   LIG    1       30.126 -29.705  14.114  0.00  0.00    -0.252 N 
ATOM     43  H   LIG    1       30.636 -28.828  14.009  0.00  0.00    +0.241 HD
ATOM     44  H   LIG    1       30.536 -30.469  13.586  0.00  0.00    +0.241 HD
ENDBRANCH  38  42
ENDBRANCH  12  35
BRANCH  18  45
ATOM     45  N   LIG    1       22.047 -27.331  15.495  0.00  0.00    -0.319 NA
ATOM     46  H1  LIG    1       21.266 -26.971  16.052  0.00  0.00    +0.119 HD
ATOM     47  H2  LIG    1       22.834 -26.781  15.862  0.00  0.00    +0.119 HD
ENDBRANCH  18  45
BRANCH   1  48
ATOM     48  C   LIG    1       23.536 -33.615  10.175  0.00  0.00    +0.136 C 
BRANCH  48  50
ATOM     49  C   LIG    1       23.767 -33.626   7.717  0.00  0.00    +0.215 C 
ATOM     50  N   LIG    1       24.350 -33.577   8.965  0.00  0.00    -0.313 N 
ATOM     51  H   LIG    1       25.193 -32.988   8.963  0.00  0.00    +0.149 HD
ATOM     52  O   LIG    1       22.571 -33.824   7.535  0.00  0.00    -0.276 OA
BRANCH  49  53
ATOM     53  C   LIG    1       24.759 -33.492   6.573  0.00  0.00    +0.114 C 
BRANCH  53  54
ATOM     54  C   LIG    1       24.373 -32.447   5.515  0.00  0.00    +0.059 C 
BRANCH  54  55
ATOM     55  N   LIG    1       23.702 -31.283   6.137  0.00  0.00    -0.327 NA
ATOM     56  H   LIG    1       23.333 -30.692   5.386  0.00  0.00    +0.118 HD
ATOM     57  H   LIG    1       24.401 -30.697   6.600  0.00  0.00    +0.118 HD
ENDBRANCH  54  55
BRANCH  54  58
ATOM     58  C   LIG    1       25.603 -31.944   4.720  0.00  0.00    +0.020 C 
BRANCH  58  59
ATOM     59  C   LIG    1       26.313 -32.998   3.856  0.00  0.00    +0.016 C 
BRANCH  59  60
ATOM     60  C   LIG    1       25.948 -32.889   2.377  0.00  0.00    +0.077 C 
BRANCH  60  61
ATOM     61  N   LIG    1       26.778 -33.778   1.578  0.00  0.00    -0.330 NA
ATOM     62  H   LIG    1       27.666 -33.320   1.378  0.00  0.00    +0.118 HD
ATOM     63  H   LIG    1       27.005 -34.616   2.112  0.00  0.00    +0.118 HD
ENDBRANCH  60  61
ENDBRANCH  59  60
ENDBRANCH  58  59
ENDBRANCH  54  58
ENDBRANCH  53  54
ENDBRANCH  49  53
ENDBRANCH  48  50
ENDBRANCH   1  48
BRANCH  23  64
ATOM     64  C   LIG    1       19.855 -30.534  12.093  0.00  0.00    +0.187 C 
BRANCH  64  65
ATOM     65  O   LIG    1       20.289 -30.127  10.801  0.00  0.00    -0.393 OA
ATOM     66  H   LIG    1       20.441 -30.930  10.254  0.00  0.00    +0.209 HD
ENDBRANCH  64  65
ENDBRANCH  23  64
TORSDOF 15
ENDMDL
MODEL 3
REMARK VINA RESULT:      -4.3      2.905      8.164
REMARK  Name = *****
REMARK                            x       y       z     vdW  Elec       q    Type
REMARK                         _______ _______ _______ _____ _____    ______ ____
ROOT
ATOM      1  C   LIG    1       22.170 -27.904  13.438  0.00  0.00    +0.176 C 
ATOM      2  C   LIG    1       23.669 -28.183  13.612  0.00  0.00    +0.239 C 
ATOM      3  O   LIG    1       24.127 -28.586  14.683  0.00  0.00    -0.273 OA
ATOM      4  N   LIG    1       24.391 -28.026  12.450  0.00  0.00    -0.279 N 
ATOM      5  H   LIG    1       23.855 -27.927  11.592  0.00  0.00    +0.155 HD
ATOM      6  C   LIG    1       25.747 -28.242  12.253  0.00  0.00    +0.110 C 
ATOM      7  C   LIG    1       26.671 -28.348  13.234  0.00  0.00    +0.104 C 
ATOM      8  C   LIG    1       26.146 -28.490  10.826  0.00  0.00    +0.260 C 
ATOM      9  O   LIG    1       26.714 -27.675  10.112  0.00  0.00    -0.269 OA
ATOM     10  N   LIG    1       25.661 -29.718  10.457  0.00  0.00    -0.296 N 
ATOM     11  H   LIG    1       25.193 -30.309  11.163  0.00  0.00    +0.150 HD
ATOM     12  C   LIG    1       25.855 -30.312   9.126  0.00  0.00    +0.194 C 
ATOM     13  C   LIG    1       25.846 -31.822   9.405  0.00  0.00    +0.237 C 
ATOM     14  O   LIG    1       26.853 -32.524   9.332  0.00  0.00    -0.274 OA
ATOM     15  N   LIG    1       24.638 -32.287   9.871  0.00  0.00    -0.312 N 
ATOM     16  H   LIG    1       23.878 -31.610   9.903  0.00  0.00    +0.149 HD
ATOM     17  C   LIG    1       24.452 -33.594  10.474  0.00  0.00    +0.132 C 
ATOM     18  CA  LIG    1       22.993 -33.822  10.911  0.00  0.00    +0.155 C 
ATOM     19  C   LIG    1       22.615 -32.774  11.977  0.00  0.00    +0.232 C 
ATOM     20  O   LIG    1       23.429 -32.267  12.744  0.00  0.00    -0.274 OA
ATOM     21  N   LIG    1       21.275 -32.473  12.044  0.00  0.00    -0.301 N 
ATOM     22  H   LIG    1       20.716 -32.823  11.267  0.00  0.00    +0.150 HD
ATOM     23  CA  LIG    1       20.732 -31.470  12.965  0.00  0.00    +0.184 C 
ATOM     24  C   LIG    1       21.308 -30.068  12.612  0.00  0.00    +0.236 C 
ATOM     25  O   LIG    1       21.531 -29.740  11.441  0.00  0.00    -0.274 OA
ATOM     26  N   LIG    1       21.487 -29.185  13.660  0.00  0.00    -0.301 N 
ATOM     27  H   LIG    1       21.698 -29.616  14.561  0.00  0.00    +0.150 HD
ENDROOT
BRANCH   7  28
ATOM     28  N   LIG    1       27.997 -28.642  13.021  0.00  0.00    -0.274 N 
ATOM     29  H   LIG    1       28.485 -28.225  12.230  0.00  0.00    +0.156 HD
ATOM     30  C   LIG    1       28.826 -29.447  13.748  0.00  0.00    +0.301 C 
ATOM     31  O   LIG    1       30.002 -29.612  13.424  0.00  0.00    -0.253 OA
ATOM     32  N   LIG    1       28.321 -30.079  14.827  0.00  0.00    -0.313 N 
ATOM     33  H   LIG    1       29.000 -30.611  15.356  0.00  0.00    +0.146 HD
ATOM     34  H   LIG    1       27.583 -29.653  15.367  0.00  0.00    +0.146 HD
ENDBRANCH   7  28
BRANCH  12  35
ATOM     35  C   LIG    1       24.806 -29.787   8.113  0.00  0.00    +0.168 C 
ATOM     36  N   LIG    1       24.094 -30.879   7.441  0.00  0.00    -0.234 N 
ATOM     37  H   LIG    1       23.132 -30.999   7.745  0.00  0.00    +0.245 HD
ATOM     38  C   LIG    1       24.256 -31.101   6.118  0.00  0.00    +0.362 C 
ATOM     39  N   LIG    1       25.124 -30.578   5.334  0.00  0.00    -0.117 NA
ATOM     40  C   LIG    1       25.997 -29.541   5.899  0.00  0.00    +0.246 C 
ATOM     41  C   LIG    1       25.351 -28.814   7.071  0.00  0.00    +0.081 C 
BRANCH  38  42
ATOM     42  N   LIG    1       23.417 -32.063   5.688  0.00  0.00    -0.252 N 
ATOM     43  H   LIG    1       23.450 -32.264   4.688  0.00  0.00    +0.241 HD
ATOM     44  H   LIG    1       22.473 -31.943   6.039  0.00  0.00    +0.241 HD
ENDBRANCH  38  42
ENDBRANCH  12  35
BRANCH  18  45
ATOM     45  N   LIG    1       22.027 -33.763   9.779  0.00  0.00    -0.319 NA
ATOM     46  H1  LIG    1       21.779 -32.779   9.635  0.00  0.00    +0.119 HD
ATOM     47  H2  LIG    1       21.134 -34.157  10.102  0.00  0.00    +0.119 HD
ENDBRANCH  18  45
BRANCH   1  48
ATOM     48  C   LIG    1       21.751 -26.820  14.439  0.00  0.00    +0.136 C 
BRANCH  48  50
ATOM     49  C   LIG    1       19.300 -26.876  14.725  0.00  0.00    +0.215 C 
ATOM     50  N   LIG    1       20.418 -26.294  14.167  0.00  0.00    -0.313 N 
ATOM     51  H   LIG    1       20.305 -25.277  14.073  0.00  0.00    +0.149 HD
ATOM     52  O   LIG    1       19.328 -27.918  15.369  0.00  0.00    -0.276 OA
BRANCH  49  53
ATOM     53  C   LIG    1       18.005 -26.148  14.400  0.00  0.00    +0.114 C 
BRANCH  53  54
ATOM     54  C   LIG    1       16.756 -26.742  15.069  0.00  0.00    +0.059 C 
BRANCH  54  55
ATOM     55  N   LIG    1       15.825 -25.675  15.500  0.00  0.00    -0.327 NA
ATOM     56  H   LIG    1       14.879 -26.068  15.520  0.00  0.00    +0.118 HD
ATOM     57  H   LIG    1       15.781 -24.951  14.778  0.00  0.00    +0.118 HD
ENDBRANCH  54  55
BRANCH  54  58
ATOM     58  C   LIG    1       15.999 -27.710  14.127  0.00  0.00    +0.020 C 
BRANCH  58  59
ATOM     59  C   LIG    1       16.019 -29.190  14.539  0.00  0.00    +0.016 C 
BRANCH  59  60
ATOM     60  C   LIG    1       17.198 -29.952  13.936  0.00  0.00    +0.077 C 
BRANCH  60  61
ATOM     61  N   LIG    1       16.907 -30.346  12.565  0.00  0.00    -0.330 NA
ATOM     62  H   LIG    1       16.722 -29.513  12.008  0.00  0.00    +0.118 HD
ATOM     63  H   LIG    1       17.725 -30.789  12.150  0.00  0.00    +0.118 HD
ENDBRANCH  60  61
ENDBRANCH  59  60
ENDBRANCH  58  59
ENDBRANCH  54  58
ENDBRANCH  53  54
ENDBRANCH  49  53
ENDBRANCH  48  50
ENDBRANCH   1  48
BRANCH  23  64
ATOM     64  C   LIG    1       20.815 -31.903  14.439  0.00  0.00    +0.187 C 
BRANCH  64  65
ATOM     65  O   LIG    1       20.371 -30.923  15.369  0.00  0.00    -0.393 OA
ATOM     66  H   LIG    1       19.932 -30.196  14.872  0.00  0.00    +0.209 HD
ENDBRANCH  64  65
ENDBRANCH  23  64
TORSDOF 15
ENDMDL
MODEL 4
REMARK VINA RESULT:      -4.1      2.292      6.220
REMARK  Name = *****
REMARK                            x       y       z     vdW  Elec       q    Type
REMARK                         _______ _______ _______ _____ _____    ______ ____
ROOT
ATOM      1  C   LIG    1       23.900 -30.884   7.876  0.00  0.00    +0.176 C 
ATOM      2  C   LIG    1       23.050 -31.792   8.774  0.00  0.00    +0.239 C 
ATOM      3  O   LIG    1       23.247 -33.007   8.830  0.00  0.00    -0.273 OA
ATOM      4  N   LIG    1       22.146 -31.100   9.548  0.00  0.00    -0.279 N 
ATOM      5  H   LIG    1       22.255 -30.090   9.582  0.00  0.00    +0.155 HD
ATOM      6  C   LIG    1       21.266 -31.609  10.493  0.00  0.00    +0.110 C 
ATOM      7  C   LIG    1       20.913 -32.909  10.610  0.00  0.00    +0.104 C 
ATOM      8  C   LIG    1       20.792 -30.615  11.515  0.00  0.00    +0.260 C 
ATOM      9  O   LIG    1       19.678 -30.110  11.528  0.00  0.00    -0.269 OA
ATOM     10  N   LIG    1       21.851 -30.306  12.329  0.00  0.00    -0.296 N 
ATOM     11  H   LIG    1       22.746 -30.808  12.207  0.00  0.00    +0.150 HD
ATOM     12  C   LIG    1       21.774 -29.365  13.456  0.00  0.00    +0.194 C 
ATOM     13  C   LIG    1       22.835 -29.892  14.434  0.00  0.00    +0.237 C 
ATOM     14  O   LIG    1       22.553 -30.438  15.499  0.00  0.00    -0.274 OA
ATOM     15  N   LIG    1       24.118 -29.815  13.945  0.00  0.00    -0.312 N 
ATOM     16  H   LIG    1       24.229 -29.356  13.043  0.00  0.00    +0.149 HD
ATOM     17  C   LIG    1       25.252 -30.499  14.538  0.00  0.00    +0.132 C 
ATOM     18  CA  LIG    1       26.554 -30.235  13.759  0.00  0.00    +0.155 C 
ATOM     19  C   LIG    1       26.402 -30.774  12.323  0.00  0.00    +0.232 C 
ATOM     20  O   LIG    1       25.675 -31.719  12.030  0.00  0.00    -0.274 OA
ATOM     21  N   LIG    1       27.183 -30.143  11.383  0.00  0.00    -0.301 N 
ATOM     22  H   LIG    1       27.621 -29.279  11.697  0.00  0.00    +0.150 HD
ATOM     23  CA  LIG    1       27.143 -30.488   9.959  0.00  0.00    +0.184 C 
ATOM     24  C   LIG    1       25.728 -30.185   9.385  0.00  0.00    +0.236 C 
ATOM     25  O   LIG    1       25.068 -29.217   9.780  0.00  0.00    -0.274 OA
ATOM     26  N   LIG    1       25.280 -31.002   8.364  0.00  0.00    -0.301 N 
ATOM     27  H   LIG    1       25.631 -31.960   8.388  0.00  0.00    +0.150 HD
ENDROOT
BRANCH   7  28
ATOM     28  N   LIG    1       20.102 -33.405  11.604  0.00  0.00    -0.274 N 
ATOM     29  H   LIG    1       20.515 -33.904  12.389  0.00  0.00    +0.156 HD
ATOM     30  C   LIG    1       18.744 -33.325  11.724  0.00  0.00    +0.301 C 
ATOM     31  O   LIG    1       18.158 -33.825  12.683  0.00  0.00    -0.253 OA
ATOM     32  N   LIG    1       18.051 -32.697  10.753  0.00  0.00    -0.313 N 
ATOM     33  H   LIG    1       17.058 -32.619  10.931  0.00  0.00    +0.146 HD
ATOM     34  H   LIG    1       18.465 -31.929  10.247  0.00  0.00    +0.146 HD
ENDBRANCH   7  28
BRANCH  12  35
ATOM     35  C   LIG    1       21.935 -27.898  12.981  0.00  0.00    +0.168 C 
ATOM     36  N   LIG    1       23.333 -27.457  13.020  0.00  0.00    -0.234 N 
ATOM     37  H   LIG    1       23.767 -27.366  12.105  0.00  0.00    +0.245 HD
ATOM     38  C   LIG    1       23.735 -26.502  13.887  0.00  0.00    +0.362 C 
ATOM     39  N   LIG    1       23.078 -26.005  14.868  0.00  0.00    -0.117 NA
ATOM     40  C   LIG    1       21.686 -26.442  15.031  0.00  0.00    +0.246 C 
ATOM     41  C   LIG    1       21.059 -26.886  13.715  0.00  0.00    +0.081 C 
BRANCH  38  42
ATOM     42  N   LIG    1       25.020 -26.163  13.664  0.00  0.00    -0.252 N 
ATOM     43  H   LIG    1       25.317 -26.177  12.689  0.00  0.00    +0.241 HD
ATOM     44  H   LIG    1       25.663 -26.644  14.284  0.00  0.00    +0.241 HD
ENDBRANCH  38  42
ENDBRANCH  12  35
BRANCH  18  45
ATOM     45  N   LIG    1       26.931 -28.794  13.722  0.00  0.00    -0.319 NA
ATOM     46  H1  LIG    1       27.380 -28.615  12.819  0.00  0.00    +0.119 HD
ATOM     47  H2  LIG    1       27.713 -28.654  14.375  0.00  0.00    +0.119 HD
ENDBRANCH  18  45
BRANCH   1  48
ATOM     48  C   LIG    1       23.738 -31.341   6.420  0.00  0.00    +0.136 C 
BRANCH  48  50
ATOM     49  C   LIG    1       24.313 -29.037   5.746  0.00  0.00    +0.215 C 
ATOM     50  N   LIG    1       24.300 -30.387   5.470  0.00  0.00    -0.313 N 
ATOM     51  H   LIG    1       25.128 -30.668   4.930  0.00  0.00    +0.149 HD
ATOM     52  O   LIG    1       23.761 -28.539   6.721  0.00  0.00    -0.276 OA
BRANCH  49  53
ATOM     53  C   LIG    1       25.010 -28.202   4.684  0.00  0.00    +0.114 C 
BRANCH  53  54
ATOM     54  C   LIG    1       25.753 -26.972   5.228  0.00  0.00    +0.059 C 
BRANCH  54  55
ATOM     55  N   LIG    1       27.205 -27.062   4.951  0.00  0.00    -0.327 NA
ATOM     56  H   LIG    1       27.647 -26.207   5.302  0.00  0.00    +0.118 HD
ATOM     57  H   LIG    1       27.360 -27.031   3.940  0.00  0.00    +0.118 HD
ENDBRANCH  54  55
BRANCH  54  58
ATOM     58  C   LIG    1       25.214 -25.654   4.621  0.00  0.00    +0.020 C 
BRANCH  58  59
ATOM     59  C   LIG    1       24.949 -24.519   5.623  0.00  0.00    +0.016 C 
BRANCH  59  60
ATOM     60  C   LIG    1       23.749 -24.800   6.526  0.00  0.00    +0.077 C 
BRANCH  60  61
ATOM     61  N   LIG    1       22.792 -23.705   6.461  0.00  0.00    -0.330 NA
ATOM     62  H   LIG    1       22.824 -23.179   7.333  0.00  0.00    +0.118 HD
ATOM     63  H   LIG    1       23.061 -23.052   5.726  0.00  0.00    +0.118 HD
ENDBRANCH  60  61
ENDBRANCH  59  60
ENDBRANCH  58  59
ENDBRANCH  54  58
ENDBRANCH  53  54
ENDBRANCH  49  53
ENDBRANCH  48  50
ENDBRANCH   1  48
BRANCH  23  64
ATOM     64  C   LIG    1       27.727 -31.881   9.663  0.00  0.00    +0.187 C 
BRANCH  64  65
ATOM     65  O   LIG    1       26.782 -32.942   9.717  0.00  0.00    -0.393 OA
ATOM     66  H   LIG    1       25.964 -32.656   9.251  0.00  0.00    +0.209 HD
ENDBRANCH  64  65
ENDBRANCH  23  64
TORSDOF 15
ENDMDL
MODEL 5
REMARK VINA RESULT:      -3.7      2.074      4.576
REMARK  Name = *****
REMARK                            x       y       z     vdW  Elec       q    Type
REMARK                         _______ _______ _______ _____ _____    ______ ____
ROOT
ATOM      1  C   LIG    1       26.110 -32.527   9.206  0.00  0.00    +0.176 C 
ATOM      2  C   LIG    1       25.922 -31.087   9.702  0.00  0.00    +0.239 C 
ATOM      3  O   LIG    1       25.639 -30.172   8.926  0.00  0.00    -0.273 OA
ATOM      4  N   LIG    1       26.008 -30.967  11.070  0.00  0.00    -0.279 N 
ATOM      5  H   LIG    1       26.004 -31.832  11.604  0.00  0.00    +0.155 HD
ATOM      6  C   LIG    1       25.842 -29.823  11.838  0.00  0.00    +0.110 C 
ATOM      7  C   LIG    1       25.870 -28.555  11.367  0.00  0.00    +0.104 C 
ATOM      8  C   LIG    1       25.485 -30.074  13.276  0.00  0.00    +0.260 C 
ATOM      9  O   LIG    1       26.260 -29.949  14.215  0.00  0.00    -0.269 OA
ATOM     10  N   LIG    1       24.208 -30.567  13.317  0.00  0.00    -0.296 N 
ATOM     11  H   LIG    1       23.660 -30.626  12.443  0.00  0.00    +0.150 HD
ATOM     12  C   LIG    1       23.506 -30.930  14.557  0.00  0.00    +0.194 C 
ATOM     13  C   LIG    1       22.029 -30.689  14.215  0.00  0.00    +0.237 C 
ATOM     14  O   LIG    1       21.373 -29.762  14.687  0.00  0.00    -0.274 OA
ATOM     15  N   LIG    1       21.550 -31.526  13.233  0.00  0.00    -0.312 N 
ATOM     16  H   LIG    1       22.189 -32.247  12.906  0.00  0.00    +0.149 HD
ATOM     17  C   LIG    1       20.295 -31.317  12.535  0.00  0.00    +0.132 C 
ATOM     18  CA  LIG    1       20.036 -32.410  11.480  0.00  0.00    +0.155 C 
ATOM     19  C   LIG    1       21.156 -32.365  10.422  0.00  0.00    +0.232 C 
ATOM     20  O   LIG    1       21.769 -31.342  10.129  0.00  0.00    -0.274 OA
ATOM     21  N   LIG    1       21.396 -33.559   9.783  0.00  0.00    -0.301 N 
ATOM     22  H   LIG    1       20.951 -34.372  10.207  0.00  0.00    +0.150 HD
ATOM     23  CA  LIG    1       22.450 -33.723   8.777  0.00  0.00    +0.184 C 
ATOM     24  C   LIG    1       23.841 -33.480   9.432  0.00  0.00    +0.236 C 
ATOM     25  O   LIG    1       24.073 -33.824  10.597  0.00  0.00    -0.274 OA
ATOM     26  N   LIG    1       24.823 -32.932   8.628  0.00  0.00    -0.301 N 
ATOM     27  H   LIG    1       24.485 -32.311   7.892  0.00  0.00    +0.150 HD
ENDROOT
BRANCH   7  28
ATOM     28  N   LIG    1       25.622 -27.440  12.131  0.00  0.00    -0.274 N 
ATOM     29  H   LIG    1       24.706 -26.997  12.095  0.00  0.00    +0.156 HD
ATOM     30  C   LIG    1       26.454 -26.789  12.996  0.00  0.00    +0.301 C 
ATOM     31  O   LIG    1       26.081 -25.793  13.613  0.00  0.00    -0.253 OA
ATOM     32  N   LIG    1       27.712 -27.254  13.147  0.00  0.00    -0.313 N 
ATOM     33  H   LIG    1       28.257 -26.765  13.846  0.00  0.00    +0.146 HD
ATOM     34  H   LIG    1       27.904 -28.239  13.054  0.00  0.00    +0.146 HD
ENDBRANCH   7  28
BRANCH  12  35
ATOM     35  C   LIG    1       23.887 -32.358  15.026  0.00  0.00    +0.168 C 
ATOM     36  N   LIG    1       25.273 -32.431  15.500  0.00  0.00    -0.234 N 
ATOM     37  H   LIG    1       25.364 -32.523  16.508  0.00  0.00    +0.245 HD
ATOM     38  C   LIG    1       26.201 -33.143  14.823  0.00  0.00    +0.362 C 
ATOM     39  N   LIG    1       26.094 -33.664  13.658  0.00  0.00    -0.117 NA
ATOM     40  C   LIG    1       24.785 -33.570  12.999  0.00  0.00    +0.246 C 
ATOM     41  C   LIG    1       23.640 -33.458  13.997  0.00  0.00    +0.081 C 
BRANCH  38  42
ATOM     42  N   LIG    1       27.365 -33.178  15.500  0.00  0.00    -0.252 N 
ATOM     43  H   LIG    1       27.505 -32.428  16.176  0.00  0.00    +0.241 HD
ATOM     44  H   LIG    1       28.165 -33.322  14.893  0.00  0.00    +0.241 HD
ENDBRANCH  38  42
ENDBRANCH  12  35
BRANCH  18  45
ATOM     45  N   LIG    1       19.946 -33.776  12.065  0.00  0.00    -0.319 NA
ATOM     46  H1  LIG    1       19.109 -34.223  11.677  0.00  0.00    +0.119 HD
ATOM     47  H2  LIG    1       19.690 -33.681  13.056  0.00  0.00    +0.119 HD
ENDBRANCH  18  45
BRANCH   1  48
ATOM     48  C   LIG    1       27.258 -32.551   8.189  0.00  0.00    +0.136 C 
BRANCH  48  50
ATOM     49  C   LIG    1       26.180 -32.148   6.005  0.00  0.00    +0.215 C 
ATOM     50  N   LIG    1       26.993 -31.708   7.028  0.00  0.00    -0.313 N 
ATOM     51  H   LIG    1       26.899 -30.695   7.172  0.00  0.00    +0.149 HD
ATOM     52  O   LIG    1       25.735 -33.287   5.935  0.00  0.00    -0.276 OA
BRANCH  49  53
ATOM     53  C   LIG    1       25.948 -31.109   4.919  0.00  0.00    +0.114 C 
BRANCH  53  54
ATOM     54  C   LIG    1       24.871 -30.066   5.256  0.00  0.00    +0.059 C 
BRANCH  54  55
ATOM     55  N   LIG    1       24.082 -30.479   6.439  0.00  0.00    -0.327 NA
ATOM     56  H   LIG    1       23.101 -30.243   6.263  0.00  0.00    +0.118 HD
ATOM     57  H   LIG    1       24.343 -29.897   7.239  0.00  0.00    +0.118 HD
ENDBRANCH  54  55
BRANCH  54  58
ATOM     58  C   LIG    1       25.482 -28.670   5.530  0.00  0.00    +0.020 C 
BRANCH  58  59
ATOM     59  C   LIG    1       24.535 -27.644   6.172  0.00  0.00    +0.016 C 
BRANCH  59  60
ATOM     60  C   LIG    1       24.738 -26.233   5.623  0.00  0.00    +0.077 C 
BRANCH  60  61
ATOM     61  N   LIG    1       23.610 -25.381   5.970  0.00  0.00    -0.330 NA
ATOM     62  H   LIG    1       22.836 -25.962   6.291  0.00  0.00    +0.118 HD
ATOM     63  H   LIG    1       23.857 -24.779   6.754  0.00  0.00    +0.118 HD
ENDBRANCH  60  61
ENDBRANCH  59  60
ENDBRANCH  58  59
ENDBRANCH  54  58
ENDBRANCH  53  54
ENDBRANCH  49  53
ENDBRANCH  48  50
ENDBRANCH   1  48
BRANCH  23  64
ATOM     64  C   LIG    1       22.156 -32.963   7.472  0.00  0.00    +0.187 C 
BRANCH  64  65
ATOM     65  O   LIG    1       22.916 -33.397   6.351  0.00  0.00    -0.393 OA
ATOM     66  H   LIG    1       23.167 -32.608   5.819  0.00  0.00    +0.209 HD
ENDBRANCH  64  65
ENDBRANCH  23  64
TORSDOF 15
ENDMDL
MODEL 6
REMARK VINA RESULT:      -3.7      2.788      7.930
REMARK  Name = *****
REMARK                            x       y       z     vdW  Elec       q    Type
REMARK                         _______ _______ _______ _____ _____    ______ ____
ROOT
ATOM      1  C   LIG    1       24.240 -26.231  13.487  0.00  0.00    +0.176 C 
ATOM      2  C   LIG    1       24.977 -27.423  14.112  0.00  0.00    +0.239 C 
ATOM      3  O   LIG    1       25.016 -27.587  15.333  0.00  0.00    -0.273 OA
ATOM      4  N   LIG    1       25.484 -28.300  13.179  0.00  0.00    -0.279 N 
ATOM      5  H   LIG    1       25.174 -28.172  12.219  0.00  0.00    +0.155 HD
ATOM      6  C   LIG    1       26.158 -29.491  13.406  0.00  0.00    +0.110 C 
ATOM      7  C   LIG    1       26.716 -29.861  14.581  0.00  0.00    +0.104 C 
ATOM      8  C   LIG    1       26.133 -30.460  12.257  0.00  0.00    +0.260 C 
ATOM      9  O   LIG    1       27.080 -30.682  11.515  0.00  0.00    -0.269 OA
ATOM     10  N   LIG    1       24.854 -30.938  12.133  0.00  0.00    -0.296 N 
ATOM     11  H   LIG    1       24.143 -30.665  12.831  0.00  0.00    +0.150 HD
ATOM     12  C   LIG    1       24.437 -31.916  11.118  0.00  0.00    +0.194 C 
ATOM     13  C   LIG    1       23.277 -32.661  11.795  0.00  0.00    +0.237 C 
ATOM     14  O   LIG    1       23.363 -33.825  12.183  0.00  0.00    -0.274 OA
ATOM     15  N   LIG    1       22.185 -31.863  12.045  0.00  0.00    -0.312 N 
ATOM     16  H   LIG    1       22.233 -30.910  11.691  0.00  0.00    +0.149 HD
ATOM     17  C   LIG    1       21.090 -32.241  12.920  0.00  0.00    +0.132 C 
ATOM     18  CA  LIG    1       20.022 -31.136  13.013  0.00  0.00    +0.155 C 
ATOM     19  C   LIG    1       20.659 -29.866  13.610  0.00  0.00    +0.232 C 
ATOM     20  O   LIG    1       21.609 -29.888  14.387  0.00  0.00    -0.274 OA
ATOM     21  N   LIG    1       20.053 -28.688  13.242  0.00  0.00    -0.301 N 
ATOM     22  H   LIG    1       19.385 -28.767  12.477  0.00  0.00    +0.150 HD
ATOM     23  CA  LIG    1       20.543 -27.375  13.675  0.00  0.00    +0.184 C 
ATOM     24  C   LIG    1       21.972 -27.135  13.105  0.00  0.00    +0.236 C 
ATOM     25  O   LIG    1       22.297 -27.552  11.988  0.00  0.00    -0.274 OA
ATOM     26  N   LIG    1       22.831 -26.373  13.874  0.00  0.00    -0.301 N 
ATOM     27  H   LIG    1       22.682 -26.435  14.882  0.00  0.00    +0.150 HD
ENDROOT
BRANCH   7  28
ATOM     28  N   LIG    1       27.309 -31.081  14.806  0.00  0.00    -0.274 N 
ATOM     29  H   LIG    1       28.324 -31.158  14.792  0.00  0.00    +0.156 HD
ATOM     30  C   LIG    1       26.723 -32.285  15.073  0.00  0.00    +0.301 C 
ATOM     31  O   LIG    1       27.397 -33.297  15.254  0.00  0.00    -0.253 OA
ATOM     32  N   LIG    1       25.376 -32.346  15.118  0.00  0.00    -0.313 N 
ATOM     33  H   LIG    1       25.006 -33.251  15.380  0.00  0.00    +0.146 HD
ATOM     34  H   LIG    1       24.841 -31.549  15.428  0.00  0.00    +0.146 HD
ENDBRANCH   7  28
BRANCH  12  35
ATOM     35  C   LIG    1       24.125 -31.228   9.765  0.00  0.00    +0.168 C 
ATOM     36  N   LIG    1       23.322 -32.084   8.884  0.00  0.00    -0.234 N 
ATOM     37  H   LIG    1       22.355 -31.788   8.786  0.00  0.00    +0.245 HD
ATOM     38  C   LIG    1       23.838 -32.577   7.737  0.00  0.00    +0.362 C 
ATOM     39  N   LIG    1       25.059 -32.552   7.351  0.00  0.00    -0.117 NA
ATOM     40  C   LIG    1       26.014 -31.825   8.196  0.00  0.00    +0.246 C 
ATOM     41  C   LIG    1       25.348 -30.720   9.006  0.00  0.00    +0.081 C 
BRANCH  38  42
ATOM     42  N   LIG    1       22.894 -33.224   7.027  0.00  0.00    -0.252 N 
ATOM     43  H   LIG    1       21.946 -32.859   7.116  0.00  0.00    +0.241 HD
ATOM     44  H   LIG    1       22.945 -34.231   7.138  0.00  0.00    +0.241 HD
ENDBRANCH  38  42
ENDBRANCH  12  35
BRANCH  18  45
ATOM     45  N   LIG    1       19.393 -30.819  11.700  0.00  0.00    -0.319 NA
ATOM     46  H1  LIG    1       19.950 -31.277  10.972  0.00  0.00    +0.119 HD
ATOM     47  H2  LIG    1       19.563 -29.825  11.498  0.00  0.00    +0.119 HD
ENDBRANCH  18  45
BRANCH   1  48
ATOM     48  C   LIG    1       24.876 -24.934  14.004  0.00  0.00    +0.136 C 
BRANCH  48  50
ATOM     49  C   LIG    1       27.310 -24.943  14.416  0.00  0.00    +0.215 C 
ATOM     50  N   LIG    1       26.028 -25.182  14.863  0.00  0.00    -0.313 N 
ATOM     51  H   LIG    1       25.938 -24.984  15.868  0.00  0.00    +0.149 HD
ATOM     52  O   LIG    1       27.578 -24.634  13.261  0.00  0.00    -0.276 OA
BRANCH  49  53
ATOM     53  C   LIG    1       28.380 -25.177  15.471  0.00  0.00    +0.114 C 
BRANCH  53  54
ATOM     54  C   LIG    1       28.984 -26.589  15.462  0.00  0.00    +0.059 C 
BRANCH  54  55
ATOM     55  N   LIG    1       28.552 -27.346  14.265  0.00  0.00    -0.327 NA
ATOM     56  H   LIG    1       29.071 -26.986  13.458  0.00  0.00    +0.118 HD
ATOM     57  H   LIG    1       27.575 -27.123  14.058  0.00  0.00    +0.118 HD
ENDBRANCH  54  55
BRANCH  54  58
ATOM     58  C   LIG    1       30.532 -26.558  15.497  0.00  0.00    +0.020 C 
BRANCH  58  59
ATOM     59  C   LIG    1       31.227 -27.926  15.416  0.00  0.00    +0.016 C 
BRANCH  59  60
ATOM     60  C   LIG    1       32.666 -27.826  14.915  0.00  0.00    +0.077 C 
BRANCH  60  61
ATOM     61  N   LIG    1       32.753 -28.239  13.522  0.00  0.00    -0.330 NA
ATOM     62  H   LIG    1       31.825 -28.203  13.102  0.00  0.00    +0.118 HD
ATOM     63  H   LIG    1       33.326 -27.577  12.999  0.00  0.00    +0.118 HD
ENDBRANCH  60  61
ENDBRANCH  59  60
ENDBRANCH  58  59
ENDBRANCH  54  58
ENDBRANCH  53  54
ENDBRANCH  49  53
ENDBRANCH  48  50
ENDBRANCH   1  48
BRANCH  23  64
ATOM     64  C   LIG    1       20.347 -27.129  15.181  0.00  0.00    +0.187 C 
BRANCH  64  65
ATOM     65  O   LIG    1       19.597 -25.962  15.497  0.00  0.00    -0.393 OA
ATOM     66  H   LIG    1       18.915 -25.831  14.801  0.00  0.00    +0.209 HD
ENDBRANCH  64  65
ENDBRANCH  23  64
TORSDOF 15
ENDMDL
MODEL 7
REMARK VINA RESULT:      -3.1      3.149      7.595
REMARK  Name = *****
REMARK                            x       y       z     vdW  Elec       q    Type
REMARK                         _______ _______ _______ _____ _____    ______ ____
ROOT
ATOM      1  C   LIG    1       20.848 -27.963  13.500  0.00  0.00    +0.176 C 
ATOM      2  C   LIG    1       22.060 -27.419  14.267  0.00  0.00    +0.239 C 
ATOM      3  O   LIG    1       22.072 -27.370  15.499  0.00  0.00    -0.273 OA
ATOM      4  N   LIG    1       23.121 -27.097  13.452  0.00  0.00    -0.279 N 
ATOM      5  H   LIG    1       23.065 -27.411  12.487  0.00  0.00    +0.155 HD
ATOM      6  C   LIG    1       24.372 -26.627  13.825  0.00  0.00    +0.110 C 
ATOM      7  C   LIG    1       24.681 -26.104  15.033  0.00  0.00    +0.104 C 
ATOM      8  C   LIG    1       25.460 -26.852  12.813  0.00  0.00    +0.260 C 
ATOM      9  O   LIG    1       25.933 -25.980  12.097  0.00  0.00    -0.269 OA
ATOM     10  N   LIG    1       25.723 -28.196  12.764  0.00  0.00    -0.296 N 
ATOM     11  H   LIG    1       25.246 -28.829  13.427  0.00  0.00    +0.150 HD
ATOM     12  C   LIG    1       26.735 -28.805  11.889  0.00  0.00    +0.194 C 
ATOM     13  C   LIG    1       27.178 -30.052  12.668  0.00  0.00    +0.237 C 
ATOM     14  O   LIG    1       28.281 -30.152  13.203  0.00  0.00    -0.274 OA
ATOM     15  N   LIG    1       26.179 -30.985  12.822  0.00  0.00    -0.312 N 
ATOM     16  H   LIG    1       25.301 -30.788  12.346  0.00  0.00    +0.149 HD
ATOM     17  C   LIG    1       26.250 -32.100  13.749  0.00  0.00    +0.132 C 
ATOM     18  CA  LIG    1       24.975 -32.963  13.707  0.00  0.00    +0.155 C 
ATOM     19  C   LIG    1       23.768 -32.101  14.128  0.00  0.00    +0.232 C 
ATOM     20  O   LIG    1       23.854 -31.145  14.892  0.00  0.00    -0.274 OA
ATOM     21  N   LIG    1       22.559 -32.511  13.616  0.00  0.00    -0.301 N 
ATOM     22  H   LIG    1       22.619 -33.206  12.874  0.00  0.00    +0.150 HD
ATOM     23  CA  LIG    1       21.306 -31.793  13.869  0.00  0.00    +0.184 C 
ATOM     24  C   LIG    1       21.390 -30.362  13.260  0.00  0.00    +0.236 C 
ATOM     25  O   LIG    1       21.994 -30.148  12.203  0.00  0.00    -0.274 OA
ATOM     26  N   LIG    1       20.695 -29.363  13.916  0.00  0.00    -0.301 N 
ATOM     27  H   LIG    1       20.602 -29.488  14.924  0.00  0.00    +0.150 HD
ENDROOT
BRANCH   7  28
ATOM     28  N   LIG    1       25.946 -25.719  15.410  0.00  0.00    -0.274 N 
ATOM     29  H   LIG    1       26.497 -26.323  16.017  0.00  0.00    +0.156 HD
ATOM     30  C   LIG    1       26.636 -24.589  15.075  0.00  0.00    +0.301 C 
ATOM     31  O   LIG    1       27.772 -24.386  15.498  0.00  0.00    -0.253 OA
ATOM     32  N   LIG    1       26.032 -23.683  14.278  0.00  0.00    -0.313 N 
ATOM     33  H   LIG    1       26.617 -22.899  14.018  0.00  0.00    +0.146 HD
ATOM     34  H   LIG    1       25.367 -23.982  13.581  0.00  0.00    +0.146 HD
ENDBRANCH   7  28
BRANCH  12  35
ATOM     35  C   LIG    1       26.181 -29.038  10.460  0.00  0.00    +0.168 C 
ATOM     36  N   LIG    1       24.888 -29.729  10.478  0.00  0.00    -0.234 N 
ATOM     37  H   LIG    1       24.096 -29.138  10.241  0.00  0.00    +0.245 HD
ATOM     38  C   LIG    1       24.765 -30.985   9.993  0.00  0.00    +0.362 C 
ATOM     39  N   LIG    1       25.702 -31.789   9.651  0.00  0.00    -0.117 NA
ATOM     40  C   LIG    1       27.076 -31.273   9.693  0.00  0.00    +0.246 C 
ATOM     41  C   LIG    1       27.134 -29.762   9.513  0.00  0.00    +0.081 C 
BRANCH  38  42
ATOM     42  N   LIG    1       23.476 -31.374   9.990  0.00  0.00    -0.252 N 
ATOM     43  H   LIG    1       23.125 -31.750  10.871  0.00  0.00    +0.241 HD
ATOM     44  H   LIG    1       23.245 -31.953   9.190  0.00  0.00    +0.241 HD
ENDBRANCH  38  42
ENDBRANCH  12  35
BRANCH  18  45
ATOM     45  N   LIG    1       24.724 -33.570  12.371  0.00  0.00    -0.319 NA
ATOM     46  H1  LIG    1       23.929 -33.076  11.952  0.00  0.00    +0.119 HD
ATOM     47  H2  LIG    1       24.331 -34.509  12.517  0.00  0.00    +0.119 HD
ENDBRANCH  18  45
BRANCH   1  48
ATOM     48  C   LIG    1       19.624 -27.101  13.837  0.00  0.00    +0.136 C 
BRANCH  48  50
ATOM     49  C   LIG    1       17.222 -27.319  14.363  0.00  0.00    +0.215 C 
ATOM     50  N   LIG    1       18.461 -27.902  14.203  0.00  0.00    -0.313 N 
ATOM     51  H   LIG    1       18.382 -28.851  13.817  0.00  0.00    +0.149 HD
ATOM     52  O   LIG    1       17.034 -26.109  14.334  0.00  0.00    -0.276 OA
BRANCH  49  53
ATOM     53  C   LIG    1       16.112 -28.315  14.661  0.00  0.00    +0.114 C 
BRANCH  53  54
ATOM     54  C   LIG    1       16.445 -29.768  14.293  0.00  0.00    +0.059 C 
BRANCH  54  55
ATOM     55  N   LIG    1       16.017 -30.700  15.362  0.00  0.00    -0.327 NA
ATOM     56  H   LIG    1       15.015 -30.876  15.246  0.00  0.00    +0.118 HD
ATOM     57  H   LIG    1       16.088 -30.230  16.268  0.00  0.00    +0.118 HD
ENDBRANCH  54  55
BRANCH  54  58
ATOM     58  C   LIG    1       15.776 -30.199  12.964  0.00  0.00    +0.020 C 
BRANCH  58  59
ATOM     59  C   LIG    1       16.478 -31.332  12.202  0.00  0.00    +0.016 C 
BRANCH  59  60
ATOM     60  C   LIG    1       17.978 -31.393  12.488  0.00  0.00    +0.077 C 
BRANCH  60  61
ATOM     61  N   LIG    1       18.433 -32.774  12.542  0.00  0.00    -0.330 NA
ATOM     62  H   LIG    1       19.085 -32.943  11.777  0.00  0.00    +0.118 HD
ATOM     63  H   LIG    1       18.957 -32.934  13.402  0.00  0.00    +0.118 HD
ENDBRANCH  60  61
ENDBRANCH  59  60
ENDBRANCH  58  59
ENDBRANCH  54  58
ENDBRANCH  53  54
ENDBRANCH  49  53
ENDBRANCH  48  50
ENDBRANCH   1  48
BRANCH  23  64
ATOM     64  C   LIG    1       20.841 -31.896  15.332  0.00  0.00    +0.187 C 
BRANCH  64  65
ATOM     65  O   LIG    1       19.494 -32.320  15.496  0.00  0.00    -0.393 OA
ATOM     66  H   LIG    1       19.111 -32.497  14.608  0.00  0.00    +0.209 HD
ENDBRANCH  64  65
ENDBRANCH  23  64
TORSDOF 15
ENDMDL
MODEL 8
REMARK VINA RESULT:      -2.7      2.199      3.905
REMARK  Name = *****
REMARK                            x       y       z     vdW  Elec       q    Type
REMARK                         _______ _______ _______ _____ _____    ______ ____
ROOT
ATOM      1  C   LIG    1       23.284 -33.129   8.991  0.00  0.00    +0.176 C 
ATOM      2  C   LIG    1       23.732 -31.690   9.282  0.00  0.00    +0.239 C 
ATOM      3  O   LIG    1       23.359 -30.747   8.582  0.00  0.00    -0.273 OA
ATOM      4  N   LIG    1       24.489 -31.577  10.427  0.00  0.00    -0.279 N 
ATOM      5  H   LIG    1       24.517 -32.390  11.036  0.00  0.00    +0.155 HD
ATOM      6  C   LIG    1       25.009 -30.422  10.994  0.00  0.00    +0.110 C 
ATOM      7  C   LIG    1       25.133 -29.231  10.366  0.00  0.00    +0.104 C 
ATOM      8  C   LIG    1       25.331 -30.528  12.458  0.00  0.00    +0.260 C 
ATOM      9  O   LIG    1       26.462 -30.625  12.914  0.00  0.00    -0.269 OA
ATOM     10  N   LIG    1       24.150 -30.612  13.147  0.00  0.00    -0.296 N 
ATOM     11  H   LIG    1       23.257 -30.518  12.635  0.00  0.00    +0.150 HD
ATOM     12  C   LIG    1       24.058 -30.724  14.611  0.00  0.00    +0.194 C 
ATOM     13  C   LIG    1       22.715 -30.055  14.937  0.00  0.00    +0.237 C 
ATOM     14  O   LIG    1       22.628 -28.965  15.499  0.00  0.00    -0.274 OA
ATOM     15  N   LIG    1       21.630 -30.725  14.423  0.00  0.00    -0.312 N 
ATOM     16  H   LIG    1       21.825 -31.612  13.962  0.00  0.00    +0.149 HD
ATOM     17  C   LIG    1       20.295 -30.161  14.340  0.00  0.00    +0.132 C 
ATOM     18  CA  LIG    1       19.294 -31.143  13.704  0.00  0.00    +0.155 C 
ATOM     19  C   LIG    1       19.742 -31.458  12.263  0.00  0.00    +0.232 C 
ATOM     20  O   LIG    1       20.380 -30.673  11.568  0.00  0.00    -0.274 OA
ATOM     21  N   LIG    1       19.332 -32.680  11.784  0.00  0.00    -0.301 N 
ATOM     22  H   LIG    1       18.952 -33.313  12.487  0.00  0.00    +0.150 HD
ATOM     23  CA  LIG    1       19.696 -33.173  10.452  0.00  0.00    +0.184 C 
ATOM     24  C   LIG    1       21.240 -33.349  10.363  0.00  0.00    +0.236 C 
ATOM     25  O   LIG    1       21.902 -33.726  11.336  0.00  0.00    -0.274 OA
ATOM     26  N   LIG    1       21.822 -33.138   9.127  0.00  0.00    -0.301 N 
ATOM     27  H   LIG    1       21.347 -32.457   8.533  0.00  0.00    +0.150 HD
ENDROOT
BRANCH   7  28
ATOM     28  N   LIG    1       25.576 -28.079  10.971  0.00  0.00    -0.274 N 
ATOM     29  H   LIG    1       24.909 -27.351  11.219  0.00  0.00    +0.156 HD
ATOM     30  C   LIG    1       26.847 -27.730  11.327  0.00  0.00    +0.301 C 
ATOM     31  O   LIG    1       27.085 -26.651  11.867  0.00  0.00    -0.253 OA
ATOM     32  N   LIG    1       27.848 -28.592  11.055  0.00  0.00    -0.313 N 
ATOM     33  H   LIG    1       28.755 -28.302  11.398  0.00  0.00    +0.146 HD
ATOM     34  H   LIG    1       27.678 -29.586  11.058  0.00  0.00    +0.146 HD
ENDBRANCH   7  28
BRANCH  12  35
ATOM     35  C   LIG    1       24.235 -32.191  15.078  0.00  0.00    +0.168 C 
ATOM     36  N   LIG    1       25.611 -32.473  15.500  0.00  0.00    -0.234 N 
ATOM     37  H   LIG    1       25.727 -32.574  16.504  0.00  0.00    +0.245 HD
ATOM     38  C   LIG    1       26.393 -33.321  14.795  0.00  0.00    +0.362 C 
ATOM     39  N   LIG    1       26.163 -33.825  13.640  0.00  0.00    -0.117 NA
ATOM     40  C   LIG    1       24.859 -33.534  13.031  0.00  0.00    +0.246 C 
ATOM     41  C   LIG    1       23.784 -33.245  14.070  0.00  0.00    +0.081 C 
BRANCH  38  42
ATOM     42  N   LIG    1       27.563 -33.531  15.428  0.00  0.00    -0.252 N 
ATOM     43  H   LIG    1       28.087 -32.692  15.678  0.00  0.00    +0.241 HD
ATOM     44  H   LIG    1       28.134 -34.234  14.970  0.00  0.00    +0.241 HD
ENDBRANCH  38  42
ENDBRANCH  12  35
BRANCH  18  45
ATOM     45  N   LIG    1       19.146 -32.408  14.476  0.00  0.00    -0.319 NA
ATOM     46  H1  LIG    1       18.156 -32.671  14.451  0.00  0.00    +0.119 HD
ATOM     47  H2  LIG    1       19.278 -32.190  15.473  0.00  0.00    +0.119 HD
ENDBRANCH  18  45
BRANCH   1  48
ATOM     48  C   LIG    1       23.758 -33.517   7.584  0.00  0.00    +0.136 C 
BRANCH  48  50
ATOM     49  C   LIG    1       25.199 -32.006   6.267  0.00  0.00    +0.215 C 
ATOM     50  N   LIG    1       23.945 -32.356   6.720  0.00  0.00    -0.313 N 
ATOM     51  H   LIG    1       23.222 -32.147   6.020  0.00  0.00    +0.149 HD
ATOM     52  O   LIG    1       26.232 -32.550   6.642  0.00  0.00    -0.276 OA
BRANCH  49  53
ATOM     53  C   LIG    1       25.196 -30.823   5.311  0.00  0.00    +0.114 C 
BRANCH  53  54
ATOM     54  C   LIG    1       24.985 -29.460   5.987  0.00  0.00    +0.059 C 
BRANCH  54  55
ATOM     55  N   LIG    1       25.769 -29.359   7.239  0.00  0.00    -0.327 NA
ATOM     56  H   LIG    1       26.074 -28.387   7.344  0.00  0.00    +0.118 HD
ATOM     57  H   LIG    1       26.639 -29.888   7.137  0.00  0.00    +0.118 HD
ENDBRANCH  54  55
BRANCH  54  58
ATOM     58  C   LIG    1       25.380 -28.285   5.059  0.00  0.00    +0.020 C 
BRANCH  58  59
ATOM     59  C   LIG    1       24.957 -26.888   5.538  0.00  0.00    +0.016 C 
BRANCH  59  60
ATOM     60  C   LIG    1       26.149 -26.011   5.919  0.00  0.00    +0.077 C 
BRANCH  60  61
ATOM     61  N   LIG    1       25.835 -24.604   5.718  0.00  0.00    -0.330 NA
ATOM     62  H   LIG    1       26.140 -24.072   6.532  0.00  0.00    +0.118 HD
ATOM     63  H   LIG    1       26.364 -24.240   4.926  0.00  0.00    +0.118 HD
ENDBRANCH  60  61
ENDBRANCH  59  60
ENDBRANCH  58  59
ENDBRANCH  54  58
ENDBRANCH  53  54
ENDBRANCH  49  53
ENDBRANCH  48  50
ENDBRANCH   1  48
BRANCH  23  64
ATOM     64  C   LIG    1       19.022 -32.383   9.316  0.00  0.00    +0.187 C 
BRANCH  64  65
ATOM     65  O   LIG    1       17.813 -32.957   8.833  0.00  0.00    -0.393 OA
ATOM     66  H   LIG    1       17.380 -32.311   8.231  0.00  0.00    +0.209 HD
ENDBRANCH  64  65
ENDBRANCH  23  64
TORSDOF 15
ENDMDL
