MODEL 1
REMARK VINA RESULT:      -8.7      0.000      0.000
REMARK  Name = *****
REMARK                            x       y       z     vdW  Elec       q    Type
REMARK                         _______ _______ _______ _____ _____    ______ ____
ROOT
ATOM      1  N   LIG    1       25.692 -27.582   6.656  0.00  0.00    -0.295 N 
ATOM      2  H   LIG    1       25.181 -28.051   5.925  0.00  0.00    +0.151 HD
ATOM      3  C   LIG    1       25.890 -28.238   7.841  0.00  0.00    +0.303 C 
ATOM      4  N   LIG    1       25.186 -29.447   8.019  0.00  0.00    -0.278 N 
ATOM      5  O   LIG    1       26.632 -27.767   8.724  0.00  0.00    -0.253 OA
ENDROOT
BRANCH   4   6
ATOM      6  C   LIG    1       25.458 -30.235   9.264  0.00  0.00    +0.080 C 
ATOM      7  C   LIG    1       24.202 -30.760   9.986  0.00  0.00    +0.038 C 
ATOM      8  C   LIG    1       23.842 -32.225   9.727  0.00  0.00    +0.086 C 
ATOM      9  N   LIG    1       24.964 -33.167   9.743  0.00  0.00    -0.305 NA
ATOM     10  C   LIG    1       25.416 -33.513  11.085  0.00  0.00    +0.105 C 
ATOM     11  C   LIG    1       26.046 -32.729   8.871  0.00  0.00    +0.086 C 
ATOM     12  C   LIG    1       26.558 -31.311   9.154  0.00  0.00    +0.038 C 
ENDBRANCH   4   6
BRANCH   1  13
ATOM     13  C   LIG    1       26.297 -26.311   6.275  0.00  0.00    +0.141 C 
BRANCH  13  17
ATOM     14  C   LIG    1       23.724 -22.892   7.061  0.00  0.00    +0.120 A 
ATOM     15  C   LIG    1       25.097 -22.806   7.313  0.00  0.00    +0.046 A 
ATOM     16  C   LIG    1       25.941 -23.899   7.027  0.00  0.00    +0.009 A 
ATOM     17  C   LIG    1       25.418 -25.108   6.541  0.00  0.00    -0.030 A 
ATOM     18  C   LIG    1       24.038 -25.200   6.354  0.00  0.00    +0.009 A 
ATOM     19  C   LIG    1       23.208 -24.110   6.615  0.00  0.00    +0.046 A 
BRANCH  14  20
ATOM     20  O   LIG    1       22.933 -21.784   7.284  0.00  0.00    -0.492 OA
BRANCH  20  21
ATOM     21  C   LIG    1       23.411 -20.587   6.634  0.00  0.00    +0.232 C 
BRANCH  21  23
ATOM     22  C   LIG    1       22.379 -19.039   4.923  0.00  0.00    +0.010 C 
ATOM     23  C   LIG    1       22.909 -20.456   5.185  0.00  0.00    +0.020 C 
ATOM     24  C   LIG    1       23.986 -20.778   4.150  0.00  0.00    +0.010 C 
ENDBRANCH  21  23
ENDBRANCH  20  21
ENDBRANCH  14  20
ENDBRANCH  13  17
ENDBRANCH   1  13
BRANCH   4  25
ATOM     25  C   LIG    1       24.095 -29.885   7.135  0.00  0.00    +0.144 C 
BRANCH  25  26
ATOM     26  C   LIG    1       24.457 -30.954   6.126  0.00  0.00    -0.030 A 
ATOM     27  C   LIG    1       23.743 -32.158   6.018  0.00  0.00    +0.008 A 
ATOM     28  C   LIG    1       24.087 -33.122   5.077  0.00  0.00    +0.039 A 
ATOM     29  C   LIG    1       25.156 -32.890   4.228  0.00  0.00    +0.123 A 
ATOM     30  F   LIG    1       25.491 -33.820   3.326  0.00  0.00    -0.205 F 
ATOM     31  C   LIG    1       25.885 -31.710   4.306  0.00  0.00    +0.039 A 
ATOM     32  C   LIG    1       25.541 -30.743   5.255  0.00  0.00    +0.008 A 
ENDBRANCH  25  26
ENDBRANCH   4  25
TORSDOF 8
ENDMDL
MODEL 2
REMARK VINA RESULT:      -8.6      3.079      4.662
REMARK  Name = *****
REMARK                            x       y       z     vdW  Elec       q    Type
REMARK                         _______ _______ _______ _____ _____    ______ ____
ROOT
ATOM      1  N   LIG    1       26.200 -27.608   7.201  0.00  0.00    -0.295 N 
ATOM      2  H   LIG    1       26.979 -27.481   7.828  0.00  0.00    +0.151 HD
ATOM      3  C   LIG    1       25.266 -28.561   7.504  0.00  0.00    +0.303 C 
ATOM      4  N   LIG    1       25.573 -29.432   8.571  0.00  0.00    -0.278 N 
ATOM      5  O   LIG    1       24.214 -28.667   6.845  0.00  0.00    -0.253 OA
ENDROOT
BRANCH   4   6
ATOM      6  C   LIG    1       24.528 -30.420   8.988  0.00  0.00    +0.080 C 
ATOM      7  C   LIG    1       25.036 -31.864   9.166  0.00  0.00    +0.038 C 
ATOM      8  C   LIG    1       25.321 -32.302  10.605  0.00  0.00    +0.086 C 
ATOM      9  N   LIG    1       24.322 -31.906  11.600  0.00  0.00    -0.305 NA
ATOM     10  C   LIG    1       23.122 -32.733  11.584  0.00  0.00    +0.105 C 
ATOM     11  C   LIG    1       24.033 -30.479  11.532  0.00  0.00    +0.086 C 
ATOM     12  C   LIG    1       23.607 -29.980  10.145  0.00  0.00    +0.038 C 
ENDBRANCH   4   6
BRANCH   1  13
ATOM     13  C   LIG    1       26.099 -26.628   6.126  0.00  0.00    +0.141 C 
BRANCH  13  17
ATOM     14  C   LIG    1       23.932 -23.008   7.188  0.00  0.00    +0.120 A 
ATOM     15  C   LIG    1       23.243 -24.106   6.661  0.00  0.00    +0.046 A 
ATOM     16  C   LIG    1       23.935 -25.293   6.348  0.00  0.00    +0.009 A 
ATOM     17  C   LIG    1       25.328 -25.381   6.503  0.00  0.00    -0.030 A 
ATOM     18  C   LIG    1       26.010 -24.256   6.969  0.00  0.00    +0.009 A 
ATOM     19  C   LIG    1       25.320 -23.090   7.301  0.00  0.00    +0.046 A 
BRANCH  14  20
ATOM     20  O   LIG    1       23.220 -21.884   7.550  0.00  0.00    -0.492 OA
BRANCH  20  21
ATOM     21  C   LIG    1       23.622 -20.688   6.847  0.00  0.00    +0.232 C 
BRANCH  21  23
ATOM     22  C   LIG    1       22.447 -19.300   5.092  0.00  0.00    +0.010 C 
ATOM     23  C   LIG    1       23.109 -20.651   5.396  0.00  0.00    +0.020 C 
ATOM     24  C   LIG    1       24.212 -20.901   4.368  0.00  0.00    +0.010 C 
ENDBRANCH  21  23
ENDBRANCH  20  21
ENDBRANCH  14  20
ENDBRANCH  13  17
ENDBRANCH   1  13
BRANCH   4  25
ATOM     25  C   LIG    1       26.910 -29.524   9.179  0.00  0.00    +0.144 C 
BRANCH  25  26
ATOM     26  C   LIG    1       27.038 -28.947  10.572  0.00  0.00    -0.030 A 
ATOM     27  C   LIG    1       26.518 -27.689  10.916  0.00  0.00    +0.008 A 
ATOM     28  C   LIG    1       26.639 -27.183  12.206  0.00  0.00    +0.039 A 
ATOM     29  C   LIG    1       27.284 -27.935  13.172  0.00  0.00    +0.123 A 
ATOM     30  F   LIG    1       27.406 -27.446  14.412  0.00  0.00    -0.205 F 
ATOM     31  C   LIG    1       27.812 -29.185  12.868  0.00  0.00    +0.039 A 
ATOM     32  C   LIG    1       27.693 -29.691  11.570  0.00  0.00    +0.008 A 
ENDBRANCH  25  26
ENDBRANCH   4  25
TORSDOF 8
ENDMDL
MODEL 3
REMARK VINA RESULT:      -8.0      5.924      9.925
REMARK  Name = *****
REMARK                            x       y       z     vdW  Elec       q    Type
REMARK                         _______ _______ _______ _____ _____    ______ ____
ROOT
ATOM      1  N   LIG    1       27.470 -20.704   6.202  0.00  0.00    -0.295 N 
ATOM      2  H   LIG    1       27.406 -21.081   7.134  0.00  0.00    +0.151 HD
ATOM      3  C   LIG    1       26.331 -20.621   5.449  0.00  0.00    +0.303 C 
ATOM      4  N   LIG    1       25.184 -21.259   5.966  0.00  0.00    -0.278 N 
ATOM      5  O   LIG    1       26.323 -20.036   4.349  0.00  0.00    -0.253 OA
ENDROOT
BRANCH   4   6
ATOM      6  C   LIG    1       23.898 -21.101   5.213  0.00  0.00    +0.080 C 
ATOM      7  C   LIG    1       22.760 -20.434   6.009  0.00  0.00    +0.038 C 
ATOM      8  C   LIG    1       22.532 -18.945   5.733  0.00  0.00    +0.086 C 
ATOM      9  N   LIG    1       22.575 -18.546   4.324  0.00  0.00    -0.305 NA
ATOM     10  C   LIG    1       21.359 -18.871   3.588  0.00  0.00    +0.105 C 
ATOM     11  C   LIG    1       23.785 -19.025   3.667  0.00  0.00    +0.086 C 
ATOM     12  C   LIG    1       24.018 -20.536   3.783  0.00  0.00    +0.038 C 
ENDBRANCH   4   6
BRANCH   1  13
ATOM     13  C   LIG    1       28.769 -20.142   5.846  0.00  0.00    +0.141 C 
BRANCH  13  17
ATOM     14  C   LIG    1       31.148 -18.848   9.251  0.00  0.00    +0.120 A 
ATOM     15  C   LIG    1       30.550 -17.898   8.414  0.00  0.00    +0.046 A 
ATOM     16  C   LIG    1       29.750 -18.313   7.330  0.00  0.00    +0.009 A 
ATOM     17  C   LIG    1       29.582 -19.675   7.034  0.00  0.00    -0.030 A 
ATOM     18  C   LIG    1       30.235 -20.609   7.839  0.00  0.00    +0.009 A 
ATOM     19  C   LIG    1       31.008 -20.198   8.926  0.00  0.00    +0.046 A 
BRANCH  14  20
ATOM     20  O   LIG    1       31.869 -18.415  10.344  0.00  0.00    -0.492 OA
BRANCH  20  21
ATOM     21  C   LIG    1       31.110 -17.586  11.251  0.00  0.00    +0.232 C 
BRANCH  21  23
ATOM     22  C   LIG    1       32.222 -16.108  12.973  0.00  0.00    +0.010 C 
ATOM     23  C   LIG    1       31.776 -16.223  11.509  0.00  0.00    +0.020 C 
ATOM     24  C   LIG    1       32.983 -15.969  10.606  0.00  0.00    +0.010 C 
ENDBRANCH  21  23
ENDBRANCH  20  21
ENDBRANCH  14  20
ENDBRANCH  13  17
ENDBRANCH   1  13
BRANCH   4  25
ATOM     25  C   LIG    1       25.221 -22.191   7.104  0.00  0.00    +0.144 C 
BRANCH  25  26
ATOM     26  C   LIG    1       25.075 -23.657   6.758  0.00  0.00    -0.030 A 
ATOM     27  C   LIG    1       23.824 -24.261   6.563  0.00  0.00    +0.008 A 
ATOM     28  C   LIG    1       23.714 -25.609   6.235  0.00  0.00    +0.039 A 
ATOM     29  C   LIG    1       24.862 -26.370   6.098  0.00  0.00    +0.123 A 
ATOM     30  F   LIG    1       24.757 -27.668   5.789  0.00  0.00    -0.205 F 
ATOM     31  C   LIG    1       26.118 -25.805   6.284  0.00  0.00    +0.039 A 
ATOM     32  C   LIG    1       26.227 -24.451   6.617  0.00  0.00    +0.008 A 
ENDBRANCH  25  26
ENDBRANCH   4  25
TORSDOF 8
ENDMDL
MODEL 4
REMARK VINA RESULT:      -7.9      3.200      4.712
REMARK  Name = *****
REMARK                            x       y       z     vdW  Elec       q    Type
REMARK                         _______ _______ _______ _____ _____    ______ ____
ROOT
ATOM      1  N   LIG    1       25.685 -28.516   6.973  0.00  0.00    -0.295 N 
ATOM      2  H   LIG    1       26.531 -28.321   7.485  0.00  0.00    +0.151 HD
ATOM      3  C   LIG    1       24.806 -29.431   7.486  0.00  0.00    +0.303 C 
ATOM      4  N   LIG    1       25.250 -30.181   8.595  0.00  0.00    -0.278 N 
ATOM      5  O   LIG    1       23.685 -29.608   6.973  0.00  0.00    -0.253 OA
ENDROOT
BRANCH   4   6
ATOM      6  C   LIG    1       24.275 -31.119   9.238  0.00  0.00    +0.080 C 
ATOM      7  C   LIG    1       24.835 -32.519   9.554  0.00  0.00    +0.038 C 
ATOM      8  C   LIG    1       25.266 -32.757  11.004  0.00  0.00    +0.086 C 
ATOM      9  N   LIG    1       24.355 -32.246  12.030  0.00  0.00    -0.305 NA
ATOM     10  C   LIG    1       23.181 -33.084  12.239  0.00  0.00    +0.105 C 
ATOM     11  C   LIG    1       24.023 -30.844  11.803  0.00  0.00    +0.086 C 
ATOM     12  C   LIG    1       23.455 -30.542  10.411  0.00  0.00    +0.038 C 
ENDBRANCH   4   6
BRANCH   1  13
ATOM     13  C   LIG    1       25.444 -27.657   5.819  0.00  0.00    +0.141 C 
BRANCH  13  17
ATOM     14  C   LIG    1       24.552 -23.530   6.869  0.00  0.00    +0.120 A 
ATOM     15  C   LIG    1       25.860 -24.015   6.987  0.00  0.00    +0.046 A 
ATOM     16  C   LIG    1       26.160 -25.341   6.615  0.00  0.00    +0.009 A 
ATOM     17  C   LIG    1       25.153 -26.215   6.176  0.00  0.00    -0.030 A 
ATOM     18  C   LIG    1       23.843 -25.737   6.124  0.00  0.00    +0.009 A 
ATOM     19  C   LIG    1       23.551 -24.417   6.470  0.00  0.00    +0.046 A 
BRANCH  14  20
ATOM     20  O   LIG    1       24.299 -22.209   7.174  0.00  0.00    -0.492 OA
BRANCH  20  21
ATOM     21  C   LIG    1       25.279 -21.617   8.055  0.00  0.00    +0.232 C 
BRANCH  21  23
ATOM     22  C   LIG    1       27.523 -20.481   7.808  0.00  0.00    +0.010 C 
ATOM     23  C   LIG    1       26.044 -20.455   7.398  0.00  0.00    +0.020 C 
ATOM     24  C   LIG    1       25.956 -20.471   5.872  0.00  0.00    +0.010 C 
ENDBRANCH  21  23
ENDBRANCH  20  21
ENDBRANCH  14  20
ENDBRANCH  13  17
ENDBRANCH   1  13
BRANCH   4  25
ATOM     25  C   LIG    1       26.650 -30.206   9.046  0.00  0.00    +0.144 C 
BRANCH  25  26
ATOM     26  C   LIG    1       26.942 -29.454  10.326  0.00  0.00    -0.030 A 
ATOM     27  C   LIG    1       26.470 -28.152  10.556  0.00  0.00    +0.008 A 
ATOM     28  C   LIG    1       26.742 -27.483  11.745  0.00  0.00    +0.039 A 
ATOM     29  C   LIG    1       27.492 -28.114  12.723  0.00  0.00    +0.123 A 
ATOM     30  F   LIG    1       27.758 -27.469  13.865  0.00  0.00    -0.205 F 
ATOM     31  C   LIG    1       27.975 -29.403  12.530  0.00  0.00    +0.039 A 
ATOM     32  C   LIG    1       27.704 -30.073  11.333  0.00  0.00    +0.008 A 
ENDBRANCH  25  26
ENDBRANCH   4  25
TORSDOF 8
ENDMDL
MODEL 5
REMARK VINA RESULT:      -7.9      3.999     10.062
REMARK  Name = *****
REMARK                            x       y       z     vdW  Elec       q    Type
REMARK                         _______ _______ _______ _____ _____    ______ ____
ROOT
ATOM      1  N   LIG    1       26.004 -25.299   6.249  0.00  0.00    -0.295 N 
ATOM      2  H   LIG    1       26.410 -24.872   7.066  0.00  0.00    +0.151 HD
ATOM      3  C   LIG    1       25.141 -24.562   5.486  0.00  0.00    +0.303 C 
ATOM      4  N   LIG    1       24.730 -23.321   6.016  0.00  0.00    -0.278 N 
ATOM      5  O   LIG    1       24.720 -24.987   4.393  0.00  0.00    -0.253 OA
ENDROOT
BRANCH   4   6
ATOM      6  C   LIG    1       23.864 -22.449   5.159  0.00  0.00    +0.080 C 
ATOM      7  C   LIG    1       22.754 -21.695   5.917  0.00  0.00    +0.038 C 
ATOM      8  C   LIG    1       23.047 -20.230   6.253  0.00  0.00    +0.086 C 
ATOM      9  N   LIG    1       23.664 -19.443   5.183  0.00  0.00    -0.305 NA
ATOM     10  C   LIG    1       22.724 -19.021   4.153  0.00  0.00    +0.105 C 
ATOM     11  C   LIG    1       24.845 -20.106   4.642  0.00  0.00    +0.086 C 
ATOM     12  C   LIG    1       24.604 -21.541   4.155  0.00  0.00    +0.038 C 
ENDBRANCH   4   6
BRANCH   1  13
ATOM     13  C   LIG    1       26.533 -26.615   5.907  0.00  0.00    +0.141 C 
BRANCH  13  17
ATOM     14  C   LIG    1       24.242 -29.954   7.496  0.00  0.00    +0.120 A 
ATOM     15  C   LIG    1       25.181 -29.303   8.304  0.00  0.00    +0.046 A 
ATOM     16  C   LIG    1       25.901 -28.199   7.805  0.00  0.00    +0.009 A 
ATOM     17  C   LIG    1       25.735 -27.766   6.479  0.00  0.00    -0.030 A 
ATOM     18  C   LIG    1       24.841 -28.464   5.666  0.00  0.00    +0.009 A 
ATOM     19  C   LIG    1       24.112 -29.543   6.169  0.00  0.00    +0.046 A 
BRANCH  14  20
ATOM     20  O   LIG    1       23.502 -30.987   8.031  0.00  0.00    -0.492 OA
BRANCH  20  21
ATOM     21  C   LIG    1       23.615 -31.102   9.467  0.00  0.00    +0.232 C 
BRANCH  21  23
ATOM     22  C   LIG    1       21.341 -31.444  10.515  0.00  0.00    +0.010 C 
ATOM     23  C   LIG    1       22.449 -30.427  10.211  0.00  0.00    +0.020 C 
ATOM     24  C   LIG    1       22.881 -29.764  11.519  0.00  0.00    +0.010 C 
ENDBRANCH  21  23
ENDBRANCH  20  21
ENDBRANCH  14  20
ENDBRANCH  13  17
ENDBRANCH   1  13
BRANCH   4  25
ATOM     25  C   LIG    1       24.973 -22.918   7.410  0.00  0.00    +0.144 C 
BRANCH  25  26
ATOM     26  C   LIG    1       26.096 -21.926   7.620  0.00  0.00    -0.030 A 
ATOM     27  C   LIG    1       25.990 -20.848   8.513  0.00  0.00    +0.008 A 
ATOM     28  C   LIG    1       27.040 -19.955   8.697  0.00  0.00    +0.039 A 
ATOM     29  C   LIG    1       28.214 -20.131   7.986  0.00  0.00    +0.123 A 
ATOM     30  F   LIG    1       29.222 -19.268   8.160  0.00  0.00    -0.205 F 
ATOM     31  C   LIG    1       28.355 -21.187   7.094  0.00  0.00    +0.039 A 
ATOM     32  C   LIG    1       27.298 -22.082   6.906  0.00  0.00    +0.008 A 
ENDBRANCH  25  26
ENDBRANCH   4  25
TORSDOF 8
ENDMDL
MODEL 6
REMARK VINA RESULT:      -7.8      4.287     10.559
REMARK  Name = *****
REMARK                            x       y       z     vdW  Elec       q    Type
REMARK                         _______ _______ _______ _____ _____    ______ ____
ROOT
ATOM      1  N   LIG    1       25.675 -24.243   5.615  0.00  0.00    -0.295 N 
ATOM      2  H   LIG    1       26.563 -24.284   6.089  0.00  0.00    +0.151 HD
ATOM      3  C   LIG    1       25.038 -23.036   5.522  0.00  0.00    +0.303 C 
ATOM      4  N   LIG    1       25.582 -21.974   6.275  0.00  0.00    -0.278 N 
ATOM      5  O   LIG    1       24.012 -22.898   4.829  0.00  0.00    -0.253 OA
ENDROOT
BRANCH   4   6
ATOM      6  C   LIG    1       24.966 -20.618   6.116  0.00  0.00    +0.080 C 
ATOM      7  C   LIG    1       25.171 -19.972   4.732  0.00  0.00    +0.038 C 
ATOM      8  C   LIG    1       23.992 -20.080   3.761  0.00  0.00    +0.086 C 
ATOM      9  N   LIG    1       22.669 -19.825   4.336  0.00  0.00    -0.305 NA
ATOM     10  C   LIG    1       22.381 -18.410   4.534  0.00  0.00    +0.105 C 
ATOM     11  C   LIG    1       22.441 -20.627   5.533  0.00  0.00    +0.086 C 
ATOM     12  C   LIG    1       23.514 -20.473   6.617  0.00  0.00    +0.038 C 
ENDBRANCH   4   6
BRANCH   1  13
ATOM     13  C   LIG    1       25.270 -25.474   4.945  0.00  0.00    +0.141 C 
BRANCH  13  17
ATOM     14  C   LIG    1       25.153 -28.990   7.505  0.00  0.00    +0.120 A 
ATOM     15  C   LIG    1       25.990 -27.916   7.829  0.00  0.00    +0.046 A 
ATOM     16  C   LIG    1       26.005 -26.760   7.022  0.00  0.00    +0.009 A 
ATOM     17  C   LIG    1       25.231 -26.684   5.853  0.00  0.00    -0.030 A 
ATOM     18  C   LIG    1       24.449 -27.787   5.508  0.00  0.00    +0.009 A 
ATOM     19  C   LIG    1       24.417 -28.921   6.321  0.00  0.00    +0.046 A 
BRANCH  14  20
ATOM     20  O   LIG    1       25.105 -30.079   8.349  0.00  0.00    -0.492 OA
BRANCH  20  21
ATOM     21  C   LIG    1       24.703 -31.304   7.698  0.00  0.00    +0.232 C 
BRANCH  21  23
ATOM     22  C   LIG    1       26.559 -32.162   6.213  0.00  0.00    +0.010 C 
ATOM     23  C   LIG    1       25.856 -32.315   7.569  0.00  0.00    +0.020 C 
ATOM     24  C   LIG    1       26.897 -32.177   8.681  0.00  0.00    +0.010 C 
ENDBRANCH  21  23
ENDBRANCH  20  21
ENDBRANCH  14  20
ENDBRANCH  13  17
ENDBRANCH   1  13
BRANCH   4  25
ATOM     25  C   LIG    1       26.606 -22.163   7.315  0.00  0.00    +0.144 C 
BRANCH  25  26
ATOM     26  C   LIG    1       27.849 -21.311   7.174  0.00  0.00    -0.030 A 
ATOM     27  C   LIG    1       27.979 -20.330   6.178  0.00  0.00    +0.008 A 
ATOM     28  C   LIG    1       29.127 -19.552   6.074  0.00  0.00    +0.039 A 
ATOM     29  C   LIG    1       30.163 -19.746   6.972  0.00  0.00    +0.123 A 
ATOM     30  F   LIG    1       31.269 -19.001   6.869  0.00  0.00    -0.205 F 
ATOM     31  C   LIG    1       30.068 -20.707   7.972  0.00  0.00    +0.039 A 
ATOM     32  C   LIG    1       28.916 -21.492   8.073  0.00  0.00    +0.008 A 
ENDBRANCH  25  26
ENDBRANCH   4  25
TORSDOF 8
ENDMDL
MODEL 7
REMARK VINA RESULT:      -7.8      3.938     10.285
REMARK  Name = *****
REMARK                            x       y       z     vdW  Elec       q    Type
REMARK                         _______ _______ _______ _____ _____    ______ ____
ROOT
ATOM      1  N   LIG    1       26.074 -25.301   6.206  0.00  0.00    -0.295 N 
ATOM      2  H   LIG    1       26.485 -24.876   7.022  0.00  0.00    +0.151 HD
ATOM      3  C   LIG    1       25.178 -24.574   5.471  0.00  0.00    +0.303 C 
ATOM      4  N   LIG    1       24.746 -23.352   6.028  0.00  0.00    -0.278 N 
ATOM      5  O   LIG    1       24.747 -24.992   4.379  0.00  0.00    -0.253 OA
ENDROOT
BRANCH   4   6
ATOM      6  C   LIG    1       23.843 -22.489   5.202  0.00  0.00    +0.080 C 
ATOM      7  C   LIG    1       22.761 -21.734   5.999  0.00  0.00    +0.038 C 
ATOM      8  C   LIG    1       23.062 -20.266   6.314  0.00  0.00    +0.086 C 
ATOM      9  N   LIG    1       23.632 -19.484   5.215  0.00  0.00    -0.305 NA
ATOM     10  C   LIG    1       22.649 -19.072   4.221  0.00  0.00    +0.105 C 
ATOM     11  C   LIG    1       24.792 -20.146   4.630  0.00  0.00    +0.086 C 
ATOM     12  C   LIG    1       24.537 -21.584   4.163  0.00  0.00    +0.038 C 
ENDBRANCH   4   6
BRANCH   1  13
ATOM     13  C   LIG    1       26.629 -26.597   5.833  0.00  0.00    +0.141 C 
BRANCH  13  17
ATOM     14  C   LIG    1       24.276 -29.959   7.276  0.00  0.00    +0.120 A 
ATOM     15  C   LIG    1       24.205 -29.584   5.930  0.00  0.00    +0.046 A 
ATOM     16  C   LIG    1       24.993 -28.517   5.450  0.00  0.00    +0.009 A 
ATOM     17  C   LIG    1       25.814 -27.777   6.316  0.00  0.00    -0.030 A 
ATOM     18  C   LIG    1       25.826 -28.123   7.668  0.00  0.00    +0.009 A 
ATOM     19  C   LIG    1       25.064 -29.194   8.137  0.00  0.00    +0.046 A 
BRANCH  14  20
ATOM     20  O   LIG    1       23.548 -31.050   7.704  0.00  0.00    -0.492 OA
BRANCH  20  21
ATOM     21  C   LIG    1       23.669 -32.204   6.845  0.00  0.00    +0.232 C 
BRANCH  21  23
ATOM     22  C   LIG    1       26.079 -32.940   6.662  0.00  0.00    +0.010 C 
ATOM     23  C   LIG    1       24.727 -33.205   7.339  0.00  0.00    +0.020 C 
ATOM     24  C   LIG    1       24.921 -33.169   8.855  0.00  0.00    +0.010 C 
ENDBRANCH  21  23
ENDBRANCH  20  21
ENDBRANCH  14  20
ENDBRANCH  13  17
ENDBRANCH   1  13
BRANCH   4  25
ATOM     25  C   LIG    1       25.005 -22.965   7.424  0.00  0.00    +0.144 C 
BRANCH  25  26
ATOM     26  C   LIG    1       26.133 -21.977   7.632  0.00  0.00    -0.030 A 
ATOM     27  C   LIG    1       27.346 -22.062   6.931  0.00  0.00    +0.008 A 
ATOM     28  C   LIG    1       28.365 -21.137   7.131  0.00  0.00    +0.039 A 
ATOM     29  C   LIG    1       28.179 -20.109   8.040  0.00  0.00    +0.123 A 
ATOM     30  F   LIG    1       29.161 -19.222   8.237  0.00  0.00    -0.205 F 
ATOM     31  C   LIG    1       26.991 -19.993   8.752  0.00  0.00    +0.039 A 
ATOM     32  C   LIG    1       25.969 -20.926   8.552  0.00  0.00    +0.008 A 
ENDBRANCH  25  26
ENDBRANCH   4  25
TORSDOF 8
ENDMDL
MODEL 8
REMARK VINA RESULT:      -7.8      4.286     10.351
REMARK  Name = *****
REMARK                            x       y       z     vdW  Elec       q    Type
REMARK                         _______ _______ _______ _____ _____    ______ ____
ROOT
ATOM      1  N   LIG    1       25.786 -24.329   5.754  0.00  0.00    -0.295 N 
ATOM      2  H   LIG    1       26.679 -24.351   6.218  0.00  0.00    +0.151 HD
ATOM      3  C   LIG    1       25.130 -23.133   5.650  0.00  0.00    +0.303 C 
ATOM      4  N   LIG    1       25.668 -22.052   6.380  0.00  0.00    -0.278 N 
ATOM      5  O   LIG    1       24.095 -23.020   4.966  0.00  0.00    -0.253 OA
ENDROOT
BRANCH   4   6
ATOM      6  C   LIG    1       25.030 -20.707   6.207  0.00  0.00    +0.080 C 
ATOM      7  C   LIG    1       25.208 -20.082   4.810  0.00  0.00    +0.038 C 
ATOM      8  C   LIG    1       24.018 -20.221   3.856  0.00  0.00    +0.086 C 
ATOM      9  N   LIG    1       22.700 -19.975   4.445  0.00  0.00    -0.305 NA
ATOM     10  C   LIG    1       22.394 -18.561   4.623  0.00  0.00    +0.105 C 
ATOM     11  C   LIG    1       22.498 -20.760   5.657  0.00  0.00    +0.086 C 
ATOM     12  C   LIG    1       23.583 -20.574   6.725  0.00  0.00    +0.038 C 
ENDBRANCH   4   6
BRANCH   1  13
ATOM     13  C   LIG    1       25.390 -25.576   5.108  0.00  0.00    +0.141 C 
BRANCH  13  17
ATOM     14  C   LIG    1       25.161 -29.014   7.763  0.00  0.00    +0.120 A 
ATOM     15  C   LIG    1       26.083 -27.993   8.020  0.00  0.00    +0.046 A 
ATOM     16  C   LIG    1       26.137 -26.860   7.183  0.00  0.00    +0.009 A 
ATOM     17  C   LIG    1       25.315 -26.759   6.049  0.00  0.00    -0.030 A 
ATOM     18  C   LIG    1       24.445 -27.814   5.770  0.00  0.00    +0.009 A 
ATOM     19  C   LIG    1       24.376 -28.924   6.613  0.00  0.00    +0.046 A 
BRANCH  14  20
ATOM     20  O   LIG    1       25.082 -30.078   8.638  0.00  0.00    -0.492 OA
BRANCH  20  21
ATOM     21  C   LIG    1       25.287 -29.711  10.020  0.00  0.00    +0.232 C 
BRANCH  21  23
ATOM     22  C   LIG    1       23.892 -29.170  12.056  0.00  0.00    +0.010 C 
ATOM     23  C   LIG    1       24.147 -30.188  10.937  0.00  0.00    +0.020 C 
ATOM     24  C   LIG    1       22.839 -30.432  10.185  0.00  0.00    +0.010 C 
ENDBRANCH  21  23
ENDBRANCH  20  21
ENDBRANCH  14  20
ENDBRANCH  13  17
ENDBRANCH   1  13
BRANCH   4  25
ATOM     25  C   LIG    1       26.706 -22.210   7.411  0.00  0.00    +0.144 C 
BRANCH  25  26
ATOM     26  C   LIG    1       27.927 -21.330   7.253  0.00  0.00    -0.030 A 
ATOM     27  C   LIG    1       28.025 -20.354   6.248  0.00  0.00    +0.008 A 
ATOM     28  C   LIG    1       29.153 -19.550   6.128  0.00  0.00    +0.039 A 
ATOM     29  C   LIG    1       30.201 -19.713   7.018  0.00  0.00    +0.123 A 
ATOM     30  F   LIG    1       31.289 -18.943   6.899  0.00  0.00    -0.205 F 
ATOM     31  C   LIG    1       30.139 -20.669   8.025  0.00  0.00    +0.039 A 
ATOM     32  C   LIG    1       29.006 -21.480   8.142  0.00  0.00    +0.008 A 
ENDBRANCH  25  26
ENDBRANCH   4  25
TORSDOF 8
ENDMDL
MODEL 9
REMARK VINA RESULT:      -7.7      1.290      1.831
REMARK  Name = *****
REMARK                            x       y       z     vdW  Elec       q    Type
REMARK                         _______ _______ _______ _____ _____    ______ ____
ROOT
ATOM      1  N   LIG    1       25.658 -27.636   6.717  0.00  0.00    -0.295 N 
ATOM      2  H   LIG    1       25.127 -28.131   6.018  0.00  0.00    +0.151 HD
ATOM      3  C   LIG    1       25.894 -28.253   7.916  0.00  0.00    +0.303 C 
ATOM      4  N   LIG    1       25.203 -29.459   8.154  0.00  0.00    -0.278 N 
ATOM      5  O   LIG    1       26.659 -27.751   8.761  0.00  0.00    -0.253 OA
ENDROOT
BRANCH   4   6
ATOM      6  C   LIG    1       25.517 -30.207   9.413  0.00  0.00    +0.080 C 
ATOM      7  C   LIG    1       27.020 -30.399   9.694  0.00  0.00    +0.038 C 
ATOM      8  C   LIG    1       27.644 -29.427  10.699  0.00  0.00    +0.086 C 
ATOM      9  N   LIG    1       26.852 -29.162  11.903  0.00  0.00    -0.305 NA
ATOM     10  C   LIG    1       26.917 -30.230  12.892  0.00  0.00    +0.105 C 
ATOM     11  C   LIG    1       25.487 -28.773  11.572  0.00  0.00    +0.086 C 
ATOM     12  C   LIG    1       24.741 -29.766  10.672  0.00  0.00    +0.038 C 
ENDBRANCH   4   6
BRANCH   1  13
ATOM     13  C   LIG    1       26.243 -26.374   6.278  0.00  0.00    +0.141 C 
BRANCH  13  17
ATOM     14  C   LIG    1       23.768 -22.923   7.221  0.00  0.00    +0.120 A 
ATOM     15  C   LIG    1       25.131 -22.913   7.537  0.00  0.00    +0.046 A 
ATOM     16  C   LIG    1       25.944 -24.015   7.202  0.00  0.00    +0.009 A 
ATOM     17  C   LIG    1       25.399 -25.161   6.601  0.00  0.00    -0.030 A 
ATOM     18  C   LIG    1       24.026 -25.181   6.349  0.00  0.00    +0.009 A 
ATOM     19  C   LIG    1       23.227 -24.081   6.660  0.00  0.00    +0.046 A 
BRANCH  14  20
ATOM     20  O   LIG    1       23.010 -21.804   7.497  0.00  0.00    -0.492 OA
BRANCH  20  21
ATOM     21  C   LIG    1       23.455 -20.615   6.809  0.00  0.00    +0.232 C 
BRANCH  21  23
ATOM     22  C   LIG    1       22.479 -19.240   4.927  0.00  0.00    +0.010 C 
ATOM     23  C   LIG    1       23.060 -20.604   5.322  0.00  0.00    +0.020 C 
ATOM     24  C   LIG    1       24.229 -20.929   4.392  0.00  0.00    +0.010 C 
ENDBRANCH  21  23
ENDBRANCH  20  21
ENDBRANCH  14  20
ENDBRANCH  13  17
ENDBRANCH   1  13
BRANCH   4  25
ATOM     25  C   LIG    1       24.089 -29.931   7.316  0.00  0.00    +0.144 C 
BRANCH  25  26
ATOM     26  C   LIG    1       24.440 -30.989   6.292  0.00  0.00    -0.030 A 
ATOM     27  C   LIG    1       23.725 -32.192   6.180  0.00  0.00    +0.008 A 
ATOM     28  C   LIG    1       24.060 -33.146   5.224  0.00  0.00    +0.039 A 
ATOM     29  C   LIG    1       25.118 -32.904   4.365  0.00  0.00    +0.123 A 
ATOM     30  F   LIG    1       25.443 -33.824   3.449  0.00  0.00    -0.205 F 
ATOM     31  C   LIG    1       25.847 -31.724   4.447  0.00  0.00    +0.039 A 
ATOM     32  C   LIG    1       25.513 -30.768   5.410  0.00  0.00    +0.008 A 
ENDBRANCH  25  26
ENDBRANCH   4  25
TORSDOF 8
ENDMDL
