MODEL 1
REMARK VINA RESULT:      -7.3      0.000      0.000
REMARK  Name = *****
REMARK                            x       y       z     vdW  Elec       q    Type
REMARK                         _______ _______ _______ _____ _____    ______ ____
ROOT
ATOM      1  C   LIG    1       18.394 -29.097  14.058  0.00  0.00    +0.132 A 
ATOM      2  C   LIG    1       19.718 -28.763  13.700  0.00  0.00    +0.075 A 
ATOM      3  C   LIG    1       20.642 -29.729  13.042  0.00  0.00    +0.202 C 
ATOM      4  C   LIG    1       22.032 -29.319  12.715  0.00  0.00    +0.078 A 
ATOM      5  C   LIG    1       22.506 -28.063  13.083  0.00  0.00    +0.078 A 
ATOM      6  C   LIG    1       21.576 -27.080  13.666  0.00  0.00    +0.198 C 
ATOM      7  O   LIG    1       21.970 -25.950  13.903  0.00  0.00    -0.286 OA
ATOM      8  C   LIG    1       23.856 -27.721  12.874  0.00  0.00    +0.132 A 
ATOM      9  C   LIG    1       24.726 -28.615  12.249  0.00  0.00    +0.007 A 
ATOM     10  C   LIG    1       26.195 -28.321  12.032  0.00  0.00    +0.082 C 
ATOM     11  C   LIG    1       27.098 -29.584  12.098  0.00  0.00    +0.133 C 
ATOM     12  C   LIG    1       26.390 -30.890  11.640  0.00  0.00    +0.079 C 
ATOM     13  C   LIG    1       25.106 -30.632  10.834  0.00  0.00    +0.158 C 
ATOM     14  C   LIG    1       24.204 -29.809  11.725  0.00  0.00    +0.030 A 
ATOM     15  C   LIG    1       22.886 -30.186  12.014  0.00  0.00    +0.135 A 
ATOM     16  O   LIG    1       20.300 -30.860  12.736  0.00  0.00    -0.286 OA
ATOM     17  C   LIG    1       20.180 -27.465  13.948  0.00  0.00    +0.037 A 
ATOM     18  C   LIG    1       19.332 -26.489  14.491  0.00  0.00    +0.012 A 
ATOM     19  C   LIG    1       18.022 -26.812  14.813  0.00  0.00    +0.004 A 
ATOM     20  C   LIG    1       17.562 -28.109  14.607  0.00  0.00    +0.046 A 
ENDROOT
BRANCH   1  22
ATOM     21  C   LIG    1       16.680 -30.589  13.308  0.00  0.00    +0.277 C 
ATOM     22  O   LIG    1       17.974 -30.387  13.868  0.00  0.00    -0.494 OA
ENDBRANCH   1  22
BRANCH   8  23
ATOM     23  O   LIG    1       24.370 -26.507  13.248  0.00  0.00    -0.506 OA
ATOM     24  H   LIG    1       25.105 -26.663  13.884  0.00  0.00    +0.292 HD
ENDBRANCH   8  23
BRANCH  11  25
ATOM     25  O   LIG    1       28.215 -29.358  11.219  0.00  0.00    -0.381 OA
ATOM     26  H   LIG    1       28.972 -29.877  11.549  0.00  0.00    +0.211 HD
ENDBRANCH  11  25
BRANCH  11  27
ATOM     27  C   LIG    1       27.643 -29.739  13.547  0.00  0.00    +0.190 C 
ATOM     28  O   LIG    1       28.011 -30.824  14.008  0.00  0.00    -0.292 OA
BRANCH  27  29
ATOM     29  C   LIG    1       27.648 -28.492  14.441  0.00  0.00    +0.233 C 
BRANCH  29  30
ATOM     30  O   LIG    1       28.878 -27.782  14.385  0.00  0.00    -0.387 OA
ATOM     31  H   LIG    1       29.237 -27.774  15.292  0.00  0.00    +0.210 HD
ENDBRANCH  29  30
ENDBRANCH  27  29
ENDBRANCH  11  27
BRANCH  15  32
ATOM     32  O   LIG    1       22.479 -31.423  11.589  0.00  0.00    -0.506 OA
ATOM     33  H   LIG    1       23.153 -31.781  10.966  0.00  0.00    +0.292 HD
ENDBRANCH  15  32
BRANCH  13  34
ATOM     34  O   LIG    1       25.454 -29.936   9.619  0.00  0.00    -0.343 OA
BRANCH  34  35
ATOM     35  C   LIG    1       24.765 -30.387   8.432  0.00  0.00    +0.253 C 
ATOM     36  O   LIG    1       25.477 -31.465   7.846  0.00  0.00    -0.346 OA
ATOM     37  C   LIG    1       25.088 -31.817   6.520  0.00  0.00    +0.148 C 
ATOM     38  C   LIG    1       23.651 -32.331   6.419  0.00  0.00    +0.040 C 
ATOM     39  C   LIG    1       25.438 -30.642   5.611  0.00  0.00    +0.160 C 
ATOM     40  C   LIG    1       24.664 -29.369   5.999  0.00  0.00    +0.087 C 
ATOM     41  C   LIG    1       24.590 -29.149   7.516  0.00  0.00    +0.082 C 
BRANCH  40  42
ATOM     42  N   LIG    1       23.325 -29.327   5.376  0.00  0.00    -0.325 NA
ATOM     43  H   LIG    1       23.045 -28.355   5.242  0.00  0.00    +0.119 HD
ATOM     44  H   LIG    1       23.399 -29.725   4.433  0.00  0.00    +0.119 HD
ENDBRANCH  40  42
BRANCH  39  45
ATOM     45  O   LIG    1       25.229 -30.951   4.229  0.00  0.00    -0.388 OA
ATOM     46  H   LIG    1       24.370 -31.405   4.172  0.00  0.00    +0.210 HD
ENDBRANCH  39  45
ENDBRANCH  34  35
ENDBRANCH  13  34
TORSDOF 11
ENDMDL
MODEL 2
REMARK VINA RESULT:      -6.1      2.588      6.034
REMARK  Name = *****
REMARK                            x       y       z     vdW  Elec       q    Type
REMARK                         _______ _______ _______ _____ _____    ______ ____
ROOT
ATOM      1  C   LIG    1       17.939 -30.459  13.359  0.00  0.00    +0.132 A 
ATOM      2  C   LIG    1       19.000 -30.865  12.521  0.00  0.00    +0.075 A 
ATOM      3  C   LIG    1       20.265 -30.089  12.389  0.00  0.00    +0.202 C 
ATOM      4  C   LIG    1       21.332 -30.561  11.469  0.00  0.00    +0.078 A 
ATOM      5  C   LIG    1       21.134 -31.683  10.671  0.00  0.00    +0.078 A 
ATOM      6  C   LIG    1       19.917 -32.495  10.851  0.00  0.00    +0.198 C 
ATOM      7  O   LIG    1       19.788 -33.529  10.216  0.00  0.00    -0.286 OA
ATOM      8  C   LIG    1       22.100 -32.060   9.718  0.00  0.00    +0.132 A 
ATOM      9  C   LIG    1       23.292 -31.346   9.596  0.00  0.00    +0.007 A 
ATOM     10  C   LIG    1       24.351 -31.677   8.565  0.00  0.00    +0.082 C 
ATOM     11  C   LIG    1       25.123 -30.433   8.045  0.00  0.00    +0.133 C 
ATOM     12  C   LIG    1       25.245 -29.285   9.085  0.00  0.00    +0.079 C 
ATOM     13  C   LIG    1       24.959 -29.741  10.526  0.00  0.00    +0.158 C 
ATOM     14  C   LIG    1       23.563 -30.321  10.518  0.00  0.00    +0.030 A 
ATOM     15  C   LIG    1       22.564 -29.891  11.402  0.00  0.00    +0.135 A 
ATOM     16  O   LIG    1       20.480 -29.071  13.028  0.00  0.00    -0.286 OA
ATOM     17  C   LIG    1       18.876 -32.059  11.799  0.00  0.00    +0.037 A 
ATOM     18  C   LIG    1       17.743 -32.873  11.944  0.00  0.00    +0.012 A 
ATOM     19  C   LIG    1       16.716 -32.487  12.792  0.00  0.00    +0.004 A 
ATOM     20  C   LIG    1       16.810 -31.284  13.485  0.00  0.00    +0.046 A 
ENDROOT
BRANCH   1  22
ATOM     21  C   LIG    1       16.845 -28.617  14.423  0.00  0.00    +0.277 C 
ATOM     22  O   LIG    1       18.047 -29.259  14.011  0.00  0.00    -0.494 OA
ENDBRANCH   1  22
BRANCH   8  23
ATOM     23  O   LIG    1       21.932 -33.141   8.892  0.00  0.00    -0.506 OA
ATOM     24  H   LIG    1       21.652 -33.910   9.440  0.00  0.00    +0.292 HD
ENDBRANCH   8  23
BRANCH  11  25
ATOM     25  O   LIG    1       26.454 -30.865   7.709  0.00  0.00    -0.381 OA
ATOM     26  H   LIG    1       26.629 -30.618   6.782  0.00  0.00    +0.211 HD
ENDBRANCH  11  25
BRANCH  11  27
ATOM     27  C   LIG    1       24.435 -29.920   6.746  0.00  0.00    +0.190 C 
ATOM     28  O   LIG    1       23.581 -30.576   6.141  0.00  0.00    -0.292 OA
BRANCH  27  29
ATOM     29  C   LIG    1       24.904 -28.575   6.178  0.00  0.00    +0.233 C 
BRANCH  29  30
ATOM     30  O   LIG    1       26.085 -28.690   5.395  0.00  0.00    -0.387 OA
ATOM     31  H   LIG    1       26.359 -29.626   5.439  0.00  0.00    +0.210 HD
ENDBRANCH  29  30
ENDBRANCH  27  29
ENDBRANCH  11  27
BRANCH  15  32
ATOM     32  O   LIG    1       22.844 -28.801  12.183  0.00  0.00    -0.506 OA
ATOM     33  H   LIG    1       23.545 -29.046  12.831  0.00  0.00    +0.292 HD
ENDBRANCH  15  32
BRANCH  13  34
ATOM     34  O   LIG    1       25.951 -30.716  10.910  0.00  0.00    -0.343 OA
BRANCH  34  35
ATOM     35  C   LIG    1       26.540 -30.516  12.213  0.00  0.00    +0.253 C 
ATOM     36  O   LIG    1       25.515 -30.365  13.183  0.00  0.00    -0.346 OA
ATOM     37  C   LIG    1       25.932 -29.868  14.453  0.00  0.00    +0.148 C 
ATOM     38  C   LIG    1       26.893 -30.803  15.190  0.00  0.00    +0.040 C 
ATOM     39  C   LIG    1       26.424 -28.438  14.248  0.00  0.00    +0.160 C 
ATOM     40  C   LIG    1       27.640 -28.381  13.307  0.00  0.00    +0.087 C 
ATOM     41  C   LIG    1       27.504 -29.309  12.091  0.00  0.00    +0.082 C 
BRANCH  40  42
ATOM     42  N   LIG    1       28.908 -28.610  14.029  0.00  0.00    -0.325 NA
ATOM     43  H   LIG    1       29.023 -29.608  14.202  0.00  0.00    +0.119 HD
ATOM     44  H   LIG    1       29.681 -28.346  13.408  0.00  0.00    +0.119 HD
ENDBRANCH  40  42
BRANCH  39  45
ATOM     45  O   LIG    1       26.724 -27.790  15.490  0.00  0.00    -0.388 OA
ATOM     46  H   LIG    1       27.401 -27.119  15.297  0.00  0.00    +0.210 HD
ENDBRANCH  39  45
ENDBRANCH  34  35
ENDBRANCH  13  34
TORSDOF 11
ENDMDL
MODEL 3
REMARK VINA RESULT:      -5.7      1.373      1.790
REMARK  Name = *****
REMARK                            x       y       z     vdW  Elec       q    Type
REMARK                         _______ _______ _______ _____ _____    ______ ____
ROOT
ATOM      1  C   LIG    1       19.235 -29.335  13.823  0.00  0.00    +0.132 A 
ATOM      2  C   LIG    1       20.562 -28.913  13.595  0.00  0.00    +0.075 A 
ATOM      3  C   LIG    1       21.569 -29.760  12.895  0.00  0.00    +0.202 C 
ATOM      4  C   LIG    1       22.956 -29.264  12.710  0.00  0.00    +0.078 A 
ATOM      5  C   LIG    1       23.349 -28.041  13.248  0.00  0.00    +0.078 A 
ATOM      6  C   LIG    1       22.342 -27.168  13.875  0.00  0.00    +0.198 C 
ATOM      7  O   LIG    1       22.669 -26.059  14.264  0.00  0.00    -0.286 OA
ATOM      8  C   LIG    1       24.693 -27.628  13.170  0.00  0.00    +0.132 A 
ATOM      9  C   LIG    1       25.639 -28.409  12.508  0.00  0.00    +0.007 A 
ATOM     10  C   LIG    1       27.105 -28.038  12.424  0.00  0.00    +0.082 C 
ATOM     11  C   LIG    1       28.057 -29.265  12.407  0.00  0.00    +0.133 C 
ATOM     12  C   LIG    1       27.439 -30.535  11.759  0.00  0.00    +0.079 C 
ATOM     13  C   LIG    1       26.197 -30.234  10.903  0.00  0.00    +0.158 C 
ATOM     14  C   LIG    1       25.205 -29.554  11.819  0.00  0.00    +0.030 A 
ATOM     15  C   LIG    1       23.890 -30.011  11.975  0.00  0.00    +0.135 A 
ATOM     16  O   LIG    1       21.297 -30.861  12.441  0.00  0.00    -0.286 OA
ATOM     17  C   LIG    1       20.950 -27.635  14.018  0.00  0.00    +0.037 A 
ATOM     18  C   LIG    1       20.026 -26.761  14.609  0.00  0.00    +0.012 A 
ATOM     19  C   LIG    1       18.715 -27.168  14.804  0.00  0.00    +0.004 A 
ATOM     20  C   LIG    1       18.326 -28.449  14.423  0.00  0.00    +0.046 A 
ENDROOT
BRANCH   1  22
ATOM     21  C   LIG    1       17.816 -30.767  12.534  0.00  0.00    +0.277 C 
ATOM     22  O   LIG    1       18.886 -30.610  13.461  0.00  0.00    -0.494 OA
ENDBRANCH   1  22
BRANCH   8  23
ATOM     23  O   LIG    1       25.128 -26.446  13.712  0.00  0.00    -0.506 OA
ATOM     24  H   LIG    1       24.430 -25.765  13.573  0.00  0.00    +0.292 HD
ENDBRANCH   8  23
BRANCH  11  25
ATOM     25  O   LIG    1       29.215 -28.897  11.636  0.00  0.00    -0.381 OA
ATOM     26  H   LIG    1       29.198 -27.931  11.502  0.00  0.00    +0.211 HD
ENDBRANCH  11  25
BRANCH  11  27
ATOM     27  C   LIG    1       28.517 -29.566  13.863  0.00  0.00    +0.190 C 
ATOM     28  O   LIG    1       29.438 -28.952  14.411  0.00  0.00    -0.292 OA
BRANCH  27  29
ATOM     29  C   LIG    1       27.829 -30.721  14.601  0.00  0.00    +0.233 C 
BRANCH  29  30
ATOM     30  O   LIG    1       26.580 -30.344  15.167  0.00  0.00    -0.387 OA
ATOM     31  H   LIG    1       26.246 -29.598  14.636  0.00  0.00    +0.210 HD
ENDBRANCH  29  30
ENDBRANCH  27  29
ENDBRANCH  11  27
BRANCH  15  32
ATOM     32  O   LIG    1       23.566 -31.205  11.386  0.00  0.00    -0.506 OA
ATOM     33  H   LIG    1       24.303 -31.842  11.535  0.00  0.00    +0.292 HD
ENDBRANCH  15  32
BRANCH  13  34
ATOM     34  O   LIG    1       26.588 -29.390   9.800  0.00  0.00    -0.343 OA
BRANCH  34  35
ATOM     35  C   LIG    1       26.085 -29.792   8.507  0.00  0.00    +0.253 C 
ATOM     36  O   LIG    1       24.708 -29.466   8.407  0.00  0.00    -0.346 OA
ATOM     37  C   LIG    1       24.008 -30.064   7.318  0.00  0.00    +0.148 C 
ATOM     38  C   LIG    1       24.512 -29.615   5.945  0.00  0.00    +0.040 C 
ATOM     39  C   LIG    1       23.986 -31.571   7.556  0.00  0.00    +0.160 C 
ATOM     40  C   LIG    1       25.405 -32.167   7.577  0.00  0.00    +0.087 C 
ATOM     41  C   LIG    1       26.410 -31.299   8.347  0.00  0.00    +0.082 C 
BRANCH  40  42
ATOM     42  N   LIG    1       25.888 -32.487   6.219  0.00  0.00    -0.325 NA
ATOM     43  H   LIG    1       25.491 -31.824   5.553  0.00  0.00    +0.119 HD
ATOM     44  H   LIG    1       26.901 -32.330   6.195  0.00  0.00    +0.119 HD
ENDBRANCH  40  42
BRANCH  39  45
ATOM     45  O   LIG    1       23.171 -32.255   6.598  0.00  0.00    -0.388 OA
ATOM     46  H   LIG    1       22.551 -31.596   6.239  0.00  0.00    +0.210 HD
ENDBRANCH  39  45
ENDBRANCH  34  35
ENDBRANCH  13  34
TORSDOF 11
ENDMDL
MODEL 4
REMARK VINA RESULT:      -5.3      2.796      7.388
REMARK  Name = *****
REMARK                            x       y       z     vdW  Elec       q    Type
REMARK                         _______ _______ _______ _____ _____    ______ ____
ROOT
ATOM      1  C   LIG    1       24.678 -32.186   7.018  0.00  0.00    +0.132 A 
ATOM      2  C   LIG    1       25.052 -31.548   8.221  0.00  0.00    +0.075 A 
ATOM      3  C   LIG    1       24.071 -30.855   9.103  0.00  0.00    +0.202 C 
ATOM      4  C   LIG    1       24.537 -30.183  10.344  0.00  0.00    +0.078 A 
ATOM      5  C   LIG    1       25.892 -30.131  10.655  0.00  0.00    +0.078 A 
ATOM      6  C   LIG    1       26.856 -30.876   9.827  0.00  0.00    +0.198 C 
ATOM      7  O   LIG    1       28.031 -30.905  10.154  0.00  0.00    -0.286 OA
ATOM      8  C   LIG    1       26.339 -29.395  11.770  0.00  0.00    +0.132 A 
ATOM      9  C   LIG    1       25.428 -28.752  12.608  0.00  0.00    +0.007 A 
ATOM     10  C   LIG    1       25.848 -27.914  13.797  0.00  0.00    +0.082 C 
ATOM     11  C   LIG    1       24.900 -26.717  14.081  0.00  0.00    +0.133 C 
ATOM     12  C   LIG    1       23.423 -26.970  13.669  0.00  0.00    +0.079 C 
ATOM     13  C   LIG    1       23.101 -28.459  13.455  0.00  0.00    +0.158 C 
ATOM     14  C   LIG    1       24.054 -28.950  12.390  0.00  0.00    +0.030 A 
ATOM     15  C   LIG    1       23.615 -29.604  11.230  0.00  0.00    +0.135 A 
ATOM     16  O   LIG    1       22.875 -30.827   8.860  0.00  0.00    -0.286 OA
ATOM     17  C   LIG    1       26.393 -31.588   8.621  0.00  0.00    +0.037 A 
ATOM     18  C   LIG    1       27.347 -32.294   7.874  0.00  0.00    +0.012 A 
ATOM     19  C   LIG    1       26.971 -32.945   6.708  0.00  0.00    +0.004 A 
ATOM     20  C   LIG    1       25.649 -32.881   6.280  0.00  0.00    +0.046 A 
ENDROOT
BRANCH   1  22
ATOM     21  C   LIG    1       22.900 -33.047   5.669  0.00  0.00    +0.277 C 
ATOM     22  O   LIG    1       23.375 -32.086   6.606  0.00  0.00    -0.494 OA
ENDBRANCH   1  22
BRANCH   8  23
ATOM     23  O   LIG    1       27.667 -29.293  12.096  0.00  0.00    -0.506 OA
ATOM     24  H   LIG    1       28.012 -28.446  11.733  0.00  0.00    +0.292 HD
ENDBRANCH   8  23
BRANCH  11  25
ATOM     25  O   LIG    1       24.926 -26.478  15.500  0.00  0.00    -0.381 OA
ATOM     26  H   LIG    1       25.594 -25.791  15.681  0.00  0.00    +0.211 HD
ENDBRANCH  11  25
BRANCH  11  27
ATOM     27  C   LIG    1       25.457 -25.453  13.364  0.00  0.00    +0.190 C 
ATOM     28  O   LIG    1       24.833 -24.388  13.311  0.00  0.00    -0.292 OA
BRANCH  27  29
ATOM     29  C   LIG    1       26.805 -25.580  12.645  0.00  0.00    +0.233 C 
BRANCH  29  30
ATOM     30  O   LIG    1       27.835 -24.826  13.270  0.00  0.00    -0.387 OA
ATOM     31  H   LIG    1       27.398 -24.233  13.909  0.00  0.00    +0.210 HD
ENDBRANCH  29  30
ENDBRANCH  27  29
ENDBRANCH  11  27
BRANCH  15  32
ATOM     32  O   LIG    1       22.264 -29.647  11.008  0.00  0.00    -0.506 OA
ATOM     33  H   LIG    1       21.846 -30.207  11.703  0.00  0.00    +0.292 HD
ENDBRANCH  15  32
BRANCH  13  34
ATOM     34  O   LIG    1       23.277 -29.155  14.706  0.00  0.00    -0.343 OA
BRANCH  34  35
ATOM     35  C   LIG    1       22.339 -30.226  14.953  0.00  0.00    +0.253 C 
ATOM     36  O   LIG    1       22.676 -31.350  14.155  0.00  0.00    -0.346 OA
ATOM     37  C   LIG    1       21.681 -32.367  14.066  0.00  0.00    +0.148 C 
ATOM     38  C   LIG    1       21.375 -33.043  15.404  0.00  0.00    +0.040 C 
ATOM     39  C   LIG    1       20.481 -31.774  13.333  0.00  0.00    +0.160 C 
ATOM     40  C   LIG    1       19.867 -30.592  14.104  0.00  0.00    +0.087 C 
ATOM     41  C   LIG    1       20.923 -29.651  14.701  0.00  0.00    +0.082 C 
BRANCH  40  42
ATOM     42  N   LIG    1       18.898 -31.042  15.123  0.00  0.00    -0.325 NA
ATOM     43  H   LIG    1       19.402 -31.411  15.929  0.00  0.00    +0.119 HD
ATOM     44  H   LIG    1       18.391 -30.219  15.467  0.00  0.00    +0.119 HD
ENDBRANCH  40  42
BRANCH  39  45
ATOM     45  O   LIG    1       19.481 -32.760  13.053  0.00  0.00    -0.388 OA
ATOM     46  H   LIG    1       18.655 -32.442  13.458  0.00  0.00    +0.210 HD
ENDBRANCH  39  45
ENDBRANCH  34  35
ENDBRANCH  13  34
TORSDOF 11
ENDMDL
MODEL 5
REMARK VINA RESULT:      -4.9      3.347      8.646
REMARK  Name = *****
REMARK                            x       y       z     vdW  Elec       q    Type
REMARK                         _______ _______ _______ _____ _____    ______ ____
ROOT
ATOM      1  C   LIG    1       27.141 -33.343   6.613  0.00  0.00    +0.132 A 
ATOM      2  C   LIG    1       26.098 -32.843   7.422  0.00  0.00    +0.075 A 
ATOM      3  C   LIG    1       26.325 -32.323   8.800  0.00  0.00    +0.202 C 
ATOM      4  C   LIG    1       25.178 -31.834   9.606  0.00  0.00    +0.078 A 
ATOM      5  C   LIG    1       23.878 -31.924   9.116  0.00  0.00    +0.078 A 
ATOM      6  C   LIG    1       23.656 -32.367   7.729  0.00  0.00    +0.198 C 
ATOM      7  O   LIG    1       22.524 -32.357   7.271  0.00  0.00    -0.286 OA
ATOM      8  C   LIG    1       22.784 -31.566   9.928  0.00  0.00    +0.132 A 
ATOM      9  C   LIG    1       22.988 -31.069  11.215  0.00  0.00    +0.007 A 
ATOM     10  C   LIG    1       21.853 -30.705  12.149  0.00  0.00    +0.082 C 
ATOM     11  C   LIG    1       22.178 -30.953  13.648  0.00  0.00    +0.133 C 
ATOM     12  C   LIG    1       23.684 -30.800  14.001  0.00  0.00    +0.079 C 
ATOM     13  C   LIG    1       24.484 -30.044  12.927  0.00  0.00    +0.158 C 
ATOM     14  C   LIG    1       24.303 -30.818  11.641  0.00  0.00    +0.030 A 
ATOM     15  C   LIG    1       25.387 -31.259  10.869  0.00  0.00    +0.135 A 
ATOM     16  O   LIG    1       27.436 -32.262   9.303  0.00  0.00    -0.286 OA
ATOM     17  C   LIG    1       24.797 -32.807   6.905  0.00  0.00    +0.037 A 
ATOM     18  C   LIG    1       24.534 -33.207   5.587  0.00  0.00    +0.012 A 
ATOM     19  C   LIG    1       25.566 -33.669   4.784  0.00  0.00    +0.004 A 
ATOM     20  C   LIG    1       26.857 -33.745   5.298  0.00  0.00    +0.046 A 
ENDROOT
BRANCH   1  22
ATOM     21  C   LIG    1       29.463 -33.823   6.292  0.00  0.00    +0.277 C 
ATOM     22  O   LIG    1       28.398 -33.431   7.152  0.00  0.00    -0.494 OA
ENDBRANCH   1  22
BRANCH   8  23
ATOM     23  O   LIG    1       21.487 -31.666   9.495  0.00  0.00    -0.506 OA
ATOM     24  H   LIG    1       21.443 -31.342   8.566  0.00  0.00    +0.292 HD
ENDBRANCH   8  23
BRANCH  11  25
ATOM     25  O   LIG    1       21.446 -29.976  14.411  0.00  0.00    -0.381 OA
ATOM     26  H   LIG    1       20.534 -30.303  14.529  0.00  0.00    +0.211 HD
ENDBRANCH  11  25
BRANCH  11  27
ATOM     27  C   LIG    1       21.665 -32.367  14.047  0.00  0.00    +0.190 C 
ATOM     28  O   LIG    1       22.398 -33.224  14.549  0.00  0.00    -0.292 OA
BRANCH  27  29
ATOM     29  C   LIG    1       20.203 -32.707  13.732  0.00  0.00    +0.233 C 
BRANCH  29  30
ATOM     30  O   LIG    1       19.291 -32.116  14.649  0.00  0.00    -0.387 OA
ATOM     31  H   LIG    1       18.995 -32.827  15.246  0.00  0.00    +0.210 HD
ENDBRANCH  29  30
ENDBRANCH  27  29
ENDBRANCH  11  27
BRANCH  15  32
ATOM     32  O   LIG    1       26.640 -31.105  11.402  0.00  0.00    -0.506 OA
ATOM     33  H   LIG    1       27.284 -30.982  10.666  0.00  0.00    +0.292 HD
ENDBRANCH  15  32
BRANCH  13  34
ATOM     34  O   LIG    1       23.973 -28.699  12.830  0.00  0.00    -0.343 OA
BRANCH  34  35
ATOM     35  C   LIG    1       24.622 -27.730  13.682  0.00  0.00    +0.253 C 
ATOM     36  O   LIG    1       24.286 -26.418  13.256  0.00  0.00    -0.346 OA
ATOM     37  C   LIG    1       25.079 -25.368  13.805  0.00  0.00    +0.148 C 
ATOM     38  C   LIG    1       24.940 -25.224  15.322  0.00  0.00    +0.040 C 
ATOM     39  C   LIG    1       26.502 -25.544  13.284  0.00  0.00    +0.160 C 
ATOM     40  C   LIG    1       27.119 -26.877  13.743  0.00  0.00    +0.087 C 
ATOM     41  C   LIG    1       26.137 -28.054  13.659  0.00  0.00    +0.082 C 
BRANCH  40  42
ATOM     42  N   LIG    1       27.728 -26.770  15.084  0.00  0.00    -0.325 NA
ATOM     43  H   LIG    1       28.657 -26.357  15.001  0.00  0.00    +0.119 HD
ATOM     44  H   LIG    1       27.177 -26.101  15.632  0.00  0.00    +0.119 HD
ENDBRANCH  40  42
BRANCH  39  45
ATOM     45  O   LIG    1       27.349 -24.449  13.652  0.00  0.00    -0.388 OA
ATOM     46  H   LIG    1       27.273 -23.788  12.942  0.00  0.00    +0.210 HD
ENDBRANCH  39  45
ENDBRANCH  34  35
ENDBRANCH  13  34
TORSDOF 11
ENDMDL
MODEL 6
REMARK VINA RESULT:      -4.7      3.063      7.481
REMARK  Name = *****
REMARK                            x       y       z     vdW  Elec       q    Type
REMARK                         _______ _______ _______ _____ _____    ______ ____
ROOT
ATOM      1  C   LIG    1       24.918 -30.248   5.478  0.00  0.00    +0.132 A 
ATOM      2  C   LIG    1       25.070 -30.892   6.725  0.00  0.00    +0.075 A 
ATOM      3  C   LIG    1       24.398 -30.415   7.967  0.00  0.00    +0.202 C 
ATOM      4  C   LIG    1       24.622 -31.127   9.251  0.00  0.00    +0.078 A 
ATOM      5  C   LIG    1       25.512 -32.194   9.324  0.00  0.00    +0.078 A 
ATOM      6  C   LIG    1       26.122 -32.715   8.088  0.00  0.00    +0.198 C 
ATOM      7  O   LIG    1       26.830 -33.708   8.141  0.00  0.00    -0.286 OA
ATOM      8  C   LIG    1       25.809 -32.791  10.565  0.00  0.00    +0.132 A 
ATOM      9  C   LIG    1       25.176 -32.359  11.730  0.00  0.00    +0.007 A 
ATOM     10  C   LIG    1       25.480 -32.934  13.097  0.00  0.00    +0.082 C 
ATOM     11  C   LIG    1       25.352 -31.899  14.249  0.00  0.00    +0.133 C 
ATOM     12  C   LIG    1       24.300 -30.786  13.984  0.00  0.00    +0.079 C 
ATOM     13  C   LIG    1       23.314 -31.141  12.857  0.00  0.00    +0.158 C 
ATOM     14  C   LIG    1       24.153 -31.401  11.627  0.00  0.00    +0.030 A 
ATOM     15  C   LIG    1       23.926 -30.745  10.409  0.00  0.00    +0.135 A 
ATOM     16  O   LIG    1       23.641 -29.457   7.976  0.00  0.00    -0.286 OA
ATOM     17  C   LIG    1       25.864 -32.043   6.800  0.00  0.00    +0.037 A 
ATOM     18  C   LIG    1       26.456 -32.586   5.651  0.00  0.00    +0.012 A 
ATOM     19  C   LIG    1       26.279 -31.968   4.423  0.00  0.00    +0.004 A 
ATOM     20  C   LIG    1       25.524 -30.802   4.340  0.00  0.00    +0.046 A 
ENDROOT
BRANCH   1  22
ATOM     21  C   LIG    1       24.903 -27.855   5.441  0.00  0.00    +0.277 C 
ATOM     22  O   LIG    1       24.190 -29.088   5.430  0.00  0.00    -0.494 OA
ENDBRANCH   1  22
BRANCH   8  23
ATOM     23  O   LIG    1       26.701 -33.825  10.685  0.00  0.00    -0.506 OA
ATOM     24  H   LIG    1       27.505 -33.604  10.162  0.00  0.00    +0.292 HD
ENDBRANCH   8  23
BRANCH  11  25
ATOM     25  O   LIG    1       24.942 -32.619  15.426  0.00  0.00    -0.381 OA
ATOM     26  H   LIG    1       25.720 -33.089  15.781  0.00  0.00    +0.211 HD
ENDBRANCH  11  25
BRANCH  11  27
ATOM     27  C   LIG    1       26.750 -31.273  14.523  0.00  0.00    +0.190 C 
ATOM     28  O   LIG    1       27.686 -31.919  15.004  0.00  0.00    -0.292 OA
BRANCH  27  29
ATOM     29  C   LIG    1       26.926 -29.776  14.239  0.00  0.00    +0.233 C 
BRANCH  29  30
ATOM     30  O   LIG    1       27.574 -29.525  12.999  0.00  0.00    -0.387 OA
ATOM     31  H   LIG    1       27.950 -28.627  13.057  0.00  0.00    +0.210 HD
ENDBRANCH  29  30
ENDBRANCH  27  29
ENDBRANCH  11  27
BRANCH  15  32
ATOM     32  O   LIG    1       23.009 -29.728  10.406  0.00  0.00    -0.506 OA
ATOM     33  H   LIG    1       22.202 -30.031   9.928  0.00  0.00    +0.292 HD
ENDBRANCH  15  32
BRANCH  13  34
ATOM     34  O   LIG    1       22.555 -32.302  13.254  0.00  0.00    -0.343 OA
BRANCH  34  35
ATOM     35  C   LIG    1       21.200 -32.352  12.756  0.00  0.00    +0.253 C 
ATOM     36  O   LIG    1       21.208 -32.719  11.385  0.00  0.00    -0.346 OA
ATOM     37  C   LIG    1       19.982 -32.522  10.684  0.00  0.00    +0.148 C 
ATOM     38  C   LIG    1       18.832 -33.384  11.208  0.00  0.00    +0.040 C 
ATOM     39  C   LIG    1       19.716 -31.020  10.636  0.00  0.00    +0.160 C 
ATOM     40  C   LIG    1       19.545 -30.424  12.044  0.00  0.00    +0.087 C 
ATOM     41  C   LIG    1       20.559 -30.975  13.057  0.00  0.00    +0.082 C 
BRANCH  40  42
ATOM     42  N   LIG    1       18.158 -30.555  12.534  0.00  0.00    -0.325 NA
ATOM     43  H   LIG    1       17.855 -31.524  12.437  0.00  0.00    +0.119 HD
ATOM     44  H   LIG    1       18.156 -30.364  13.542  0.00  0.00    +0.119 HD
ENDBRANCH  40  42
BRANCH  39  45
ATOM     45  O   LIG    1       18.584 -30.701   9.818  0.00  0.00    -0.388 OA
ATOM     46  H   LIG    1       18.648 -29.752   9.613  0.00  0.00    +0.210 HD
ENDBRANCH  39  45
ENDBRANCH  34  35
ENDBRANCH  13  34
TORSDOF 11
ENDMDL
MODEL 7
REMARK VINA RESULT:      -4.5      3.246      8.344
REMARK  Name = *****
REMARK                            x       y       z     vdW  Elec       q    Type
REMARK                         _______ _______ _______ _____ _____    ______ ____
ROOT
ATOM      1  C   LIG    1       27.008 -32.810   6.587  0.00  0.00    +0.132 A 
ATOM      2  C   LIG    1       26.148 -32.261   7.563  0.00  0.00    +0.075 A 
ATOM      3  C   LIG    1       26.184 -32.675   8.994  0.00  0.00    +0.202 C 
ATOM      4  C   LIG    1       25.232 -32.075   9.963  0.00  0.00    +0.078 A 
ATOM      5  C   LIG    1       24.255 -31.180   9.536  0.00  0.00    +0.078 A 
ATOM      6  C   LIG    1       24.262 -30.712   8.139  0.00  0.00    +0.198 C 
ATOM      7  O   LIG    1       23.463 -29.859   7.789  0.00  0.00    -0.286 OA
ATOM      8  C   LIG    1       23.284 -30.702  10.437  0.00  0.00    +0.132 A 
ATOM      9  C   LIG    1       23.317 -31.076  11.780  0.00  0.00    +0.007 A 
ATOM     10  C   LIG    1       22.279 -30.627  12.787  0.00  0.00    +0.082 C 
ATOM     11  C   LIG    1       21.993 -31.678  13.896  0.00  0.00    +0.133 C 
ATOM     12  C   LIG    1       23.211 -32.581  14.238  0.00  0.00    +0.079 C 
ATOM     13  C   LIG    1       24.548 -32.010  13.737  0.00  0.00    +0.158 C 
ATOM     14  C   LIG    1       24.402 -31.839  12.242  0.00  0.00    +0.030 A 
ATOM     15  C   LIG    1       25.314 -32.387  11.329  0.00  0.00    +0.135 A 
ATOM     16  O   LIG    1       26.987 -33.489   9.421  0.00  0.00    -0.286 OA
ATOM     17  C   LIG    1       25.237 -31.268   7.182  0.00  0.00    +0.037 A 
ATOM     18  C   LIG    1       25.212 -30.780   5.867  0.00  0.00    +0.012 A 
ATOM     19  C   LIG    1       26.080 -31.299   4.918  0.00  0.00    +0.004 A 
ATOM     20  C   LIG    1       26.963 -32.313   5.275  0.00  0.00    +0.046 A 
ENDROOT
BRANCH   1  22
ATOM     21  C   LIG    1       29.185 -33.796   6.463  0.00  0.00    +0.277 C 
ATOM     22  O   LIG    1       27.851 -33.825   6.959  0.00  0.00    -0.494 OA
ENDBRANCH   1  22
BRANCH   8  23
ATOM     23  O   LIG    1       22.288 -29.844  10.051  0.00  0.00    -0.506 OA
ATOM     24  H   LIG    1       21.433 -30.178  10.408  0.00  0.00    +0.292 HD
ENDBRANCH   8  23
BRANCH  11  25
ATOM     25  O   LIG    1       21.632 -30.956  15.087  0.00  0.00    -0.381 OA
ATOM     26  H   LIG    1       21.649 -30.003  14.882  0.00  0.00    +0.211 HD
ENDBRANCH  11  25
BRANCH  11  27
ATOM     27  C   LIG    1       20.776 -32.546  13.465  0.00  0.00    +0.190 C 
ATOM     28  O   LIG    1       20.444 -33.574  14.065  0.00  0.00    -0.292 OA
BRANCH  27  29
ATOM     29  C   LIG    1       20.015 -32.126  12.201  0.00  0.00    +0.233 C 
BRANCH  29  30
ATOM     30  O   LIG    1       20.331 -32.934  11.074  0.00  0.00    -0.387 OA
ATOM     31  H   LIG    1       21.127 -32.544  10.667  0.00  0.00    +0.210 HD
ENDBRANCH  29  30
ENDBRANCH  27  29
ENDBRANCH  11  27
BRANCH  15  32
ATOM     32  O   LIG    1       26.270 -33.231  11.828  0.00  0.00    -0.506 OA
ATOM     33  H   LIG    1       26.523 -32.925  12.731  0.00  0.00    +0.292 HD
ENDBRANCH  15  32
BRANCH  13  34
ATOM     34  O   LIG    1       24.797 -30.757  14.407  0.00  0.00    -0.343 OA
BRANCH  34  35
ATOM     35  C   LIG    1       26.007 -30.075  14.010  0.00  0.00    +0.253 C 
ATOM     36  O   LIG    1       26.922 -30.056  15.094  0.00  0.00    -0.346 OA
ATOM     37  C   LIG    1       28.030 -29.168  14.953  0.00  0.00    +0.148 C 
ATOM     38  C   LIG    1       28.961 -29.529  13.794  0.00  0.00    +0.040 C 
ATOM     39  C   LIG    1       27.480 -27.745  14.944  0.00  0.00    +0.160 C 
ATOM     40  C   LIG    1       26.539 -27.503  13.751  0.00  0.00    +0.087 C 
ATOM     41  C   LIG    1       25.586 -28.678  13.489  0.00  0.00    +0.082 C 
BRANCH  40  42
ATOM     42  N   LIG    1       27.280 -27.120  12.532  0.00  0.00    -0.325 NA
ATOM     43  H   LIG    1       28.036 -26.481  12.783  0.00  0.00    +0.119 HD
ATOM     44  H   LIG    1       27.739 -27.959  12.161  0.00  0.00    +0.119 HD
ENDBRANCH  40  42
BRANCH  39  45
ATOM     45  O   LIG    1       28.524 -26.765  14.962  0.00  0.00    -0.388 OA
ATOM     46  H   LIG    1       28.916 -26.793  15.853  0.00  0.00    +0.210 HD
ENDBRANCH  39  45
ENDBRANCH  34  35
ENDBRANCH  13  34
TORSDOF 11
ENDMDL
MODEL 8
REMARK VINA RESULT:      -4.5      7.457     10.881
REMARK  Name = *****
REMARK                            x       y       z     vdW  Elec       q    Type
REMARK                         _______ _______ _______ _____ _____    ______ ____
ROOT
ATOM      1  C   LIG    1       25.599 -29.472   7.778  0.00  0.00    +0.132 A 
ATOM      2  C   LIG    1       25.554 -28.241   7.089  0.00  0.00    +0.075 A 
ATOM      3  C   LIG    1       25.760 -26.930   7.768  0.00  0.00    +0.202 C 
ATOM      4  C   LIG    1       25.675 -25.670   6.987  0.00  0.00    +0.078 A 
ATOM      5  C   LIG    1       25.333 -25.694   5.638  0.00  0.00    +0.078 A 
ATOM      6  C   LIG    1       25.201 -26.988   4.947  0.00  0.00    +0.198 C 
ATOM      7  O   LIG    1       24.992 -27.007   3.744  0.00  0.00    -0.286 OA
ATOM      8  C   LIG    1       25.141 -24.491   4.930  0.00  0.00    +0.132 A 
ATOM      9  C   LIG    1       25.342 -23.260   5.554  0.00  0.00    +0.007 A 
ATOM     10  C   LIG    1       25.114 -21.935   4.858  0.00  0.00    +0.082 C 
ATOM     11  C   LIG    1       24.609 -20.813   5.808  0.00  0.00    +0.133 C 
ATOM     12  C   LIG    1       25.104 -20.957   7.274  0.00  0.00    +0.079 C 
ATOM     13  C   LIG    1       26.303 -21.910   7.417  0.00  0.00    +0.158 C 
ATOM     14  C   LIG    1       25.854 -23.243   6.862  0.00  0.00    +0.030 A 
ATOM     15  C   LIG    1       25.955 -24.435   7.592  0.00  0.00    +0.135 A 
ATOM     16  O   LIG    1       26.018 -26.841   8.958  0.00  0.00    -0.286 OA
ATOM     17  C   LIG    1       25.334 -28.245   5.707  0.00  0.00    +0.037 A 
ATOM     18  C   LIG    1       25.214 -29.450   5.000  0.00  0.00    +0.012 A 
ATOM     19  C   LIG    1       25.289 -30.659   5.675  0.00  0.00    +0.004 A 
ATOM     20  C   LIG    1       25.470 -30.668   7.054  0.00  0.00    +0.046 A 
ENDROOT
BRANCH   1  22
ATOM     21  C   LIG    1       26.794 -30.244   9.702  0.00  0.00    +0.277 C 
ATOM     22  O   LIG    1       25.753 -29.452   9.140  0.00  0.00    -0.494 OA
ENDBRANCH   1  22
BRANCH   8  23
ATOM     23  O   LIG    1       24.775 -24.470   3.609  0.00  0.00    -0.506 OA
ATOM     24  H   LIG    1       25.106 -25.293   3.181  0.00  0.00    +0.292 HD
ENDBRANCH   8  23
BRANCH  11  25
ATOM     25  O   LIG    1       25.107 -19.564   5.296  0.00  0.00    -0.381 OA
ATOM     26  H   LIG    1       24.982 -18.882   5.983  0.00  0.00    +0.211 HD
ENDBRANCH  11  25
BRANCH  11  27
ATOM     27  C   LIG    1       23.054 -20.774   5.759  0.00  0.00    +0.190 C 
ATOM     28  O   LIG    1       22.353 -21.742   6.070  0.00  0.00    -0.292 OA
BRANCH  27  29
ATOM     29  C   LIG    1       22.392 -19.493   5.235  0.00  0.00    +0.233 C 
BRANCH  29  30
ATOM     30  O   LIG    1       22.835 -19.139   3.932  0.00  0.00    -0.387 OA
ATOM     31  H   LIG    1       23.722 -18.746   4.036  0.00  0.00    +0.210 HD
ENDBRANCH  29  30
ENDBRANCH  27  29
ENDBRANCH  11  27
BRANCH  15  32
ATOM     32  O   LIG    1       26.333 -24.336   8.905  0.00  0.00    -0.506 OA
ATOM     33  H   LIG    1       25.523 -24.278   9.464  0.00  0.00    +0.292 HD
ENDBRANCH  15  32
BRANCH  13  34
ATOM     34  O   LIG    1       27.419 -21.364   6.685  0.00  0.00    -0.343 OA
BRANCH  34  35
ATOM     35  C   LIG    1       28.294 -20.504   7.447  0.00  0.00    +0.253 C 
ATOM     36  O   LIG    1       28.705 -19.408   6.646  0.00  0.00    -0.346 OA
ATOM     37  C   LIG    1       29.794 -18.641   7.155  0.00  0.00    +0.148 C 
ATOM     38  C   LIG    1       29.481 -17.933   8.474  0.00  0.00    +0.040 C 
ATOM     39  C   LIG    1       31.026 -19.542   7.161  0.00  0.00    +0.160 C 
ATOM     40  C   LIG    1       30.842 -20.757   8.088  0.00  0.00    +0.087 C 
ATOM     41  C   LIG    1       29.448 -21.391   7.977  0.00  0.00    +0.082 C 
BRANCH  40  42
ATOM     42  N   LIG    1       31.187 -20.440   9.488  0.00  0.00    -0.325 NA
ATOM     43  H   LIG    1       30.573 -19.699   9.829  0.00  0.00    +0.119 HD
ATOM     44  H   LIG    1       30.973 -21.261  10.063  0.00  0.00    +0.119 HD
ENDBRANCH  40  42
BRANCH  39  45
ATOM     45  O   LIG    1       32.215 -18.823   7.511  0.00  0.00    -0.388 OA
ATOM     46  H   LIG    1       32.061 -18.442   8.393  0.00  0.00    +0.210 HD
ENDBRANCH  39  45
ENDBRANCH  34  35
ENDBRANCH  13  34
TORSDOF 11
ENDMDL
