MODEL 1
REMARK VINA RESULT:      -3.3      0.000      0.000
REMARK  Name = *****
REMARK                            x       y       z     vdW  Elec       q    Type
REMARK                         _______ _______ _______ _____ _____    ______ ____
ROOT
ATOM      1  C   LIG    1       24.712 -19.355   5.037  0.00  0.00    +0.278 C 
ENDROOT
BRANCH   1   3
ATOM      2  O   LIG    1       27.473 -20.755   6.379  0.00  0.00    -0.257 OA
ATOM      3  P   LIG    1       26.209 -20.114   5.765  0.00  0.00    +0.353 P 
BRANCH   3   4
ATOM      4  O   LIG    1       25.755 -21.571   5.145  0.00  0.00    -0.323 OA
ATOM      5  H   LIG    1       24.923 -21.832   5.593  0.00  0.00    +0.220 HD
ENDBRANCH   3   4
BRANCH   3   6
ATOM      6  O   LIG    1       27.066 -19.618   4.459  0.00  0.00    -0.323 OA
ATOM      7  H   LIG    1       27.327 -18.688   4.631  0.00  0.00    +0.220 HD
ENDBRANCH   3   6
ENDBRANCH   1   3
BRANCH   1   8
ATOM      8  P   LIG    1       23.151 -20.192   4.818  0.00  0.00    +0.353 P 
ATOM      9  O   LIG    1       21.954 -19.395   4.442  0.00  0.00    -0.257 OA
BRANCH   8  10
ATOM     10  O   LIG    1       22.862 -21.062   6.139  0.00  0.00    -0.323 OA
ATOM     11  H   LIG    1       23.198 -20.607   6.937  0.00  0.00    +0.220 HD
ENDBRANCH   8  10
BRANCH   8  12
ATOM     12  O   LIG    1       23.329 -21.394   3.753  0.00  0.00    -0.323 OA
ATOM     13  H   LIG    1       23.257 -22.274   4.165  0.00  0.00    +0.220 HD
ENDBRANCH   8  12
ENDBRANCH   1   8
BRANCH   1  14
ATOM     14  S   LIG    1       25.187 -18.496   3.444  0.00  0.00    -0.098 S 
BRANCH  14  15
ATOM     15  C   LIG    1       25.016 -16.742   3.732  0.00  0.00    +0.009 A 
ATOM     16  C   LIG    1       23.758 -16.266   4.120  0.00  0.00    +0.016 A 
ATOM     17  C   LIG    1       23.503 -14.892   4.213  0.00  0.00    +0.021 A 
ATOM     18  C   LIG    1       24.495 -13.978   3.873  0.00  0.00    +0.041 A 
ATOM     19 CL   LIG    1       24.178 -12.291   3.991  0.00  0.00    -0.084 Cl
ATOM     20  C   LIG    1       25.734 -14.429   3.425  0.00  0.00    +0.021 A 
ATOM     21  C   LIG    1       25.996 -15.810   3.359  0.00  0.00    +0.016 A 
ENDBRANCH  14  15
ENDBRANCH   1  14
TORSDOF 8
ENDMDL
MODEL 2
REMARK VINA RESULT:      -3.1      5.132      6.696
REMARK  Name = *****
REMARK                            x       y       z     vdW  Elec       q    Type
REMARK                         _______ _______ _______ _____ _____    ______ ____
ROOT
ATOM      1  C   LIG    1       25.699 -14.819   3.899  0.00  0.00    +0.278 C 
ENDROOT
BRANCH   1   3
ATOM      2  O   LIG    1       23.459 -12.858   2.312  0.00  0.00    -0.257 OA
ATOM      3  P   LIG    1       24.484 -13.755   3.038  0.00  0.00    +0.353 P 
BRANCH   3   4
ATOM      4  O   LIG    1       24.936 -12.490   3.991  0.00  0.00    -0.323 OA
ATOM      5  H   LIG    1       25.915 -12.454   3.983  0.00  0.00    +0.220 HD
ENDBRANCH   3   4
BRANCH   3   6
ATOM      6  O   LIG    1       25.586 -13.497   1.853  0.00  0.00    -0.323 OA
ATOM      7  H   LIG    1       26.390 -14.001   2.103  0.00  0.00    +0.220 HD
ENDBRANCH   3   6
ENDBRANCH   1   3
BRANCH   1   8
ATOM      8  P   LIG    1       27.297 -14.275   4.479  0.00  0.00    +0.353 P 
ATOM      9  O   LIG    1       27.388 -13.591   5.795  0.00  0.00    -0.257 OA
BRANCH   8  10
ATOM     10  O   LIG    1       27.967 -13.378   3.325  0.00  0.00    -0.323 OA
ATOM     11  H   LIG    1       28.908 -13.615   3.202  0.00  0.00    +0.220 HD
ENDBRANCH   8  10
BRANCH   8  12
ATOM     12  O   LIG    1       28.327 -15.519   4.468  0.00  0.00    -0.323 OA
ATOM     13  H   LIG    1       29.228 -15.259   4.203  0.00  0.00    +0.220 HD
ENDBRANCH   8  12
ENDBRANCH   1   8
BRANCH   1  14
ATOM     14  S   LIG    1       25.897 -16.410   2.932  0.00  0.00    -0.098 S 
BRANCH  14  15
ATOM     15  C   LIG    1       24.814 -17.612   3.689  0.00  0.00    +0.009 A 
ATOM     16  C   LIG    1       25.235 -18.947   3.703  0.00  0.00    +0.016 A 
ATOM     17  C   LIG    1       24.380 -19.968   4.136  0.00  0.00    +0.021 A 
ATOM     18  C   LIG    1       23.076 -19.668   4.515  0.00  0.00    +0.041 A 
ATOM     19 CL   LIG    1       22.030 -20.925   5.047  0.00  0.00    -0.084 Cl
ATOM     20  C   LIG    1       22.617 -18.354   4.449  0.00  0.00    +0.021 A 
ATOM     21  C   LIG    1       23.487 -17.327   4.041  0.00  0.00    +0.016 A 
ENDBRANCH  14  15
ENDBRANCH   1  14
TORSDOF 8
ENDMDL
MODEL 3
REMARK VINA RESULT:      -2.9      1.033      1.908
REMARK  Name = *****
REMARK                            x       y       z     vdW  Elec       q    Type
REMARK                         _______ _______ _______ _____ _____    ______ ____
ROOT
ATOM      1  C   LIG    1       24.825 -19.499   5.060  0.00  0.00    +0.278 C 
ENDROOT
BRANCH   1   3
ATOM      2  O   LIG    1       27.779 -20.505   6.345  0.00  0.00    -0.257 OA
ATOM      3  P   LIG    1       26.427 -20.045   5.757  0.00  0.00    +0.353 P 
BRANCH   3   4
ATOM      4  O   LIG    1       25.815 -21.563   5.943  0.00  0.00    -0.323 OA
ATOM      5  H   LIG    1       26.541 -22.132   6.271  0.00  0.00    +0.220 HD
ENDBRANCH   3   4
BRANCH   3   6
ATOM      6  O   LIG    1       26.990 -20.259   4.233  0.00  0.00    -0.323 OA
ATOM      7  H   LIG    1       27.528 -21.079   4.244  0.00  0.00    +0.220 HD
ENDBRANCH   3   6
ENDBRANCH   1   3
BRANCH   1   8
ATOM      8  P   LIG    1       23.315 -20.450   5.117  0.00  0.00    +0.353 P 
ATOM      9  O   LIG    1       22.908 -21.076   6.401  0.00  0.00    -0.257 OA
BRANCH   8  10
ATOM     10  O   LIG    1       23.372 -21.546   3.942  0.00  0.00    -0.323 OA
ATOM     11  H   LIG    1       22.756 -21.314   3.219  0.00  0.00    +0.220 HD
ENDBRANCH   8  10
BRANCH   8  12
ATOM     12  O   LIG    1       22.091 -19.550   4.568  0.00  0.00    -0.323 OA
ATOM     13  H   LIG    1       22.393 -18.756   4.091  0.00  0.00    +0.220 HD
ENDBRANCH   8  12
ENDBRANCH   1   8
BRANCH   1  14
ATOM     14  S   LIG    1       25.107 -18.882   3.317  0.00  0.00    -0.098 S 
BRANCH  14  15
ATOM     15  C   LIG    1       25.579 -17.164   3.447  0.00  0.00    +0.009 A 
ATOM     16  C   LIG    1       26.932 -16.876   3.669  0.00  0.00    +0.016 A 
ATOM     17  C   LIG    1       27.356 -15.570   3.937  0.00  0.00    +0.021 A 
ATOM     18  C   LIG    1       26.423 -14.542   4.032  0.00  0.00    +0.041 A 
ATOM     19 CL   LIG    1       26.950 -12.938   4.359  0.00  0.00    -0.084 Cl
ATOM     20  C   LIG    1       25.067 -14.817   3.876  0.00  0.00    +0.021 A 
ATOM     21  C   LIG    1       24.646 -16.126   3.580  0.00  0.00    +0.016 A 
ENDBRANCH  14  15
ENDBRANCH   1  14
TORSDOF 8
ENDMDL
MODEL 4
REMARK VINA RESULT:      -2.9      5.289      6.352
REMARK  Name = *****
REMARK                            x       y       z     vdW  Elec       q    Type
REMARK                         _______ _______ _______ _____ _____    ______ ____
ROOT
ATOM      1  C   LIG    1       24.877 -14.356   3.300  0.00  0.00    +0.278 C 
ENDROOT
BRANCH   1   3
ATOM      2  O   LIG    1       27.975 -15.455   4.058  0.00  0.00    -0.257 OA
ATOM      3  P   LIG    1       26.557 -14.952   3.711  0.00  0.00    +0.353 P 
BRANCH   3   4
ATOM      4  O   LIG    1       27.113 -14.323   2.294  0.00  0.00    -0.323 OA
ATOM      5  H   LIG    1       26.336 -14.170   1.718  0.00  0.00    +0.220 HD
ENDBRANCH   3   4
BRANCH   3   6
ATOM      6  O   LIG    1       26.788 -13.604   4.614  0.00  0.00    -0.323 OA
ATOM      7  H   LIG    1       25.934 -13.123   4.623  0.00  0.00    +0.220 HD
ENDBRANCH   3   6
ENDBRANCH   1   3
BRANCH   1   8
ATOM      8  P   LIG    1       24.427 -12.640   3.100  0.00  0.00    +0.353 P 
ATOM      9  O   LIG    1       23.845 -11.911   4.255  0.00  0.00    -0.257 OA
BRANCH   8  10
ATOM     10  O   LIG    1       23.471 -12.523   1.813  0.00  0.00    -0.323 OA
ATOM     11  H   LIG    1       22.994 -13.362   1.655  0.00  0.00    +0.220 HD
ENDBRANCH   8  10
BRANCH   8  12
ATOM     12  O   LIG    1       25.699 -11.810   2.550  0.00  0.00    -0.323 OA
ATOM     13  H   LIG    1       26.347 -12.375   2.091  0.00  0.00    +0.220 HD
ENDBRANCH   8  12
ENDBRANCH   1   8
BRANCH   1  14
ATOM     14  S   LIG    1       23.647 -15.194   4.435  0.00  0.00    -0.098 S 
BRANCH  14  15
ATOM     15  C   LIG    1       23.719 -16.941   4.074  0.00  0.00    +0.009 A 
ATOM     16  C   LIG    1       22.615 -17.725   4.434  0.00  0.00    +0.016 A 
ATOM     17  C   LIG    1       22.657 -19.120   4.328  0.00  0.00    +0.021 A 
ATOM     18  C   LIG    1       23.822 -19.751   3.903  0.00  0.00    +0.041 A 
ATOM     19 CL   LIG    1       23.867 -21.465   3.772  0.00  0.00    -0.084 Cl
ATOM     20  C   LIG    1       24.951 -18.993   3.599  0.00  0.00    +0.021 A 
ATOM     21  C   LIG    1       24.898 -17.590   3.681  0.00  0.00    +0.016 A 
ENDBRANCH  14  15
ENDBRANCH   1  14
TORSDOF 8
ENDMDL
MODEL 5
REMARK VINA RESULT:      -1.5      5.589      6.852
REMARK  Name = *****
REMARK                            x       y       z     vdW  Elec       q    Type
REMARK                         _______ _______ _______ _____ _____    ______ ____
ROOT
ATOM      1  C   LIG    1       25.944 -14.423   4.142  0.00  0.00    +0.278 C 
ENDROOT
BRANCH   1   3
ATOM      2  O   LIG    1       23.775 -13.257   1.835  0.00  0.00    -0.257 OA
ATOM      3  P   LIG    1       24.768 -13.790   2.891  0.00  0.00    +0.353 P 
BRANCH   3   4
ATOM      4  O   LIG    1       23.901 -13.067   4.091  0.00  0.00    -0.323 OA
ATOM      5  H   LIG    1       24.328 -12.206   4.280  0.00  0.00    +0.220 HD
ENDBRANCH   3   4
BRANCH   3   6
ATOM      6  O   LIG    1       25.780 -12.532   2.611  0.00  0.00    -0.323 OA
ATOM      7  H   LIG    1       25.951 -12.519   1.645  0.00  0.00    +0.220 HD
ENDBRANCH   3   6
ENDBRANCH   1   3
BRANCH   1   8
ATOM      8  P   LIG    1       26.791 -13.412   5.345  0.00  0.00    +0.353 P 
ATOM      9  O   LIG    1       27.161 -14.010   6.653  0.00  0.00    -0.257 OA
BRANCH   8  10
ATOM     10  O   LIG    1       25.936 -12.067   5.555  0.00  0.00    -0.323 OA
ATOM     11  H   LIG    1       25.215 -12.210   6.201  0.00  0.00    +0.220 HD
ENDBRANCH   8  10
BRANCH   8  12
ATOM     12  O   LIG    1       28.114 -12.772   4.674  0.00  0.00    -0.323 OA
ATOM     13  H   LIG    1       28.912 -12.906   5.217  0.00  0.00    +0.220 HD
ENDBRANCH   8  12
ENDBRANCH   1   8
BRANCH   1  14
ATOM     14  S   LIG    1       27.177 -15.546   3.294  0.00  0.00    -0.098 S 
BRANCH  14  15
ATOM     15  C   LIG    1       26.653 -17.223   3.612  0.00  0.00    +0.009 A 
ATOM     16  C   LIG    1       25.333 -17.564   3.292  0.00  0.00    +0.016 A 
ATOM     17  C   LIG    1       24.801 -18.808   3.653  0.00  0.00    +0.021 A 
ATOM     18  C   LIG    1       25.572 -19.708   4.382  0.00  0.00    +0.041 A 
ATOM     19 CL   LIG    1       24.915 -21.235   4.822  0.00  0.00    -0.084 Cl
ATOM     20  C   LIG    1       26.867 -19.364   4.765  0.00  0.00    +0.021 A 
ATOM     21  C   LIG    1       27.408 -18.125   4.376  0.00  0.00    +0.016 A 
ENDBRANCH  14  15
ENDBRANCH   1  14
TORSDOF 8
ENDMDL
MODEL 6
REMARK VINA RESULT:      -1.4      4.743      6.338
REMARK  Name = *****
REMARK                            x       y       z     vdW  Elec       q    Type
REMARK                         _______ _______ _______ _____ _____    ______ ____
ROOT
ATOM      1  C   LIG    1       25.689 -15.746   3.891  0.00  0.00    +0.278 C 
ENDROOT
BRANCH   1   3
ATOM      2  O   LIG    1       22.437 -15.168   4.579  0.00  0.00    -0.257 OA
ATOM      3  P   LIG    1       23.925 -15.433   4.264  0.00  0.00    +0.353 P 
BRANCH   3   4
ATOM      4  O   LIG    1       24.376 -14.373   5.442  0.00  0.00    -0.323 OA
ATOM      5  H   LIG    1       24.780 -14.896   6.165  0.00  0.00    +0.220 HD
ENDBRANCH   3   4
BRANCH   3   6
ATOM      6  O   LIG    1       23.886 -14.342   3.041  0.00  0.00    -0.323 OA
ATOM      7  H   LIG    1       22.940 -14.133   2.882  0.00  0.00    +0.220 HD
ENDBRANCH   3   6
ENDBRANCH   1   3
BRANCH   1   8
ATOM      8  P   LIG    1       26.836 -14.517   3.292  0.00  0.00    +0.353 P 
ATOM      9  O   LIG    1       26.922 -14.265   1.831  0.00  0.00    -0.257 OA
BRANCH   8  10
ATOM     10  O   LIG    1       28.287 -14.853   3.897  0.00  0.00    -0.323 OA
ATOM     11  H   LIG    1       28.719 -15.570   3.390  0.00  0.00    +0.220 HD
ENDBRANCH   8  10
BRANCH   8  12
ATOM     12  O   LIG    1       26.564 -13.114   4.045  0.00  0.00    -0.323 OA
ATOM     13  H   LIG    1       27.297 -12.481   3.939  0.00  0.00    +0.220 HD
ENDBRANCH   8  12
ENDBRANCH   1   8
BRANCH   1  14
ATOM     14  S   LIG    1       25.815 -17.284   2.831  0.00  0.00    -0.098 S 
BRANCH  14  15
ATOM     15  C   LIG    1       25.067 -18.613   3.759  0.00  0.00    +0.009 A 
ATOM     16  C   LIG    1       23.673 -18.602   3.902  0.00  0.00    +0.016 A 
ATOM     17  C   LIG    1       23.028 -19.518   4.741  0.00  0.00    +0.021 A 
ATOM     18  C   LIG    1       23.775 -20.427   5.484  0.00  0.00    +0.041 A 
ATOM     19 CL   LIG    1       22.977 -21.551   6.512  0.00  0.00    -0.084 Cl
ATOM     20  C   LIG    1       25.166 -20.414   5.403  0.00  0.00    +0.021 A 
ATOM     21  C   LIG    1       25.810 -19.511   4.538  0.00  0.00    +0.016 A 
ENDBRANCH  14  15
ENDBRANCH   1  14
TORSDOF 8
ENDMDL
MODEL 7
REMARK VINA RESULT:      -1.3      5.387      6.464
REMARK  Name = *****
REMARK                            x       y       z     vdW  Elec       q    Type
REMARK                         _______ _______ _______ _____ _____    ______ ____
ROOT
ATOM      1  C   LIG    1       26.071 -13.422   3.705  0.00  0.00    +0.278 C 
ENDROOT
BRANCH   1   3
ATOM      2  O   LIG    1       27.422 -13.793   6.774  0.00  0.00    -0.257 OA
ATOM      3  P   LIG    1       26.804 -13.623   5.370  0.00  0.00    +0.353 P 
BRANCH   3   4
ATOM      4  O   LIG    1       27.957 -12.512   4.983  0.00  0.00    -0.323 OA
ATOM      5  H   LIG    1       27.603 -11.630   5.221  0.00  0.00    +0.220 HD
ENDBRANCH   3   4
BRANCH   3   6
ATOM      6  O   LIG    1       25.708 -12.555   5.955  0.00  0.00    -0.323 OA
ATOM      7  H   LIG    1       25.324 -12.093   5.179  0.00  0.00    +0.220 HD
ENDBRANCH   3   6
ENDBRANCH   1   3
BRANCH   1   8
ATOM      8  P   LIG    1       24.324 -13.264   3.375  0.00  0.00    +0.353 P 
ATOM      9  O   LIG    1       23.412 -14.360   3.793  0.00  0.00    -0.257 OA
BRANCH   8  10
ATOM     10  O   LIG    1       24.140 -12.937   1.812  0.00  0.00    -0.323 OA
ATOM     11  H   LIG    1       23.197 -12.977   1.556  0.00  0.00    +0.220 HD
ENDBRANCH   8  10
BRANCH   8  12
ATOM     12  O   LIG    1       23.782 -11.874   3.994  0.00  0.00    -0.323 OA
ATOM     13  H   LIG    1       24.502 -11.288   4.290  0.00  0.00    +0.220 HD
ENDBRANCH   8  12
ENDBRANCH   1   8
BRANCH   1  14
ATOM     14  S   LIG    1       26.807 -14.710   2.565  0.00  0.00    -0.098 S 
BRANCH  14  15
ATOM     15  C   LIG    1       26.535 -16.298   3.336  0.00  0.00    +0.009 A 
ATOM     16  C   LIG    1       27.630 -16.918   3.950  0.00  0.00    +0.016 A 
ATOM     17  C   LIG    1       27.537 -18.227   4.438  0.00  0.00    +0.021 A 
ATOM     18  C   LIG    1       26.358 -18.947   4.274  0.00  0.00    +0.041 A 
ATOM     19 CL   LIG    1       26.248 -20.554   4.878  0.00  0.00    -0.084 Cl
ATOM     20  C   LIG    1       25.277 -18.371   3.611  0.00  0.00    +0.021 A 
ATOM     21  C   LIG    1       25.364 -17.047   3.147  0.00  0.00    +0.016 A 
ENDBRANCH  14  15
ENDBRANCH   1  14
TORSDOF 8
ENDMDL
MODEL 8
REMARK VINA RESULT:      -1.3      5.519      7.149
REMARK  Name = *****
REMARK                            x       y       z     vdW  Elec       q    Type
REMARK                         _______ _______ _______ _____ _____    ______ ____
ROOT
ATOM      1  C   LIG    1       26.430 -14.718   4.158  0.00  0.00    +0.278 C 
ENDROOT
BRANCH   1   3
ATOM      2  O   LIG    1       23.085 -14.301   4.023  0.00  0.00    -0.257 OA
ATOM      3  P   LIG    1       24.615 -14.492   4.085  0.00  0.00    +0.353 P 
BRANCH   3   4
ATOM      4  O   LIG    1       24.781 -13.030   4.826  0.00  0.00    -0.323 OA
ATOM      5  H   LIG    1       25.276 -13.179   5.658  0.00  0.00    +0.220 HD
ENDBRANCH   3   4
BRANCH   3   6
ATOM      6  O   LIG    1       24.771 -13.939   2.550  0.00  0.00    -0.323 OA
ATOM      7  H   LIG    1       24.537 -14.686   1.958  0.00  0.00    +0.220 HD
ENDBRANCH   3   6
ENDBRANCH   1   3
BRANCH   1   8
ATOM      8  P   LIG    1       27.628 -13.417   3.919  0.00  0.00    +0.353 P 
ATOM      9  O   LIG    1       27.348 -12.359   2.914  0.00  0.00    -0.257 OA
BRANCH   8  10
ATOM     10  O   LIG    1       29.057 -14.100   3.644  0.00  0.00    -0.323 OA
ATOM     11  H   LIG    1       29.591 -14.134   4.463  0.00  0.00    +0.220 HD
ENDBRANCH   8  10
BRANCH   8  12
ATOM     12  O   LIG    1       27.949 -12.713   5.337  0.00  0.00    -0.323 OA
ATOM     13  H   LIG    1       27.276 -12.907   6.014  0.00  0.00    +0.220 HD
ENDBRANCH   8  12
ENDBRANCH   1   8
BRANCH   1  14
ATOM     14  S   LIG    1       26.894 -16.194   3.105  0.00  0.00    -0.098 S 
BRANCH  14  15
ATOM     15  C   LIG    1       27.336 -17.511   4.226  0.00  0.00    +0.009 A 
ATOM     16  C   LIG    1       28.616 -17.480   4.794  0.00  0.00    +0.016 A 
ATOM     17  C   LIG    1       29.092 -18.553   5.557  0.00  0.00    +0.021 A 
ATOM     18  C   LIG    1       28.308 -19.691   5.721  0.00  0.00    +0.041 A 
ATOM     19 CL   LIG    1       28.897 -21.005   6.662  0.00  0.00    -0.084 Cl
ATOM     20  C   LIG    1       27.057 -19.767   5.114  0.00  0.00    +0.021 A 
ATOM     21  C   LIG    1       26.570 -18.677   4.371  0.00  0.00    +0.016 A 
ENDBRANCH  14  15
ENDBRANCH   1  14
TORSDOF 8
ENDMDL
MODEL 9
REMARK VINA RESULT:      -0.8      1.476      3.284
REMARK  Name = *****
REMARK                            x       y       z     vdW  Elec       q    Type
REMARK                         _______ _______ _______ _____ _____    ______ ____
ROOT
ATOM      1  C   LIG    1       24.408 -18.639   3.733  0.00  0.00    +0.278 C 
ENDROOT
BRANCH   1   3
ATOM      2  O   LIG    1       21.688 -16.981   4.848  0.00  0.00    -0.257 OA
ATOM      3  P   LIG    1       22.933 -17.740   4.338  0.00  0.00    +0.353 P 
BRANCH   3   4
ATOM      4  O   LIG    1       22.107 -18.217   2.994  0.00  0.00    -0.323 OA
ATOM      5  H   LIG    1       22.018 -17.433   2.413  0.00  0.00    +0.220 HD
ENDBRANCH   3   4
BRANCH   3   6
ATOM      6  O   LIG    1       22.549 -19.039   5.260  0.00  0.00    -0.323 OA
ATOM      7  H   LIG    1       23.018 -18.925   6.114  0.00  0.00    +0.220 HD
ENDBRANCH   3   6
ENDBRANCH   1   3
BRANCH   1   8
ATOM      8  P   LIG    1       24.930 -20.243   4.315  0.00  0.00    +0.353 P 
ATOM      9  O   LIG    1       24.277 -21.457   3.760  0.00  0.00    -0.257 OA
BRANCH   8  10
ATOM     10  O   LIG    1       24.853 -20.240   5.921  0.00  0.00    -0.323 OA
ATOM     11  H   LIG    1       24.297 -20.976   6.245  0.00  0.00    +0.220 HD
ENDBRANCH   8  10
BRANCH   8  12
ATOM     12  O   LIG    1       26.529 -20.387   4.136  0.00  0.00    -0.323 OA
ATOM     13  H   LIG    1       26.796 -21.276   3.841  0.00  0.00    +0.220 HD
ENDBRANCH   8  12
ENDBRANCH   1   8
BRANCH   1  14
ATOM     14  S   LIG    1       25.868 -17.469   3.737  0.00  0.00    -0.098 S 
BRANCH  14  15
ATOM     15  C   LIG    1       25.221 -15.834   3.421  0.00  0.00    +0.009 A 
ATOM     16  C   LIG    1       25.959 -14.995   2.577  0.00  0.00    +0.016 A 
ATOM     17  C   LIG    1       25.602 -13.652   2.405  0.00  0.00    +0.021 A 
ATOM     18  C   LIG    1       24.529 -13.122   3.113  0.00  0.00    +0.041 A 
ATOM     19 CL   LIG    1       24.093 -11.472   2.896  0.00  0.00    -0.084 Cl
ATOM     20  C   LIG    1       23.819 -13.923   4.005  0.00  0.00    +0.021 A 
ATOM     21  C   LIG    1       24.163 -15.279   4.155  0.00  0.00    +0.016 A 
ENDBRANCH  14  15
ENDBRANCH   1  14
TORSDOF 8
ENDMDL
