MODEL 1
REMARK VINA RESULT:       1.5      0.000      0.000
REMARK  Name = *****
REMARK                            x       y       z     vdW  Elec       q    Type
REMARK                         _______ _______ _______ _____ _____    ______ ____
ROOT
ATOM      1  C   LIG    1       22.703 -18.793   4.053  0.00  0.00    +0.241 A 
ATOM      2  C   LIG    1       21.372 -18.816   3.684  0.00  0.00    +0.119 A 
ATOM      3 BR   LIG    1       20.461 -20.413   3.243  0.00  0.00    -0.041 Br
ATOM      4  C   LIG    1       20.735 -17.589   3.720  0.00  0.00    +0.139 A 
ATOM      5  N   LIG    1       21.376 -16.449   4.016  0.00  0.00    -0.198 NA
ATOM      6  C   LIG    1       22.683 -16.511   4.301  0.00  0.00    +0.224 A 
ATOM      7  N   LIG    1       23.384 -17.655   4.316  0.00  0.00    -0.178 NA
ENDROOT
BRANCH   4   8
ATOM      8  N   LIG    1       19.356 -17.447   3.562  0.00  0.00    -0.342 N 
ATOM      9  H   LIG    1       18.996 -17.937   2.752  0.00  0.00    +0.144 HD
ATOM     10  H   LIG    1       19.137 -16.453   3.554  0.00  0.00    +0.144 HD
ENDBRANCH   4   8
BRANCH   6  11
ATOM     11  N   LIG    1       23.350 -15.377   4.760  0.00  0.00    -0.283 N 
ATOM     12  H   LIG    1       23.009 -15.130   5.679  0.00  0.00    +0.155 HD
BRANCH  11  13
ATOM     13  C   LIG    1       24.582 -14.816   4.400  0.00  0.00    +0.034 A 
ATOM     14  C   LIG    1       25.369 -15.309   3.353  0.00  0.00    +0.024 A 
ATOM     15  C   LIG    1       26.628 -14.762   3.077  0.00  0.00    +0.021 A 
ATOM     16  C   LIG    1       27.097 -13.669   3.809  0.00  0.00    +0.052 A 
ATOM     17  C   LIG    1       26.284 -13.106   4.795  0.00  0.00    +0.021 A 
ATOM     18  C   LIG    1       25.040 -13.682   5.088  0.00  0.00    +0.024 A 
BRANCH  16  19
ATOM     19  C   LIG    1       28.405 -13.144   3.555  0.00  0.00    +0.099 C 
ATOM     20  N   LIG    1       29.475 -12.738   3.346  0.00  0.00    -0.191 NA
ENDBRANCH  16  19
ENDBRANCH  11  13
ENDBRANCH   6  11
BRANCH   1  21
ATOM     21  O   LIG    1       23.336 -20.027   4.250  0.00  0.00    -0.436 OA
BRANCH  21  24
ATOM     22  C   LIG    1       25.723 -18.505   3.099  0.00  0.00    +0.048 C 
ATOM     23  C   LIG    1       25.744 -19.470   4.253  0.00  0.00    -0.007 A 
ATOM     24  C   LIG    1       24.596 -20.062   4.820  0.00  0.00    +0.136 A 
ATOM     25  C   LIG    1       24.694 -20.632   6.108  0.00  0.00    -0.007 A 
ATOM     26  C   LIG    1       23.490 -21.025   6.925  0.00  0.00    +0.048 C 
ATOM     27  C   LIG    1       25.961 -20.820   6.694  0.00  0.00    +0.025 A 
ATOM     28  C   LIG    1       27.117 -20.409   6.033  0.00  0.00    +0.052 A 
ATOM     29  C   LIG    1       27.002 -19.727   4.825  0.00  0.00    +0.025 A 
BRANCH  28  30
ATOM     30  C   LIG    1       28.408 -20.611   6.611  0.00  0.00    +0.099 C 
ATOM     31  N   LIG    1       29.471 -20.784   7.061  0.00  0.00    -0.191 NA
ENDBRANCH  28  30
ENDBRANCH  21  24
ENDBRANCH   1  21
TORSDOF 7
ENDMDL
