MODEL 1
REMARK VINA RESULT:       0.5      0.000      0.000
REMARK  Name = *****
REMARK                            x       y       z     vdW  Elec       q    Type
REMARK                         _______ _______ _______ _____ _____    ______ ____
ROOT
ATOM      1  C   LIG    1       23.946 -14.958   4.077  0.00  0.00    +0.044 C 
ATOM      2  C   LIG    1       24.828 -16.092   3.624  0.00  0.00    -0.050 C 
ATOM      3  C   LIG    1       26.113 -15.999   3.219  0.00  0.00    +0.003 C 
ENDROOT
BRANCH   2   4
ATOM      4  C   LIG    1       24.162 -17.383   3.617  0.00  0.00    +0.003 C 
ATOM      5  C   LIG    1       23.226 -17.733   4.514  0.00  0.00    +0.004 C 
BRANCH   5   6
ATOM      6  C   LIG    1       22.557 -19.029   4.548  0.00  0.00    -0.043 C 
ATOM      7  C   LIG    1       23.363 -20.191   5.170  0.00  0.00    -0.010 C 
ATOM      8  C   LIG    1       24.829 -20.239   4.676  0.00  0.00    +0.016 C 
ATOM      9  C   LIG    1       23.382 -20.026   6.706  0.00  0.00    +0.016 C 
ATOM     10  C   LIG    1       22.734 -21.563   4.806  0.00  0.00    +0.011 C 
ATOM     11  C   LIG    1       21.225 -21.571   4.980  0.00  0.00    +0.005 C 
ATOM     12  C   LIG    1       20.581 -20.522   4.083  0.00  0.00    +0.031 C 
ATOM     13  C   LIG    1       21.310 -19.197   4.039  0.00  0.00    -0.069 C 
ATOM     14  C   LIG    1       20.506 -18.116   3.352  0.00  0.00    +0.039 C 
ENDBRANCH   5   6
ENDBRANCH   2   4
BRANCH   3  15
ATOM     15  C   LIG    1       26.895 -14.789   3.149  0.00  0.00    +0.001 C 
ATOM     16  C   LIG    1       27.825 -14.448   4.057  0.00  0.00    +0.003 C 
BRANCH  16  17
ATOM     17  C   LIG    1       28.598 -13.220   3.980  0.00  0.00    -0.052 C 
ATOM     18  C   LIG    1       28.511 -12.254   4.920  0.00  0.00    +0.004 C 
ATOM     19  C   LIG    1       29.471 -13.031   2.764  0.00  0.00    +0.043 C 
BRANCH  18  20
ATOM     20  C   LIG    1       27.741 -12.314   6.201  0.00  0.00    +0.183 C 
BRANCH  20  21
ATOM     21  O   LIG    1       26.466 -12.889   5.939  0.00  0.00    -0.391 OA
ATOM     22  H   LIG    1       25.956 -12.233   5.433  0.00  0.00    +0.210 HD
ENDBRANCH  20  21
ENDBRANCH  18  20
ENDBRANCH  16  17
ENDBRANCH   3  15
TORSDOF 6
ENDMDL
MODEL 2
REMARK VINA RESULT:       1.8      2.260      8.180
REMARK  Name = *****
REMARK                            x       y       z     vdW  Elec       q    Type
REMARK                         _______ _______ _______ _____ _____    ______ ____
ROOT
ATOM      1  C   LIG    1       22.415 -16.414   4.938  0.00  0.00    +0.044 C 
ATOM      2  C   LIG    1       23.644 -16.670   4.105  0.00  0.00    -0.050 C 
ATOM      3  C   LIG    1       24.075 -17.868   3.654  0.00  0.00    +0.003 C 
ENDROOT
BRANCH   2   4
ATOM      4  C   LIG    1       24.414 -15.472   3.818  0.00  0.00    +0.003 C 
ATOM      5  C   LIG    1       25.743 -15.391   3.998  0.00  0.00    +0.004 C 
BRANCH   5   6
ATOM      6  C   LIG    1       26.539 -14.196   3.742  0.00  0.00    -0.043 C 
ATOM      7  C   LIG    1       25.776 -12.986   3.159  0.00  0.00    -0.010 C 
ATOM      8  C   LIG    1       24.817 -13.375   2.009  0.00  0.00    +0.016 C 
ATOM      9  C   LIG    1       24.937 -12.332   4.280  0.00  0.00    +0.016 C 
ATOM     10  C   LIG    1       26.759 -11.937   2.572  0.00  0.00    +0.011 C 
ATOM     11  C   LIG    1       27.930 -11.660   3.500  0.00  0.00    +0.005 C 
ATOM     12  C   LIG    1       28.722 -12.936   3.752  0.00  0.00    +0.031 C 
ATOM     13  C   LIG    1       27.875 -14.169   3.983  0.00  0.00    -0.069 C 
ATOM     14  C   LIG    1       28.686 -15.344   4.479  0.00  0.00    +0.039 C 
ENDBRANCH   5   6
ENDBRANCH   2   4
BRANCH   3  15
ATOM     15  C   LIG    1       23.433 -19.140   3.879  0.00  0.00    +0.001 C 
ATOM     16  C   LIG    1       22.350 -19.301   4.659  0.00  0.00    +0.003 C 
BRANCH  16  17
ATOM     17  C   LIG    1       21.720 -20.591   4.887  0.00  0.00    -0.052 C 
ATOM     18  C   LIG    1       22.321 -21.571   5.596  0.00  0.00    +0.004 C 
ATOM     19  C   LIG    1       20.374 -20.822   4.243  0.00  0.00    +0.043 C 
BRANCH  18  20
ATOM     20  C   LIG    1       23.617 -21.478   6.337  0.00  0.00    +0.183 C 
BRANCH  20  21
ATOM     21  O   LIG    1       23.640 -20.254   7.062  0.00  0.00    -0.391 OA
ATOM     22  H   LIG    1       24.197 -19.635   6.559  0.00  0.00    +0.210 HD
ENDBRANCH  20  21
ENDBRANCH  18  20
ENDBRANCH  16  17
ENDBRANCH   3  15
TORSDOF 6
ENDMDL
MODEL 3
REMARK VINA RESULT:       2.3      2.613      8.327
REMARK  Name = *****
REMARK                            x       y       z     vdW  Elec       q    Type
REMARK                         _______ _______ _______ _____ _____    ______ ____
ROOT
ATOM      1  C   LIG    1       22.100 -16.041   4.911  0.00  0.00    +0.044 C 
ATOM      2  C   LIG    1       23.433 -16.362   4.288  0.00  0.00    -0.050 C 
ATOM      3  C   LIG    1       23.869 -17.581   3.901  0.00  0.00    +0.003 C 
ENDROOT
BRANCH   2   4
ATOM      4  C   LIG    1       24.303 -15.207   4.143  0.00  0.00    +0.003 C 
ATOM      5  C   LIG    1       25.558 -15.285   3.670  0.00  0.00    +0.004 C 
BRANCH   5   6
ATOM      6  C   LIG    1       26.462 -14.149   3.536  0.00  0.00    -0.043 C 
ATOM      7  C   LIG    1       25.828 -12.836   3.023  0.00  0.00    -0.010 C 
ATOM      8  C   LIG    1       24.889 -13.053   1.813  0.00  0.00    +0.016 C 
ATOM      9  C   LIG    1       25.001 -12.198   4.161  0.00  0.00    +0.016 C 
ATOM     10  C   LIG    1       26.920 -11.836   2.555  0.00  0.00    +0.011 C 
ATOM     11  C   LIG    1       28.070 -11.733   3.542  0.00  0.00    +0.005 C 
ATOM     12  C   LIG    1       28.740 -13.088   3.721  0.00  0.00    +0.031 C 
ATOM     13  C   LIG    1       27.784 -14.255   3.825  0.00  0.00    -0.069 C 
ATOM     14  C   LIG    1       28.471 -15.531   4.256  0.00  0.00    +0.039 C 
ENDBRANCH   5   6
ENDBRANCH   2   4
BRANCH   3  15
ATOM     15  C   LIG    1       23.132 -18.816   4.005  0.00  0.00    +0.001 C 
ATOM     16  C   LIG    1       22.722 -19.345   5.171  0.00  0.00    +0.003 C 
BRANCH  16  17
ATOM     17  C   LIG    1       21.990 -20.597   5.262  0.00  0.00    -0.052 C 
ATOM     18  C   LIG    1       20.931 -20.871   4.469  0.00  0.00    +0.004 C 
ATOM     19  C   LIG    1       22.423 -21.572   6.329  0.00  0.00    +0.043 C 
BRANCH  18  20
ATOM     20  C   LIG    1       20.418 -20.040   3.337  0.00  0.00    +0.183 C 
BRANCH  20  21
ATOM     21  O   LIG    1       19.361 -19.218   3.818  0.00  0.00    -0.391 OA
ATOM     22  H   LIG    1       18.550 -19.753   3.795  0.00  0.00    +0.210 HD
ENDBRANCH  20  21
ENDBRANCH  18  20
ENDBRANCH  16  17
ENDBRANCH   3  15
TORSDOF 6
ENDMDL
MODEL 4
REMARK VINA RESULT:       2.8      2.582      8.278
REMARK  Name = *****
REMARK                            x       y       z     vdW  Elec       q    Type
REMARK                         _______ _______ _______ _____ _____    ______ ____
ROOT
ATOM      1  C   LIG    1       26.200 -19.020   4.100  0.00  0.00    +0.044 C 
ATOM      2  C   LIG    1       25.209 -17.953   3.716  0.00  0.00    -0.050 C 
ATOM      3  C   LIG    1       23.865 -18.081   3.673  0.00  0.00    +0.003 C 
ENDROOT
BRANCH   2   4
ATOM      4  C   LIG    1       25.826 -16.694   3.335  0.00  0.00    +0.003 C 
ATOM      5  C   LIG    1       25.406 -15.502   3.790  0.00  0.00    +0.004 C 
BRANCH   5   6
ATOM      6  C   LIG    1       25.989 -14.220   3.408  0.00  0.00    -0.043 C 
ATOM      7  C   LIG    1       25.004 -13.169   2.849  0.00  0.00    -0.010 C 
ATOM      8  C   LIG    1       24.018 -13.758   1.813  0.00  0.00    +0.016 C 
ATOM      9  C   LIG    1       24.178 -12.582   4.015  0.00  0.00    +0.016 C 
ATOM     10  C   LIG    1       25.763 -12.023   2.126  0.00  0.00    +0.011 C 
ATOM     11  C   LIG    1       26.956 -11.527   2.926  0.00  0.00    +0.005 C 
ATOM     12  C   LIG    1       27.949 -12.658   3.156  0.00  0.00    +0.031 C 
ATOM     13  C   LIG    1       27.321 -13.985   3.519  0.00  0.00    -0.069 C 
ATOM     14  C   LIG    1       28.339 -15.000   3.987  0.00  0.00    +0.039 C 
ENDBRANCH   5   6
ENDBRANCH   2   4
BRANCH   3  15
ATOM     15  C   LIG    1       23.116 -19.270   3.997  0.00  0.00    +0.001 C 
ATOM     16  C   LIG    1       22.733 -19.594   5.245  0.00  0.00    +0.003 C 
BRANCH  16  17
ATOM     17  C   LIG    1       21.988 -20.801   5.558  0.00  0.00    -0.052 C 
ATOM     18  C   LIG    1       20.927 -21.204   4.825  0.00  0.00    +0.004 C 
ATOM     19  C   LIG    1       22.410 -21.571   6.786  0.00  0.00    +0.043 C 
BRANCH  18  20
ATOM     20  C   LIG    1       20.424 -20.586   3.559  0.00  0.00    +0.183 C 
BRANCH  20  21
ATOM     21  O   LIG    1       19.958 -19.273   3.847  0.00  0.00    -0.391 OA
ATOM     22  H   LIG    1       19.001 -19.267   3.676  0.00  0.00    +0.210 HD
ENDBRANCH  20  21
ENDBRANCH  18  20
ENDBRANCH  16  17
ENDBRANCH   3  15
TORSDOF 6
ENDMDL
MODEL 5
REMARK VINA RESULT:       3.2      2.414      8.114
REMARK  Name = *****
REMARK                            x       y       z     vdW  Elec       q    Type
REMARK                         _______ _______ _______ _____ _____    ______ ____
ROOT
ATOM      1  C   LIG    1       22.148 -16.202   5.119  0.00  0.00    +0.044 C 
ATOM      2  C   LIG    1       23.442 -16.373   4.365  0.00  0.00    -0.050 C 
ATOM      3  C   LIG    1       23.945 -17.529   3.882  0.00  0.00    +0.003 C 
ENDROOT
BRANCH   2   4
ATOM      4  C   LIG    1       24.188 -15.137   4.201  0.00  0.00    +0.003 C 
ATOM      5  C   LIG    1       25.469 -15.100   3.799  0.00  0.00    +0.004 C 
BRANCH   5   6
ATOM      6  C   LIG    1       26.252 -13.878   3.648  0.00  0.00    -0.043 C 
ATOM      7  C   LIG    1       27.450 -13.718   4.610  0.00  0.00    -0.010 C 
ATOM      8  C   LIG    1       27.099 -14.076   6.074  0.00  0.00    +0.016 C 
ATOM      9  C   LIG    1       28.594 -14.650   4.151  0.00  0.00    +0.016 C 
ATOM     10  C   LIG    1       27.957 -12.250   4.630  0.00  0.00    +0.011 C 
ATOM     11  C   LIG    1       28.083 -11.664   3.234  0.00  0.00    +0.005 C 
ATOM     12  C   LIG    1       26.732 -11.671   2.531  0.00  0.00    +0.031 C 
ATOM     13  C   LIG    1       25.924 -12.934   2.729  0.00  0.00    -0.069 C 
ATOM     14  C   LIG    1       24.722 -13.002   1.815  0.00  0.00    +0.039 C 
ENDBRANCH   5   6
ENDBRANCH   2   4
BRANCH   3  15
ATOM     15  C   LIG    1       23.334 -18.830   3.990  0.00  0.00    +0.001 C 
ATOM     16  C   LIG    1       22.366 -19.129   4.875  0.00  0.00    +0.003 C 
BRANCH  16  17
ATOM     17  C   LIG    1       21.766 -20.449   4.980  0.00  0.00    -0.052 C 
ATOM     18  C   LIG    1       20.600 -20.760   4.375  0.00  0.00    +0.004 C 
ATOM     19  C   LIG    1       22.473 -21.458   5.851  0.00  0.00    +0.043 C 
BRANCH  18  20
ATOM     20  C   LIG    1       19.814 -19.895   3.441  0.00  0.00    +0.183 C 
BRANCH  20  21
ATOM     21  O   LIG    1       20.108 -18.533   3.726  0.00  0.00    -0.391 OA
ATOM     22  H   LIG    1       20.733 -18.228   3.046  0.00  0.00    +0.210 HD
ENDBRANCH  20  21
ENDBRANCH  18  20
ENDBRANCH  16  17
ENDBRANCH   3  15
TORSDOF 6
ENDMDL
