MODEL 1
REMARK VINA RESULT:      -7.8      0.000      0.000
REMARK  Name = *****
REMARK                            x       y       z     vdW  Elec       q    Type
REMARK                         _______ _______ _______ _____ _____    ______ ____
ROOT
ATOM      1  O   LIG    1       24.453 -21.008   8.055  0.00  0.00    -0.252 OA
ATOM      2  C   LIG    1       24.797 -21.987   7.399  0.00  0.00    +0.306 C 
ATOM      3  N   LIG    1       26.018 -22.647   7.489  0.00  0.00    -0.272 N 
ATOM      4  C   LIG    1       26.199 -23.556   6.361  0.00  0.00    +0.152 C 
ATOM      5  C   LIG    1       24.783 -23.686   5.763  0.00  0.00    +0.155 C 
ATOM      6  C   LIG    1       24.218 -25.085   6.070  0.00  0.00    +0.230 C 
ATOM      7  S   LIG    1       25.281 -25.862   7.381  0.00  0.00    -0.004 S 
ATOM      8  C   LIG    1       25.465 -27.420   6.440  0.00  0.00    +0.278 C 
ATOM      9  C   LIG    1       24.395 -27.424   5.363  0.00  0.00    +0.059 C 
ATOM     10  C   LIG    1       24.315 -26.003   4.844  0.00  0.00    +0.064 C 
ATOM     11  C   LIG    1       26.712 -24.951   6.694  0.00  0.00    +0.302 C 
ATOM     12  N   LIG    1       24.062 -22.582   6.384  0.00  0.00    -0.271 N 
ENDROOT
BRANCH   3  13
ATOM     13  C   LIG    1       27.119 -22.133   8.280  0.00  0.00    +0.145 C 
BRANCH  13  14
ATOM     14  C   LIG    1       28.037 -21.194   7.528  0.00  0.00    -0.030 A 
ATOM     15  C   LIG    1       27.558 -20.418   6.461  0.00  0.00    +0.005 A 
ATOM     16  C   LIG    1       28.384 -19.484   5.829  0.00  0.00    +0.000 A 
ATOM     17  C   LIG    1       29.693 -19.303   6.268  0.00  0.00    +0.000 A 
ATOM     18  C   LIG    1       30.189 -20.079   7.313  0.00  0.00    +0.000 A 
ATOM     19  C   LIG    1       29.370 -21.027   7.933  0.00  0.00    +0.005 A 
ENDBRANCH  13  14
ENDBRANCH   3  13
BRANCH  12  20
ATOM     20  C   LIG    1       22.810 -22.046   5.886  0.00  0.00    +0.145 C 
BRANCH  20  21
ATOM     21  C   LIG    1       22.984 -20.782   5.075  0.00  0.00    -0.030 A 
ATOM     22  C   LIG    1       24.110 -20.604   4.254  0.00  0.00    +0.005 A 
ATOM     23  C   LIG    1       24.274 -19.428   3.521  0.00  0.00    +0.000 A 
ATOM     24  C   LIG    1       23.333 -18.406   3.621  0.00  0.00    +0.000 A 
ATOM     25  C   LIG    1       22.209 -18.573   4.428  0.00  0.00    +0.000 A 
ATOM     26  C   LIG    1       22.026 -19.761   5.139  0.00  0.00    +0.005 A 
ENDBRANCH  20  21
ENDBRANCH  12  20
TORSDOF 4
ENDMDL
MODEL 2
REMARK VINA RESULT:      -7.6      2.239      5.501
REMARK  Name = *****
REMARK                            x       y       z     vdW  Elec       q    Type
REMARK                         _______ _______ _______ _____ _____    ______ ____
ROOT
ATOM      1  O   LIG    1       24.304 -21.642   4.309  0.00  0.00    -0.252 OA
ATOM      2  C   LIG    1       25.119 -21.093   5.043  0.00  0.00    +0.306 C 
ATOM      3  N   LIG    1       25.326 -21.369   6.391  0.00  0.00    -0.272 N 
ATOM      4  C   LIG    1       26.138 -20.329   7.014  0.00  0.00    +0.152 C 
ATOM      5  C   LIG    1       26.749 -19.574   5.816  0.00  0.00    +0.155 C 
ATOM      6  C   LIG    1       28.252 -19.894   5.714  0.00  0.00    +0.230 C 
ATOM      7  S   LIG    1       28.602 -21.369   6.789  0.00  0.00    -0.004 S 
ATOM      8  C   LIG    1       30.020 -20.553   7.606  0.00  0.00    +0.278 C 
ATOM      9  C   LIG    1       30.404 -19.357   6.753  0.00  0.00    +0.059 C 
ATOM     10  C   LIG    1       29.103 -18.747   6.274  0.00  0.00    +0.064 C 
ATOM     11  C   LIG    1       27.271 -20.806   7.912  0.00  0.00    +0.302 C 
ATOM     12  N   LIG    1       25.945 -20.035   4.692  0.00  0.00    -0.271 N 
ENDROOT
BRANCH   3  13
ATOM     13  C   LIG    1       24.457 -22.255   7.141  0.00  0.00    +0.145 C 
BRANCH  13  14
ATOM     14  C   LIG    1       24.672 -23.725   6.852  0.00  0.00    -0.030 A 
ATOM     15  C   LIG    1       23.607 -24.544   6.443  0.00  0.00    +0.005 A 
ATOM     16  C   LIG    1       23.826 -25.877   6.088  0.00  0.00    +0.000 A 
ATOM     17  C   LIG    1       25.114 -26.405   6.121  0.00  0.00    +0.000 A 
ATOM     18  C   LIG    1       26.178 -25.611   6.544  0.00  0.00    +0.000 A 
ATOM     19  C   LIG    1       25.958 -24.283   6.919  0.00  0.00    +0.005 A 
ENDBRANCH  13  14
ENDBRANCH   3  13
BRANCH  12  20
ATOM     20  C   LIG    1       25.872 -19.358   3.412  0.00  0.00    +0.145 C 
BRANCH  20  21
ATOM     21  C   LIG    1       25.508 -17.895   3.531  0.00  0.00    -0.030 A 
ATOM     22  C   LIG    1       26.465 -16.895   3.295  0.00  0.00    +0.005 A 
ATOM     23  C   LIG    1       26.128 -15.547   3.422  0.00  0.00    +0.000 A 
ATOM     24  C   LIG    1       24.842 -15.183   3.816  0.00  0.00    +0.000 A 
ATOM     25  C   LIG    1       23.882 -16.167   4.048  0.00  0.00    +0.000 A 
ATOM     26  C   LIG    1       24.208 -17.515   3.891  0.00  0.00    +0.005 A 
ENDBRANCH  20  21
ENDBRANCH  12  20
TORSDOF 4
ENDMDL
MODEL 3
REMARK VINA RESULT:      -7.4      1.761      5.339
REMARK  Name = *****
REMARK                            x       y       z     vdW  Elec       q    Type
REMARK                         _______ _______ _______ _____ _____    ______ ____
ROOT
ATOM      1  O   LIG    1       24.439 -22.572   4.514  0.00  0.00    -0.252 OA
ATOM      2  C   LIG    1       25.150 -21.961   5.307  0.00  0.00    +0.306 C 
ATOM      3  N   LIG    1       25.443 -22.346   6.611  0.00  0.00    -0.272 N 
ATOM      4  C   LIG    1       26.051 -21.245   7.351  0.00  0.00    +0.152 C 
ATOM      5  C   LIG    1       26.468 -20.249   6.251  0.00  0.00    +0.155 C 
ATOM      6  C   LIG    1       28.001 -20.250   6.106  0.00  0.00    +0.230 C 
ATOM      7  S   LIG    1       28.665 -21.740   6.996  0.00  0.00    -0.004 S 
ATOM      8  C   LIG    1       29.916 -20.760   7.900  0.00  0.00    +0.278 C 
ATOM      9  C   LIG    1       30.033 -19.420   7.195  0.00  0.00    +0.059 C 
ATOM     10  C   LIG    1       28.624 -19.029   6.797  0.00  0.00    +0.064 C 
ATOM     11  C   LIG    1       27.280 -21.588   8.183  0.00  0.00    +0.302 C 
ATOM     12  N   LIG    1       25.740 -20.726   5.083  0.00  0.00    -0.271 N 
ENDROOT
BRANCH   3  13
ATOM     13  C   LIG    1       24.786 -23.469   7.253  0.00  0.00    +0.145 C 
BRANCH  13  14
ATOM     14  C   LIG    1       25.054 -24.804   6.591  0.00  0.00    -0.030 A 
ATOM     15  C   LIG    1       26.365 -25.279   6.430  0.00  0.00    +0.005 A 
ATOM     16  C   LIG    1       26.605 -26.551   5.904  0.00  0.00    +0.000 A 
ATOM     17  C   LIG    1       25.536 -27.370   5.547  0.00  0.00    +0.000 A 
ATOM     18  C   LIG    1       24.230 -26.905   5.682  0.00  0.00    +0.000 A 
ATOM     19  C   LIG    1       23.989 -25.625   6.190  0.00  0.00    +0.005 A 
ENDBRANCH  13  14
ENDBRANCH   3  13
BRANCH  12  20
ATOM     20  C   LIG    1       25.501 -19.932   3.893  0.00  0.00    +0.145 C 
BRANCH  20  21
ATOM     21  C   LIG    1       24.343 -18.972   4.041  0.00  0.00    -0.030 A 
ATOM     22  C   LIG    1       24.525 -17.592   3.852  0.00  0.00    +0.005 A 
ATOM     23  C   LIG    1       23.456 -16.708   4.006  0.00  0.00    +0.000 A 
ATOM     24  C   LIG    1       22.202 -17.188   4.378  0.00  0.00    +0.000 A 
ATOM     25  C   LIG    1       22.007 -18.556   4.562  0.00  0.00    +0.000 A 
ATOM     26  C   LIG    1       23.067 -19.446   4.379  0.00  0.00    +0.005 A 
ENDBRANCH  20  21
ENDBRANCH  12  20
TORSDOF 4
ENDMDL
MODEL 4
REMARK VINA RESULT:      -7.4      1.874      6.266
REMARK  Name = *****
REMARK                            x       y       z     vdW  Elec       q    Type
REMARK                         _______ _______ _______ _____ _____    ______ ____
ROOT
ATOM      1  O   LIG    1       24.933 -22.243   9.110  0.00  0.00    -0.252 OA
ATOM      2  C   LIG    1       25.123 -21.963   7.931  0.00  0.00    +0.306 C 
ATOM      3  N   LIG    1       24.598 -22.637   6.832  0.00  0.00    -0.272 N 
ATOM      4  C   LIG    1       25.273 -22.229   5.605  0.00  0.00    +0.152 C 
ATOM      5  C   LIG    1       26.011 -20.935   6.003  0.00  0.00    +0.155 C 
ATOM      6  C   LIG    1       25.318 -19.723   5.353  0.00  0.00    +0.230 C 
ATOM      7  S   LIG    1       23.657 -20.274   4.729  0.00  0.00    -0.004 S 
ATOM      8  C   LIG    1       23.926 -19.530   3.080  0.00  0.00    +0.278 C 
ATOM      9  C   LIG    1       25.091 -18.565   3.207  0.00  0.00    +0.059 C 
ATOM     10  C   LIG    1       26.095 -19.234   4.123  0.00  0.00    +0.064 C 
ATOM     11  C   LIG    1       24.377 -21.926   4.411  0.00  0.00    +0.302 C 
ATOM     12  N   LIG    1       25.962 -20.964   7.459  0.00  0.00    -0.271 N 
ENDROOT
BRANCH   3  13
ATOM     13  C   LIG    1       23.873 -23.886   6.965  0.00  0.00    +0.145 C 
BRANCH  13  14
ATOM     14  C   LIG    1       24.609 -25.090   6.416  0.00  0.00    -0.030 A 
ATOM     15  C   LIG    1       25.952 -25.328   6.748  0.00  0.00    +0.005 A 
ATOM     16  C   LIG    1       26.600 -26.488   6.316  0.00  0.00    +0.000 A 
ATOM     17  C   LIG    1       25.909 -27.431   5.559  0.00  0.00    +0.000 A 
ATOM     18  C   LIG    1       24.582 -27.199   5.205  0.00  0.00    +0.000 A 
ATOM     19  C   LIG    1       23.938 -26.031   5.620  0.00  0.00    +0.005 A 
ENDBRANCH  13  14
ENDBRANCH   3  13
BRANCH  12  20
ATOM     20  C   LIG    1       26.822 -20.173   8.318  0.00  0.00    +0.145 C 
BRANCH  20  21
ATOM     21  C   LIG    1       28.246 -20.087   7.818  0.00  0.00    -0.030 A 
ATOM     22  C   LIG    1       29.237 -20.947   8.321  0.00  0.00    +0.005 A 
ATOM     23  C   LIG    1       30.553 -20.852   7.868  0.00  0.00    +0.000 A 
ATOM     24  C   LIG    1       30.901 -19.882   6.931  0.00  0.00    +0.000 A 
ATOM     25  C   LIG    1       29.926 -19.027   6.421  0.00  0.00    +0.000 A 
ATOM     26  C   LIG    1       28.602 -19.139   6.849  0.00  0.00    +0.005 A 
ENDBRANCH  20  21
ENDBRANCH  12  20
TORSDOF 4
ENDMDL
MODEL 5
REMARK VINA RESULT:      -7.3      1.061      4.846
REMARK  Name = *****
REMARK                            x       y       z     vdW  Elec       q    Type
REMARK                         _______ _______ _______ _____ _____    ______ ____
ROOT
ATOM      1  O   LIG    1       25.612 -20.184   7.279  0.00  0.00    -0.252 OA
ATOM      2  C   LIG    1       25.381 -21.389   7.256  0.00  0.00    +0.306 C 
ATOM      3  N   LIG    1       24.175 -21.986   6.905  0.00  0.00    -0.272 N 
ATOM      4  C   LIG    1       24.165 -23.395   7.286  0.00  0.00    +0.152 C 
ATOM      5  C   LIG    1       25.650 -23.712   7.557  0.00  0.00    +0.155 C 
ATOM      6  C   LIG    1       26.203 -24.605   6.431  0.00  0.00    +0.230 C 
ATOM      7  S   LIG    1       24.996 -24.567   5.019  0.00  0.00    -0.004 S 
ATOM      8  C   LIG    1       24.974 -26.389   4.866  0.00  0.00    +0.278 C 
ATOM      9  C   LIG    1       26.176 -26.919   5.627  0.00  0.00    +0.059 C 
ATOM     10  C   LIG    1       26.290 -26.070   6.877  0.00  0.00    +0.064 C 
ATOM     11  C   LIG    1       23.646 -24.373   6.240  0.00  0.00    +0.302 C 
ATOM     12  N   LIG    1       26.257 -22.391   7.648  0.00  0.00    -0.271 N 
ENDROOT
BRANCH   3  13
ATOM     13  C   LIG    1       22.967 -21.216   6.677  0.00  0.00    +0.145 C 
BRANCH  13  14
ATOM     14  C   LIG    1       23.033 -20.304   5.470  0.00  0.00    -0.030 A 
ATOM     15  C   LIG    1       22.301 -19.106   5.431  0.00  0.00    +0.005 A 
ATOM     16  C   LIG    1       22.435 -18.223   4.357  0.00  0.00    +0.000 A 
ATOM     17  C   LIG    1       23.313 -18.517   3.317  0.00  0.00    +0.000 A 
ATOM     18  C   LIG    1       24.031 -19.712   3.333  0.00  0.00    +0.000 A 
ATOM     19  C   LIG    1       23.883 -20.606   4.396  0.00  0.00    +0.005 A 
ENDBRANCH  13  14
ENDBRANCH   3  13
BRANCH  12  20
ATOM     20  C   LIG    1       27.550 -22.129   8.249  0.00  0.00    +0.145 C 
BRANCH  20  21
ATOM     21  C   LIG    1       28.274 -20.961   7.619  0.00  0.00    -0.030 A 
ATOM     22  C   LIG    1       28.419 -20.874   6.224  0.00  0.00    +0.005 A 
ATOM     23  C   LIG    1       29.102 -19.801   5.648  0.00  0.00    +0.000 A 
ATOM     24  C   LIG    1       29.673 -18.822   6.458  0.00  0.00    +0.000 A 
ATOM     25  C   LIG    1       29.532 -18.895   7.842  0.00  0.00    +0.000 A 
ATOM     26  C   LIG    1       28.822 -19.950   8.420  0.00  0.00    +0.005 A 
ENDBRANCH  20  21
ENDBRANCH  12  20
TORSDOF 4
ENDMDL
MODEL 6
REMARK VINA RESULT:      -7.1      1.769      5.127
REMARK  Name = *****
REMARK                            x       y       z     vdW  Elec       q    Type
REMARK                         _______ _______ _______ _____ _____    ______ ____
ROOT
ATOM      1  O   LIG    1       26.250 -24.466   7.469  0.00  0.00    -0.252 OA
ATOM      2  C   LIG    1       25.600 -23.453   7.229  0.00  0.00    +0.306 C 
ATOM      3  N   LIG    1       26.002 -22.143   7.471  0.00  0.00    -0.272 N 
ATOM      4  C   LIG    1       24.874 -21.226   7.355  0.00  0.00    +0.152 C 
ATOM      5  C   LIG    1       23.798 -22.056   6.626  0.00  0.00    +0.155 C 
ATOM      6  C   LIG    1       23.634 -21.541   5.184  0.00  0.00    +0.230 C 
ATOM      7  S   LIG    1       25.082 -20.442   4.797  0.00  0.00    -0.004 S 
ATOM      8  C   LIG    1       24.012 -19.103   4.157  0.00  0.00    +0.278 C 
ATOM      9  C   LIG    1       22.642 -19.704   3.903  0.00  0.00    +0.059 C 
ATOM     10  C   LIG    1       22.384 -20.663   5.048  0.00  0.00    +0.064 C 
ATOM     11  C   LIG    1       25.119 -19.951   6.559  0.00  0.00    +0.302 C 
ATOM     12  N   LIG    1       24.303 -23.418   6.739  0.00  0.00    -0.271 N 
ENDROOT
BRANCH   3  13
ATOM     13  C   LIG    1       27.211 -21.829   8.208  0.00  0.00    +0.145 C 
BRANCH  13  14
ATOM     14  C   LIG    1       28.044 -20.726   7.591  0.00  0.00    -0.030 A 
ATOM     15  C   LIG    1       28.635 -19.735   8.390  0.00  0.00    +0.005 A 
ATOM     16  C   LIG    1       29.480 -18.774   7.829  0.00  0.00    +0.000 A 
ATOM     17  C   LIG    1       29.756 -18.801   6.464  0.00  0.00    +0.000 A 
ATOM     18  C   LIG    1       29.161 -19.766   5.655  0.00  0.00    +0.000 A 
ATOM     19  C   LIG    1       28.301 -20.717   6.212  0.00  0.00    +0.005 A 
ENDBRANCH  13  14
ENDBRANCH   3  13
BRANCH  12  20
ATOM     20  C   LIG    1       23.493 -24.605   6.542  0.00  0.00    +0.145 C 
BRANCH  20  21
ATOM     21  C   LIG    1       24.265 -25.760   5.946  0.00  0.00    -0.030 A 
ATOM     22  C   LIG    1       24.257 -27.023   6.560  0.00  0.00    +0.005 A 
ATOM     23  C   LIG    1       24.985 -28.082   6.015  0.00  0.00    +0.000 A 
ATOM     24  C   LIG    1       25.750 -27.884   4.868  0.00  0.00    +0.000 A 
ATOM     25  C   LIG    1       25.761 -26.637   4.245  0.00  0.00    +0.000 A 
ATOM     26  C   LIG    1       25.010 -25.585   4.771  0.00  0.00    +0.005 A 
ENDBRANCH  20  21
ENDBRANCH  12  20
TORSDOF 4
ENDMDL
MODEL 7
REMARK VINA RESULT:      -7.0      4.900      8.355
REMARK  Name = *****
REMARK                            x       y       z     vdW  Elec       q    Type
REMARK                         _______ _______ _______ _____ _____    ______ ____
ROOT
ATOM      1  O   LIG    1       26.987 -27.917   8.906  0.00  0.00    -0.252 OA
ATOM      2  C   LIG    1       26.056 -28.605   8.499  0.00  0.00    +0.306 C 
ATOM      3  N   LIG    1       25.505 -28.567   7.222  0.00  0.00    -0.272 N 
ATOM      4  C   LIG    1       24.234 -29.284   7.186  0.00  0.00    +0.152 C 
ATOM      5  C   LIG    1       24.243 -30.113   8.487  0.00  0.00    +0.155 C 
ATOM      6  C   LIG    1       24.444 -31.602   8.151  0.00  0.00    +0.230 C 
ATOM      7  S   LIG    1       25.020 -31.724   6.389  0.00  0.00    -0.004 S 
ATOM      8  C   LIG    1       23.775 -32.998   5.973  0.00  0.00    +0.278 C 
ATOM      9  C   LIG    1       23.245 -33.553   7.283  0.00  0.00    +0.059 C 
ATOM     10  C   LIG    1       23.118 -32.370   8.221  0.00  0.00    +0.064 C 
ATOM     11  C   LIG    1       24.028 -30.232   6.012  0.00  0.00    +0.302 C 
ATOM     12  N   LIG    1       25.320 -29.504   9.256  0.00  0.00    -0.271 N 
ENDROOT
BRANCH   3  13
ATOM     13  C   LIG    1       25.877 -27.560   6.248  0.00  0.00    +0.145 C 
BRANCH  13  14
ATOM     14  C   LIG    1       25.305 -26.186   6.528  0.00  0.00    -0.030 A 
ATOM     15  C   LIG    1       26.128 -25.139   6.971  0.00  0.00    +0.005 A 
ATOM     16  C   LIG    1       25.616 -23.850   7.139  0.00  0.00    +0.000 A 
ATOM     17  C   LIG    1       24.279 -23.588   6.851  0.00  0.00    +0.000 A 
ATOM     18  C   LIG    1       23.445 -24.622   6.430  0.00  0.00    +0.000 A 
ATOM     19  C   LIG    1       23.951 -25.916   6.280  0.00  0.00    +0.005 A 
ENDBRANCH  13  14
ENDBRANCH   3  13
BRANCH  12  20
ATOM     20  C   LIG    1       25.494 -29.672  10.686  0.00  0.00    +0.145 C 
BRANCH  20  21
ATOM     21  C   LIG    1       24.306 -29.195  11.490  0.00  0.00    -0.030 A 
ATOM     22  C   LIG    1       24.450 -28.180  12.451  0.00  0.00    +0.005 A 
ATOM     23  C   LIG    1       23.353 -27.755  13.202  0.00  0.00    +0.000 A 
ATOM     24  C   LIG    1       22.109 -28.356  13.024  0.00  0.00    +0.000 A 
ATOM     25  C   LIG    1       21.953 -29.359  12.069  0.00  0.00    +0.000 A 
ATOM     26  C   LIG    1       23.041 -29.766  11.295  0.00  0.00    +0.005 A 
ENDBRANCH  20  21
ENDBRANCH  12  20
TORSDOF 4
ENDMDL
MODEL 8
REMARK VINA RESULT:      -7.0      6.688      9.641
REMARK  Name = *****
REMARK                            x       y       z     vdW  Elec       q    Type
REMARK                         _______ _______ _______ _____ _____    ______ ____
ROOT
ATOM      1  O   LIG    1       22.580 -30.130   9.571  0.00  0.00    -0.252 OA
ATOM      2  C   LIG    1       23.666 -30.404  10.072  0.00  0.00    +0.306 C 
ATOM      3  N   LIG    1       24.832 -30.720   9.381  0.00  0.00    -0.272 N 
ATOM      4  C   LIG    1       25.830 -31.286  10.282  0.00  0.00    +0.152 C 
ATOM      5  C   LIG    1       25.305 -30.925  11.686  0.00  0.00    +0.155 C 
ATOM      6  C   LIG    1       26.193 -29.829  12.305  0.00  0.00    +0.230 C 
ATOM      7  S   LIG    1       27.242 -29.105  10.954  0.00  0.00    -0.004 S 
ATOM      8  C   LIG    1       28.779 -29.272  11.931  0.00  0.00    +0.278 C 
ATOM      9  C   LIG    1       28.371 -29.501  13.376  0.00  0.00    +0.059 C 
ATOM     10  C   LIG    1       27.168 -30.420  13.332  0.00  0.00    +0.064 C 
ATOM     11  C   LIG    1       27.247 -30.746  10.144  0.00  0.00    +0.302 C 
ATOM     12  N   LIG    1       23.927 -30.527  11.429  0.00  0.00    -0.271 N 
ENDROOT
BRANCH   3  13
ATOM     13  C   LIG    1       24.848 -30.925   7.946  0.00  0.00    +0.145 C 
BRANCH  13  14
ATOM     14  C   LIG    1       24.951 -29.649   7.138  0.00  0.00    -0.030 A 
ATOM     15  C   LIG    1       24.346 -29.543   5.876  0.00  0.00    +0.005 A 
ATOM     16  C   LIG    1       24.363 -28.335   5.174  0.00  0.00    +0.000 A 
ATOM     17  C   LIG    1       24.972 -27.214   5.732  0.00  0.00    +0.000 A 
ATOM     18  C   LIG    1       25.594 -27.308   6.975  0.00  0.00    +0.000 A 
ATOM     19  C   LIG    1       25.595 -28.521   7.669  0.00  0.00    +0.005 A 
ENDBRANCH  13  14
ENDBRANCH   3  13
BRANCH  12  20
ATOM     20  C   LIG    1       22.899 -30.448  12.449  0.00  0.00    +0.145 C 
BRANCH  20  21
ATOM     21  C   LIG    1       22.449 -29.033  12.732  0.00  0.00    -0.030 A 
ATOM     22  C   LIG    1       23.376 -28.044  13.100  0.00  0.00    +0.005 A 
ATOM     23  C   LIG    1       22.952 -26.743  13.376  0.00  0.00    +0.000 A 
ATOM     24  C   LIG    1       21.598 -26.422  13.316  0.00  0.00    +0.000 A 
ATOM     25  C   LIG    1       20.669 -27.393  12.946  0.00  0.00    +0.000 A 
ATOM     26  C   LIG    1       21.093 -28.688  12.639  0.00  0.00    +0.005 A 
ENDBRANCH  20  21
ENDBRANCH  12  20
TORSDOF 4
ENDMDL
MODEL 9
REMARK VINA RESULT:      -7.0      4.723      8.640
REMARK  Name = *****
REMARK                            x       y       z     vdW  Elec       q    Type
REMARK                         _______ _______ _______ _____ _____    ______ ____
ROOT
ATOM      1  O   LIG    1       26.635 -27.608   8.787  0.00  0.00    -0.252 OA
ATOM      2  C   LIG    1       25.909 -28.350   8.132  0.00  0.00    +0.306 C 
ATOM      3  N   LIG    1       25.612 -28.223   6.779  0.00  0.00    -0.272 N 
ATOM      4  C   LIG    1       24.489 -29.079   6.413  0.00  0.00    +0.152 C 
ATOM      5  C   LIG    1       24.367 -30.054   7.602  0.00  0.00    +0.155 C 
ATOM      6  C   LIG    1       24.841 -31.455   7.174  0.00  0.00    +0.230 C 
ATOM      7  S   LIG    1       25.755 -31.288   5.565  0.00  0.00    -0.004 S 
ATOM      8  C   LIG    1       24.809 -32.644   4.781  0.00  0.00    +0.278 C 
ATOM      9  C   LIG    1       24.124 -33.416   5.894  0.00  0.00    +0.059 C 
ATOM     10  C   LIG    1       23.651 -32.382   6.895  0.00  0.00    +0.064 C 
ATOM     11  C   LIG    1       24.649 -29.894   5.137  0.00  0.00    +0.302 C 
ATOM     12  N   LIG    1       25.178 -29.418   8.632  0.00  0.00    -0.271 N 
ENDROOT
BRANCH   3  13
ATOM     13  C   LIG    1       26.015 -27.065   6.004  0.00  0.00    +0.145 C 
BRANCH  13  14
ATOM     14  C   LIG    1       25.333 -25.777   6.414  0.00  0.00    -0.030 A 
ATOM     15  C   LIG    1       26.079 -24.681   6.873  0.00  0.00    +0.005 A 
ATOM     16  C   LIG    1       25.456 -23.463   7.162  0.00  0.00    +0.000 A 
ATOM     17  C   LIG    1       24.083 -23.323   6.980  0.00  0.00    +0.000 A 
ATOM     18  C   LIG    1       23.326 -24.409   6.544  0.00  0.00    +0.000 A 
ATOM     19  C   LIG    1       23.945 -25.632   6.273  0.00  0.00    +0.005 A 
ENDBRANCH  13  14
ENDBRANCH   3  13
BRANCH  12  20
ATOM     20  C   LIG    1       25.097 -29.738  10.044  0.00  0.00    +0.145 C 
BRANCH  20  21
ATOM     21  C   LIG    1       23.932 -30.639  10.385  0.00  0.00    -0.030 A 
ATOM     22  C   LIG    1       24.129 -32.010  10.621  0.00  0.00    +0.005 A 
ATOM     23  C   LIG    1       23.047 -32.840  10.919  0.00  0.00    +0.000 A 
ATOM     24  C   LIG    1       21.756 -32.318  10.955  0.00  0.00    +0.000 A 
ATOM     25  C   LIG    1       21.549 -30.958  10.728  0.00  0.00    +0.000 A 
ATOM     26  C   LIG    1       22.632 -30.119  10.461  0.00  0.00    +0.005 A 
ENDBRANCH  20  21
ENDBRANCH  12  20
TORSDOF 4
ENDMDL
