MODEL 1
REMARK VINA RESULT:      -5.7      0.000      0.000
REMARK  Name = *****
REMARK                            x       y       z     vdW  Elec       q    Type
REMARK                         _______ _______ _______ _____ _____    ______ ____
ROOT
ATOM      1  C   LIG    1       26.035 -19.512   3.735  0.00  0.00    +0.179 C 
ENDROOT
BRANCH   1   4
ATOM      2  C   LIG    1       25.698 -21.108   6.341  0.00  0.00    +0.044 C 
ATOM      3  C   LIG    1       26.896 -20.233   6.069  0.00  0.00    -0.044 A 
ATOM      4  C   LIG    1       27.041 -19.461   4.891  0.00  0.00    -0.012 A 
ATOM      5  C   LIG    1       28.188 -18.647   4.765  0.00  0.00    +0.007 A 
ATOM      6  C   LIG    1       29.162 -18.598   5.762  0.00  0.00    +0.000 A 
ATOM      7  C   LIG    1       29.018 -19.364   6.905  0.00  0.00    +0.000 A 
ATOM      8  C   LIG    1       27.894 -20.175   7.061  0.00  0.00    +0.003 A 
ENDBRANCH   1   4
BRANCH   1   9
ATOM      9  C   LIG    1       24.586 -19.712   4.135  0.00  0.00    -0.015 A 
ATOM     10  C   LIG    1       23.733 -18.632   4.392  0.00  0.00    +0.006 A 
ATOM     11  C   LIG    1       22.402 -18.847   4.756  0.00  0.00    +0.000 A 
ATOM     12  C   LIG    1       21.908 -20.151   4.856  0.00  0.00    +0.000 A 
ATOM     13  C   LIG    1       22.737 -21.231   4.582  0.00  0.00    +0.000 A 
ATOM     14  C   LIG    1       24.066 -21.018   4.215  0.00  0.00    +0.006 A 
ENDBRANCH   1   9
BRANCH   1  15
ATOM     15  O   LIG    1       26.060 -18.301   2.950  0.00  0.00    -0.366 OA
BRANCH  15  16
ATOM     16  C   LIG    1       26.597 -17.209   3.695  0.00  0.00    +0.176 C 
BRANCH  16  17
ATOM     17  C   LIG    1       25.920 -15.885   3.296  0.00  0.00    +0.112 C 
BRANCH  17  18
ATOM     18  N   LIG    1       26.831 -14.806   2.860  0.00  0.00    -0.306 NA
ATOM     19  C   LIG    1       27.763 -14.416   3.916  0.00  0.00    +0.104 C 
ATOM     20  C   LIG    1       26.101 -13.644   2.356  0.00  0.00    +0.104 C 
ENDBRANCH  17  18
ENDBRANCH  16  17
ENDBRANCH  15  16
ENDBRANCH   1  15
TORSDOF 6
ENDMDL
MODEL 2
REMARK VINA RESULT:      -5.5      0.816      1.974
REMARK  Name = *****
REMARK                            x       y       z     vdW  Elec       q    Type
REMARK                         _______ _______ _______ _____ _____    ______ ____
ROOT
ATOM      1  C   LIG    1       26.057 -19.091   4.313  0.00  0.00    +0.179 C 
ENDROOT
BRANCH   1   4
ATOM      2  C   LIG    1       28.853 -17.864   4.673  0.00  0.00    +0.044 C 
ATOM      3  C   LIG    1       28.394 -19.085   5.431  0.00  0.00    -0.044 A 
ATOM      4  C   LIG    1       27.125 -19.683   5.241  0.00  0.00    -0.012 A 
ATOM      5  C   LIG    1       26.821 -20.848   5.979  0.00  0.00    +0.007 A 
ATOM      6  C   LIG    1       27.733 -21.403   6.875  0.00  0.00    +0.000 A 
ATOM      7  C   LIG    1       28.967 -20.807   7.062  0.00  0.00    +0.000 A 
ATOM      8  C   LIG    1       29.299 -19.657   6.346  0.00  0.00    +0.003 A 
ENDBRANCH   1   4
BRANCH   1   9
ATOM      9  C   LIG    1       24.656 -19.642   4.492  0.00  0.00    -0.015 A 
ATOM     10  C   LIG    1       24.414 -20.851   5.156  0.00  0.00    +0.006 A 
ATOM     11  C   LIG    1       23.112 -21.332   5.307  0.00  0.00    +0.000 A 
ATOM     12  C   LIG    1       22.034 -20.598   4.803  0.00  0.00    +0.000 A 
ATOM     13  C   LIG    1       22.257 -19.387   4.162  0.00  0.00    +0.000 A 
ATOM     14  C   LIG    1       23.557 -18.903   4.012  0.00  0.00    +0.006 A 
ENDBRANCH   1   9
BRANCH   1  15
ATOM     15  O   LIG    1       25.939 -17.663   4.476  0.00  0.00    -0.366 OA
BRANCH  15  16
ATOM     16  C   LIG    1       26.124 -16.980   3.237  0.00  0.00    +0.176 C 
BRANCH  16  17
ATOM     17  C   LIG    1       25.727 -15.498   3.360  0.00  0.00    +0.112 C 
BRANCH  17  18
ATOM     18  N   LIG    1       26.624 -14.536   2.687  0.00  0.00    -0.306 NA
ATOM     19  C   LIG    1       27.767 -14.176   3.524  0.00  0.00    +0.104 C 
ATOM     20  C   LIG    1       25.910 -13.341   2.241  0.00  0.00    +0.104 C 
ENDBRANCH  17  18
ENDBRANCH  16  17
ENDBRANCH  15  16
ENDBRANCH   1  15
TORSDOF 6
ENDMDL
MODEL 3
REMARK VINA RESULT:      -5.3      0.901      4.526
REMARK  Name = *****
REMARK                            x       y       z     vdW  Elec       q    Type
REMARK                         _______ _______ _______ _____ _____    ______ ____
ROOT
ATOM      1  C   LIG    1       25.308 -18.939   4.730  0.00  0.00    +0.179 C 
ENDROOT
BRANCH   1   4
ATOM      2  C   LIG    1       22.744 -17.294   4.306  0.00  0.00    +0.044 C 
ATOM      3  C   LIG    1       22.733 -18.793   4.475  0.00  0.00    -0.044 A 
ATOM      4  C   LIG    1       23.903 -19.555   4.713  0.00  0.00    -0.012 A 
ATOM      5  C   LIG    1       23.765 -20.949   4.894  0.00  0.00    +0.007 A 
ATOM      6  C   LIG    1       22.519 -21.572   4.840  0.00  0.00    +0.000 A 
ATOM      7  C   LIG    1       21.382 -20.822   4.597  0.00  0.00    +0.000 A 
ATOM      8  C   LIG    1       21.485 -19.442   4.416  0.00  0.00    +0.003 A 
ENDBRANCH   1   4
BRANCH   1   9
ATOM      9  C   LIG    1       26.360 -19.728   5.484  0.00  0.00    -0.015 A 
ATOM     10  C   LIG    1       26.020 -20.745   6.384  0.00  0.00    +0.006 A 
ATOM     11  C   LIG    1       27.011 -21.457   7.062  0.00  0.00    +0.000 A 
ATOM     12  C   LIG    1       28.359 -21.162   6.837  0.00  0.00    +0.000 A 
ATOM     13  C   LIG    1       28.712 -20.171   5.931  0.00  0.00    +0.000 A 
ATOM     14  C   LIG    1       27.723 -19.461   5.250  0.00  0.00    +0.006 A 
ENDBRANCH   1   9
BRANCH   1  15
ATOM     15  O   LIG    1       25.832 -18.765   3.397  0.00  0.00    -0.366 OA
BRANCH  15  16
ATOM     16  C   LIG    1       26.703 -17.637   3.323  0.00  0.00    +0.176 C 
BRANCH  16  17
ATOM     17  C   LIG    1       25.903 -16.322   3.318  0.00  0.00    +0.112 C 
BRANCH  17  18
ATOM     18  N   LIG    1       26.671 -15.107   2.975  0.00  0.00    -0.306 NA
ATOM     19  C   LIG    1       27.524 -14.669   4.077  0.00  0.00    +0.104 C 
ATOM     20  C   LIG    1       25.802 -14.020   2.526  0.00  0.00    +0.104 C 
ENDBRANCH  17  18
ENDBRANCH  16  17
ENDBRANCH  15  16
ENDBRANCH   1  15
TORSDOF 6
ENDMDL
MODEL 4
REMARK VINA RESULT:      -5.2      2.751      5.645
REMARK  Name = *****
REMARK                            x       y       z     vdW  Elec       q    Type
REMARK                         _______ _______ _______ _____ _____    ______ ____
ROOT
ATOM      1  C   LIG    1       25.292 -15.499   3.363  0.00  0.00    +0.179 C 
ENDROOT
BRANCH   1   4
ATOM      2  C   LIG    1       25.825 -18.515   3.085  0.00  0.00    +0.044 C 
ATOM      3  C   LIG    1       24.543 -17.962   3.657  0.00  0.00    -0.044 A 
ATOM      4  C   LIG    1       24.271 -16.576   3.750  0.00  0.00    -0.012 A 
ATOM      5  C   LIG    1       23.019 -16.177   4.268  0.00  0.00    +0.007 A 
ATOM      6  C   LIG    1       22.069 -17.110   4.682  0.00  0.00    +0.000 A 
ATOM      7  C   LIG    1       22.347 -18.462   4.597  0.00  0.00    +0.000 A 
ATOM      8  C   LIG    1       23.574 -18.888   4.087  0.00  0.00    +0.003 A 
ENDBRANCH   1   4
BRANCH   1   9
ATOM      9  C   LIG    1       24.760 -14.081   3.307  0.00  0.00    -0.015 A 
ATOM     10  C   LIG    1       24.322 -13.407   4.454  0.00  0.00    +0.006 A 
ATOM     11  C   LIG    1       23.840 -12.100   4.371  0.00  0.00    +0.000 A 
ATOM     12  C   LIG    1       23.800 -11.448   3.136  0.00  0.00    +0.000 A 
ATOM     13  C   LIG    1       24.251 -12.095   1.993  0.00  0.00    +0.000 A 
ATOM     14  C   LIG    1       24.737 -13.401   2.074  0.00  0.00    +0.006 A 
ENDBRANCH   1   9
BRANCH   1  15
ATOM     15  O   LIG    1       26.404 -15.462   4.282  0.00  0.00    -0.366 OA
BRANCH  15  16
ATOM     16  C   LIG    1       27.633 -15.207   3.603  0.00  0.00    +0.176 C 
BRANCH  16  17
ATOM     17  C   LIG    1       27.951 -13.700   3.589  0.00  0.00    +0.112 C 
BRANCH  17  18
ATOM     18  N   LIG    1       28.445 -13.138   4.863  0.00  0.00    -0.306 NA
ATOM     19  C   LIG    1       27.370 -12.959   5.836  0.00  0.00    +0.104 C 
ATOM     20  C   LIG    1       29.178 -11.890   4.661  0.00  0.00    +0.104 C 
ENDBRANCH  17  18
ENDBRANCH  16  17
ENDBRANCH  15  16
ENDBRANCH   1  15
TORSDOF 6
ENDMDL
MODEL 5
REMARK VINA RESULT:      -5.2      1.991      5.646
REMARK  Name = *****
REMARK                            x       y       z     vdW  Elec       q    Type
REMARK                         _______ _______ _______ _____ _____    ______ ____
ROOT
ATOM      1  C   LIG    1       26.045 -18.009   3.498  0.00  0.00    +0.179 C 
ENDROOT
BRANCH   1   4
ATOM      2  C   LIG    1       23.303 -16.812   4.208  0.00  0.00    +0.044 C 
ATOM      3  C   LIG    1       24.511 -15.961   3.909  0.00  0.00    -0.044 A 
ATOM      4  C   LIG    1       25.767 -16.501   3.540  0.00  0.00    -0.012 A 
ATOM      5  C   LIG    1       26.817 -15.604   3.244  0.00  0.00    +0.007 A 
ATOM      6  C   LIG    1       26.638 -14.223   3.312  0.00  0.00    +0.000 A 
ATOM      7  C   LIG    1       25.411 -13.704   3.684  0.00  0.00    +0.000 A 
ATOM      8  C   LIG    1       24.353 -14.564   3.979  0.00  0.00    +0.003 A 
ENDBRANCH   1   4
BRANCH   1   9
ATOM      9  C   LIG    1       27.112 -18.505   4.455  0.00  0.00    -0.015 A 
ATOM     10  C   LIG    1       28.312 -17.811   4.651  0.00  0.00    +0.006 A 
ATOM     11  C   LIG    1       29.275 -18.291   5.540  0.00  0.00    +0.000 A 
ATOM     12  C   LIG    1       29.041 -19.469   6.253  0.00  0.00    +0.000 A 
ATOM     13  C   LIG    1       27.846 -20.157   6.086  0.00  0.00    +0.000 A 
ATOM     14  C   LIG    1       26.881 -19.678   5.199  0.00  0.00    +0.006 A 
ENDBRANCH   1   9
BRANCH   1  15
ATOM     15  O   LIG    1       24.862 -18.779   3.800  0.00  0.00    -0.366 OA
BRANCH  15  16
ATOM     16  C   LIG    1       24.765 -19.933   2.966  0.00  0.00    +0.176 C 
BRANCH  16  17
ATOM     17  C   LIG    1       24.040 -21.079   3.694  0.00  0.00    +0.112 C 
BRANCH  17  18
ATOM     18  N   LIG    1       23.429 -20.727   4.993  0.00  0.00    -0.306 NA
ATOM     19  C   LIG    1       23.925 -21.571   6.077  0.00  0.00    +0.104 C 
ATOM     20  C   LIG    1       21.968 -20.758   4.936  0.00  0.00    +0.104 C 
ENDBRANCH  17  18
ENDBRANCH  16  17
ENDBRANCH  15  16
ENDBRANCH   1  15
TORSDOF 6
ENDMDL
MODEL 6
REMARK VINA RESULT:      -4.8      1.923      5.697
REMARK  Name = *****
REMARK                            x       y       z     vdW  Elec       q    Type
REMARK                         _______ _______ _______ _____ _____    ______ ____
ROOT
ATOM      1  C   LIG    1       25.692 -17.530   3.167  0.00  0.00    +0.179 C 
ENDROOT
BRANCH   1   4
ATOM      2  C   LIG    1       25.020 -20.520   2.919  0.00  0.00    +0.044 C 
ATOM      3  C   LIG    1       24.093 -19.527   3.576  0.00  0.00    -0.044 A 
ATOM      4  C   LIG    1       24.374 -18.142   3.657  0.00  0.00    -0.012 A 
ATOM      5  C   LIG    1       23.412 -17.302   4.260  0.00  0.00    +0.007 A 
ATOM      6  C   LIG    1       22.217 -17.808   4.768  0.00  0.00    +0.000 A 
ATOM      7  C   LIG    1       21.955 -19.164   4.694  0.00  0.00    +0.000 A 
ATOM      8  C   LIG    1       22.883 -20.020   4.101  0.00  0.00    +0.003 A 
ENDBRANCH   1   4
BRANCH   1   9
ATOM      9  C   LIG    1       25.909 -16.072   3.521  0.00  0.00    -0.015 A 
ATOM     10  C   LIG    1       24.840 -15.183   3.689  0.00  0.00    +0.006 A 
ATOM     11  C   LIG    1       25.071 -13.846   4.018  0.00  0.00    +0.000 A 
ATOM     12  C   LIG    1       26.379 -13.386   4.192  0.00  0.00    +0.000 A 
ATOM     13  C   LIG    1       27.448 -14.261   4.050  0.00  0.00    +0.000 A 
ATOM     14  C   LIG    1       27.220 -15.598   3.725  0.00  0.00    +0.006 A 
ENDBRANCH   1   9
BRANCH   1  15
ATOM     15  O   LIG    1       26.837 -18.234   3.693  0.00  0.00    -0.366 OA
BRANCH  15  16
ATOM     16  C   LIG    1       26.500 -18.973   4.866  0.00  0.00    +0.176 C 
BRANCH  16  17
ATOM     17  C   LIG    1       27.751 -19.620   5.488  0.00  0.00    +0.112 C 
BRANCH  17  18
ATOM     18  N   LIG    1       27.538 -20.321   6.771  0.00  0.00    -0.306 NA
ATOM     19  C   LIG    1       28.611 -21.269   7.061  0.00  0.00    +0.104 C 
ATOM     20  C   LIG    1       26.233 -20.978   6.826  0.00  0.00    +0.104 C 
ENDBRANCH  17  18
ENDBRANCH  16  17
ENDBRANCH  15  16
ENDBRANCH   1  15
TORSDOF 6
ENDMDL
MODEL 7
REMARK VINA RESULT:      -4.4      1.724      4.377
REMARK  Name = *****
REMARK                            x       y       z     vdW  Elec       q    Type
REMARK                         _______ _______ _______ _____ _____    ______ ____
ROOT
ATOM      1  C   LIG    1       26.089 -18.912   4.411  0.00  0.00    +0.179 C 
ENDROOT
BRANCH   1   4
ATOM      2  C   LIG    1       25.374 -21.012   6.541  0.00  0.00    +0.044 C 
ATOM      3  C   LIG    1       26.789 -20.556   6.287  0.00  0.00    -0.044 A 
ATOM      4  C   LIG    1       27.125 -19.559   5.339  0.00  0.00    -0.012 A 
ATOM      5  C   LIG    1       28.481 -19.186   5.217  0.00  0.00    +0.007 A 
ATOM      6  C   LIG    1       29.474 -19.776   5.999  0.00  0.00    +0.000 A 
ATOM      7  C   LIG    1       29.139 -20.756   6.915  0.00  0.00    +0.000 A 
ATOM      8  C   LIG    1       27.808 -21.145   7.062  0.00  0.00    +0.003 A 
ENDBRANCH   1   4
BRANCH   1   9
ATOM      9  C   LIG    1       26.376 -17.478   4.009  0.00  0.00    -0.015 A 
ATOM     10  C   LIG    1       25.438 -16.701   3.319  0.00  0.00    +0.006 A 
ATOM     11  C   LIG    1       25.729 -15.382   2.964  0.00  0.00    +0.000 A 
ATOM     12  C   LIG    1       26.963 -14.824   3.307  0.00  0.00    +0.000 A 
ATOM     13  C   LIG    1       27.895 -15.576   4.011  0.00  0.00    +0.000 A 
ATOM     14  C   LIG    1       27.605 -16.893   4.369  0.00  0.00    +0.006 A 
ENDBRANCH   1   9
BRANCH   1  15
ATOM     15  O   LIG    1       25.946 -19.643   3.176  0.00  0.00    -0.366 OA
BRANCH  15  16
ATOM     16  C   LIG    1       24.790 -20.479   3.196  0.00  0.00    +0.176 C 
BRANCH  16  17
ATOM     17  C   LIG    1       23.502 -19.637   3.183  0.00  0.00    +0.112 C 
BRANCH  17  18
ATOM     18  N   LIG    1       22.855 -19.436   4.496  0.00  0.00    -0.306 NA
ATOM     19  C   LIG    1       22.077 -20.603   4.907  0.00  0.00    +0.104 C 
ATOM     20  C   LIG    1       22.032 -18.228   4.522  0.00  0.00    +0.104 C 
ENDBRANCH  17  18
ENDBRANCH  16  17
ENDBRANCH  15  16
ENDBRANCH   1  15
TORSDOF 6
ENDMDL
MODEL 8
REMARK VINA RESULT:      -4.2      2.896      5.387
REMARK  Name = *****
REMARK                            x       y       z     vdW  Elec       q    Type
REMARK                         _______ _______ _______ _____ _____    ______ ____
ROOT
ATOM      1  C   LIG    1       25.249 -15.372   4.049  0.00  0.00    +0.179 C 
ENDROOT
BRANCH   1   4
ATOM      2  C   LIG    1       24.304 -13.240   6.052  0.00  0.00    +0.044 C 
ATOM      3  C   LIG    1       24.313 -13.012   4.561  0.00  0.00    -0.044 A 
ATOM      4  C   LIG    1       24.705 -14.002   3.628  0.00  0.00    -0.012 A 
ATOM      5  C   LIG    1       24.635 -13.686   2.253  0.00  0.00    +0.007 A 
ATOM      6  C   LIG    1       24.195 -12.438   1.812  0.00  0.00    +0.000 A 
ATOM      7  C   LIG    1       23.823 -11.474   2.731  0.00  0.00    +0.000 A 
ATOM      8  C   LIG    1       23.879 -11.755   4.096  0.00  0.00    +0.003 A 
ENDBRANCH   1   4
BRANCH   1   9
ATOM      9  C   LIG    1       24.234 -16.498   4.080  0.00  0.00    -0.015 A 
ATOM     10  C   LIG    1       22.904 -16.287   4.465  0.00  0.00    +0.006 A 
ATOM     11  C   LIG    1       21.991 -17.343   4.482  0.00  0.00    +0.000 A 
ATOM     12  C   LIG    1       22.399 -18.624   4.101  0.00  0.00    +0.000 A 
ATOM     13  C   LIG    1       23.708 -18.844   3.695  0.00  0.00    +0.000 A 
ATOM     14  C   LIG    1       24.622 -17.790   3.675  0.00  0.00    +0.006 A 
ENDBRANCH   1   9
BRANCH   1  15
ATOM     15  O   LIG    1       26.303 -15.822   3.172  0.00  0.00    -0.366 OA
BRANCH  15  16
ATOM     16  C   LIG    1       27.590 -15.572   3.735  0.00  0.00    +0.176 C 
BRANCH  16  17
ATOM     17  C   LIG    1       27.583 -14.283   4.576  0.00  0.00    +0.112 C 
BRANCH  17  18
ATOM     18  N   LIG    1       28.453 -13.194   4.087  0.00  0.00    -0.306 NA
ATOM     19  C   LIG    1       28.733 -12.207   5.127  0.00  0.00    +0.104 C 
ATOM     20  C   LIG    1       27.906 -12.552   2.893  0.00  0.00    +0.104 C 
ENDBRANCH  17  18
ENDBRANCH  16  17
ENDBRANCH  15  16
ENDBRANCH   1  15
TORSDOF 6
ENDMDL
MODEL 9
REMARK VINA RESULT:      -4.1      2.058      5.849
REMARK  Name = *****
REMARK                            x       y       z     vdW  Elec       q    Type
REMARK                         _______ _______ _______ _____ _____    ______ ____
ROOT
ATOM      1  C   LIG    1       26.490 -17.552   3.263  0.00  0.00    +0.179 C 
ENDROOT
BRANCH   1   4
ATOM      2  C   LIG    1       27.612 -14.691   3.365  0.00  0.00    +0.044 C 
ATOM      3  C   LIG    1       26.178 -15.017   3.701  0.00  0.00    -0.044 A 
ATOM      4  C   LIG    1       25.663 -16.336   3.699  0.00  0.00    -0.012 A 
ATOM      5  C   LIG    1       24.313 -16.524   4.070  0.00  0.00    +0.007 A 
ATOM      6  C   LIG    1       23.498 -15.450   4.428  0.00  0.00    +0.000 A 
ATOM      7  C   LIG    1       24.007 -14.164   4.418  0.00  0.00    +0.000 A 
ATOM      8  C   LIG    1       25.337 -13.946   4.059  0.00  0.00    +0.003 A 
ENDBRANCH   1   4
BRANCH   1   9
ATOM      9  C   LIG    1       27.304 -18.216   4.356  0.00  0.00    -0.015 A 
ATOM     10  C   LIG    1       26.896 -19.411   4.961  0.00  0.00    +0.006 A 
ATOM     11  C   LIG    1       27.668 -20.001   5.964  0.00  0.00    +0.000 A 
ATOM     12  C   LIG    1       28.866 -19.404   6.365  0.00  0.00    +0.000 A 
ATOM     13  C   LIG    1       29.294 -18.231   5.758  0.00  0.00    +0.000 A 
ATOM     14  C   LIG    1       28.526 -17.640   4.754  0.00  0.00    +0.006 A 
ENDBRANCH   1   9
BRANCH   1  15
ATOM     15  O   LIG    1       25.659 -18.593   2.708  0.00  0.00    -0.366 OA
BRANCH  15  16
ATOM     16  C   LIG    1       24.509 -18.830   3.519  0.00  0.00    +0.176 C 
BRANCH  16  17
ATOM     17  C   LIG    1       23.991 -20.267   3.333  0.00  0.00    +0.112 C 
BRANCH  17  18
ATOM     18  N   LIG    1       23.292 -20.851   4.496  0.00  0.00    -0.306 NA
ATOM     19  C   LIG    1       22.513 -19.853   5.224  0.00  0.00    +0.104 C 
ATOM     20  C   LIG    1       24.212 -21.549   5.392  0.00  0.00    +0.104 C 
ENDBRANCH  17  18
ENDBRANCH  16  17
ENDBRANCH  15  16
ENDBRANCH   1  15
TORSDOF 6
ENDMDL
