MODEL 1
REMARK VINA RESULT:       4.0      0.000      0.000
REMARK  Name = *****
REMARK                            x       y       z     vdW  Elec       q    Type
REMARK                         _______ _______ _______ _____ _____    ______ ____
ROOT
ATOM      1  C   LIG    1       27.383 -19.125   4.839  0.00  0.00    +0.060 A 
ATOM      2  C   LIG    1       27.331 -17.688   4.229  0.00  0.00    +0.026 A 
ATOM      3  C   LIG    1       28.420 -16.887   4.582  0.00  0.00    +0.076 A 
ATOM      4  C   LIG    1       28.536 -15.552   4.176  0.00  0.00    +0.077 A 
ATOM      5  C   LIG    1       27.614 -14.834   3.413  0.00  0.00    +0.164 A 
ATOM      6  C   LIG    1       26.478 -15.488   3.042  0.00  0.00    +0.162 A 
ATOM      7  N   LIG    1       29.389 -17.253   5.418  0.00  0.00    -0.254 NA
ATOM      8  C   LIG    1       29.331 -18.439   6.042  0.00  0.00    +0.132 A 
ATOM      9  C   LIG    1       26.399 -16.846   3.412  0.00  0.00    +0.061 A 
ATOM     10  C   LIG    1       28.426 -19.437   5.757  0.00  0.00    +0.091 A 
ENDROOT
BRANCH   1  11
ATOM     11  N   LIG    1       26.502 -20.229   4.432  0.00  0.00    -0.312 N 
ATOM     12  H   LIG    1       26.965 -21.142   4.426  0.00  0.00    +0.152 HD
BRANCH  11  19
ATOM     13  C   LIG    1       22.896 -19.647   3.941  0.00  0.00    +0.140 A 
ATOM     14  C   LIG    1       22.332 -20.794   4.467  0.00  0.00    +0.084 A 
ATOM     15 CL   LIG    1       20.674 -21.189   4.225  0.00  0.00    -0.080 Cl
ATOM     16  C   LIG    1       23.105 -21.539   5.361  0.00  0.00    +0.045 A 
ATOM     17  C   LIG    1       24.477 -21.247   5.526  0.00  0.00    +0.064 A 
ATOM     18 CL   LIG    1       25.204 -21.569   7.061  0.00  0.00    -0.082 Cl
ATOM     19  C   LIG    1       25.122 -20.388   4.656  0.00  0.00    +0.053 A 
ATOM     20  C   LIG    1       24.272 -19.477   4.103  0.00  0.00    +0.072 A 
BRANCH  13  22
ATOM     21  C   LIG    1       21.111 -18.071   4.015  0.00  0.00    +0.277 C 
ATOM     22  O   LIG    1       22.141 -18.728   3.261  0.00  0.00    -0.494 OA
ENDBRANCH  13  22
ENDBRANCH  11  19
ENDBRANCH   1  11
BRANCH   6  23
ATOM     23  O   LIG    1       25.365 -14.952   2.430  0.00  0.00    -0.491 OA
ATOM     24  C   LIG    1       25.547 -13.651   1.870  0.00  0.00    +0.277 C 
ENDBRANCH   6  23
BRANCH  10  25
ATOM     25  C   LIG    1       28.748 -20.688   6.423  0.00  0.00    +0.103 C 
ATOM     26  N   LIG    1       29.133 -21.548   7.062  0.00  0.00    -0.191 NA
ENDBRANCH  10  25
BRANCH   5  27
ATOM     27  O   LIG    1       27.716 -13.497   3.185  0.00  0.00    -0.488 OA
BRANCH  27  28
ATOM     28  C   LIG    1       27.659 -12.593   4.304  0.00  0.00    +0.230 C 
BRANCH  28  29
ATOM     29  C   LIG    1       26.317 -12.832   5.024  0.00  0.00    +0.056 C 
BRANCH  29  30
ATOM     30  C   LIG    1       25.539 -11.661   5.686  0.00  0.00    +0.088 C 
BRANCH  30  31
ATOM     31  N   LIG    1       24.202 -11.447   5.062  0.00  0.00    -0.300 NA
ATOM     32  C   LIG    1       23.986 -12.076   3.746  0.00  0.00    +0.100 C 
ATOM     33  C   LIG    1       23.899 -13.601   3.780  0.00  0.00    +0.099 C 
ATOM     34  N   LIG    1       22.857 -14.149   4.665  0.00  0.00    -0.303 NA
ATOM     35  C   LIG    1       23.218 -15.562   4.861  0.00  0.00    +0.105 C 
ATOM     36  C   LIG    1       22.742 -13.403   5.946  0.00  0.00    +0.099 C 
ATOM     37  C   LIG    1       23.062 -11.868   5.911  0.00  0.00    +0.100 C 
ENDBRANCH  30  31
ENDBRANCH  29  30
ENDBRANCH  28  29
ENDBRANCH  27  28
ENDBRANCH   5  27
TORSDOF 10
ENDMDL
MODEL 2
REMARK VINA RESULT:       6.8      2.923      8.281
REMARK  Name = *****
REMARK                            x       y       z     vdW  Elec       q    Type
REMARK                         _______ _______ _______ _____ _____    ______ ____
ROOT
ATOM      1  C   LIG    1       23.111 -14.107   5.306  0.00  0.00    +0.060 A 
ATOM      2  C   LIG    1       23.368 -15.545   4.751  0.00  0.00    +0.026 A 
ATOM      3  C   LIG    1       22.372 -16.464   5.087  0.00  0.00    +0.076 A 
ATOM      4  C   LIG    1       22.440 -17.814   4.726  0.00  0.00    +0.077 A 
ATOM      5  C   LIG    1       23.478 -18.435   4.029  0.00  0.00    +0.164 A 
ATOM      6  C   LIG    1       24.540 -17.656   3.682  0.00  0.00    +0.162 A 
ATOM      7  N   LIG    1       21.328 -16.196   5.869  0.00  0.00    -0.254 NA
ATOM      8  C   LIG    1       21.210 -14.993   6.452  0.00  0.00    +0.132 A 
ATOM      9  C   LIG    1       24.434 -16.288   4.005  0.00  0.00    +0.061 A 
ATOM     10  C   LIG    1       21.997 -13.900   6.168  0.00  0.00    +0.091 A 
ENDROOT
BRANCH   1  11
ATOM     11  N   LIG    1       23.867 -12.914   4.897  0.00  0.00    -0.312 N 
ATOM     12  H   LIG    1       23.813 -12.144   5.569  0.00  0.00    +0.152 HD
BRANCH  11  19
ATOM     13  C   LIG    1       27.512 -12.864   4.350  0.00  0.00    +0.140 A 
ATOM     14  C   LIG    1       27.620 -13.213   3.017  0.00  0.00    +0.084 A 
ATOM     15 CL   LIG    1       29.129 -13.637   2.304  0.00  0.00    -0.080 Cl
ATOM     16  C   LIG    1       26.492 -13.035   2.212  0.00  0.00    +0.045 A 
ATOM     17  C   LIG    1       25.243 -12.734   2.797  0.00  0.00    +0.064 A 
ATOM     18 CL   LIG    1       24.116 -11.795   1.885  0.00  0.00    -0.082 Cl
ATOM     19  C   LIG    1       25.066 -12.835   4.165  0.00  0.00    +0.053 A 
ATOM     20  C   LIG    1       26.227 -12.646   4.852  0.00  0.00    +0.072 A 
BRANCH  13  22
ATOM     21  C   LIG    1       29.315 -11.513   5.123  0.00  0.00    +0.277 C 
ATOM     22  O   LIG    1       28.616 -12.767   5.154  0.00  0.00    -0.494 OA
ENDBRANCH  13  22
ENDBRANCH  11  19
ENDBRANCH   1  11
BRANCH   6  23
ATOM     23  O   LIG    1       25.737 -18.067   3.136  0.00  0.00    -0.491 OA
ATOM     24  C   LIG    1       26.859 -17.239   3.438  0.00  0.00    +0.277 C 
ENDBRANCH   6  23
BRANCH  10  25
ATOM     25  C   LIG    1       21.493 -12.678   6.775  0.00  0.00    +0.103 C 
ATOM     26  N   LIG    1       21.147 -11.633   7.061  0.00  0.00    -0.191 NA
ENDBRANCH  10  25
BRANCH   5  27
ATOM     27  O   LIG    1       23.553 -19.781   3.845  0.00  0.00    -0.488 OA
BRANCH  27  28
ATOM     28  C   LIG    1       22.719 -20.640   4.645  0.00  0.00    +0.230 C 
BRANCH  28  29
ATOM     29  C   LIG    1       23.005 -20.317   6.124  0.00  0.00    +0.056 C 
BRANCH  29  30
ATOM     30  C   LIG    1       24.460 -20.150   6.645  0.00  0.00    +0.088 C 
BRANCH  30  31
ATOM     31  N   LIG    1       25.368 -21.217   6.135  0.00  0.00    -0.300 NA
ATOM     32  C   LIG    1       25.986 -20.976   4.818  0.00  0.00    +0.100 C 
ATOM     33  C   LIG    1       27.033 -19.864   4.805  0.00  0.00    +0.099 C 
ATOM     34  N   LIG    1       28.150 -20.044   5.749  0.00  0.00    -0.303 NA
ATOM     35  C   LIG    1       28.777 -18.718   5.865  0.00  0.00    +0.105 C 
ATOM     36  C   LIG    1       27.710 -20.590   7.060  0.00  0.00    +0.099 C 
ATOM     37  C   LIG    1       26.479 -21.560   7.055  0.00  0.00    +0.100 C 
ENDBRANCH  30  31
ENDBRANCH  29  30
ENDBRANCH  28  29
ENDBRANCH  27  28
ENDBRANCH   5  27
TORSDOF 10
ENDMDL
