MODEL 1
REMARK VINA RESULT:      -7.2      0.000      0.000
REMARK  Name = *****
REMARK                            x       y       z     vdW  Elec       q    Type
REMARK                         _______ _______ _______ _____ _____    ______ ____
ROOT
ATOM      1  C   LIG    1       30.257 -19.971   8.470  0.00  0.00    +0.043 C 
ENDROOT
BRANCH   1   2
ATOM      2  C   LIG    1       29.012 -20.081   7.572  0.00  0.00    -0.043 A 
ATOM      3  C   LIG    1       29.048 -19.627   6.243  0.00  0.00    +0.005 A 
ATOM      4  C   LIG    1       27.911 -19.708   5.429  0.00  0.00    +0.020 A 
ATOM      5  C   LIG    1       26.727 -20.242   5.933  0.00  0.00    +0.041 A 
ATOM      6 CL   LIG    1       25.332 -20.350   4.930  0.00  0.00    -0.084 Cl
ATOM      7  C   LIG    1       26.668 -20.691   7.248  0.00  0.00    +0.020 A 
ATOM      8  C   LIG    1       27.802 -20.613   8.060  0.00  0.00    +0.005 A 
ENDBRANCH   1   2
BRANCH   1   9
ATOM      9  C   LIG    1       30.881 -21.385   8.583  0.00  0.00    +0.086 C 
BRANCH   9  10
ATOM     10  N   LIG    1       32.067 -21.442   9.438  0.00  0.00    -0.329 NA
ATOM     11  H   LIG    1       31.917 -22.155  10.163  0.00  0.00    +0.118 HD
ATOM     12  H   LIG    1       32.855 -21.810   8.893  0.00  0.00    +0.118 HD
ENDBRANCH   9  10
ENDBRANCH   1   9
BRANCH   1  13
ATOM     13  C   LIG    1       31.206 -18.882   7.925  0.00  0.00    +0.129 C 
BRANCH  13  14
ATOM     14  C   LIG    1       31.976 -18.024   8.906  0.00  0.00    +0.305 C 
ATOM     15  O   LIG    1       32.102 -18.313  10.095  0.00  0.00    -0.251 OA
BRANCH  14  16
ATOM     16  O   LIG    1       32.401 -16.841   8.435  0.00  0.00    -0.481 OA
ATOM     17  H   LIG    1       33.372 -16.869   8.219  0.00  0.00    +0.295 HD
ENDBRANCH  14  16
ENDBRANCH  13  14
ENDBRANCH   1  13
TORSDOF 6
ENDMDL
MODEL 2
REMARK VINA RESULT:      -7.1      2.321      3.023
REMARK  Name = *****
REMARK                            x       y       z     vdW  Elec       q    Type
REMARK                         _______ _______ _______ _____ _____    ______ ____
ROOT
ATOM      1  C   LIG    1       28.789 -19.953   6.625  0.00  0.00    +0.043 C 
ENDROOT
BRANCH   1   2
ATOM      2  C   LIG    1       27.339 -20.416   6.849  0.00  0.00    -0.043 A 
ATOM      3  C   LIG    1       26.411 -20.393   5.795  0.00  0.00    +0.005 A 
ATOM      4  C   LIG    1       25.085 -20.796   6.001  0.00  0.00    +0.020 A 
ATOM      5  C   LIG    1       24.672 -21.224   7.260  0.00  0.00    +0.041 A 
ATOM      6 CL   LIG    1       23.046 -21.728   7.511  0.00  0.00    -0.084 Cl
ATOM      7  C   LIG    1       25.573 -21.248   8.319  0.00  0.00    +0.020 A 
ATOM      8  C   LIG    1       26.897 -20.849   8.115  0.00  0.00    +0.005 A 
ENDBRANCH   1   2
BRANCH   1   9
ATOM      9  C   LIG    1       28.775 -18.900   5.487  0.00  0.00    +0.086 C 
BRANCH   9  10
ATOM     10  N   LIG    1       30.014 -18.131   5.376  0.00  0.00    -0.329 NA
ATOM     11  H   LIG    1       30.163 -17.614   6.251  0.00  0.00    +0.118 HD
ATOM     12  H   LIG    1       30.808 -18.780   5.337  0.00  0.00    +0.118 HD
ENDBRANCH   9  10
ENDBRANCH   1   9
BRANCH   1  13
ATOM     13  C   LIG    1       29.399 -19.464   7.956  0.00  0.00    +0.129 C 
BRANCH  13  14
ATOM     14  C   LIG    1       30.776 -19.952   8.353  0.00  0.00    +0.305 C 
ATOM     15  O   LIG    1       31.105 -20.151   9.522  0.00  0.00    -0.251 OA
BRANCH  14  16
ATOM     16  O   LIG    1       31.677 -20.022   7.361  0.00  0.00    -0.481 OA
ATOM     17  H   LIG    1       31.373 -19.512   6.562  0.00  0.00    +0.295 HD
ENDBRANCH  14  16
ENDBRANCH  13  14
ENDBRANCH   1  13
TORSDOF 6
ENDMDL
MODEL 3
REMARK VINA RESULT:      -7.1      2.318      3.209
REMARK  Name = *****
REMARK                            x       y       z     vdW  Elec       q    Type
REMARK                         _______ _______ _______ _____ _____    ______ ____
ROOT
ATOM      1  C   LIG    1       28.777 -19.956   6.641  0.00  0.00    +0.043 C 
ENDROOT
BRANCH   1   2
ATOM      2  C   LIG    1       27.319 -20.398   6.861  0.00  0.00    -0.043 A 
ATOM      3  C   LIG    1       26.889 -20.839   8.123  0.00  0.00    +0.005 A 
ATOM      4  C   LIG    1       25.568 -21.261   8.321  0.00  0.00    +0.020 A 
ATOM      5  C   LIG    1       24.664 -21.248   7.262  0.00  0.00    +0.041 A 
ATOM      6 CL   LIG    1       23.038 -21.758   7.507  0.00  0.00    -0.084 Cl
ATOM      7  C   LIG    1       25.071 -20.823   6.002  0.00  0.00    +0.020 A 
ATOM      8  C   LIG    1       26.388 -20.399   5.803  0.00  0.00    +0.005 A 
ENDBRANCH   1   2
BRANCH   1   9
ATOM      9  C   LIG    1       28.784 -18.917   5.491  0.00  0.00    +0.086 C 
BRANCH   9  10
ATOM     10  N   LIG    1       30.016 -18.134   5.407  0.00  0.00    -0.329 NA
ATOM     11  H   LIG    1       30.245 -17.778   6.344  0.00  0.00    +0.118 HD
ATOM     12  H   LIG    1       30.798 -18.761   5.187  0.00  0.00    +0.118 HD
ENDBRANCH   9  10
ENDBRANCH   1   9
BRANCH   1  13
ATOM     13  C   LIG    1       29.383 -19.459   7.970  0.00  0.00    +0.129 C 
BRANCH  13  14
ATOM     14  C   LIG    1       30.759 -19.944   8.374  0.00  0.00    +0.305 C 
ATOM     15  O   LIG    1       31.091 -20.123   9.545  0.00  0.00    -0.251 OA
BRANCH  14  16
ATOM     16  O   LIG    1       31.659 -20.035   7.382  0.00  0.00    -0.481 OA
ATOM     17  H   LIG    1       31.346 -20.655   6.669  0.00  0.00    +0.295 HD
ENDBRANCH  14  16
ENDBRANCH  13  14
ENDBRANCH   1  13
TORSDOF 6
ENDMDL
MODEL 4
REMARK VINA RESULT:      -7.1      2.197      3.055
REMARK  Name = *****
REMARK                            x       y       z     vdW  Elec       q    Type
REMARK                         _______ _______ _______ _____ _____    ______ ____
ROOT
ATOM      1  C   LIG    1       29.390 -20.283   7.158  0.00  0.00    +0.043 C 
ENDROOT
BRANCH   1   2
ATOM      2  C   LIG    1       27.857 -20.391   7.074  0.00  0.00    -0.043 A 
ATOM      3  C   LIG    1       27.087 -20.551   8.238  0.00  0.00    +0.005 A 
ATOM      4  C   LIG    1       25.694 -20.670   8.164  0.00  0.00    +0.020 A 
ATOM      5  C   LIG    1       25.054 -20.631   6.927  0.00  0.00    +0.041 A 
ATOM      6 CL   LIG    1       23.341 -20.767   6.836  0.00  0.00    -0.084 Cl
ATOM      7  C   LIG    1       25.797 -20.481   5.761  0.00  0.00    +0.020 A 
ATOM      8  C   LIG    1       27.188 -20.360   5.834  0.00  0.00    +0.005 A 
ENDBRANCH   1   2
BRANCH   1   9
ATOM      9  C   LIG    1       29.760 -18.781   7.066  0.00  0.00    +0.086 C 
BRANCH   9  10
ATOM     10  N   LIG    1       30.013 -18.316   5.702  0.00  0.00    -0.329 NA
ATOM     11  H   LIG    1       29.593 -18.982   5.042  0.00  0.00    +0.118 HD
ATOM     12  H   LIG    1       29.489 -17.448   5.541  0.00  0.00    +0.118 HD
ENDBRANCH   9  10
ENDBRANCH   1   9
BRANCH   1  13
ATOM     13  C   LIG    1       29.901 -21.003   8.423  0.00  0.00    +0.129 C 
BRANCH  13  14
ATOM     14  C   LIG    1       31.376 -20.941   8.756  0.00  0.00    +0.305 C 
ATOM     15  O   LIG    1       31.934 -19.914   9.141  0.00  0.00    -0.251 OA
BRANCH  14  16
ATOM     16  O   LIG    1       32.085 -22.045   8.471  0.00  0.00    -0.481 OA
ATOM     17  H   LIG    1       31.998 -22.724   9.193  0.00  0.00    +0.295 HD
ENDBRANCH  14  16
ENDBRANCH  13  14
ENDBRANCH   1  13
TORSDOF 6
ENDMDL
MODEL 5
REMARK VINA RESULT:      -7.0      7.589      8.999
REMARK  Name = *****
REMARK                            x       y       z     vdW  Elec       q    Type
REMARK                         _______ _______ _______ _____ _____    ______ ____
ROOT
ATOM      1  C   LIG    1       25.249 -26.420   5.662  0.00  0.00    +0.043 C 
ENDROOT
BRANCH   1   2
ATOM      2  C   LIG    1       24.812 -25.027   6.152  0.00  0.00    -0.043 A 
ATOM      3  C   LIG    1       25.768 -24.042   6.445  0.00  0.00    +0.005 A 
ATOM      4  C   LIG    1       25.376 -22.780   6.911  0.00  0.00    +0.020 A 
ATOM      5  C   LIG    1       24.025 -22.490   7.089  0.00  0.00    +0.041 A 
ATOM      6 CL   LIG    1       23.541 -20.938   7.652  0.00  0.00    -0.084 Cl
ATOM      7  C   LIG    1       23.062 -23.455   6.812  0.00  0.00    +0.020 A 
ATOM      8  C   LIG    1       23.453 -24.713   6.345  0.00  0.00    +0.005 A 
ENDBRANCH   1   2
BRANCH   1   9
ATOM      9  C   LIG    1       26.755 -26.581   5.988  0.00  0.00    +0.086 C 
BRANCH   9  10
ATOM     10  N   LIG    1       27.522 -27.244   4.933  0.00  0.00    -0.329 NA
ATOM     11  H   LIG    1       28.289 -26.624   4.644  0.00  0.00    +0.118 HD
ATOM     12  H   LIG    1       28.003 -28.059   5.331  0.00  0.00    +0.118 HD
ENDBRANCH   9  10
ENDBRANCH   1   9
BRANCH   1  13
ATOM     13  C   LIG    1       24.332 -27.504   6.267  0.00  0.00    +0.129 C 
BRANCH  13  14
ATOM     14  C   LIG    1       24.336 -28.890   5.659  0.00  0.00    +0.305 C 
ATOM     15  O   LIG    1       25.366 -29.470   5.319  0.00  0.00    -0.251 OA
BRANCH  14  16
ATOM     16  O   LIG    1       23.129 -29.404   5.374  0.00  0.00    -0.481 OA
ATOM     17  H   LIG    1       22.408 -28.737   5.530  0.00  0.00    +0.295 HD
ENDBRANCH  14  16
ENDBRANCH  13  14
ENDBRANCH   1  13
TORSDOF 6
ENDMDL
MODEL 6
REMARK VINA RESULT:      -6.9      5.461      6.875
REMARK  Name = *****
REMARK                            x       y       z     vdW  Elec       q    Type
REMARK                         _______ _______ _______ _____ _____    ______ ____
ROOT
ATOM      1  C   LIG    1       24.362 -21.198   7.330  0.00  0.00    +0.043 C 
ENDROOT
BRANCH   1   2
ATOM      2  C   LIG    1       24.509 -22.701   7.029  0.00  0.00    -0.043 A 
ATOM      3  C   LIG    1       25.778 -23.301   6.993  0.00  0.00    +0.005 A 
ATOM      4  C   LIG    1       25.917 -24.664   6.700  0.00  0.00    +0.020 A 
ATOM      5  C   LIG    1       24.791 -25.441   6.440  0.00  0.00    +0.041 A 
ATOM      6 CL   LIG    1       24.961 -27.117   6.089  0.00  0.00    -0.084 Cl
ATOM      7  C   LIG    1       23.525 -24.865   6.463  0.00  0.00    +0.020 A 
ATOM      8  C   LIG    1       23.385 -23.506   6.757  0.00  0.00    +0.005 A 
ENDBRANCH   1   2
BRANCH   1   9
ATOM      9  C   LIG    1       25.743 -20.677   7.802  0.00  0.00    +0.086 C 
BRANCH   9  10
ATOM     10  N   LIG    1       25.879 -20.596   9.257  0.00  0.00    -0.329 NA
ATOM     11  H   LIG    1       25.071 -21.059   9.690  0.00  0.00    +0.118 HD
ATOM     12  H   LIG    1       26.677 -21.170   9.551  0.00  0.00    +0.118 HD
ENDBRANCH   9  10
ENDBRANCH   1   9
BRANCH   1  13
ATOM     13  C   LIG    1       23.776 -20.470   6.101  0.00  0.00    +0.129 C 
BRANCH  13  14
ATOM     14  C   LIG    1       24.422 -20.681   4.749  0.00  0.00    +0.305 C 
ATOM     15  O   LIG    1       25.449 -20.102   4.398  0.00  0.00    -0.251 OA
BRANCH  14  16
ATOM     16  O   LIG    1       23.727 -21.436   3.883  0.00  0.00    -0.481 OA
ATOM     17  H   LIG    1       23.921 -22.403   4.015  0.00  0.00    +0.295 HD
ENDBRANCH  14  16
ENDBRANCH  13  14
ENDBRANCH   1  13
TORSDOF 6
ENDMDL
MODEL 7
REMARK VINA RESULT:      -6.9      5.683      7.347
REMARK  Name = *****
REMARK                            x       y       z     vdW  Elec       q    Type
REMARK                         _______ _______ _______ _____ _____    ______ ____
ROOT
ATOM      1  C   LIG    1       23.721 -20.784   6.586  0.00  0.00    +0.043 C 
ENDROOT
BRANCH   1   2
ATOM      2  C   LIG    1       25.245 -20.576   6.656  0.00  0.00    -0.043 A 
ATOM      3  C   LIG    1       25.915 -20.620   7.890  0.00  0.00    +0.005 A 
ATOM      4  C   LIG    1       27.298 -20.412   7.960  0.00  0.00    +0.020 A 
ATOM      5  C   LIG    1       28.027 -20.158   6.800  0.00  0.00    +0.041 A 
ATOM      6 CL   LIG    1       29.728 -19.911   6.885  0.00  0.00    -0.084 Cl
ATOM      7  C   LIG    1       27.382 -20.103   5.569  0.00  0.00    +0.020 A 
ATOM      8  C   LIG    1       26.002 -20.313   5.498  0.00  0.00    +0.005 A 
ENDBRANCH   1   2
BRANCH   1   9
ATOM      9  C   LIG    1       23.337 -20.930   5.091  0.00  0.00    +0.086 C 
BRANCH   9  10
ATOM     10  N   LIG    1       21.918 -21.212   4.870  0.00  0.00    -0.329 NA
ATOM     11  H   LIG    1       21.600 -20.680   4.050  0.00  0.00    +0.118 HD
ATOM     12  H   LIG    1       21.813 -22.191   4.581  0.00  0.00    +0.118 HD
ENDBRANCH   9  10
ENDBRANCH   1   9
BRANCH   1  13
ATOM     13  C   LIG    1       23.308 -21.969   7.483  0.00  0.00    +0.129 C 
BRANCH  13  14
ATOM     14  C   LIG    1       23.351 -23.370   6.912  0.00  0.00    +0.305 C 
ATOM     15  O   LIG    1       24.401 -23.956   6.651  0.00  0.00    -0.251 OA
BRANCH  14  16
ATOM     16  O   LIG    1       22.165 -23.896   6.567  0.00  0.00    -0.481 OA
ATOM     17  H   LIG    1       21.632 -23.254   6.024  0.00  0.00    +0.295 HD
ENDBRANCH  14  16
ENDBRANCH  13  14
ENDBRANCH   1  13
TORSDOF 6
ENDMDL
MODEL 8
REMARK VINA RESULT:      -6.9      5.506      6.667
REMARK  Name = *****
REMARK                            x       y       z     vdW  Elec       q    Type
REMARK                         _______ _______ _______ _____ _____    ______ ____
ROOT
ATOM      1  C   LIG    1       25.889 -22.002   6.729  0.00  0.00    +0.043 C 
ENDROOT
BRANCH   1   2
ATOM      2  C   LIG    1       24.860 -21.104   6.020  0.00  0.00    -0.043 A 
ATOM      3  C   LIG    1       25.155 -20.528   4.773  0.00  0.00    +0.005 A 
ATOM      4  C   LIG    1       24.229 -19.693   4.134  0.00  0.00    +0.020 A 
ATOM      5  C   LIG    1       23.000 -19.425   4.733  0.00  0.00    +0.041 A 
ATOM      6 CL   LIG    1       21.859 -18.407   3.943  0.00  0.00    -0.084 Cl
ATOM      7  C   LIG    1       22.691 -19.979   5.970  0.00  0.00    +0.020 A 
ATOM      8  C   LIG    1       23.613 -20.813   6.608  0.00  0.00    +0.005 A 
ENDBRANCH   1   2
BRANCH   1   9
ATOM      9  C   LIG    1       26.546 -21.164   7.856  0.00  0.00    +0.086 C 
BRANCH   9  10
ATOM     10  N   LIG    1       25.973 -21.402   9.181  0.00  0.00    -0.329 NA
ATOM     11  H   LIG    1       25.858 -20.498   9.657  0.00  0.00    +0.118 HD
ATOM     12  H   LIG    1       25.012 -21.745   9.073  0.00  0.00    +0.118 HD
ENDBRANCH   9  10
ENDBRANCH   1   9
BRANCH   1  13
ATOM     13  C   LIG    1       25.213 -23.308   7.199  0.00  0.00    +0.129 C 
BRANCH  13  14
ATOM     14  C   LIG    1       24.590 -24.222   6.166  0.00  0.00    +0.305 C 
ATOM     15  O   LIG    1       25.144 -24.517   5.108  0.00  0.00    -0.251 OA
BRANCH  14  16
ATOM     16  O   LIG    1       23.320 -24.589   6.404  0.00  0.00    -0.481 OA
ATOM     17  H   LIG    1       23.051 -25.348   5.820  0.00  0.00    +0.295 HD
ENDBRANCH  14  16
ENDBRANCH  13  14
ENDBRANCH   1  13
TORSDOF 6
ENDMDL
MODEL 9
REMARK VINA RESULT:      -6.9      5.530      6.811
REMARK  Name = *****
REMARK                            x       y       z     vdW  Elec       q    Type
REMARK                         _______ _______ _______ _____ _____    ______ ____
ROOT
ATOM      1  C   LIG    1       25.871 -22.049   6.720  0.00  0.00    +0.043 C 
ENDROOT
BRANCH   1   2
ATOM      2  C   LIG    1       24.862 -21.119   6.023  0.00  0.00    -0.043 A 
ATOM      3  C   LIG    1       23.627 -20.827   6.625  0.00  0.00    +0.005 A 
ATOM      4  C   LIG    1       22.697 -19.997   5.984  0.00  0.00    +0.020 A 
ATOM      5  C   LIG    1       22.992 -19.450   4.737  0.00  0.00    +0.041 A 
ATOM      6 CL   LIG    1       21.854 -18.423   3.954  0.00  0.00    -0.084 Cl
ATOM      7  C   LIG    1       24.206 -19.732   4.121  0.00  0.00    +0.020 A 
ATOM      8  C   LIG    1       25.135 -20.558   4.760  0.00  0.00    +0.005 A 
ENDBRANCH   1   2
BRANCH   1   9
ATOM      9  C   LIG    1       26.543 -21.242   7.860  0.00  0.00    +0.086 C 
BRANCH   9  10
ATOM     10  N   LIG    1       25.949 -21.472   9.177  0.00  0.00    -0.329 NA
ATOM     11  H   LIG    1       26.522 -22.159   9.683  0.00  0.00    +0.118 HD
ATOM     12  H   LIG    1       26.039 -20.617   9.739  0.00  0.00    +0.118 HD
ENDBRANCH   9  10
ENDBRANCH   1   9
BRANCH   1  13
ATOM     13  C   LIG    1       25.169 -23.348   7.168  0.00  0.00    +0.129 C 
BRANCH  13  14
ATOM     14  C   LIG    1       24.565 -24.254   6.117  0.00  0.00    +0.305 C 
ATOM     15  O   LIG    1       25.123 -24.510   5.051  0.00  0.00    -0.251 OA
BRANCH  14  16
ATOM     16  O   LIG    1       23.306 -24.658   6.350  0.00  0.00    -0.481 OA
ATOM     17  H   LIG    1       23.063 -25.428   5.768  0.00  0.00    +0.295 HD
ENDBRANCH  14  16
ENDBRANCH  13  14
ENDBRANCH   1  13
TORSDOF 6
ENDMDL
