MODEL 1
REMARK VINA RESULT:      -8.1      0.000      0.000
REMARK  Name = *****
REMARK                            x       y       z     vdW  Elec       q    Type
REMARK                         _______ _______ _______ _____ _____    ______ ____
ROOT
ATOM      1  O   LIG    1       28.345 -19.395   6.237  0.00  0.00    -0.274 OA
ATOM      2  C   LIG    1       27.839 -20.505   6.121  0.00  0.00    +0.231 C 
ATOM      3  N   LIG    1       27.160 -20.938   4.986  0.00  0.00    -0.284 N 
ATOM      4  H   LIG    1       27.136 -21.956   4.989  0.00  0.00    +0.155 HD
ATOM      5  C   LIG    1       25.837 -20.450   4.945  0.00  0.00    +0.041 A 
ATOM      6  C   LIG    1       24.879 -20.841   5.906  0.00  0.00    +0.026 A 
ATOM      7  C   LIG    1       23.567 -20.343   5.722  0.00  0.00    +0.030 A 
ATOM      8  C   LIG    1       23.252 -19.478   4.670  0.00  0.00    +0.042 A 
ATOM      9  C   LIG    1       24.227 -19.092   3.758  0.00  0.00    +0.022 A 
ATOM     10 CL   LIG    1       21.643 -18.894   4.498  0.00  0.00    -0.084 Cl
ATOM     11  C   LIG    1       25.187 -21.809   7.095  0.00  0.00    +0.179 C 
ATOM     12  N   LIG    1       26.405 -21.499   7.855  0.00  0.00    -0.256 NA
ATOM     13  C   LIG    1       26.059 -20.350   8.668  0.00  0.00    +0.116 C 
ATOM     14  C   LIG    1       24.644 -20.719   9.078  0.00  0.00    +0.178 C 
ATOM     15  O   LIG    1       24.115 -21.570   8.043  0.00  0.00    -0.349 OA
ATOM     16  C   LIG    1       25.522 -19.583   3.893  0.00  0.00    +0.025 A 
ATOM     17  C   LIG    1       27.729 -21.502   7.257  0.00  0.00    +0.184 C 
ENDROOT
BRANCH  11  18
ATOM     18  C   LIG    1       25.101 -23.306   6.718  0.00  0.00    +0.022 A 
ATOM     19  C   LIG    1       23.873 -23.987   6.541  0.00  0.00    +0.049 A 
ATOM     20 CL   LIG    1       22.318 -23.244   6.708  0.00  0.00    -0.083 Cl
ATOM     21  C   LIG    1       23.840 -25.351   6.204  0.00  0.00    +0.020 A 
ATOM     22  C   LIG    1       25.015 -26.071   6.021  0.00  0.00    +0.001 A 
ATOM     23  C   LIG    1       26.234 -25.427   6.165  0.00  0.00    +0.001 A 
ATOM     24  C   LIG    1       26.275 -24.071   6.502  0.00  0.00    +0.009 A 
ENDBRANCH  11  18
TORSDOF 1
ENDMDL
MODEL 2
REMARK VINA RESULT:      -6.5      7.516     10.291
REMARK  Name = *****
REMARK                            x       y       z     vdW  Elec       q    Type
REMARK                         _______ _______ _______ _____ _____    ______ ____
ROOT
ATOM      1  O   LIG    1       27.313 -33.278   9.583  0.00  0.00    -0.274 OA
ATOM      2  C   LIG    1       27.155 -32.244   8.945  0.00  0.00    +0.231 C 
ATOM      3  N   LIG    1       27.029 -30.983   9.520  0.00  0.00    -0.284 N 
ATOM      4  H   LIG    1       27.246 -30.281   8.816  0.00  0.00    +0.155 HD
ATOM      5  C   LIG    1       25.724 -30.754  10.007  0.00  0.00    +0.041 A 
ATOM      6  C   LIG    1       24.616 -30.682   9.135  0.00  0.00    +0.026 A 
ATOM      7  C   LIG    1       23.368 -30.377   9.731  0.00  0.00    +0.030 A 
ATOM      8  C   LIG    1       23.239 -30.200  11.111  0.00  0.00    +0.042 A 
ATOM      9  C   LIG    1       24.347 -30.306  11.943  0.00  0.00    +0.022 A 
ATOM     10 CL   LIG    1       21.697 -29.842  11.785  0.00  0.00    -0.084 Cl
ATOM     11  C   LIG    1       24.717 -30.868   7.585  0.00  0.00    +0.179 C 
ATOM     12  N   LIG    1       25.491 -32.036   7.144  0.00  0.00    -0.256 NA
ATOM     13  C   LIG    1       24.626 -33.173   7.388  0.00  0.00    +0.116 C 
ATOM     14  C   LIG    1       23.286 -32.596   6.967  0.00  0.00    +0.178 C 
ATOM     15  O   LIG    1       23.361 -31.170   7.169  0.00  0.00    -0.349 OA
ATOM     16  C   LIG    1       25.594 -30.579  11.389  0.00  0.00    +0.025 A 
ATOM     17  C   LIG    1       26.900 -32.208   7.450  0.00  0.00    +0.184 C 
ENDROOT
BRANCH  11  18
ATOM     18  C   LIG    1       25.122 -29.581   6.829  0.00  0.00    +0.022 A 
ATOM     19  C   LIG    1       25.385 -29.555   5.438  0.00  0.00    +0.049 A 
ATOM     20 CL   LIG    1       25.279 -30.940   4.404  0.00  0.00    -0.083 Cl
ATOM     21  C   LIG    1       25.756 -28.364   4.791  0.00  0.00    +0.020 A 
ATOM     22  C   LIG    1       25.863 -27.171   5.496  0.00  0.00    +0.001 A 
ATOM     23  C   LIG    1       25.591 -27.159   6.854  0.00  0.00    +0.001 A 
ATOM     24  C   LIG    1       25.222 -28.340   7.506  0.00  0.00    +0.009 A 
ENDBRANCH  11  18
TORSDOF 1
ENDMDL
MODEL 3
REMARK VINA RESULT:      -6.5      8.160     10.348
REMARK  Name = *****
REMARK                            x       y       z     vdW  Elec       q    Type
REMARK                         _______ _______ _______ _____ _____    ______ ____
ROOT
ATOM      1  O   LIG    1       26.845 -30.818  11.978  0.00  0.00    -0.274 OA
ATOM      2  C   LIG    1       26.559 -30.355  10.879  0.00  0.00    +0.231 C 
ATOM      3  N   LIG    1       25.632 -29.338  10.678  0.00  0.00    -0.284 N 
ATOM      4  H   LIG    1       25.813 -28.907   9.774  0.00  0.00    +0.155 HD
ATOM      5  C   LIG    1       24.306 -29.821  10.697  0.00  0.00    +0.041 A 
ATOM      6  C   LIG    1       23.835 -30.713   9.709  0.00  0.00    +0.026 A 
ATOM      7  C   LIG    1       22.468 -31.074   9.792  0.00  0.00    +0.030 A 
ATOM      8  C   LIG    1       21.646 -30.603  10.820  0.00  0.00    +0.042 A 
ATOM      9  C   LIG    1       22.152 -29.748  11.792  0.00  0.00    +0.022 A 
ATOM     10 CL   LIG    1       19.995 -31.080  10.879  0.00  0.00    -0.084 Cl
ATOM     11  C   LIG    1       24.718 -31.259   8.540  0.00  0.00    +0.179 C 
ATOM     12  N   LIG    1       26.036 -31.771   8.937  0.00  0.00    -0.256 NA
ATOM     13  C   LIG    1       25.770 -33.056   9.552  0.00  0.00    +0.116 C 
ATOM     14  C   LIG    1       24.684 -33.585   8.630  0.00  0.00    +0.178 C 
ATOM     15  O   LIG    1       24.011 -32.438   8.074  0.00  0.00    -0.349 OA
ATOM     16  C   LIG    1       23.484 -29.352  11.728  0.00  0.00    +0.025 A 
ATOM     17  C   LIG    1       27.046 -30.941   9.568  0.00  0.00    +0.184 C 
ENDROOT
BRANCH  11  18
ATOM     18  C   LIG    1       24.805 -30.304   7.327  0.00  0.00    +0.022 A 
ATOM     19  C   LIG    1       25.398 -30.673   6.096  0.00  0.00    +0.049 A 
ATOM     20 CL   LIG    1       26.088 -32.230   5.778  0.00  0.00    -0.083 Cl
ATOM     21  C   LIG    1       25.462 -29.770   5.020  0.00  0.00    +0.020 A 
ATOM     22  C   LIG    1       24.932 -28.490   5.129  0.00  0.00    +0.001 A 
ATOM     23  C   LIG    1       24.325 -28.106   6.313  0.00  0.00    +0.001 A 
ATOM     24  C   LIG    1       24.259 -28.997   7.389  0.00  0.00    +0.009 A 
ENDBRANCH  11  18
TORSDOF 1
ENDMDL
MODEL 4
REMARK VINA RESULT:      -6.3      9.135     10.932
REMARK  Name = *****
REMARK                            x       y       z     vdW  Elec       q    Type
REMARK                         _______ _______ _______ _____ _____    ______ ____
ROOT
ATOM      1  O   LIG    1       26.088 -30.519   8.593  0.00  0.00    -0.274 OA
ATOM      2  C   LIG    1       25.405 -29.802   9.314  0.00  0.00    +0.231 C 
ATOM      3  N   LIG    1       25.913 -28.765  10.091  0.00  0.00    -0.284 N 
ATOM      4  H   LIG    1       25.154 -28.126  10.318  0.00  0.00    +0.155 HD
ATOM      5  C   LIG    1       26.488 -29.237  11.290  0.00  0.00    +0.041 A 
ATOM      6  C   LIG    1       25.704 -29.860  12.285  0.00  0.00    +0.026 A 
ATOM      7  C   LIG    1       26.379 -30.229  13.474  0.00  0.00    +0.030 A 
ATOM      8  C   LIG    1       27.752 -30.023  13.632  0.00  0.00    +0.042 A 
ATOM      9  C   LIG    1       28.498 -29.432  12.619  0.00  0.00    +0.022 A 
ATOM     10 CL   LIG    1       28.525 -30.498  15.093  0.00  0.00    -0.084 Cl
ATOM     11  C   LIG    1       24.165 -30.105  12.153  0.00  0.00    +0.179 C 
ATOM     12  N   LIG    1       23.734 -30.700  10.881  0.00  0.00    -0.256 NA
ATOM     13  C   LIG    1       24.112 -32.096  10.972  0.00  0.00    +0.116 C 
ATOM     14  C   LIG    1       23.767 -32.382  12.423  0.00  0.00    +0.178 C 
ATOM     15  O   LIG    1       23.877 -31.133  13.135  0.00  0.00    -0.349 OA
ATOM     16  C   LIG    1       27.864 -29.033  11.447  0.00  0.00    +0.025 A 
ATOM     17  C   LIG    1       23.936 -30.050   9.598  0.00  0.00    +0.184 C 
ENDROOT
BRANCH  11  18
ATOM     18  C   LIG    1       23.304 -28.882  12.546  0.00  0.00    +0.022 A 
ATOM     19  C   LIG    1       21.893 -28.866  12.435  0.00  0.00    +0.049 A 
ATOM     20 CL   LIG    1       20.948 -30.199  11.862  0.00  0.00    -0.083 Cl
ATOM     21  C   LIG    1       21.149 -27.730  12.798  0.00  0.00    +0.020 A 
ATOM     22  C   LIG    1       21.776 -26.591  13.290  0.00  0.00    +0.001 A 
ATOM     23  C   LIG    1       23.154 -26.584  13.432  0.00  0.00    +0.001 A 
ATOM     24  C   LIG    1       23.903 -27.710  13.071  0.00  0.00    +0.009 A 
ENDBRANCH  11  18
TORSDOF 1
ENDMDL
MODEL 5
REMARK VINA RESULT:      -6.3      7.211      9.560
REMARK  Name = *****
REMARK                            x       y       z     vdW  Elec       q    Type
REMARK                         _______ _______ _______ _____ _____    ______ ____
ROOT
ATOM      1  O   LIG    1       25.440 -32.800   6.115  0.00  0.00    -0.274 OA
ATOM      2  C   LIG    1       24.709 -32.361   6.995  0.00  0.00    +0.231 C 
ATOM      3  N   LIG    1       23.773 -31.350   6.802  0.00  0.00    -0.284 N 
ATOM      4  H   LIG    1       23.083 -31.397   7.548  0.00  0.00    +0.155 HD
ATOM      5  C   LIG    1       24.369 -30.071   6.810  0.00  0.00    +0.041 A 
ATOM      6  C   LIG    1       24.978 -29.552   7.973  0.00  0.00    +0.026 A 
ATOM      7  C   LIG    1       25.479 -28.231   7.881  0.00  0.00    +0.030 A 
ATOM      8  C   LIG    1       25.410 -27.501   6.691  0.00  0.00    +0.042 A 
ATOM      9  C   LIG    1       24.827 -28.054   5.557  0.00  0.00    +0.022 A 
ATOM     10 CL   LIG    1       26.043 -25.903   6.631  0.00  0.00    -0.084 Cl
ATOM     11  C   LIG    1       25.073 -30.331   9.325  0.00  0.00    +0.179 C 
ATOM     12  N   LIG    1       25.547 -31.717   9.217  0.00  0.00    -0.256 NA
ATOM     13  C   LIG    1       26.974 -31.610   8.992  0.00  0.00    +0.116 C 
ATOM     14  C   LIG    1       27.317 -30.465   9.929  0.00  0.00    +0.178 C 
ATOM     15  O   LIG    1       26.130 -29.657  10.057  0.00  0.00    -0.349 OA
ATOM     16  C   LIG    1       24.301 -29.341   5.618  0.00  0.00    +0.025 A 
ATOM     17  C   LIG    1       24.839 -32.734   8.459  0.00  0.00    +0.184 C 
ENDROOT
BRANCH  11  18
ATOM     18  C   LIG    1       23.804 -30.215  10.201  0.00  0.00    +0.022 A 
ATOM     19  C   LIG    1       23.760 -29.463  11.399  0.00  0.00    +0.049 A 
ATOM     20 CL   LIG    1       25.101 -28.569  12.035  0.00  0.00    -0.083 Cl
ATOM     21  C   LIG    1       22.586 -29.390  12.169  0.00  0.00    +0.020 A 
ATOM     22  C   LIG    1       21.427 -30.045  11.769  0.00  0.00    +0.001 A 
ATOM     23  C   LIG    1       21.432 -30.771  10.590  0.00  0.00    +0.001 A 
ATOM     24  C   LIG    1       22.596 -30.851   9.819  0.00  0.00    +0.009 A 
ENDBRANCH  11  18
TORSDOF 1
ENDMDL
MODEL 6
REMARK VINA RESULT:      -6.2      7.606     10.246
REMARK  Name = *****
REMARK                            x       y       z     vdW  Elec       q    Type
REMARK                         _______ _______ _______ _____ _____    ______ ____
ROOT
ATOM      1  O   LIG    1       25.055 -32.815   4.834  0.00  0.00    -0.274 OA
ATOM      2  C   LIG    1       24.433 -32.632   5.875  0.00  0.00    +0.231 C 
ATOM      3  N   LIG    1       23.518 -31.601   6.066  0.00  0.00    -0.284 N 
ATOM      4  H   LIG    1       22.906 -31.848   6.841  0.00  0.00    +0.155 HD
ATOM      5  C   LIG    1       24.157 -30.377   6.360  0.00  0.00    +0.041 A 
ATOM      6  C   LIG    1       24.899 -30.203   7.549  0.00  0.00    +0.026 A 
ATOM      7  C   LIG    1       25.435 -28.911   7.769  0.00  0.00    +0.030 A 
ATOM      8  C   LIG    1       25.271 -27.881   6.839  0.00  0.00    +0.042 A 
ATOM      9  C   LIG    1       24.557 -28.096   5.665  0.00  0.00    +0.022 A 
ATOM     10 CL   LIG    1       25.951 -26.332   7.151  0.00  0.00    -0.084 Cl
ATOM     11  C   LIG    1       25.102 -31.326   8.618  0.00  0.00    +0.179 C 
ATOM     12  N   LIG    1       25.513 -32.631   8.085  0.00  0.00    -0.256 NA
ATOM     13  C   LIG    1       26.913 -32.475   7.746  0.00  0.00    +0.116 C 
ATOM     14  C   LIG    1       27.390 -31.635   8.919  0.00  0.00    +0.178 C 
ATOM     15  O   LIG    1       26.251 -30.887   9.389  0.00  0.00    -0.349 OA
ATOM     16  C   LIG    1       23.995 -29.347   5.428  0.00  0.00    +0.025 A 
ATOM     17  C   LIG    1       24.697 -33.395   7.158  0.00  0.00    +0.184 C 
ENDROOT
BRANCH  11  18
ATOM     18  C   LIG    1       23.933 -31.448   9.623  0.00  0.00    +0.022 A 
ATOM     19  C   LIG    1       23.873 -32.454  10.617  0.00  0.00    +0.049 A 
ATOM     20 CL   LIG    1       25.091 -33.664  10.850  0.00  0.00    -0.083 Cl
ATOM     21  C   LIG    1       22.788 -32.534  11.506  0.00  0.00    +0.020 A 
ATOM     22  C   LIG    1       21.745 -31.616  11.446  0.00  0.00    +0.001 A 
ATOM     23  C   LIG    1       21.786 -30.606  10.498  0.00  0.00    +0.001 A 
ATOM     24  C   LIG    1       22.861 -30.521   9.608  0.00  0.00    +0.009 A 
ENDBRANCH  11  18
TORSDOF 1
ENDMDL
MODEL 7
REMARK VINA RESULT:      -6.1      9.166     10.892
REMARK  Name = *****
REMARK                            x       y       z     vdW  Elec       q    Type
REMARK                         _______ _______ _______ _____ _____    ______ ____
ROOT
ATOM      1  O   LIG    1       26.275 -32.722  13.570  0.00  0.00    -0.274 OA
ATOM      2  C   LIG    1       25.485 -31.785  13.604  0.00  0.00    +0.231 C 
ATOM      3  N   LIG    1       24.240 -31.790  12.983  0.00  0.00    -0.284 N 
ATOM      4  H   LIG    1       23.655 -31.081  13.420  0.00  0.00    +0.155 HD
ATOM      5  C   LIG    1       24.339 -31.514  11.602  0.00  0.00    +0.041 A 
ATOM      6  C   LIG    1       24.786 -30.259  11.134  0.00  0.00    +0.026 A 
ATOM      7  C   LIG    1       24.776 -30.075   9.730  0.00  0.00    +0.030 A 
ATOM      8  C   LIG    1       24.385 -31.096   8.859  0.00  0.00    +0.042 A 
ATOM      9  C   LIG    1       23.977 -32.329   9.355  0.00  0.00    +0.022 A 
ATOM     10 CL   LIG    1       24.401 -30.823   7.161  0.00  0.00    -0.084 Cl
ATOM     11  C   LIG    1       25.227 -29.089  12.072  0.00  0.00    +0.179 C 
ATOM     12  N   LIG    1       26.158 -29.464  13.145  0.00  0.00    -0.256 NA
ATOM     13  C   LIG    1       27.438 -29.636  12.488  0.00  0.00    +0.116 C 
ATOM     14  C   LIG    1       27.400 -28.481  11.501  0.00  0.00    +0.178 C 
ATOM     15  O   LIG    1       26.011 -28.217  11.218  0.00  0.00    -0.349 OA
ATOM     16  C   LIG    1       23.950 -32.537  10.730  0.00  0.00    +0.025 A 
ATOM     17  C   LIG    1       25.820 -30.423  14.181  0.00  0.00    +0.184 C 
ENDROOT
BRANCH  11  18
ATOM     18  C   LIG    1       24.050 -28.232  12.594  0.00  0.00    +0.022 A 
ATOM     19  C   LIG    1       24.232 -26.991  13.250  0.00  0.00    +0.049 A 
ATOM     20 CL   LIG    1       25.777 -26.264  13.543  0.00  0.00    -0.083 Cl
ATOM     21  C   LIG    1       23.134 -26.247  13.715  0.00  0.00    +0.020 A 
ATOM     22  C   LIG    1       21.833 -26.702  13.533  0.00  0.00    +0.001 A 
ATOM     23  C   LIG    1       21.621 -27.903  12.875  0.00  0.00    +0.001 A 
ATOM     24  C   LIG    1       22.708 -28.650  12.411  0.00  0.00    +0.009 A 
ENDBRANCH  11  18
TORSDOF 1
ENDMDL
MODEL 8
REMARK VINA RESULT:      -5.9      2.667      5.153
REMARK  Name = *****
REMARK                            x       y       z     vdW  Elec       q    Type
REMARK                         _______ _______ _______ _____ _____    ______ ____
ROOT
ATOM      1  O   LIG    1       22.238 -21.629   4.817  0.00  0.00    -0.274 OA
ATOM      2  C   LIG    1       23.404 -21.254   4.856  0.00  0.00    +0.231 C 
ATOM      3  N   LIG    1       24.463 -21.929   4.257  0.00  0.00    -0.284 N 
ATOM      4  H   LIG    1       25.236 -21.279   4.134  0.00  0.00    +0.155 HD
ATOM      5  C   LIG    1       24.902 -23.020   5.037  0.00  0.00    +0.041 A 
ATOM      6  C   LIG    1       25.488 -22.826   6.307  0.00  0.00    +0.026 A 
ATOM      7  C   LIG    1       25.954 -23.990   6.966  0.00  0.00    +0.030 A 
ATOM      8  C   LIG    1       25.802 -25.261   6.404  0.00  0.00    +0.042 A 
ATOM      9  C   LIG    1       25.194 -25.417   5.164  0.00  0.00    +0.022 A 
ATOM     10 CL   LIG    1       26.377 -26.643   7.252  0.00  0.00    -0.084 Cl
ATOM     11  C   LIG    1       25.683 -21.423   6.969  0.00  0.00    +0.179 C 
ATOM     12  N   LIG    1       24.502 -20.549   6.942  0.00  0.00    -0.256 NA
ATOM     13  C   LIG    1       23.615 -21.085   7.956  0.00  0.00    +0.116 C 
ATOM     14  C   LIG    1       24.618 -21.444   9.039  0.00  0.00    +0.178 C 
ATOM     15  O   LIG    1       25.871 -21.712   8.378  0.00  0.00    -0.349 OA
ATOM     16  C   LIG    1       24.747 -24.293   4.476  0.00  0.00    +0.025 A 
ATOM     17  C   LIG    1       23.886 -20.095   5.708  0.00  0.00    +0.184 C 
ENDROOT
BRANCH  11  18
ATOM     18  C   LIG    1       26.962 -20.688   6.506  0.00  0.00    +0.022 A 
ATOM     19  C   LIG    1       28.219 -20.861   7.132  0.00  0.00    +0.049 A 
ATOM     20 CL   LIG    1       28.498 -21.916   8.477  0.00  0.00    -0.083 Cl
ATOM     21  C   LIG    1       29.356 -20.168   6.683  0.00  0.00    +0.020 A 
ATOM     22  C   LIG    1       29.283 -19.299   5.600  0.00  0.00    +0.001 A 
ATOM     23  C   LIG    1       28.071 -19.125   4.952  0.00  0.00    +0.001 A 
ATOM     24  C   LIG    1       26.934 -19.810   5.394  0.00  0.00    +0.009 A 
ENDBRANCH  11  18
TORSDOF 1
ENDMDL
MODEL 9
REMARK VINA RESULT:      -5.8      8.557     10.346
REMARK  Name = *****
REMARK                            x       y       z     vdW  Elec       q    Type
REMARK                         _______ _______ _______ _____ _____    ______ ____
ROOT
ATOM      1  O   LIG    1       26.345 -33.808   9.165  0.00  0.00    -0.274 OA
ATOM      2  C   LIG    1       25.434 -33.177   9.689  0.00  0.00    +0.231 C 
ATOM      3  N   LIG    1       24.211 -32.919   9.078  0.00  0.00    -0.284 N 
ATOM      4  H   LIG    1       23.528 -32.694   9.799  0.00  0.00    +0.155 HD
ATOM      5  C   LIG    1       24.291 -31.841   8.172  0.00  0.00    +0.041 A 
ATOM      6  C   LIG    1       24.568 -30.529   8.614  0.00  0.00    +0.026 A 
ATOM      7  C   LIG    1       24.554 -29.518   7.622  0.00  0.00    +0.030 A 
ATOM      8  C   LIG    1       24.318 -29.813   6.276  0.00  0.00    +0.042 A 
ATOM      9  C   LIG    1       24.076 -31.121   5.873  0.00  0.00    +0.022 A 
ATOM     10 CL   LIG    1       24.321 -28.548   5.111  0.00  0.00    -0.084 Cl
ATOM     11  C   LIG    1       24.832 -30.153  10.108  0.00  0.00    +0.179 C 
ATOM     12  N   LIG    1       25.790 -31.017  10.811  0.00  0.00    -0.256 NA
ATOM     13  C   LIG    1       27.091 -30.618  10.313  0.00  0.00    +0.116 C 
ATOM     14  C   LIG    1       26.910 -29.112  10.239  0.00  0.00    +0.178 C 
ATOM     15  O   LIG    1       25.502 -28.868  10.045  0.00  0.00    -0.349 OA
ATOM     16  C   LIG    1       24.058 -32.137   6.824  0.00  0.00    +0.025 A 
ATOM     17  C   LIG    1       25.572 -32.439  11.007  0.00  0.00    +0.184 C 
ENDROOT
BRANCH  11  18
ATOM     18  C   LIG    1       23.542 -29.924  10.930  0.00  0.00    +0.022 A 
ATOM     19  C   LIG    1       23.525 -29.220  12.157  0.00  0.00    +0.049 A 
ATOM     20 CL   LIG    1       24.925 -28.515  12.892  0.00  0.00    -0.083 Cl
ATOM     21  C   LIG    1       22.330 -29.040  12.875  0.00  0.00    +0.020 A 
ATOM     22  C   LIG    1       21.125 -29.539  12.394  0.00  0.00    +0.001 A 
ATOM     23  C   LIG    1       21.105 -30.214  11.185  0.00  0.00    +0.001 A 
ATOM     24  C   LIG    1       22.290 -30.398  10.465  0.00  0.00    +0.009 A 
ENDBRANCH  11  18
TORSDOF 1
ENDMDL
