MODEL 1
REMARK VINA RESULT:      -8.8      0.000      0.000
REMARK  Name = *****
REMARK                            x       y       z     vdW  Elec       q    Type
REMARK                         _______ _______ _______ _____ _____    ______ ____
ROOT
ATOM      1  C   LIG    1       25.146 -25.243   6.614  0.00  0.00    -0.034 A 
ATOM      2  C   LIG    1       23.782 -24.976   6.420  0.00  0.00    +0.005 A 
ATOM      3  C   LIG    1       23.277 -23.672   6.512  0.00  0.00    +0.012 A 
ATOM      4  C   LIG    1       24.122 -22.605   6.835  0.00  0.00    +0.023 A 
ATOM      5  C   LIG    1       25.491 -22.864   7.011  0.00  0.00    +0.012 A 
ATOM      6  C   LIG    1       25.999 -24.166   6.895  0.00  0.00    +0.005 A 
ENDROOT
BRANCH   1   8
ATOM      7  C   LIG    1       24.511 -27.673   6.515  0.00  0.00    +0.024 C 
ATOM      8  C   LIG    1       25.664 -26.668   6.444  0.00  0.00    +0.124 C 
BRANCH   8   9
ATOM      9  C   LIG    1       26.506 -26.898   5.189  0.00  0.00    +0.312 C 
ATOM     10  O   LIG    1       26.059 -27.066   4.065  0.00  0.00    -0.250 OA
BRANCH   9  11
ATOM     11  O   LIG    1       27.838 -26.955   5.438  0.00  0.00    -0.480 OA
ATOM     12  H   LIG    1       28.064 -26.869   6.384  0.00  0.00    +0.295 HD
ENDBRANCH   9  11
ENDBRANCH   8   9
ENDBRANCH   1   8
BRANCH   4  13
ATOM     13  C   LIG    1       23.651 -21.183   6.890  0.00  0.00    +0.200 C 
ATOM     14  O   LIG    1       23.364 -20.743   8.004  0.00  0.00    -0.286 OA
BRANCH  13  15
ATOM     15  C   LIG    1       23.591 -20.338   5.701  0.00  0.00    +0.059 A 
ATOM     16  S   LIG    1       24.806 -20.338   4.492  0.00  0.00    -0.093 S 
ATOM     17  C   LIG    1       23.991 -19.150   3.570  0.00  0.00    +0.046 A 
ATOM     18  C   LIG    1       22.775 -18.817   4.120  0.00  0.00    +0.008 A 
ATOM     19  C   LIG    1       22.531 -19.526   5.332  0.00  0.00    +0.019 A 
ENDBRANCH  13  15
ENDBRANCH   4  13
TORSDOF 5
ENDMDL
MODEL 2
REMARK VINA RESULT:      -8.6      4.492      6.305
REMARK  Name = *****
REMARK                            x       y       z     vdW  Elec       q    Type
REMARK                         _______ _______ _______ _____ _____    ______ ____
ROOT
ATOM      1  C   LIG    1       28.876 -19.678   7.378  0.00  0.00    -0.034 A 
ATOM      2  C   LIG    1       28.685 -19.600   5.990  0.00  0.00    +0.005 A 
ATOM      3  C   LIG    1       27.472 -19.985   5.402  0.00  0.00    +0.012 A 
ATOM      4  C   LIG    1       26.430 -20.489   6.187  0.00  0.00    +0.023 A 
ATOM      5  C   LIG    1       26.610 -20.550   7.578  0.00  0.00    +0.012 A 
ATOM      6  C   LIG    1       27.815 -20.142   8.168  0.00  0.00    +0.005 A 
ENDROOT
BRANCH   1   8
ATOM      7  C   LIG    1       29.932 -18.093   9.017  0.00  0.00    +0.024 C 
ATOM      8  C   LIG    1       30.190 -19.191   7.983  0.00  0.00    +0.124 C 
BRANCH   8   9
ATOM      9  C   LIG    1       31.070 -20.293   8.571  0.00  0.00    +0.312 C 
ATOM     10  O   LIG    1       32.010 -20.111   9.330  0.00  0.00    -0.250 OA
BRANCH   9  11
ATOM     11  O   LIG    1       30.750 -21.534   8.126  0.00  0.00    -0.480 OA
ATOM     12  H   LIG    1       29.886 -21.576   7.673  0.00  0.00    +0.295 HD
ENDBRANCH   9  11
ENDBRANCH   8   9
ENDBRANCH   1   8
BRANCH   4  13
ATOM     13  C   LIG    1       25.093 -20.860   5.622  0.00  0.00    +0.200 C 
ATOM     14  O   LIG    1       24.633 -20.108   4.760  0.00  0.00    -0.286 OA
BRANCH  13  15
ATOM     15  C   LIG    1       24.392 -22.077   6.020  0.00  0.00    +0.059 A 
ATOM     16  S   LIG    1       25.117 -23.630   5.975  0.00  0.00    -0.093 S 
ATOM     17  C   LIG    1       23.696 -24.391   6.546  0.00  0.00    +0.046 A 
ATOM     18  C   LIG    1       22.712 -23.478   6.851  0.00  0.00    +0.008 A 
ATOM     19  C   LIG    1       23.126 -22.143   6.577  0.00  0.00    +0.019 A 
ENDBRANCH  13  15
ENDBRANCH   4  13
TORSDOF 5
ENDMDL
MODEL 3
REMARK VINA RESULT:      -8.6      4.633      6.190
REMARK  Name = *****
REMARK                            x       y       z     vdW  Elec       q    Type
REMARK                         _______ _______ _______ _____ _____    ______ ____
ROOT
ATOM      1  C   LIG    1       29.075 -19.462   7.478  0.00  0.00    -0.034 A 
ATOM      2  C   LIG    1       28.841 -19.466   6.095  0.00  0.00    +0.005 A 
ATOM      3  C   LIG    1       27.677 -20.032   5.557  0.00  0.00    +0.012 A 
ATOM      4  C   LIG    1       26.731 -20.638   6.390  0.00  0.00    +0.023 A 
ATOM      5  C   LIG    1       26.951 -20.619   7.777  0.00  0.00    +0.012 A 
ATOM      6  C   LIG    1       28.105 -20.031   8.316  0.00  0.00    +0.005 A 
ENDROOT
BRANCH   1   8
ATOM      7  C   LIG    1       29.950 -17.709   9.051  0.00  0.00    +0.024 C 
ATOM      8  C   LIG    1       30.326 -18.781   8.026  0.00  0.00    +0.124 C 
BRANCH   8   9
ATOM      9  C   LIG    1       31.374 -19.734   8.598  0.00  0.00    +0.312 C 
ATOM     10  O   LIG    1       32.147 -19.466   9.505  0.00  0.00    -0.250 OA
BRANCH   9  11
ATOM     11  O   LIG    1       31.419 -20.931   7.961  0.00  0.00    -0.480 OA
ATOM     12  H   LIG    1       32.305 -21.160   7.620  0.00  0.00    +0.295 HD
ENDBRANCH   9  11
ENDBRANCH   8   9
ENDBRANCH   1   8
BRANCH   4  13
ATOM     13  C   LIG    1       25.442 -21.206   5.879  0.00  0.00    +0.200 C 
ATOM     14  O   LIG    1       25.283 -22.420   6.020  0.00  0.00    -0.286 OA
BRANCH  13  15
ATOM     15  C   LIG    1       24.399 -20.366   5.299  0.00  0.00    +0.059 A 
ATOM     16  S   LIG    1       24.574 -19.562   3.795  0.00  0.00    -0.093 S 
ATOM     17  C   LIG    1       23.015 -18.866   3.901  0.00  0.00    +0.046 A 
ATOM     18  C   LIG    1       22.333 -19.302   5.014  0.00  0.00    +0.008 A 
ATOM     19  C   LIG    1       23.121 -20.190   5.802  0.00  0.00    +0.019 A 
ENDBRANCH  13  15
ENDBRANCH   4  13
TORSDOF 5
ENDMDL
MODEL 4
REMARK VINA RESULT:      -8.4      1.409      1.615
REMARK  Name = *****
REMARK                            x       y       z     vdW  Elec       q    Type
REMARK                         _______ _______ _______ _____ _____    ______ ____
ROOT
ATOM      1  C   LIG    1       24.943 -25.757   6.314  0.00  0.00    -0.034 A 
ATOM      2  C   LIG    1       23.645 -25.225   6.351  0.00  0.00    +0.005 A 
ATOM      3  C   LIG    1       23.427 -23.862   6.596  0.00  0.00    +0.012 A 
ATOM      4  C   LIG    1       24.503 -23.003   6.842  0.00  0.00    +0.023 A 
ATOM      5  C   LIG    1       25.804 -23.527   6.786  0.00  0.00    +0.012 A 
ATOM      6  C   LIG    1       26.023 -24.886   6.518  0.00  0.00    +0.005 A 
ENDROOT
BRANCH   1   8
ATOM      7  C   LIG    1       26.325 -27.421   5.034  0.00  0.00    +0.024 C 
ATOM      8  C   LIG    1       25.139 -27.234   5.984  0.00  0.00    +0.124 C 
BRANCH   8   9
ATOM      9  C   LIG    1       25.269 -28.150   7.200  0.00  0.00    +0.312 C 
ATOM     10  O   LIG    1       24.464 -29.010   7.521  0.00  0.00    -0.250 OA
BRANCH   9  11
ATOM     11  O   LIG    1       26.365 -27.889   7.956  0.00  0.00    -0.480 OA
ATOM     12  H   LIG    1       26.870 -27.109   7.657  0.00  0.00    +0.295 HD
ENDBRANCH   9  11
ENDBRANCH   8   9
ENDBRANCH   1   8
BRANCH   4  13
ATOM     13  C   LIG    1       24.335 -21.528   7.051  0.00  0.00    +0.200 C 
ATOM     14  O   LIG    1       24.590 -21.101   8.178  0.00  0.00    -0.286 OA
BRANCH  13  15
ATOM     15  C   LIG    1       23.950 -20.629   5.968  0.00  0.00    +0.059 A 
ATOM     16  S   LIG    1       24.957 -20.309   4.617  0.00  0.00    -0.093 S 
ATOM     17  C   LIG    1       23.815 -19.238   3.927  0.00  0.00    +0.046 A 
ATOM     18  C   LIG    1       22.651 -19.187   4.660  0.00  0.00    +0.008 A 
ATOM     19  C   LIG    1       22.719 -20.014   5.818  0.00  0.00    +0.019 A 
ENDBRANCH  13  15
ENDBRANCH   4  13
TORSDOF 5
ENDMDL
MODEL 5
REMARK VINA RESULT:      -8.2      4.560      6.706
REMARK  Name = *****
REMARK                            x       y       z     vdW  Elec       q    Type
REMARK                         _______ _______ _______ _____ _____    ______ ____
ROOT
ATOM      1  C   LIG    1       28.993 -19.786   7.575  0.00  0.00    -0.034 A 
ATOM      2  C   LIG    1       27.911 -20.268   8.327  0.00  0.00    +0.005 A 
ATOM      3  C   LIG    1       26.695 -20.607   7.716  0.00  0.00    +0.012 A 
ATOM      4  C   LIG    1       26.523 -20.441   6.338  0.00  0.00    +0.023 A 
ATOM      5  C   LIG    1       27.610 -19.977   5.578  0.00  0.00    +0.012 A 
ATOM      6  C   LIG    1       28.833 -19.662   6.188  0.00  0.00    +0.005 A 
ENDROOT
BRANCH   1   8
ATOM      7  C   LIG    1       31.416 -19.206   7.244  0.00  0.00    +0.024 C 
ATOM      8  C   LIG    1       30.317 -19.488   8.272  0.00  0.00    +0.124 C 
BRANCH   8   9
ATOM      9  C   LIG    1       30.254 -18.374   9.316  0.00  0.00    +0.312 C 
ATOM     10  O   LIG    1       29.963 -17.210   9.085  0.00  0.00    -0.250 OA
BRANCH   9  11
ATOM     11  O   LIG    1       30.611 -18.780  10.560  0.00  0.00    -0.480 OA
ATOM     12  H   LIG    1       30.886 -18.050  11.147  0.00  0.00    +0.295 HD
ENDBRANCH   9  11
ENDBRANCH   8   9
ENDBRANCH   1   8
BRANCH   4  13
ATOM     13  C   LIG    1       25.269 -20.840   5.621  0.00  0.00    +0.200 C 
ATOM     14  O   LIG    1       24.962 -20.167   4.636  0.00  0.00    -0.286 OA
BRANCH  13  15
ATOM     15  C   LIG    1       24.481 -22.000   6.024  0.00  0.00    +0.059 A 
ATOM     16  S   LIG    1       25.089 -23.603   5.988  0.00  0.00    -0.093 S 
ATOM     17  C   LIG    1       23.615 -24.254   6.562  0.00  0.00    +0.046 A 
ATOM     18  C   LIG    1       22.701 -23.270   6.861  0.00  0.00    +0.008 A 
ATOM     19  C   LIG    1       23.213 -21.970   6.580  0.00  0.00    +0.019 A 
ENDBRANCH  13  15
ENDBRANCH   4  13
TORSDOF 5
ENDMDL
MODEL 6
REMARK VINA RESULT:      -8.1      4.319      6.206
REMARK  Name = *****
REMARK                            x       y       z     vdW  Elec       q    Type
REMARK                         _______ _______ _______ _____ _____    ______ ____
ROOT
ATOM      1  C   LIG    1       24.794 -21.164   6.616  0.00  0.00    -0.034 A 
ATOM      2  C   LIG    1       25.551 -20.969   7.781  0.00  0.00    +0.005 A 
ATOM      3  C   LIG    1       26.839 -20.418   7.728  0.00  0.00    +0.012 A 
ATOM      4  C   LIG    1       27.415 -20.079   6.499  0.00  0.00    +0.023 A 
ATOM      5  C   LIG    1       26.655 -20.255   5.332  0.00  0.00    +0.012 A 
ATOM      6  C   LIG    1       25.358 -20.783   5.389  0.00  0.00    +0.005 A 
ENDROOT
BRANCH   1   8
ATOM      7  C   LIG    1       22.492 -21.144   5.609  0.00  0.00    +0.024 C 
ATOM      8  C   LIG    1       23.374 -21.709   6.725  0.00  0.00    +0.124 C 
BRANCH   8   9
ATOM      9  C   LIG    1       23.275 -23.233   6.775  0.00  0.00    +0.312 C 
ATOM     10  O   LIG    1       24.224 -23.996   6.872  0.00  0.00    -0.250 OA
BRANCH   9  11
ATOM     11  O   LIG    1       22.006 -23.695   6.644  0.00  0.00    -0.480 OA
ATOM     12  H   LIG    1       21.956 -24.617   6.327  0.00  0.00    +0.295 HD
ENDBRANCH   9  11
ENDBRANCH   8   9
ENDBRANCH   1   8
BRANCH   4  13
ATOM     13  C   LIG    1       28.763 -19.434   6.384  0.00  0.00    +0.200 C 
ATOM     14  O   LIG    1       28.963 -18.757   5.374  0.00  0.00    -0.286 OA
BRANCH  13  15
ATOM     15  C   LIG    1       29.769 -19.544   7.436  0.00  0.00    +0.059 A 
ATOM     16  S   LIG    1       30.341 -18.196   8.327  0.00  0.00    -0.093 S 
ATOM     17  C   LIG    1       31.409 -19.165   9.248  0.00  0.00    +0.046 A 
ATOM     18  C   LIG    1       31.275 -20.502   8.951  0.00  0.00    +0.008 A 
ATOM     19  C   LIG    1       30.307 -20.721   7.928  0.00  0.00    +0.019 A 
ENDBRANCH  13  15
ENDBRANCH   4  13
TORSDOF 5
ENDMDL
MODEL 7
REMARK VINA RESULT:      -7.9      2.560      7.060
REMARK  Name = *****
REMARK                            x       y       z     vdW  Elec       q    Type
REMARK                         _______ _______ _______ _____ _____    ______ ____
ROOT
ATOM      1  C   LIG    1       23.878 -22.887   6.759  0.00  0.00    -0.034 A 
ATOM      2  C   LIG    1       25.279 -22.920   6.832  0.00  0.00    +0.005 A 
ATOM      3  C   LIG    1       25.987 -24.117   6.657  0.00  0.00    +0.012 A 
ATOM      4  C   LIG    1       25.306 -25.319   6.436  0.00  0.00    +0.023 A 
ATOM      5  C   LIG    1       23.905 -25.288   6.344  0.00  0.00    +0.012 A 
ATOM      6  C   LIG    1       23.200 -24.085   6.495  0.00  0.00    +0.005 A 
ENDROOT
BRANCH   1   8
ATOM      7  C   LIG    1       23.948 -20.592   7.780  0.00  0.00    +0.024 C 
ATOM      8  C   LIG    1       23.151 -21.552   6.894  0.00  0.00    +0.124 C 
BRANCH   8   9
ATOM      9  C   LIG    1       22.782 -20.887   5.569  0.00  0.00    +0.312 C 
ATOM     10  O   LIG    1       23.328 -19.900   5.102  0.00  0.00    -0.250 OA
BRANCH   9  11
ATOM     11  O   LIG    1       21.724 -21.469   4.950  0.00  0.00    -0.480 OA
ATOM     12  H   LIG    1       20.935 -21.554   5.520  0.00  0.00    +0.295 HD
ENDBRANCH   9  11
ENDBRANCH   8   9
ENDBRANCH   1   8
BRANCH   4  13
ATOM     13  C   LIG    1       26.010 -26.618   6.184  0.00  0.00    +0.200 C 
ATOM     14  O   LIG    1       27.134 -26.544   5.685  0.00  0.00    -0.286 OA
BRANCH  13  15
ATOM     15  C   LIG    1       25.430 -27.902   6.563  0.00  0.00    +0.059 A 
ATOM     16  S   LIG    1       24.762 -28.998   5.426  0.00  0.00    -0.093 S 
ATOM     17  C   LIG    1       24.345 -30.123   6.645  0.00  0.00    +0.046 A 
ATOM     18  C   LIG    1       24.782 -29.721   7.886  0.00  0.00    +0.008 A 
ATOM     19  C   LIG    1       25.434 -28.455   7.832  0.00  0.00    +0.019 A 
ENDBRANCH  13  15
ENDBRANCH   4  13
TORSDOF 5
ENDMDL
MODEL 8
REMARK VINA RESULT:      -7.9      1.514      2.240
REMARK  Name = *****
REMARK                            x       y       z     vdW  Elec       q    Type
REMARK                         _______ _______ _______ _____ _____    ______ ____
ROOT
ATOM      1  C   LIG    1       25.134 -25.949   6.530  0.00  0.00    -0.034 A 
ATOM      2  C   LIG    1       26.061 -24.950   6.865  0.00  0.00    +0.005 A 
ATOM      3  C   LIG    1       25.682 -23.602   6.936  0.00  0.00    +0.012 A 
ATOM      4  C   LIG    1       24.370 -23.217   6.642  0.00  0.00    +0.023 A 
ATOM      5  C   LIG    1       23.434 -24.215   6.326  0.00  0.00    +0.012 A 
ATOM      6  C   LIG    1       23.809 -25.565   6.278  0.00  0.00    +0.005 A 
ENDROOT
BRANCH   1   8
ATOM      7  C   LIG    1       26.186 -27.794   7.873  0.00  0.00    +0.024 C 
ATOM      8  C   LIG    1       25.575 -27.410   6.524  0.00  0.00    +0.124 C 
BRANCH   8   9
ATOM      9  C   LIG    1       24.487 -28.404   6.118  0.00  0.00    +0.312 C 
ATOM     10  O   LIG    1       23.770 -29.015   6.894  0.00  0.00    -0.250 OA
BRANCH   9  11
ATOM     11  O   LIG    1       24.413 -28.604   4.778  0.00  0.00    -0.480 OA
ATOM     12  H   LIG    1       24.629 -29.516   4.506  0.00  0.00    +0.295 HD
ENDBRANCH   9  11
ENDBRANCH   8   9
ENDBRANCH   1   8
BRANCH   4  13
ATOM     13  C   LIG    1       23.893 -21.801   6.759  0.00  0.00    +0.200 C 
ATOM     14  O   LIG    1       23.475 -21.452   7.864  0.00  0.00    -0.286 OA
BRANCH  13  15
ATOM     15  C   LIG    1       23.973 -20.860   5.646  0.00  0.00    +0.059 A 
ATOM     16  S   LIG    1       22.670 -19.848   5.182  0.00  0.00    -0.093 S 
ATOM     17  C   LIG    1       23.568 -19.155   3.901  0.00  0.00    +0.046 A 
ATOM     18  C   LIG    1       24.864 -19.616   3.875  0.00  0.00    +0.008 A 
ATOM     19  C   LIG    1       25.105 -20.575   4.901  0.00  0.00    +0.019 A 
ENDBRANCH  13  15
ENDBRANCH   4  13
TORSDOF 5
ENDMDL
MODEL 9
REMARK VINA RESULT:      -7.9      4.439      5.993
REMARK  Name = *****
REMARK                            x       y       z     vdW  Elec       q    Type
REMARK                         _______ _______ _______ _____ _____    ______ ____
ROOT
ATOM      1  C   LIG    1       29.420 -20.324   7.192  0.00  0.00    -0.034 A 
ATOM      2  C   LIG    1       28.752 -19.642   6.164  0.00  0.00    +0.005 A 
ATOM      3  C   LIG    1       27.458 -20.010   5.769  0.00  0.00    +0.012 A 
ATOM      4  C   LIG    1       26.812 -21.093   6.374  0.00  0.00    +0.023 A 
ATOM      5  C   LIG    1       27.469 -21.767   7.417  0.00  0.00    +0.012 A 
ATOM      6  C   LIG    1       28.753 -21.382   7.827  0.00  0.00    +0.005 A 
ENDROOT
BRANCH   1   8
ATOM      7  C   LIG    1       30.882 -18.324   7.610  0.00  0.00    +0.024 C 
ATOM      8  C   LIG    1       30.802 -19.852   7.632  0.00  0.00    +0.124 C 
BRANCH   8   9
ATOM      9  C   LIG    1       31.267 -20.399   8.981  0.00  0.00    +0.312 C 
ATOM     10  O   LIG    1       31.929 -21.413   9.137  0.00  0.00    -0.250 OA
BRANCH   9  11
ATOM     11  O   LIG    1       30.824 -19.673  10.038  0.00  0.00    -0.480 OA
ATOM     12  H   LIG    1       31.537 -19.217  10.526  0.00  0.00    +0.295 HD
ENDBRANCH   9  11
ENDBRANCH   8   9
ENDBRANCH   1   8
BRANCH   4  13
ATOM     13  C   LIG    1       25.409 -21.495   6.035  0.00  0.00    +0.200 C 
ATOM     14  O   LIG    1       25.046 -22.604   6.430  0.00  0.00    -0.286 OA
BRANCH  13  15
ATOM     15  C   LIG    1       24.495 -20.603   5.329  0.00  0.00    +0.059 A 
ATOM     16  S   LIG    1       22.945 -20.185   5.932  0.00  0.00    -0.093 S 
ATOM     17  C   LIG    1       22.602 -19.201   4.576  0.00  0.00    +0.046 A 
ATOM     18  C   LIG    1       23.674 -19.117   3.718  0.00  0.00    +0.008 A 
ATOM     19  C   LIG    1       24.775 -19.900   4.169  0.00  0.00    +0.019 A 
ENDBRANCH  13  15
ENDBRANCH   4  13
TORSDOF 5
ENDMDL
