MODEL 1
REMARK VINA RESULT:      -9.7      0.000      0.000
REMARK  Name = *****
REMARK                            x       y       z     vdW  Elec       q    Type
REMARK                         _______ _______ _______ _____ _____    ______ ____
ROOT
ATOM      1  C   LIG    1       25.066 -22.555   6.970  0.00  0.00    +0.037 A 
ATOM      2  C   LIG    1       24.934 -23.941   6.741  0.00  0.00    -0.026 A 
ATOM      3  C   LIG    1       23.633 -24.471   6.599  0.00  0.00    +0.005 A 
ATOM      4  C   LIG    1       22.500 -23.659   6.705  0.00  0.00    +0.000 A 
ATOM      5  C   LIG    1       22.643 -22.305   6.960  0.00  0.00    +0.002 A 
ATOM      6  C   LIG    1       23.915 -21.764   7.087  0.00  0.00    +0.023 A 
ENDROOT
BRANCH   1   8
ATOM      7  C   LIG    1       26.818 -20.898   6.355  0.00  0.00    +0.248 C 
ATOM      8  N   LIG    1       26.341 -21.971   7.104  0.00  0.00    -0.281 N 
ATOM      9  H   LIG    1       26.944 -22.385   7.797  0.00  0.00    +0.155 HD
ATOM     10  O   LIG    1       26.249 -20.306   5.456  0.00  0.00    -0.270 OA
BRANCH   7  14
ATOM     11  C   LIG    1       30.737 -19.503   7.334  0.00  0.00    +0.120 A 
ATOM     12  C   LIG    1       30.001 -18.903   6.310  0.00  0.00    +0.046 A 
ATOM     13  C   LIG    1       28.727 -19.369   5.996  0.00  0.00    +0.016 A 
ATOM     14  C   LIG    1       28.183 -20.442   6.708  0.00  0.00    +0.037 A 
ATOM     15  C   LIG    1       28.937 -21.081   7.695  0.00  0.00    +0.016 A 
ATOM     16  C   LIG    1       30.214 -20.612   8.002  0.00  0.00    +0.046 A 
BRANCH  11  18
ATOM     17  C   LIG    1       31.976 -18.066   8.719  0.00  0.00    +0.277 C 
ATOM     18  O   LIG    1       31.981 -19.089   7.724  0.00  0.00    -0.495 OA
ENDBRANCH  11  18
ENDBRANCH   7  14
ENDBRANCH   1   8
BRANCH   2  19
ATOM     19  C   LIG    1       26.111 -24.889   6.570  0.00  0.00    +0.038 C 
BRANCH  19  20
ATOM     20  C   LIG    1       25.789 -26.147   5.744  0.00  0.00    +0.023 C 
BRANCH  20  21
ATOM     21  C   LIG    1       25.898 -27.494   6.525  0.00  0.00    +0.057 C 
ATOM     22  N   LIG    1       24.660 -28.318   6.478  0.00  0.00    -0.302 NA
ATOM     23  C   LIG    1       24.303 -28.706   5.108  0.00  0.00    +0.105 C 
ATOM     24  C   LIG    1       24.789 -29.548   7.288  0.00  0.00    +0.084 C 
ATOM     25  C   LIG    1       25.112 -29.235   8.743  0.00  0.00    +0.015 C 
ATOM     26  C   LIG    1       26.421 -28.470   8.834  0.00  0.00    +0.003 C 
ATOM     27  C   LIG    1       26.334 -27.211   7.983  0.00  0.00    +0.019 C 
ENDBRANCH  20  21
ENDBRANCH  19  20
ENDBRANCH   2  19
TORSDOF 6
ENDMDL
MODEL 2
REMARK VINA RESULT:      -9.2      2.704      7.650
REMARK  Name = *****
REMARK                            x       y       z     vdW  Elec       q    Type
REMARK                         _______ _______ _______ _____ _____    ______ ____
ROOT
ATOM      1  C   LIG    1       23.521 -20.981   4.778  0.00  0.00    +0.037 A 
ATOM      2  C   LIG    1       24.445 -19.947   4.517  0.00  0.00    -0.026 A 
ATOM      3  C   LIG    1       23.940 -18.658   4.240  0.00  0.00    +0.005 A 
ATOM      4  C   LIG    1       22.566 -18.407   4.199  0.00  0.00    +0.000 A 
ATOM      5  C   LIG    1       21.669 -19.438   4.427  0.00  0.00    +0.002 A 
ATOM      6  C   LIG    1       22.147 -20.708   4.717  0.00  0.00    +0.023 A 
ENDROOT
BRANCH   1   8
ATOM      7  C   LIG    1       24.100 -22.819   6.354  0.00  0.00    +0.248 C 
ATOM      8  N   LIG    1       23.970 -22.283   5.075  0.00  0.00    -0.281 N 
ATOM      9  H   LIG    1       24.223 -22.853   4.283  0.00  0.00    +0.155 HD
ATOM     10  O   LIG    1       23.882 -22.267   7.417  0.00  0.00    -0.270 OA
BRANCH   7  14
ATOM     11  C   LIG    1       25.365 -26.899   6.439  0.00  0.00    +0.120 A 
ATOM     12  C   LIG    1       24.064 -26.563   6.061  0.00  0.00    +0.046 A 
ATOM     13  C   LIG    1       23.660 -25.231   6.041  0.00  0.00    +0.016 A 
ATOM     14  C   LIG    1       24.561 -24.225   6.403  0.00  0.00    +0.037 A 
ATOM     15  C   LIG    1       25.846 -24.560   6.836  0.00  0.00    +0.016 A 
ATOM     16  C   LIG    1       26.244 -25.897   6.857  0.00  0.00    +0.046 A 
BRANCH  11  18
ATOM     17  C   LIG    1       25.271 -29.040   5.478  0.00  0.00    +0.277 C 
ATOM     18  O   LIG    1       25.849 -28.179   6.458  0.00  0.00    -0.495 OA
ENDBRANCH  11  18
ENDBRANCH   7  14
ENDBRANCH   1   8
BRANCH   2  19
ATOM     19  C   LIG    1       25.955 -20.122   4.582  0.00  0.00    +0.038 C 
BRANCH  19  20
ATOM     20  C   LIG    1       26.505 -20.293   6.010  0.00  0.00    +0.023 C 
BRANCH  20  21
ATOM     21  C   LIG    1       28.059 -20.205   6.132  0.00  0.00    +0.057 C 
ATOM     22  N   LIG    1       28.562 -20.362   7.523  0.00  0.00    -0.302 NA
ATOM     23  C   LIG    1       28.213 -21.668   8.095  0.00  0.00    +0.105 C 
ATOM     24  C   LIG    1       30.029 -20.202   7.597  0.00  0.00    +0.084 C 
ATOM     25  C   LIG    1       30.478 -18.847   7.066  0.00  0.00    +0.015 C 
ATOM     26  C   LIG    1       30.057 -18.690   5.615  0.00  0.00    +0.003 C 
ATOM     27  C   LIG    1       28.552 -18.882   5.498  0.00  0.00    +0.019 C 
ENDBRANCH  20  21
ENDBRANCH  19  20
ENDBRANCH   2  19
TORSDOF 6
ENDMDL
MODEL 3
REMARK VINA RESULT:      -9.2      2.743      8.233
REMARK  Name = *****
REMARK                            x       y       z     vdW  Elec       q    Type
REMARK                         _______ _______ _______ _____ _____    ______ ____
ROOT
ATOM      1  C   LIG    1       24.166 -23.101   6.609  0.00  0.00    +0.037 A 
ATOM      2  C   LIG    1       25.250 -22.214   6.777  0.00  0.00    -0.026 A 
ATOM      3  C   LIG    1       25.010 -20.832   6.617  0.00  0.00    +0.005 A 
ATOM      4  C   LIG    1       23.744 -20.347   6.279  0.00  0.00    +0.000 A 
ATOM      5  C   LIG    1       22.695 -21.230   6.087  0.00  0.00    +0.002 A 
ATOM      6  C   LIG    1       22.909 -22.592   6.255  0.00  0.00    +0.023 A 
ENDROOT
BRANCH   1   8
ATOM      7  C   LIG    1       24.754 -25.371   5.775  0.00  0.00    +0.248 C 
ATOM      8  N   LIG    1       24.345 -24.489   6.771  0.00  0.00    -0.281 N 
ATOM      9  H   LIG    1       24.144 -24.854   7.689  0.00  0.00    +0.155 HD
ATOM     10  O   LIG    1       24.997 -25.116   4.609  0.00  0.00    -0.270 OA
BRANCH   7  14
ATOM     11  C   LIG    1       25.205 -29.411   7.092  0.00  0.00    +0.120 A 
ATOM     12  C   LIG    1       25.900 -28.374   7.718  0.00  0.00    +0.046 A 
ATOM     13  C   LIG    1       25.749 -27.063   7.278  0.00  0.00    +0.016 A 
ATOM     14  C   LIG    1       24.900 -26.781   6.203  0.00  0.00    +0.037 A 
ATOM     15  C   LIG    1       24.247 -27.821   5.538  0.00  0.00    +0.016 A 
ATOM     16  C   LIG    1       24.404 -29.134   5.981  0.00  0.00    +0.046 A 
BRANCH  11  18
ATOM     17  C   LIG    1       25.648 -31.623   6.439  0.00  0.00    +0.277 C 
ATOM     18  O   LIG    1       25.274 -30.721   7.479  0.00  0.00    -0.495 OA
ENDBRANCH  11  18
ENDBRANCH   7  14
ENDBRANCH   1   8
BRANCH   2  19
ATOM     19  C   LIG    1       26.649 -22.652   7.186  0.00  0.00    +0.038 C 
BRANCH  19  20
ATOM     20  C   LIG    1       27.415 -21.607   8.018  0.00  0.00    +0.023 C 
BRANCH  20  21
ATOM     21  C   LIG    1       28.631 -20.950   7.292  0.00  0.00    +0.057 C 
ATOM     22  N   LIG    1       29.741 -20.568   8.206  0.00  0.00    -0.302 NA
ATOM     23  C   LIG    1       30.304 -21.727   8.909  0.00  0.00    +0.105 C 
ATOM     24  C   LIG    1       30.836 -19.889   7.483  0.00  0.00    +0.084 C 
ATOM     25  C   LIG    1       30.348 -18.640   6.761  0.00  0.00    +0.015 C 
ATOM     26  C   LIG    1       29.274 -19.007   5.752  0.00  0.00    +0.003 C 
ATOM     27  C   LIG    1       28.142 -19.740   6.460  0.00  0.00    +0.019 C 
ENDBRANCH  20  21
ENDBRANCH  19  20
ENDBRANCH   2  19
TORSDOF 6
ENDMDL
MODEL 4
REMARK VINA RESULT:      -9.1      2.271      5.621
REMARK  Name = *****
REMARK                            x       y       z     vdW  Elec       q    Type
REMARK                         _______ _______ _______ _____ _____    ______ ____
ROOT
ATOM      1  C   LIG    1       25.780 -23.621   6.663  0.00  0.00    +0.037 A 
ATOM      2  C   LIG    1       24.451 -23.175   6.818  0.00  0.00    -0.026 A 
ATOM      3  C   LIG    1       23.413 -24.125   6.700  0.00  0.00    +0.005 A 
ATOM      4  C   LIG    1       23.682 -25.466   6.414  0.00  0.00    +0.000 A 
ATOM      5  C   LIG    1       24.990 -25.885   6.235  0.00  0.00    +0.002 A 
ATOM      6  C   LIG    1       26.025 -24.968   6.363  0.00  0.00    +0.023 A 
ENDROOT
BRANCH   1   8
ATOM      7  C   LIG    1       27.198 -22.025   7.943  0.00  0.00    +0.248 C 
ATOM      8  N   LIG    1       26.857 -22.719   6.785  0.00  0.00    -0.281 N 
ATOM      9  H   LIG    1       27.404 -22.571   5.953  0.00  0.00    +0.155 HD
ATOM     10  O   LIG    1       26.630 -22.048   9.020  0.00  0.00    -0.270 OA
BRANCH   7  14
ATOM     11  C   LIG    1       30.595 -19.457   7.591  0.00  0.00    +0.120 A 
ATOM     12  C   LIG    1       29.383 -19.125   6.983  0.00  0.00    +0.046 A 
ATOM     13  C   LIG    1       28.285 -19.971   7.099  0.00  0.00    +0.016 A 
ATOM     14  C   LIG    1       28.394 -21.159   7.828  0.00  0.00    +0.037 A 
ATOM     15  C   LIG    1       29.620 -21.522   8.392  0.00  0.00    +0.016 A 
ATOM     16  C   LIG    1       30.718 -20.673   8.269  0.00  0.00    +0.046 A 
BRANCH  11  18
ATOM     17  C   LIG    1       31.887 -17.834   8.694  0.00  0.00    +0.277 C 
ATOM     18  O   LIG    1       31.713 -18.669   7.550  0.00  0.00    -0.495 OA
ENDBRANCH  11  18
ENDBRANCH   7  14
ENDBRANCH   1   8
BRANCH   2  19
ATOM     19  C   LIG    1       24.072 -21.745   7.171  0.00  0.00    +0.038 C 
BRANCH  19  20
ATOM     20  C   LIG    1       23.265 -21.022   6.076  0.00  0.00    +0.023 C 
BRANCH  20  21
ATOM     21  C   LIG    1       24.023 -19.864   5.355  0.00  0.00    +0.057 C 
ATOM     22  N   LIG    1       23.278 -19.280   4.207  0.00  0.00    -0.302 NA
ATOM     23  C   LIG    1       21.998 -18.691   4.620  0.00  0.00    +0.105 C 
ATOM     24  C   LIG    1       24.064 -18.238   3.515  0.00  0.00    +0.084 C 
ATOM     25  C   LIG    1       25.394 -18.778   3.007  0.00  0.00    +0.015 C 
ATOM     26  C   LIG    1       26.222 -19.302   4.168  0.00  0.00    +0.003 C 
ATOM     27  C   LIG    1       25.426 -20.356   4.924  0.00  0.00    +0.019 C 
ENDBRANCH  20  21
ENDBRANCH  19  20
ENDBRANCH   2  19
TORSDOF 6
ENDMDL
MODEL 5
REMARK VINA RESULT:      -8.9      2.793      7.489
REMARK  Name = *****
REMARK                            x       y       z     vdW  Elec       q    Type
REMARK                         _______ _______ _______ _____ _____    ______ ____
ROOT
ATOM      1  C   LIG    1       23.626 -21.064   4.779  0.00  0.00    +0.037 A 
ATOM      2  C   LIG    1       24.560 -20.107   4.329  0.00  0.00    -0.026 A 
ATOM      3  C   LIG    1       24.095 -18.802   4.058  0.00  0.00    +0.005 A 
ATOM      4  C   LIG    1       22.748 -18.463   4.205  0.00  0.00    +0.000 A 
ATOM      5  C   LIG    1       21.836 -19.420   4.618  0.00  0.00    +0.002 A 
ATOM      6  C   LIG    1       22.277 -20.705   4.905  0.00  0.00    +0.023 A 
ENDROOT
BRANCH   1   8
ATOM      7  C   LIG    1       24.025 -22.957   6.346  0.00  0.00    +0.248 C 
ATOM      8  N   LIG    1       24.038 -22.379   5.079  0.00  0.00    -0.281 N 
ATOM      9  H   LIG    1       24.375 -22.923   4.301  0.00  0.00    +0.155 HD
ATOM     10  O   LIG    1       23.694 -22.440   7.398  0.00  0.00    -0.270 OA
BRANCH   7  14
ATOM     11  C   LIG    1       25.388 -27.001   6.558  0.00  0.00    +0.120 A 
ATOM     12  C   LIG    1       26.213 -25.948   6.957  0.00  0.00    +0.046 A 
ATOM     13  C   LIG    1       25.761 -24.635   6.880  0.00  0.00    +0.016 A 
ATOM     14  C   LIG    1       24.476 -24.367   6.398  0.00  0.00    +0.037 A 
ATOM     15  C   LIG    1       23.668 -25.413   5.945  0.00  0.00    +0.016 A 
ATOM     16  C   LIG    1       24.128 -26.727   6.022  0.00  0.00    +0.046 A 
BRANCH  11  18
ATOM     17  C   LIG    1       24.720 -29.180   7.128  0.00  0.00    +0.277 C 
ATOM     18  O   LIG    1       25.744 -28.321   6.629  0.00  0.00    -0.495 OA
ENDBRANCH  11  18
ENDBRANCH   7  14
ENDBRANCH   1   8
BRANCH   2  19
ATOM     19  C   LIG    1       26.050 -20.378   4.182  0.00  0.00    +0.038 C 
BRANCH  19  20
ATOM     20  C   LIG    1       26.948 -19.296   4.808  0.00  0.00    +0.023 C 
BRANCH  20  21
ATOM     21  C   LIG    1       27.601 -19.688   6.170  0.00  0.00    +0.057 C 
ATOM     22  N   LIG    1       29.089 -19.698   6.143  0.00  0.00    -0.302 NA
ATOM     23  C   LIG    1       29.647 -18.378   5.825  0.00  0.00    +0.105 C 
ATOM     24  C   LIG    1       29.658 -20.142   7.432  0.00  0.00    +0.084 C 
ATOM     25  C   LIG    1       29.169 -21.532   7.817  0.00  0.00    +0.015 C 
ATOM     26  C   LIG    1       27.655 -21.536   7.943  0.00  0.00    +0.003 C 
ATOM     27  C   LIG    1       27.036 -21.050   6.640  0.00  0.00    +0.019 C 
ENDBRANCH  20  21
ENDBRANCH  19  20
ENDBRANCH   2  19
TORSDOF 6
ENDMDL
MODEL 6
REMARK VINA RESULT:      -8.8      0.709      1.567
REMARK  Name = *****
REMARK                            x       y       z     vdW  Elec       q    Type
REMARK                         _______ _______ _______ _____ _____    ______ ____
ROOT
ATOM      1  C   LIG    1       24.970 -22.105   6.751  0.00  0.00    +0.037 A 
ATOM      2  C   LIG    1       24.721 -23.477   6.965  0.00  0.00    -0.026 A 
ATOM      3  C   LIG    1       23.409 -23.956   6.757  0.00  0.00    +0.005 A 
ATOM      4  C   LIG    1       22.374 -23.100   6.373  0.00  0.00    +0.000 A 
ATOM      5  C   LIG    1       22.625 -21.749   6.195  0.00  0.00    +0.002 A 
ATOM      6  C   LIG    1       23.912 -21.263   6.380  0.00  0.00    +0.023 A 
ENDROOT
BRANCH   1   8
ATOM      7  C   LIG    1       26.867 -20.629   6.106  0.00  0.00    +0.248 C 
ATOM      8  N   LIG    1       26.264 -21.576   6.929  0.00  0.00    -0.281 N 
ATOM      9  H   LIG    1       26.781 -21.934   7.716  0.00  0.00    +0.155 HD
ATOM     10  O   LIG    1       26.412 -20.121   5.097  0.00  0.00    -0.270 OA
BRANCH   7  14
ATOM     11  C   LIG    1       30.767 -19.327   7.271  0.00  0.00    +0.120 A 
ATOM     12  C   LIG    1       30.091 -18.705   6.220  0.00  0.00    +0.046 A 
ATOM     13  C   LIG    1       28.823 -19.139   5.846  0.00  0.00    +0.016 A 
ATOM     14  C   LIG    1       28.224 -20.206   6.523  0.00  0.00    +0.037 A 
ATOM     15  C   LIG    1       28.919 -20.868   7.538  0.00  0.00    +0.016 A 
ATOM     16  C   LIG    1       30.191 -20.430   7.907  0.00  0.00    +0.046 A 
BRANCH  11  18
ATOM     17  C   LIG    1       31.971 -17.970   8.762  0.00  0.00    +0.277 C 
ATOM     18  O   LIG    1       32.002 -18.944   7.720  0.00  0.00    -0.495 OA
ENDBRANCH  11  18
ENDBRANCH   7  14
ENDBRANCH   1   8
BRANCH   2  19
ATOM     19  C   LIG    1       25.796 -24.486   7.343  0.00  0.00    +0.038 C 
BRANCH  19  20
ATOM     20  C   LIG    1       26.000 -25.604   6.303  0.00  0.00    +0.023 C 
BRANCH  20  21
ATOM     21  C   LIG    1       25.187 -26.909   6.573  0.00  0.00    +0.057 C 
ATOM     22  N   LIG    1       25.977 -27.983   7.232  0.00  0.00    -0.302 NA
ATOM     23  C   LIG    1       26.479 -27.574   8.550  0.00  0.00    +0.105 C 
ATOM     24  C   LIG    1       25.186 -29.220   7.402  0.00  0.00    +0.084 C 
ATOM     25  C   LIG    1       24.664 -29.745   6.071  0.00  0.00    +0.015 C 
ATOM     26  C   LIG    1       23.777 -28.703   5.411  0.00  0.00    +0.003 C 
ATOM     27  C   LIG    1       24.553 -27.404   5.250  0.00  0.00    +0.019 C 
ENDBRANCH  20  21
ENDBRANCH  19  20
ENDBRANCH   2  19
TORSDOF 6
ENDMDL
MODEL 7
REMARK VINA RESULT:      -8.7      2.633      7.941
REMARK  Name = *****
REMARK                            x       y       z     vdW  Elec       q    Type
REMARK                         _______ _______ _______ _____ _____    ______ ____
ROOT
ATOM      1  C   LIG    1       23.878 -22.914   6.660  0.00  0.00    +0.037 A 
ATOM      2  C   LIG    1       24.743 -21.934   7.190  0.00  0.00    -0.026 A 
ATOM      3  C   LIG    1       24.408 -20.576   6.997  0.00  0.00    +0.005 A 
ATOM      4  C   LIG    1       23.267 -20.202   6.283  0.00  0.00    +0.000 A 
ATOM      5  C   LIG    1       22.441 -21.174   5.742  0.00  0.00    +0.002 A 
ATOM      6  C   LIG    1       22.747 -22.514   5.935  0.00  0.00    +0.023 A 
ENDROOT
BRANCH   1   8
ATOM      7  C   LIG    1       24.736 -25.118   5.882  0.00  0.00    +0.248 C 
ATOM      8  N   LIG    1       24.156 -24.285   6.835  0.00  0.00    -0.281 N 
ATOM      9  H   LIG    1       23.896 -24.676   7.726  0.00  0.00    +0.155 HD
ATOM     10  O   LIG    1       25.073 -24.830   4.747  0.00  0.00    -0.270 OA
BRANCH   7  14
ATOM     11  C   LIG    1       25.411 -29.120   7.217  0.00  0.00    +0.120 A 
ATOM     12  C   LIG    1       26.162 -28.061   7.729  0.00  0.00    +0.046 A 
ATOM     13  C   LIG    1       25.937 -26.761   7.284  0.00  0.00    +0.016 A 
ATOM     14  C   LIG    1       24.956 -26.516   6.318  0.00  0.00    +0.037 A 
ATOM     15  C   LIG    1       24.241 -27.579   5.763  0.00  0.00    +0.016 A 
ATOM     16  C   LIG    1       24.473 -28.879   6.210  0.00  0.00    +0.046 A 
BRANCH  11  18
ATOM     17  C   LIG    1       24.531 -31.296   7.138  0.00  0.00    +0.277 C 
ATOM     18  O   LIG    1       25.548 -30.420   7.621  0.00  0.00    -0.495 OA
ENDBRANCH  11  18
ENDBRANCH   7  14
ENDBRANCH   1   8
BRANCH   2  19
ATOM     19  C   LIG    1       25.982 -22.252   8.014  0.00  0.00    +0.038 C 
BRANCH  19  20
ATOM     20  C   LIG    1       27.292 -22.249   7.205  0.00  0.00    +0.023 C 
BRANCH  20  21
ATOM     21  C   LIG    1       28.129 -20.937   7.312  0.00  0.00    +0.057 C 
ATOM     22  N   LIG    1       28.393 -20.284   6.001  0.00  0.00    -0.302 NA
ATOM     23  C   LIG    1       27.155 -19.885   5.321  0.00  0.00    +0.105 C 
ATOM     24  C   LIG    1       29.246 -19.086   6.147  0.00  0.00    +0.084 C 
ATOM     25  C   LIG    1       30.580 -19.418   6.803  0.00  0.00    +0.015 C 
ATOM     26  C   LIG    1       30.349 -20.006   8.185  0.00  0.00    +0.003 C 
ATOM     27  C   LIG    1       29.445 -21.225   8.074  0.00  0.00    +0.019 C 
ENDBRANCH  20  21
ENDBRANCH  19  20
ENDBRANCH   2  19
TORSDOF 6
ENDMDL
MODEL 8
REMARK VINA RESULT:      -8.3      2.419      3.996
REMARK  Name = *****
REMARK                            x       y       z     vdW  Elec       q    Type
REMARK                         _______ _______ _______ _____ _____    ______ ____
ROOT
ATOM      1  C   LIG    1       25.203 -20.154   5.014  0.00  0.00    +0.037 A 
ATOM      2  C   LIG    1       23.969 -20.267   5.687  0.00  0.00    -0.026 A 
ATOM      3  C   LIG    1       22.784 -20.113   4.934  0.00  0.00    +0.005 A 
ATOM      4  C   LIG    1       22.823 -19.834   3.565  0.00  0.00    +0.000 A 
ATOM      5  C   LIG    1       24.042 -19.696   2.923  0.00  0.00    +0.002 A 
ATOM      6  C   LIG    1       25.217 -19.859   3.644  0.00  0.00    +0.023 A 
ENDROOT
BRANCH   1   8
ATOM      7  C   LIG    1       27.560 -19.540   5.530  0.00  0.00    +0.248 C 
ATOM      8  N   LIG    1       26.417 -20.313   5.714  0.00  0.00    -0.281 N 
ATOM      9  H   LIG    1       26.441 -21.060   6.389  0.00  0.00    +0.155 HD
ATOM     10  O   LIG    1       27.724 -18.630   4.736  0.00  0.00    -0.270 OA
BRANCH   7  14
ATOM     11  C   LIG    1       30.876 -20.442   8.069  0.00  0.00    +0.120 A 
ATOM     12  C   LIG    1       30.900 -19.323   7.234  0.00  0.00    +0.046 A 
ATOM     13  C   LIG    1       29.817 -19.041   6.408  0.00  0.00    +0.016 A 
ATOM     14  C   LIG    1       28.700 -19.882   6.411  0.00  0.00    +0.037 A 
ATOM     15  C   LIG    1       28.695 -21.033   7.203  0.00  0.00    +0.016 A 
ATOM     16  C   LIG    1       29.785 -21.312   8.026  0.00  0.00    +0.046 A 
BRANCH  11  18
ATOM     17  C   LIG    1       31.728 -22.046   9.558  0.00  0.00    +0.277 C 
ATOM     18  O   LIG    1       31.886 -20.774   8.931  0.00  0.00    -0.495 OA
ENDBRANCH  11  18
ENDBRANCH   7  14
ENDBRANCH   1   8
BRANCH   2  19
ATOM     19  C   LIG    1       23.835 -20.610   7.163  0.00  0.00    +0.038 C 
BRANCH  19  20
ATOM     20  C   LIG    1       23.022 -21.889   7.438  0.00  0.00    +0.023 C 
BRANCH  20  21
ATOM     21  C   LIG    1       23.830 -23.219   7.329  0.00  0.00    +0.057 C 
ATOM     22  N   LIG    1       25.302 -23.023   7.233  0.00  0.00    -0.302 NA
ATOM     23  C   LIG    1       25.850 -22.346   8.415  0.00  0.00    +0.105 C 
ATOM     24  C   LIG    1       26.017 -24.304   7.062  0.00  0.00    +0.084 C 
ATOM     25  C   LIG    1       25.543 -25.055   5.824  0.00  0.00    +0.015 C 
ATOM     26  C   LIG    1       24.058 -25.353   5.931  0.00  0.00    +0.003 C 
ATOM     27  C   LIG    1       23.293 -24.054   6.142  0.00  0.00    +0.019 C 
ENDBRANCH  20  21
ENDBRANCH  19  20
ENDBRANCH   2  19
TORSDOF 6
ENDMDL
MODEL 9
REMARK VINA RESULT:      -8.2      3.806      6.552
REMARK  Name = *****
REMARK                            x       y       z     vdW  Elec       q    Type
REMARK                         _______ _______ _______ _____ _____    ______ ____
ROOT
ATOM      1  C   LIG    1       25.151 -28.800   6.615  0.00  0.00    +0.037 A 
ATOM      2  C   LIG    1       25.453 -29.615   7.725  0.00  0.00    -0.026 A 
ATOM      3  C   LIG    1       25.781 -30.968   7.487  0.00  0.00    +0.005 A 
ATOM      4  C   LIG    1       25.786 -31.500   6.195  0.00  0.00    +0.000 A 
ATOM      5  C   LIG    1       25.458 -30.696   5.116  0.00  0.00    +0.002 A 
ATOM      6  C   LIG    1       25.148 -29.360   5.329  0.00  0.00    +0.023 A 
ENDROOT
BRANCH   1   8
ATOM      7  C   LIG    1       25.622 -26.366   6.390  0.00  0.00    +0.248 C 
ATOM      8  N   LIG    1       24.831 -27.439   6.792  0.00  0.00    -0.281 N 
ATOM      9  H   LIG    1       23.960 -27.249   7.261  0.00  0.00    +0.155 HD
ATOM     10  O   LIG    1       26.714 -26.407   5.852  0.00  0.00    -0.270 OA
BRANCH   7  14
ATOM     11  C   LIG    1       23.893 -22.539   7.178  0.00  0.00    +0.120 A 
ATOM     12  C   LIG    1       23.105 -23.598   6.723  0.00  0.00    +0.046 A 
ATOM     13  C   LIG    1       23.679 -24.839   6.465  0.00  0.00    +0.016 A 
ATOM     14  C   LIG    1       25.051 -25.027   6.660  0.00  0.00    +0.037 A 
ATOM     15  C   LIG    1       25.853 -23.955   7.061  0.00  0.00    +0.016 A 
ATOM     16  C   LIG    1       25.272 -22.713   7.315  0.00  0.00    +0.046 A 
BRANCH  11  18
ATOM     17  C   LIG    1       23.232 -20.441   6.354  0.00  0.00    +0.277 C 
ATOM     18  O   LIG    1       23.404 -21.298   7.482  0.00  0.00    -0.495 OA
ENDBRANCH  11  18
ENDBRANCH   7  14
ENDBRANCH   1   8
BRANCH   2  19
ATOM     19  C   LIG    1       25.513 -29.109   9.159  0.00  0.00    +0.038 C 
BRANCH  19  20
ATOM     20  C   LIG    1       25.470 -30.225  10.219  0.00  0.00    +0.023 C 
BRANCH  20  21
ATOM     21  C   LIG    1       24.346 -30.072  11.291  0.00  0.00    +0.057 C 
ATOM     22  N   LIG    1       22.972 -30.031  10.720  0.00  0.00    -0.302 NA
ATOM     23  C   LIG    1       22.636 -31.262   9.995  0.00  0.00    +0.105 C 
ATOM     24  C   LIG    1       21.950 -29.816  11.764  0.00  0.00    +0.084 C 
ATOM     25  C   LIG    1       22.195 -28.526  12.538  0.00  0.00    +0.015 C 
ATOM     26  C   LIG    1       23.556 -28.572  13.211  0.00  0.00    +0.003 C 
ATOM     27  C   LIG    1       24.631 -28.826  12.165  0.00  0.00    +0.019 C 
ENDBRANCH  20  21
ENDBRANCH  19  20
ENDBRANCH   2  19
TORSDOF 6
ENDMDL
