MODEL 1
REMARK VINA RESULT:      -7.2      0.000      0.000
REMARK  Name = *****
REMARK                            x       y       z     vdW  Elec       q    Type
REMARK                         _______ _______ _______ _____ _____    ______ ____
ROOT
ATOM      1  C   LIG    1       26.628 -20.351   8.195  0.00  0.00    +0.041 C 
ATOM      2  C   LIG    1       26.933 -20.994   6.833  0.00  0.00    +0.131 C 
ENDROOT
BRANCH   2   3
ATOM      3  C   LIG    1       25.854 -20.551   5.795  0.00  0.00    +0.326 C 
ATOM      4  O   LIG    1       24.672 -20.407   6.035  0.00  0.00    -0.249 OA
BRANCH   3   5
ATOM      5  O   LIG    1       26.354 -20.388   4.542  0.00  0.00    -0.479 OA
ATOM      6  H   LIG    1       25.958 -21.117   3.989  0.00  0.00    +0.295 HD
ENDBRANCH   3   5
ENDBRANCH   2   3
BRANCH   2   7
ATOM      7  N   LIG    1       26.946 -22.496   6.957  0.00  0.00    -0.243 NA
ATOM      8  H   LIG    1       26.959 -22.726   7.959  0.00  0.00    +0.141 HD
BRANCH   7   9
ATOM      9  N   LIG    1       25.857 -23.167   6.253  0.00  0.00    -0.270 NA
ATOM     10  H   LIG    1       25.705 -24.110   6.641  0.00  0.00    +0.137 HD
ATOM     11  H   LIG    1       24.946 -22.705   6.364  0.00  0.00    +0.137 HD
ENDBRANCH   7   9
ENDBRANCH   2   7
BRANCH   2  12
ATOM     12  C   LIG    1       28.304 -20.474   6.279  0.00  0.00    +0.070 C 
BRANCH  12  13
ATOM     13  C   LIG    1       29.331 -19.943   7.266  0.00  0.00    -0.041 A 
ATOM     14  C   LIG    1       30.202 -20.820   7.930  0.00  0.00    +0.052 A 
ATOM     15  C   LIG    1       31.166 -20.317   8.798  0.00  0.00    +0.159 A 
ATOM     16  C   LIG    1       31.286 -18.949   9.021  0.00  0.00    +0.158 A 
ATOM     17  C   LIG    1       30.446 -18.060   8.367  0.00  0.00    +0.049 A 
ATOM     18  C   LIG    1       29.471 -18.559   7.490  0.00  0.00    +0.007 A 
BRANCH  15  19
ATOM     19  O   LIG    1       32.012 -21.184   9.430  0.00  0.00    -0.503 OA
ATOM     20  H   LIG    1       31.863 -21.019  10.383  0.00  0.00    +0.292 HD
ENDBRANCH  15  19
BRANCH  16  21
ATOM     21  O   LIG    1       32.253 -18.527   9.892  0.00  0.00    -0.503 OA
ATOM     22  H   LIG    1       32.855 -19.272  10.063  0.00  0.00    +0.292 HD
ENDBRANCH  16  21
ENDBRANCH  12  13
ENDBRANCH   2  12
TORSDOF 8
ENDMDL
MODEL 2
REMARK VINA RESULT:      -6.9      2.110      5.905
REMARK  Name = *****
REMARK                            x       y       z     vdW  Elec       q    Type
REMARK                         _______ _______ _______ _____ _____    ______ ____
ROOT
ATOM      1  C   LIG    1       30.775 -19.339   6.588  0.00  0.00    +0.041 C 
ATOM      2  C   LIG    1       30.417 -19.883   7.979  0.00  0.00    +0.131 C 
ENDROOT
BRANCH   2   3
ATOM      3  C   LIG    1       31.264 -19.143   9.062  0.00  0.00    +0.326 C 
ATOM      4  O   LIG    1       32.348 -18.630   8.870  0.00  0.00    -0.249 OA
BRANCH   3   5
ATOM      5  O   LIG    1       30.694 -19.171  10.296  0.00  0.00    -0.479 OA
ATOM      6  H   LIG    1       29.709 -19.185  10.145  0.00  0.00    +0.295 HD
ENDBRANCH   3   5
ENDBRANCH   2   3
BRANCH   2   7
ATOM      7  N   LIG    1       30.677 -21.366   8.042  0.00  0.00    -0.243 NA
ATOM      8  H   LIG    1       30.706 -21.719   7.076  0.00  0.00    +0.141 HD
BRANCH   7   9
ATOM      9  N   LIG    1       31.871 -21.736   8.797  0.00  0.00    -0.270 NA
ATOM     10  H   LIG    1       32.654 -21.935   8.157  0.00  0.00    +0.137 HD
ATOM     11  H   LIG    1       32.230 -20.983   9.398  0.00  0.00    +0.137 HD
ENDBRANCH   7   9
ENDBRANCH   2   7
BRANCH   2  12
ATOM     12  C   LIG    1       28.917 -19.572   8.318  0.00  0.00    +0.070 C 
BRANCH  12  13
ATOM     13  C   LIG    1       27.833 -20.320   7.558  0.00  0.00    -0.041 A 
ATOM     14  C   LIG    1       27.478 -19.932   6.257  0.00  0.00    +0.052 A 
ATOM     15  C   LIG    1       26.516 -20.653   5.557  0.00  0.00    +0.159 A 
ATOM     16  C   LIG    1       25.895 -21.761   6.124  0.00  0.00    +0.158 A 
ATOM     17  C   LIG    1       26.238 -22.172   7.404  0.00  0.00    +0.049 A 
ATOM     18  C   LIG    1       27.208 -21.452   8.117  0.00  0.00    +0.007 A 
BRANCH  15  19
ATOM     19  O   LIG    1       26.186 -20.267   4.288  0.00  0.00    -0.503 OA
ATOM     20  H   LIG    1       26.789 -19.521   4.095  0.00  0.00    +0.292 HD
ENDBRANCH  15  19
BRANCH  16  21
ATOM     21  O   LIG    1       24.954 -22.417   5.378  0.00  0.00    -0.503 OA
ATOM     22  H   LIG    1       24.853 -21.946   4.532  0.00  0.00    +0.292 HD
ENDBRANCH  16  21
ENDBRANCH  12  13
ENDBRANCH   2  12
TORSDOF 8
ENDMDL
MODEL 3
REMARK VINA RESULT:      -6.9      2.135      5.829
REMARK  Name = *****
REMARK                            x       y       z     vdW  Elec       q    Type
REMARK                         _______ _______ _______ _____ _____    ______ ____
ROOT
ATOM      1  C   LIG    1       29.608 -18.573   8.437  0.00  0.00    +0.041 C 
ATOM      2  C   LIG    1       30.356 -19.813   7.925  0.00  0.00    +0.131 C 
ENDROOT
BRANCH   2   3
ATOM      3  C   LIG    1       31.505 -20.176   8.919  0.00  0.00    +0.326 C 
ATOM      4  O   LIG    1       31.889 -21.302   9.160  0.00  0.00    -0.249 OA
BRANCH   3   5
ATOM      5  O   LIG    1       32.019 -19.092   9.557  0.00  0.00    -0.479 OA
ATOM      6  H   LIG    1       32.899 -19.380   9.927  0.00  0.00    +0.295 HD
ENDBRANCH   3   5
ENDBRANCH   2   3
BRANCH   2   7
ATOM      7  N   LIG    1       30.923 -19.552   6.553  0.00  0.00    -0.243 NA
ATOM      8  H   LIG    1       30.841 -20.423   6.011  0.00  0.00    +0.141 HD
BRANCH   7   9
ATOM      9  N   LIG    1       30.321 -18.416   5.860  0.00  0.00    -0.270 NA
ATOM     10  H   LIG    1       31.022 -17.676   5.708  0.00  0.00    +0.137 HD
ATOM     11  H   LIG    1       29.988 -18.638   4.913  0.00  0.00    +0.137 HD
ENDBRANCH   7   9
ENDBRANCH   2   7
BRANCH   2  12
ATOM     12  C   LIG    1       29.400 -21.056   7.899  0.00  0.00    +0.070 C 
BRANCH  12  13
ATOM     13  C   LIG    1       27.964 -20.855   7.440  0.00  0.00    -0.041 A 
ATOM     14  C   LIG    1       27.679 -20.577   6.094  0.00  0.00    +0.052 A 
ATOM     15  C   LIG    1       26.358 -20.440   5.679  0.00  0.00    +0.159 A 
ATOM     16  C   LIG    1       25.306 -20.576   6.578  0.00  0.00    +0.158 A 
ATOM     17  C   LIG    1       25.561 -20.864   7.911  0.00  0.00    +0.049 A 
ATOM     18  C   LIG    1       26.890 -21.005   8.338  0.00  0.00    +0.007 A 
BRANCH  15  19
ATOM     19  O   LIG    1       26.096 -20.177   4.364  0.00  0.00    -0.503 OA
ATOM     20  H   LIG    1       26.696 -19.437   4.138  0.00  0.00    +0.292 HD
ENDBRANCH  15  19
BRANCH  16  21
ATOM     21  O   LIG    1       24.033 -20.422   6.099  0.00  0.00    -0.503 OA
ATOM     22  H   LIG    1       23.973 -19.551   5.669  0.00  0.00    +0.292 HD
ENDBRANCH  16  21
ENDBRANCH  12  13
ENDBRANCH   2  12
TORSDOF 8
ENDMDL
MODEL 4
REMARK VINA RESULT:      -6.9      2.673      5.881
REMARK  Name = *****
REMARK                            x       y       z     vdW  Elec       q    Type
REMARK                         _______ _______ _______ _____ _____    ______ ____
ROOT
ATOM      1  C   LIG    1       28.131 -19.860   5.717  0.00  0.00    +0.041 C 
ATOM      2  C   LIG    1       28.598 -20.188   7.142  0.00  0.00    +0.131 C 
ENDROOT
BRANCH   2   3
ATOM      3  C   LIG    1       29.428 -18.992   7.707  0.00  0.00    +0.326 C 
ATOM      4  O   LIG    1       30.135 -18.259   7.046  0.00  0.00    -0.249 OA
BRANCH   3   5
ATOM      5  O   LIG    1       29.334 -18.869   9.058  0.00  0.00    -0.479 OA
ATOM      6  H   LIG    1       28.887 -17.994   9.226  0.00  0.00    +0.295 HD
ENDBRANCH   3   5
ENDBRANCH   2   3
BRANCH   2   7
ATOM      7  N   LIG    1       29.433 -21.443   7.142  0.00  0.00    -0.243 NA
ATOM      8  H   LIG    1       29.677 -21.654   6.165  0.00  0.00    +0.141 HD
BRANCH   7   9
ATOM      9  N   LIG    1       30.612 -21.381   8.001  0.00  0.00    -0.270 NA
ATOM     10  H   LIG    1       30.667 -22.220   8.597  0.00  0.00    +0.137 HD
ATOM     11  H   LIG    1       31.501 -21.387   7.485  0.00  0.00    +0.137 HD
ENDBRANCH   7   9
ENDBRANCH   2   7
BRANCH   2  12
ATOM     12  C   LIG    1       27.365 -20.348   8.098  0.00  0.00    +0.070 C 
BRANCH  12  13
ATOM     13  C   LIG    1       26.209 -21.228   7.649  0.00  0.00    -0.041 A 
ATOM     14  C   LIG    1       26.403 -22.600   7.427  0.00  0.00    +0.052 A 
ATOM     15  C   LIG    1       25.327 -23.402   7.059  0.00  0.00    +0.159 A 
ATOM     16  C   LIG    1       24.052 -22.866   6.906  0.00  0.00    +0.158 A 
ATOM     17  C   LIG    1       23.833 -21.515   7.133  0.00  0.00    +0.049 A 
ATOM     18  C   LIG    1       24.911 -20.700   7.505  0.00  0.00    +0.007 A 
BRANCH  15  19
ATOM     19  O   LIG    1       25.530 -24.738   6.855  0.00  0.00    -0.503 OA
ATOM     20  H   LIG    1       24.665 -25.071   6.541  0.00  0.00    +0.292 HD
ENDBRANCH  15  19
BRANCH  16  21
ATOM     21  O   LIG    1       23.044 -23.715   6.537  0.00  0.00    -0.503 OA
ATOM     22  H   LIG    1       23.192 -24.572   6.972  0.00  0.00    +0.292 HD
ENDBRANCH  16  21
ENDBRANCH  12  13
ENDBRANCH   2  12
TORSDOF 8
ENDMDL
MODEL 5
REMARK VINA RESULT:      -6.9      2.377      3.559
REMARK  Name = *****
REMARK                            x       y       z     vdW  Elec       q    Type
REMARK                         _______ _______ _______ _____ _____    ______ ____
ROOT
ATOM      1  C   LIG    1       25.804 -23.804   6.906  0.00  0.00    +0.041 C 
ATOM      2  C   LIG    1       25.043 -22.516   6.560  0.00  0.00    +0.131 C 
ENDROOT
BRANCH   2   3
ATOM      3  C   LIG    1       23.551 -22.658   6.999  0.00  0.00    +0.326 C 
ATOM      4  O   LIG    1       22.950 -21.863   7.694  0.00  0.00    -0.249 OA
BRANCH   3   5
ATOM      5  O   LIG    1       22.977 -23.813   6.572  0.00  0.00    -0.479 OA
ATOM      6  H   LIG    1       22.073 -23.564   6.232  0.00  0.00    +0.295 HD
ENDBRANCH   3   5
ENDBRANCH   2   3
BRANCH   2   7
ATOM      7  N   LIG    1       25.122 -22.244   5.079  0.00  0.00    -0.243 NA
ATOM      8  H   LIG    1       25.423 -23.114   4.619  0.00  0.00    +0.141 HD
BRANCH   7   9
ATOM      9  N   LIG    1       23.892 -21.714   4.498  0.00  0.00    -0.270 NA
ATOM     10  H   LIG    1       23.069 -22.123   4.964  0.00  0.00    +0.137 HD
ATOM     11  H   LIG    1       23.774 -20.701   4.633  0.00  0.00    +0.137 HD
ENDBRANCH   7   9
ENDBRANCH   2   7
BRANCH   2  12
ATOM     12  C   LIG    1       25.619 -21.305   7.373  0.00  0.00    +0.070 C 
BRANCH  12  13
ATOM     13  C   LIG    1       27.064 -20.894   7.133  0.00  0.00    -0.041 A 
ATOM     14  C   LIG    1       27.381 -19.950   6.144  0.00  0.00    +0.052 A 
ATOM     15  C   LIG    1       28.701 -19.550   5.965  0.00  0.00    +0.159 A 
ATOM     16  C   LIG    1       29.722 -20.069   6.755  0.00  0.00    +0.158 A 
ATOM     17  C   LIG    1       29.432 -20.993   7.748  0.00  0.00    +0.049 A 
ATOM     18  C   LIG    1       28.104 -21.402   7.936  0.00  0.00    +0.007 A 
BRANCH  15  19
ATOM     19  O   LIG    1       28.993 -18.624   5.004  0.00  0.00    -0.503 OA
ATOM     20  H   LIG    1       28.193 -18.597   4.440  0.00  0.00    +0.292 HD
ENDBRANCH  15  19
BRANCH  16  21
ATOM     21  O   LIG    1       30.997 -19.633   6.518  0.00  0.00    -0.503 OA
ATOM     22  H   LIG    1       30.985 -18.660   6.487  0.00  0.00    +0.292 HD
ENDBRANCH  16  21
ENDBRANCH  12  13
ENDBRANCH   2  12
TORSDOF 8
ENDMDL
MODEL 6
REMARK VINA RESULT:      -6.9      1.818      2.203
REMARK  Name = *****
REMARK                            x       y       z     vdW  Elec       q    Type
REMARK                         _______ _______ _______ _____ _____    ______ ____
ROOT
ATOM      1  C   LIG    1       26.025 -20.468   5.845  0.00  0.00    +0.041 C 
ATOM      2  C   LIG    1       26.466 -21.229   7.104  0.00  0.00    +0.131 C 
ENDROOT
BRANCH   2   3
ATOM      3  C   LIG    1       25.582 -22.504   7.278  0.00  0.00    +0.326 C 
ATOM      4  O   LIG    1       26.003 -23.618   7.516  0.00  0.00    -0.249 OA
BRANCH   3   5
ATOM      5  O   LIG    1       24.259 -22.267   7.078  0.00  0.00    -0.479 OA
ATOM      6  H   LIG    1       24.207 -21.520   6.419  0.00  0.00    +0.295 HD
ENDBRANCH   3   5
ENDBRANCH   2   3
BRANCH   2   7
ATOM      7  N   LIG    1       26.345 -20.345   8.319  0.00  0.00    -0.243 NA
ATOM      8  H   LIG    1       25.832 -19.499   8.037  0.00  0.00    +0.141 HD
BRANCH   7   9
ATOM      9  N   LIG    1       25.738 -20.995   9.477  0.00  0.00    -0.270 NA
ATOM     10  H   LIG    1       26.467 -21.345  10.115  0.00  0.00    +0.137 HD
ATOM     11  H   LIG    1       25.181 -20.360  10.063  0.00  0.00    +0.137 HD
ENDBRANCH   7   9
ENDBRANCH   2   7
BRANCH   2  12
ATOM     12  C   LIG    1       27.939 -21.744   6.943  0.00  0.00    +0.070 C 
BRANCH  12  13
ATOM     13  C   LIG    1       29.079 -20.777   7.223  0.00  0.00    -0.041 A 
ATOM     14  C   LIG    1       30.064 -21.093   8.171  0.00  0.00    +0.052 A 
ATOM     15  C   LIG    1       31.125 -20.220   8.385  0.00  0.00    +0.159 A 
ATOM     16  C   LIG    1       31.232 -19.031   7.671  0.00  0.00    +0.158 A 
ATOM     17  C   LIG    1       30.279 -18.703   6.719  0.00  0.00    +0.049 A 
ATOM     18  C   LIG    1       29.206 -19.578   6.495  0.00  0.00    +0.007 A 
BRANCH  15  19
ATOM     19  O   LIG    1       32.081 -20.545   9.307  0.00  0.00    -0.503 OA
ATOM     20  H   LIG    1       31.891 -21.477   9.537  0.00  0.00    +0.292 HD
ENDBRANCH  15  19
BRANCH  16  21
ATOM     21  O   LIG    1       32.301 -18.219   7.940  0.00  0.00    -0.503 OA
ATOM     22  H   LIG    1       32.518 -17.724   7.131  0.00  0.00    +0.292 HD
ENDBRANCH  16  21
ENDBRANCH  12  13
ENDBRANCH   2  12
TORSDOF 8
ENDMDL
MODEL 7
REMARK VINA RESULT:      -6.9      2.378      3.102
REMARK  Name = *****
REMARK                            x       y       z     vdW  Elec       q    Type
REMARK                         _______ _______ _______ _____ _____    ______ ____
ROOT
ATOM      1  C   LIG    1       25.836 -23.633   6.966  0.00  0.00    +0.041 C 
ATOM      2  C   LIG    1       24.992 -22.423   6.539  0.00  0.00    +0.131 C 
ENDROOT
BRANCH   2   3
ATOM      3  C   LIG    1       23.519 -22.622   7.015  0.00  0.00    +0.326 C 
ATOM      4  O   LIG    1       22.905 -21.853   7.727  0.00  0.00    -0.249 OA
BRANCH   3   5
ATOM      5  O   LIG    1       22.978 -23.797   6.597  0.00  0.00    -0.479 OA
ATOM      6  H   LIG    1       22.326 -24.068   7.301  0.00  0.00    +0.295 HD
ENDBRANCH   3   5
ENDBRANCH   2   3
BRANCH   2   7
ATOM      7  N   LIG    1       25.035 -22.258   5.041  0.00  0.00    -0.243 NA
ATOM      8  H   LIG    1       25.322 -23.160   4.637  0.00  0.00    +0.141 HD
BRANCH   7   9
ATOM      9  N   LIG    1       23.794 -21.763   4.455  0.00  0.00    -0.270 NA
ATOM     10  H   LIG    1       23.964 -21.398   3.506  0.00  0.00    +0.137 HD
ATOM     11  H   LIG    1       23.083 -22.492   4.315  0.00  0.00    +0.137 HD
ENDBRANCH   7   9
ENDBRANCH   2   7
BRANCH   2  12
ATOM     12  C   LIG    1       25.503 -21.122   7.251  0.00  0.00    +0.070 C 
BRANCH  12  13
ATOM     13  C   LIG    1       26.971 -20.749   7.111  0.00  0.00    -0.041 A 
ATOM     14  C   LIG    1       27.919 -21.232   8.026  0.00  0.00    +0.052 A 
ATOM     15  C   LIG    1       29.264 -20.919   7.861  0.00  0.00    +0.159 A 
ATOM     16  C   LIG    1       29.693 -20.132   6.797  0.00  0.00    +0.158 A 
ATOM     17  C   LIG    1       28.777 -19.653   5.872  0.00  0.00    +0.049 A 
ATOM     18  C   LIG    1       27.418 -19.965   6.030  0.00  0.00    +0.007 A 
BRANCH  15  19
ATOM     19  O   LIG    1       30.177 -21.403   8.756  0.00  0.00    -0.503 OA
ATOM     20  H   LIG    1       31.045 -21.187   8.360  0.00  0.00    +0.292 HD
ENDBRANCH  15  19
BRANCH  16  21
ATOM     21  O   LIG    1       31.031 -19.860   6.702  0.00  0.00    -0.503 OA
ATOM     22  H   LIG    1       31.430 -19.982   7.581  0.00  0.00    +0.292 HD
ENDBRANCH  16  21
ENDBRANCH  12  13
ENDBRANCH   2  12
TORSDOF 8
ENDMDL
MODEL 8
REMARK VINA RESULT:      -6.9      3.062      5.995
REMARK  Name = *****
REMARK                            x       y       z     vdW  Elec       q    Type
REMARK                         _______ _______ _______ _____ _____    ______ ____
ROOT
ATOM      1  C   LIG    1       29.948 -17.501   8.467  0.00  0.00    +0.041 C 
ATOM      2  C   LIG    1       31.142 -18.446   8.272  0.00  0.00    +0.131 C 
ENDROOT
BRANCH   2   3
ATOM      3  C   LIG    1       31.312 -19.340   9.541  0.00  0.00    +0.326 C 
ATOM      4  O   LIG    1       30.781 -19.137  10.614  0.00  0.00    -0.249 OA
BRANCH   3   5
ATOM      5  O   LIG    1       32.180 -20.369   9.355  0.00  0.00    -0.479 OA
ATOM      6  H   LIG    1       32.444 -20.676  10.266  0.00  0.00    +0.295 HD
ENDBRANCH   3   5
ENDBRANCH   2   3
BRANCH   2   7
ATOM      7  N   LIG    1       32.401 -17.652   8.026  0.00  0.00    -0.243 NA
ATOM      8  H   LIG    1       32.452 -17.456   7.017  0.00  0.00    +0.141 HD
BRANCH   7   9
ATOM      9  N   LIG    1       32.512 -16.438   8.828  0.00  0.00    -0.270 NA
ATOM     10  H   LIG    1       33.207 -16.565   9.578  0.00  0.00    +0.137 HD
ATOM     11  H   LIG    1       32.862 -15.626   8.303  0.00  0.00    +0.137 HD
ENDBRANCH   7   9
ENDBRANCH   2   7
BRANCH   2  12
ATOM     12  C   LIG    1       30.871 -19.431   7.083  0.00  0.00    +0.070 C 
BRANCH  12  13
ATOM     13  C   LIG    1       29.469 -19.994   6.914  0.00  0.00    -0.041 A 
ATOM     14  C   LIG    1       28.670 -19.602   5.829  0.00  0.00    +0.052 A 
ATOM     15  C   LIG    1       27.406 -20.158   5.662  0.00  0.00    +0.159 A 
ATOM     16  C   LIG    1       26.914 -21.105   6.554  0.00  0.00    +0.158 A 
ATOM     17  C   LIG    1       27.690 -21.519   7.627  0.00  0.00    +0.049 A 
ATOM     18  C   LIG    1       28.966 -20.964   7.803  0.00  0.00    +0.007 A 
BRANCH  15  19
ATOM     19  O   LIG    1       26.643 -19.772   4.595  0.00  0.00    -0.503 OA
ATOM     20  H   LIG    1       25.730 -19.739   4.947  0.00  0.00    +0.292 HD
ENDBRANCH  15  19
BRANCH  16  21
ATOM     21  O   LIG    1       25.660 -21.603   6.329  0.00  0.00    -0.503 OA
ATOM     22  H   LIG    1       25.142 -20.926   5.861  0.00  0.00    +0.292 HD
ENDBRANCH  16  21
ENDBRANCH  12  13
ENDBRANCH   2  12
TORSDOF 8
ENDMDL
MODEL 9
REMARK VINA RESULT:      -6.8      2.690      5.645
REMARK  Name = *****
REMARK                            x       y       z     vdW  Elec       q    Type
REMARK                         _______ _______ _______ _____ _____    ______ ____
ROOT
ATOM      1  C   LIG    1       29.500 -18.849   8.617  0.00  0.00    +0.041 C 
ATOM      2  C   LIG    1       30.412 -19.837   7.875  0.00  0.00    +0.131 C 
ENDROOT
BRANCH   2   3
ATOM      3  C   LIG    1       31.011 -20.858   8.892  0.00  0.00    +0.326 C 
ATOM      4  O   LIG    1       30.439 -21.845   9.310  0.00  0.00    -0.249 OA
BRANCH   3   5
ATOM      5  O   LIG    1       32.249 -20.510   9.331  0.00  0.00    -0.479 OA
ATOM      6  H   LIG    1       32.856 -21.258   9.072  0.00  0.00    +0.295 HD
ENDBRANCH   3   5
ENDBRANCH   2   3
BRANCH   2   7
ATOM      7  N   LIG    1       31.520 -19.096   7.171  0.00  0.00    -0.243 NA
ATOM      8  H   LIG    1       31.170 -18.818   6.245  0.00  0.00    +0.141 HD
BRANCH   7   9
ATOM      9  N   LIG    1       32.055 -17.963   7.919  0.00  0.00    -0.270 NA
ATOM     10  H   LIG    1       32.870 -17.562   7.430  0.00  0.00    +0.137 HD
ATOM     11  H   LIG    1       31.402 -17.173   7.998  0.00  0.00    +0.137 HD
ENDBRANCH   7   9
ENDBRANCH   2   7
BRANCH   2  12
ATOM     12  C   LIG    1       29.580 -20.685   6.851  0.00  0.00    +0.070 C 
BRANCH  12  13
ATOM     13  C   LIG    1       28.068 -20.730   7.007  0.00  0.00    -0.041 A 
ATOM     14  C   LIG    1       27.488 -21.164   8.209  0.00  0.00    +0.052 A 
ATOM     15  C   LIG    1       26.105 -21.158   8.354  0.00  0.00    +0.159 A 
ATOM     16  C   LIG    1       25.277 -20.725   7.324  0.00  0.00    +0.158 A 
ATOM     17  C   LIG    1       25.826 -20.278   6.131  0.00  0.00    +0.049 A 
ATOM     18  C   LIG    1       27.220 -20.280   5.976  0.00  0.00    +0.007 A 
BRANCH  15  19
ATOM     19  O   LIG    1       25.556 -21.576   9.534  0.00  0.00    -0.503 OA
ATOM     20  H   LIG    1       26.253 -22.126   9.946  0.00  0.00    +0.292 HD
ENDBRANCH  15  19
BRANCH  16  21
ATOM     21  O   LIG    1       23.926 -20.752   7.537  0.00  0.00    -0.503 OA
ATOM     22  H   LIG    1       23.705 -21.585   7.988  0.00  0.00    +0.292 HD
ENDBRANCH  16  21
ENDBRANCH  12  13
ENDBRANCH   2  12
TORSDOF 8
ENDMDL
