MODEL 1
REMARK VINA RESULT:      -5.8      0.000      0.000
REMARK  Name = *****
REMARK                            x       y       z     vdW  Elec       q    Type
REMARK                         _______ _______ _______ _____ _____    ______ ____
ROOT
ATOM      1  C   LIG    1       31.543 -18.733   8.315  0.00  0.00    +0.149 C 
ATOM      2  N   LIG    1       30.432 -19.273   7.521  0.00  0.00    -0.349 N 
ATOM      3  C   LIG    1       29.845 -20.546   7.794  0.00  0.00    +0.063 C 
ATOM      4  C   LIG    1       30.164 -21.448   8.755  0.00  0.00    +0.183 C 
ATOM      5  C   LIG    1       28.730 -20.940   6.901  0.00  0.00    +0.027 C 
ATOM      6  C   LIG    1       28.301 -20.154   5.901  0.00  0.00    +0.003 C 
ATOM      7  C   LIG    1       28.929 -18.878   5.665  0.00  0.00    +0.018 C 
ATOM      8  C   LIG    1       29.937 -18.504   6.463  0.00  0.00    +0.086 C 
ENDROOT
BRANCH   4   9
ATOM      9  N   LIG    1       31.129 -21.306   9.663  0.00  0.00    -0.036 NA
ATOM     10  O   LIG    1       32.154 -21.951   9.416  0.00  0.00    -0.144 OA
ENDBRANCH   4   9
TORSDOF 1
ENDMDL
MODEL 2
REMARK VINA RESULT:      -5.7      5.493      6.634
REMARK  Name = *****
REMARK                            x       y       z     vdW  Elec       q    Type
REMARK                         _______ _______ _______ _____ _____    ______ ____
ROOT
ATOM      1  C   LIG    1       23.164 -21.646   7.407  0.00  0.00    +0.149 C 
ATOM      2  N   LIG    1       23.959 -22.845   7.113  0.00  0.00    -0.349 N 
ATOM      3  C   LIG    1       25.371 -22.897   7.323  0.00  0.00    +0.063 C 
ATOM      4  C   LIG    1       26.202 -21.934   7.793  0.00  0.00    +0.183 C 
ATOM      5  C   LIG    1       26.021 -24.183   6.979  0.00  0.00    +0.027 C 
ATOM      6  C   LIG    1       25.331 -25.230   6.500  0.00  0.00    +0.003 C 
ATOM      7  C   LIG    1       23.907 -25.127   6.302  0.00  0.00    +0.018 C 
ATOM      8  C   LIG    1       23.300 -23.972   6.609  0.00  0.00    +0.086 C 
ENDROOT
BRANCH   4   9
ATOM      9  N   LIG    1       25.838 -20.707   8.161  0.00  0.00    -0.036 NA
ATOM     10  O   LIG    1       25.911 -20.503   9.378  0.00  0.00    -0.144 OA
ENDBRANCH   4   9
TORSDOF 1
ENDMDL
MODEL 3
REMARK VINA RESULT:      -5.7      1.548      2.494
REMARK  Name = *****
REMARK                            x       y       z     vdW  Elec       q    Type
REMARK                         _______ _______ _______ _____ _____    ______ ____
ROOT
ATOM      1  C   LIG    1       30.570 -21.445   8.941  0.00  0.00    +0.149 C 
ATOM      2  N   LIG    1       29.989 -20.617   7.877  0.00  0.00    -0.349 N 
ATOM      3  C   LIG    1       30.463 -19.301   7.587  0.00  0.00    +0.063 C 
ATOM      4  C   LIG    1       31.458 -18.598   8.184  0.00  0.00    +0.183 C 
ATOM      5  C   LIG    1       29.771 -18.601   6.479  0.00  0.00    +0.027 C 
ATOM      6  C   LIG    1       28.764 -19.166   5.794  0.00  0.00    +0.003 C 
ATOM      7  C   LIG    1       28.320 -20.496   6.127  0.00  0.00    +0.018 C 
ATOM      8  C   LIG    1       28.935 -21.145   7.124  0.00  0.00    +0.086 C 
ENDROOT
BRANCH   4   9
ATOM      9  N   LIG    1       32.210 -19.027   9.197  0.00  0.00    -0.036 NA
ATOM     10  O   LIG    1       32.010 -18.431  10.261  0.00  0.00    -0.144 OA
ENDBRANCH   4   9
TORSDOF 1
ENDMDL
MODEL 4
REMARK VINA RESULT:      -5.7      4.772      5.613
REMARK  Name = *****
REMARK                            x       y       z     vdW  Elec       q    Type
REMARK                         _______ _______ _______ _____ _____    ______ ____
ROOT
ATOM      1  C   LIG    1       26.938 -20.576   6.094  0.00  0.00    +0.149 C 
ATOM      2  N   LIG    1       25.536 -20.411   5.689  0.00  0.00    -0.349 N 
ATOM      3  C   LIG    1       24.449 -20.695   6.570  0.00  0.00    +0.063 C 
ATOM      4  C   LIG    1       24.477 -21.142   7.850  0.00  0.00    +0.183 C 
ATOM      5  C   LIG    1       23.096 -20.471   6.007  0.00  0.00    +0.027 C 
ATOM      6  C   LIG    1       22.905 -20.032   4.753  0.00  0.00    +0.003 C 
ATOM      7  C   LIG    1       24.037 -19.762   3.902  0.00  0.00    +0.018 C 
ATOM      8  C   LIG    1       25.268 -19.957   4.394  0.00  0.00    +0.086 C 
ENDROOT
BRANCH   4   9
ATOM      9  N   LIG    1       25.576 -21.412   8.554  0.00  0.00    -0.036 NA
ATOM     10  O   LIG    1       25.850 -20.560   9.406  0.00  0.00    -0.144 OA
ENDBRANCH   4   9
TORSDOF 1
ENDMDL
MODEL 5
REMARK VINA RESULT:      -5.5      4.225      5.121
REMARK  Name = *****
REMARK                            x       y       z     vdW  Elec       q    Type
REMARK                         _______ _______ _______ _____ _____    ______ ____
ROOT
ATOM      1  C   LIG    1       27.094 -20.122   5.586  0.00  0.00    +0.149 C 
ATOM      2  N   LIG    1       25.663 -20.391   5.777  0.00  0.00    -0.349 N 
ATOM      3  C   LIG    1       25.096 -20.632   7.066  0.00  0.00    +0.063 C 
ATOM      4  C   LIG    1       25.705 -20.667   8.277  0.00  0.00    +0.183 C 
ATOM      5  C   LIG    1       23.635 -20.882   7.085  0.00  0.00    +0.027 C 
ATOM      6  C   LIG    1       22.894 -20.883   5.965  0.00  0.00    +0.003 C 
ATOM      7  C   LIG    1       23.514 -20.636   4.688  0.00  0.00    +0.018 C 
ATOM      8  C   LIG    1       24.834 -20.407   4.651  0.00  0.00    +0.086 C 
ENDROOT
BRANCH   4   9
ATOM      9  N   LIG    1       27.005 -20.473   8.497  0.00  0.00    -0.036 NA
ATOM     10  O   LIG    1       27.639 -21.510   8.724  0.00  0.00    -0.144 OA
ENDBRANCH   4   9
TORSDOF 1
ENDMDL
MODEL 6
REMARK VINA RESULT:      -5.3      4.680      5.740
REMARK  Name = *****
REMARK                            x       y       z     vdW  Elec       q    Type
REMARK                         _______ _______ _______ _____ _____    ______ ____
ROOT
ATOM      1  C   LIG    1       23.349 -21.614   7.387  0.00  0.00    +0.149 C 
ATOM      2  N   LIG    1       24.095 -21.028   6.265  0.00  0.00    -0.349 N 
ATOM      3  C   LIG    1       25.479 -20.689   6.361  0.00  0.00    +0.063 C 
ATOM      4  C   LIG    1       26.321 -20.819   7.416  0.00  0.00    +0.183 C 
ATOM      5  C   LIG    1       26.081 -20.111   5.137  0.00  0.00    +0.027 C 
ATOM      6  C   LIG    1       25.374 -19.918   4.012  0.00  0.00    +0.003 C 
ATOM      7  C   LIG    1       23.978 -20.275   3.967  0.00  0.00    +0.018 C 
ATOM      8  C   LIG    1       23.416 -20.800   5.063  0.00  0.00    +0.086 C 
ENDROOT
BRANCH   4   9
ATOM      9  N   LIG    1       25.998 -21.310   8.611  0.00  0.00    -0.036 NA
ATOM     10  O   LIG    1       25.953 -20.462   9.510  0.00  0.00    -0.144 OA
ENDBRANCH   4   9
TORSDOF 1
ENDMDL
MODEL 7
REMARK VINA RESULT:      -5.2      5.435      6.517
REMARK  Name = *****
REMARK                            x       y       z     vdW  Elec       q    Type
REMARK                         _______ _______ _______ _____ _____    ______ ____
ROOT
ATOM      1  C   LIG    1       25.434 -20.202   4.254  0.00  0.00    +0.149 C 
ATOM      2  N   LIG    1       25.692 -20.397   5.686  0.00  0.00    -0.349 N 
ATOM      3  C   LIG    1       24.646 -20.662   6.622  0.00  0.00    +0.063 C 
ATOM      4  C   LIG    1       23.312 -20.775   6.406  0.00  0.00    +0.183 C 
ATOM      5  C   LIG    1       25.076 -20.838   8.029  0.00  0.00    +0.027 C 
ATOM      6  C   LIG    1       26.363 -20.752   8.400  0.00  0.00    +0.003 C 
ATOM      7  C   LIG    1       27.382 -20.479   7.418  0.00  0.00    +0.018 C 
ATOM      8  C   LIG    1       27.013 -20.319   6.140  0.00  0.00    +0.086 C 
ENDROOT
BRANCH   4   9
ATOM      9  N   LIG    1       22.704 -20.654   5.226  0.00  0.00    -0.036 NA
ATOM     10  O   LIG    1       22.193 -19.545   5.033  0.00  0.00    -0.144 OA
ENDBRANCH   4   9
TORSDOF 1
ENDMDL
MODEL 8
REMARK VINA RESULT:      -5.2      6.227      7.255
REMARK  Name = *****
REMARK                            x       y       z     vdW  Elec       q    Type
REMARK                         _______ _______ _______ _____ _____    ______ ____
ROOT
ATOM      1  C   LIG    1       26.212 -22.019   7.172  0.00  0.00    +0.149 C 
ATOM      2  N   LIG    1       25.449 -23.236   6.864  0.00  0.00    -0.349 N 
ATOM      3  C   LIG    1       24.021 -23.264   6.867  0.00  0.00    +0.063 C 
ATOM      4  C   LIG    1       23.145 -22.264   7.135  0.00  0.00    +0.183 C 
ATOM      5  C   LIG    1       23.407 -24.570   6.530  0.00  0.00    +0.027 C 
ATOM      6  C   LIG    1       24.144 -25.655   6.242  0.00  0.00    +0.003 C 
ATOM      7  C   LIG    1       25.583 -25.576   6.256  0.00  0.00    +0.018 C 
ATOM      8  C   LIG    1       26.157 -24.403   6.557  0.00  0.00    +0.086 C 
ENDROOT
BRANCH   4   9
ATOM      9  N   LIG    1       23.471 -21.014   7.461  0.00  0.00    -0.036 NA
ATOM     10  O   LIG    1       23.173 -20.175   6.604  0.00  0.00    -0.144 OA
ENDBRANCH   4   9
TORSDOF 1
ENDMDL
MODEL 9
REMARK VINA RESULT:      -5.1      5.838      6.798
REMARK  Name = *****
REMARK                            x       y       z     vdW  Elec       q    Type
REMARK                         _______ _______ _______ _____ _____    ______ ____
ROOT
ATOM      1  C   LIG    1       25.874 -21.748   6.281  0.00  0.00    +0.149 C 
ATOM      2  N   LIG    1       25.064 -20.859   5.438  0.00  0.00    -0.349 N 
ATOM      3  C   LIG    1       23.637 -20.855   5.482  0.00  0.00    +0.063 C 
ATOM      4  C   LIG    1       22.801 -21.606   6.240  0.00  0.00    +0.183 C 
ATOM      5  C   LIG    1       22.972 -19.894   4.570  0.00  0.00    +0.027 C 
ATOM      6  C   LIG    1       23.665 -19.083   3.756  0.00  0.00    +0.003 C 
ATOM      7  C   LIG    1       25.106 -19.127   3.746  0.00  0.00    +0.018 C 
ATOM      8  C   LIG    1       25.725 -19.989   4.565  0.00  0.00    +0.086 C 
ENDROOT
BRANCH   4   9
ATOM      9  N   LIG    1       23.175 -22.530   7.125  0.00  0.00    -0.036 NA
ATOM     10  O   LIG    1       22.841 -23.682   6.824  0.00  0.00    -0.144 OA
ENDBRANCH   4   9
TORSDOF 1
ENDMDL
