MODEL 1
REMARK VINA RESULT:      -4.0      0.000      0.000
REMARK  Name = *****
REMARK                            x       y       z     vdW  Elec       q    Type
REMARK                         _______ _______ _______ _____ _____    ______ ____
ROOT
ATOM      1  C   LIG    1       25.827 -16.688   3.661  0.00  0.00    +0.080 A 
ATOM      2  C   LIG    1       27.215 -16.636   3.891  0.00  0.00    +0.132 A 
ATOM      3  C   LIG    1       27.861 -15.389   3.946  0.00  0.00    +0.048 A 
ATOM      4  C   LIG    1       27.147 -14.203   3.749  0.00  0.00    +0.032 A 
ATOM      5  C   LIG    1       25.778 -14.261   3.494  0.00  0.00    +0.106 A 
ATOM      6  C   LIG    1       25.120 -15.494   3.443  0.00  0.00    +0.045 A 
ENDROOT
BRANCH   1   9
ATOM      7  N   LIG    1       25.746 -19.128   3.496  0.00  0.00    -0.310 N 
ATOM      8  H   LIG    1       26.754 -19.051   3.413  0.00  0.00    +0.149 HD
ATOM      9  C   LIG    1       25.032 -17.958   3.605  0.00  0.00    +0.248 C 
ATOM     10  O   LIG    1       23.809 -17.915   3.696  0.00  0.00    -0.270 OA
BRANCH   7  11
ATOM     11  C   LIG    1       25.146 -20.459   3.432  0.00  0.00    +0.123 C 
BRANCH  11  13
ATOM     12  N   LIG    1       23.958 -20.646   5.684  0.00  0.00    -0.298 NA
ATOM     13  C   LIG    1       25.074 -21.119   4.827  0.00  0.00    +0.074 C 
ATOM     14  C   LIG    1       26.338 -20.823   5.655  0.00  0.00    +0.021 C 
ATOM     15  C   LIG    1       25.850 -20.465   7.048  0.00  0.00    +0.017 C 
ATOM     16  C   LIG    1       24.400 -20.898   7.062  0.00  0.00    +0.085 C 
BRANCH  12  18
ATOM     17  C   LIG    1       21.656 -20.475   4.683  0.00  0.00    +0.020 C 
ATOM     18  C   LIG    1       22.701 -21.349   5.376  0.00  0.00    +0.081 C 
ENDBRANCH  12  18
ENDBRANCH  11  13
ENDBRANCH   7  11
ENDBRANCH   1   9
BRANCH   5  19
ATOM     19  S   LIG    1       24.894 -12.751   3.247  0.00  0.00    +0.056 S 
ATOM     20  O   LIG    1       25.585 -11.984   2.240  0.00  0.00    -0.153 OA
ATOM     21  O   LIG    1       24.552 -12.208   4.553  0.00  0.00    -0.153 OA
BRANCH  19  22
ATOM     22  N   LIG    1       23.443 -13.231   2.558  0.00  0.00    -0.203 NA
ATOM     23  H   LIG    1       22.747 -13.423   3.282  0.00  0.00    +0.144 HD
ATOM     24  H   LIG    1       23.588 -13.989   1.895  0.00  0.00    +0.144 HD
ENDBRANCH  19  22
ENDBRANCH   5  19
BRANCH   2  25
ATOM     25  O   LIG    1       27.880 -17.818   4.106  0.00  0.00    -0.494 OA
ATOM     26  C   LIG    1       28.817 -17.817   5.180  0.00  0.00    +0.277 C 
ENDBRANCH   2  25
TORSDOF 7
ENDMDL
MODEL 2
REMARK VINA RESULT:      -3.3      3.394      6.760
REMARK  Name = *****
REMARK                            x       y       z     vdW  Elec       q    Type
REMARK                         _______ _______ _______ _____ _____    ______ ____
ROOT
ATOM      1  C   LIG    1       27.000 -19.413   5.358  0.00  0.00    +0.080 A 
ATOM      2  C   LIG    1       27.413 -20.260   6.403  0.00  0.00    +0.132 A 
ATOM      3  C   LIG    1       26.567 -21.300   6.825  0.00  0.00    +0.048 A 
ATOM      4  C   LIG    1       25.313 -21.487   6.236  0.00  0.00    +0.032 A 
ATOM      5  C   LIG    1       24.897 -20.628   5.220  0.00  0.00    +0.106 A 
ATOM      6  C   LIG    1       25.730 -19.592   4.785  0.00  0.00    +0.045 A 
ENDROOT
BRANCH   1   9
ATOM      7  N   LIG    1       27.146 -17.251   4.220  0.00  0.00    -0.310 N 
ATOM      8  H   LIG    1       26.138 -17.339   4.149  0.00  0.00    +0.149 HD
ATOM      9  C   LIG    1       27.828 -18.288   4.812  0.00  0.00    +0.248 C 
ATOM     10  O   LIG    1       29.048 -18.311   4.944  0.00  0.00    -0.270 OA
BRANCH   7  11
ATOM     11  C   LIG    1       27.781 -16.071   3.637  0.00  0.00    +0.123 C 
BRANCH  11  13
ATOM     12  N   LIG    1       26.705 -14.062   4.787  0.00  0.00    -0.298 NA
ATOM     13  C   LIG    1       26.801 -14.881   3.551  0.00  0.00    +0.074 C 
ATOM     14  C   LIG    1       25.358 -15.356   3.301  0.00  0.00    +0.021 C 
ATOM     15  C   LIG    1       24.482 -14.548   4.242  0.00  0.00    +0.017 C 
ATOM     16  C   LIG    1       25.381 -13.430   4.725  0.00  0.00    +0.085 C 
BRANCH  12  18
ATOM     17  C   LIG    1       28.691 -13.037   3.631  0.00  0.00    +0.020 C 
ATOM     18  C   LIG    1       27.785 -13.063   4.861  0.00  0.00    +0.081 C 
ENDBRANCH  12  18
ENDBRANCH  11  13
ENDBRANCH   7  11
ENDBRANCH   1   9
BRANCH   5  19
ATOM     19  S   LIG    1       23.308 -20.881   4.490  0.00  0.00    +0.056 S 
ATOM     20  O   LIG    1       22.476 -21.566   5.448  0.00  0.00    -0.153 OA
ATOM     21  O   LIG    1       23.505 -21.363   3.131  0.00  0.00    -0.153 OA
BRANCH  19  22
ATOM     22  N   LIG    1       22.674 -19.336   4.338  0.00  0.00    -0.203 NA
ATOM     23  H   LIG    1       21.806 -19.355   3.798  0.00  0.00    +0.144 HD
ATOM     24  H   LIG    1       23.377 -18.687   3.992  0.00  0.00    +0.144 HD
ENDBRANCH  19  22
ENDBRANCH   5  19
BRANCH   2  25
ATOM     25  O   LIG    1       28.661 -20.064   6.941  0.00  0.00    -0.494 OA
ATOM     26  C   LIG    1       29.474 -21.228   7.062  0.00  0.00    +0.277 C 
ENDBRANCH   2  25
TORSDOF 7
ENDMDL
MODEL 3
REMARK VINA RESULT:      -3.2      1.970      2.861
REMARK  Name = *****
REMARK                            x       y       z     vdW  Elec       q    Type
REMARK                         _______ _______ _______ _____ _____    ______ ____
ROOT
ATOM      1  C   LIG    1       25.253 -16.207   3.677  0.00  0.00    +0.080 A 
ATOM      2  C   LIG    1       24.008 -15.684   4.075  0.00  0.00    +0.132 A 
ATOM      3  C   LIG    1       23.897 -14.316   4.376  0.00  0.00    +0.048 A 
ATOM      4  C   LIG    1       25.012 -13.475   4.309  0.00  0.00    +0.032 A 
ATOM      5  C   LIG    1       26.248 -14.003   3.941  0.00  0.00    +0.106 A 
ATOM      6  C   LIG    1       26.373 -15.362   3.633  0.00  0.00    +0.045 A 
ENDROOT
BRANCH   1   9
ATOM      7  N   LIG    1       24.524 -18.543   3.714  0.00  0.00    -0.310 N 
ATOM      8  H   LIG    1       23.754 -18.184   4.269  0.00  0.00    +0.149 HD
ATOM      9  C   LIG    1       25.482 -17.643   3.311  0.00  0.00    +0.248 C 
ATOM     10  O   LIG    1       26.469 -17.952   2.651  0.00  0.00    -0.270 OA
BRANCH   7  11
ATOM     11  C   LIG    1       24.574 -19.978   3.447  0.00  0.00    +0.123 C 
BRANCH  11  13
ATOM     12  N   LIG    1       24.070 -20.497   5.895  0.00  0.00    -0.298 NA
ATOM     13  C   LIG    1       24.928 -20.782   4.718  0.00  0.00    +0.074 C 
ATOM     14  C   LIG    1       26.354 -20.465   5.204  0.00  0.00    +0.021 C 
ATOM     15  C   LIG    1       26.253 -20.295   6.710  0.00  0.00    +0.017 C 
ATOM     16  C   LIG    1       24.890 -20.850   7.061  0.00  0.00    +0.085 C 
BRANCH  12  18
ATOM     17  C   LIG    1       21.782 -20.721   4.872  0.00  0.00    +0.020 C 
ATOM     18  C   LIG    1       22.817 -21.270   5.854  0.00  0.00    +0.081 C 
ENDBRANCH  12  18
ENDBRANCH  11  13
ENDBRANCH   7  11
ENDBRANCH   1   9
BRANCH   5  19
ATOM     19  S   LIG    1       27.645 -12.924   3.864  0.00  0.00    +0.056 S 
ATOM     20  O   LIG    1       28.026 -12.584   5.214  0.00  0.00    -0.153 OA
ATOM     21  O   LIG    1       27.387 -11.920   2.843  0.00  0.00    -0.153 OA
BRANCH  19  22
ATOM     22  N   LIG    1       28.877 -13.886   3.258  0.00  0.00    -0.203 NA
ATOM     23  H   LIG    1       28.534 -14.830   3.067  0.00  0.00    +0.144 HD
ATOM     24  H   LIG    1       29.700 -13.843   3.855  0.00  0.00    +0.144 HD
ENDBRANCH  19  22
ENDBRANCH   5  19
BRANCH   2  25
ATOM     25  O   LIG    1       22.929 -16.533   4.104  0.00  0.00    -0.494 OA
ATOM     26  C   LIG    1       22.003 -16.324   5.168  0.00  0.00    +0.277 C 
ENDBRANCH   2  25
TORSDOF 7
ENDMDL
MODEL 4
REMARK VINA RESULT:      -2.7      1.355      1.687
REMARK  Name = *****
REMARK                            x       y       z     vdW  Elec       q    Type
REMARK                         _______ _______ _______ _____ _____    ______ ____
ROOT
ATOM      1  C   LIG    1       26.469 -16.873   3.617  0.00  0.00    +0.080 A 
ATOM      2  C   LIG    1       27.727 -16.494   4.122  0.00  0.00    +0.132 A 
ATOM      3  C   LIG    1       27.980 -15.140   4.401  0.00  0.00    +0.048 A 
ATOM      4  C   LIG    1       27.008 -14.164   4.160  0.00  0.00    +0.032 A 
ATOM      5  C   LIG    1       25.773 -14.542   3.634  0.00  0.00    +0.106 A 
ATOM      6  C   LIG    1       25.505 -15.886   3.356  0.00  0.00    +0.045 A 
ENDROOT
BRANCH   1   9
ATOM      7  N   LIG    1       26.145 -19.187   4.343  0.00  0.00    -0.310 N 
ATOM      8  H   LIG    1       26.494 -18.847   5.232  0.00  0.00    +0.149 HD
ATOM      9  C   LIG    1       26.081 -18.288   3.305  0.00  0.00    +0.248 C 
ATOM     10  O   LIG    1       25.694 -18.578   2.178  0.00  0.00    -0.270 OA
BRANCH   7  11
ATOM     11  C   LIG    1       25.804 -20.604   4.230  0.00  0.00    +0.123 C 
BRANCH  11  13
ATOM     12  N   LIG    1       23.557 -19.699   5.039  0.00  0.00    -0.298 NA
ATOM     13  C   LIG    1       24.401 -20.899   4.806  0.00  0.00    +0.074 C 
ATOM     14  C   LIG    1       24.490 -21.572   6.188  0.00  0.00    +0.021 C 
ATOM     15  C   LIG    1       23.460 -20.874   7.059  0.00  0.00    +0.017 C 
ATOM     16  C   LIG    1       22.604 -20.098   6.083  0.00  0.00    +0.085 C 
BRANCH  12  18
ATOM     17  C   LIG    1       21.917 -18.094   4.009  0.00  0.00    +0.020 C 
ATOM     18  C   LIG    1       22.873 -19.269   3.808  0.00  0.00    +0.081 C 
ENDBRANCH  12  18
ENDBRANCH  11  13
ENDBRANCH   7  11
ENDBRANCH   1   9
BRANCH   5  19
ATOM     19  S   LIG    1       24.558 -13.294   3.334  0.00  0.00    +0.056 S 
ATOM     20  O   LIG    1       23.260 -13.922   3.328  0.00  0.00    -0.153 OA
ATOM     21  O   LIG    1       25.032 -12.453   2.245  0.00  0.00    -0.153 OA
BRANCH  19  22
ATOM     22  N   LIG    1       24.607 -12.333   4.707  0.00  0.00    -0.203 NA
ATOM     23  H   LIG    1       25.065 -12.828   5.476  0.00  0.00    +0.144 HD
ATOM     24  H   LIG    1       23.684 -11.965   4.927  0.00  0.00    +0.144 HD
ENDBRANCH  19  22
ENDBRANCH   5  19
BRANCH   2  25
ATOM     25  O   LIG    1       28.648 -17.480   4.372  0.00  0.00    -0.494 OA
ATOM     26  C   LIG    1       28.944 -17.720   5.746  0.00  0.00    +0.277 C 
ENDBRANCH   2  25
TORSDOF 7
ENDMDL
MODEL 5
REMARK VINA RESULT:      -2.6      3.344      6.637
REMARK  Name = *****
REMARK                            x       y       z     vdW  Elec       q    Type
REMARK                         _______ _______ _______ _____ _____    ______ ____
ROOT
ATOM      1  C   LIG    1       27.039 -19.384   5.310  0.00  0.00    +0.080 A 
ATOM      2  C   LIG    1       27.414 -20.224   6.376  0.00  0.00    +0.132 A 
ATOM      3  C   LIG    1       26.540 -21.244   6.791  0.00  0.00    +0.048 A 
ATOM      4  C   LIG    1       25.297 -21.417   6.177  0.00  0.00    +0.032 A 
ATOM      5  C   LIG    1       24.920 -20.566   5.140  0.00  0.00    +0.106 A 
ATOM      6  C   LIG    1       25.780 -19.550   4.711  0.00  0.00    +0.045 A 
ENDROOT
BRANCH   1   9
ATOM      7  N   LIG    1       27.257 -17.285   4.071  0.00  0.00    -0.310 N 
ATOM      8  H   LIG    1       26.258 -17.388   3.928  0.00  0.00    +0.149 HD
ATOM      9  C   LIG    1       27.899 -18.281   4.769  0.00  0.00    +0.248 C 
ATOM     10  O   LIG    1       29.105 -18.284   4.994  0.00  0.00    -0.270 OA
BRANCH   7  11
ATOM     11  C   LIG    1       27.927 -16.132   3.475  0.00  0.00    +0.123 C 
BRANCH  11  13
ATOM     12  N   LIG    1       26.122 -14.357   3.141  0.00  0.00    -0.298 NA
ATOM     13  C   LIG    1       27.292 -14.802   3.940  0.00  0.00    +0.074 C 
ATOM     14  C   LIG    1       28.289 -13.635   3.832  0.00  0.00    +0.021 C 
ATOM     15  C   LIG    1       27.516 -12.480   3.220  0.00  0.00    +0.017 C 
ATOM     16  C   LIG    1       26.066 -12.900   3.323  0.00  0.00    +0.085 C 
BRANCH  12  18
ATOM     17  C   LIG    1       23.890 -14.067   4.264  0.00  0.00    +0.020 C 
ATOM     18  C   LIG    1       24.880 -15.012   3.585  0.00  0.00    +0.081 C 
ENDBRANCH  12  18
ENDBRANCH  11  13
ENDBRANCH   7  11
ENDBRANCH   1   9
BRANCH   5  19
ATOM     19  S   LIG    1       23.343 -20.800   4.377  0.00  0.00    +0.056 S 
ATOM     20  O   LIG    1       22.517 -21.567   5.278  0.00  0.00    -0.153 OA
ATOM     21  O   LIG    1       23.563 -21.184   2.992  0.00  0.00    -0.153 OA
BRANCH  19  22
ATOM     22  N   LIG    1       22.677 -19.263   4.326  0.00  0.00    -0.203 NA
ATOM     23  H   LIG    1       22.041 -19.119   5.114  0.00  0.00    +0.144 HD
ATOM     24  H   LIG    1       22.272 -19.072   3.412  0.00  0.00    +0.144 HD
ENDBRANCH  19  22
ENDBRANCH   5  19
BRANCH   2  25
ATOM     25  O   LIG    1       28.652 -20.043   6.938  0.00  0.00    -0.494 OA
ATOM     26  C   LIG    1       29.459 -21.213   7.055  0.00  0.00    +0.277 C 
ENDBRANCH   2  25
TORSDOF 7
ENDMDL
MODEL 6
REMARK VINA RESULT:      -1.8      3.225      7.073
REMARK  Name = *****
REMARK                            x       y       z     vdW  Elec       q    Type
REMARK                         _______ _______ _______ _____ _____    ______ ____
ROOT
ATOM      1  C   LIG    1       25.041 -19.468   4.721  0.00  0.00    +0.080 A 
ATOM      2  C   LIG    1       24.225 -20.474   5.271  0.00  0.00    +0.132 A 
ATOM      3  C   LIG    1       24.779 -21.393   6.180  0.00  0.00    +0.048 A 
ATOM      4  C   LIG    1       26.133 -21.334   6.523  0.00  0.00    +0.032 A 
ATOM      5  C   LIG    1       26.942 -20.353   5.954  0.00  0.00    +0.106 A 
ATOM      6  C   LIG    1       26.405 -19.428   5.053  0.00  0.00    +0.045 A 
ENDROOT
BRANCH   1   9
ATOM      7  N   LIG    1       25.174 -17.198   3.817  0.00  0.00    -0.310 N 
ATOM      8  H   LIG    1       25.883 -17.068   4.531  0.00  0.00    +0.149 HD
ATOM      9  C   LIG    1       24.554 -18.423   3.762  0.00  0.00    +0.248 C 
ATOM     10  O   LIG    1       23.670 -18.701   2.957  0.00  0.00    -0.270 OA
BRANCH   7  11
ATOM     11  C   LIG    1       24.838 -16.062   2.962  0.00  0.00    +0.123 C 
BRANCH  11  13
ATOM     12  N   LIG    1       25.513 -13.648   2.477  0.00  0.00    -0.298 NA
ATOM     13  C   LIG    1       25.491 -14.756   3.466  0.00  0.00    +0.074 C 
ATOM     14  C   LIG    1       26.972 -14.970   3.826  0.00  0.00    +0.021 C 
ATOM     15  C   LIG    1       27.720 -13.785   3.241  0.00  0.00    +0.017 C 
ATOM     16  C   LIG    1       26.634 -12.792   2.887  0.00  0.00    +0.085 C 
BRANCH  12  18
ATOM     17  C   LIG    1       24.073 -11.933   3.624  0.00  0.00    +0.020 C 
ATOM     18  C   LIG    1       24.239 -12.910   2.461  0.00  0.00    +0.081 C 
ENDBRANCH  12  18
ENDBRANCH  11  13
ENDBRANCH   7  11
ENDBRANCH   1   9
BRANCH   5  19
ATOM     19  S   LIG    1       28.652 -20.296   6.400  0.00  0.00    +0.056 S 
ATOM     20  O   LIG    1       29.006 -21.566   6.986  0.00  0.00    -0.153 OA
ATOM     21  O   LIG    1       28.905 -19.026   7.061  0.00  0.00    -0.153 OA
BRANCH  19  22
ATOM     22  N   LIG    1       29.458 -20.216   4.932  0.00  0.00    -0.203 NA
ATOM     23  H   LIG    1       29.132 -19.415   4.387  0.00  0.00    +0.144 HD
ATOM     24  H   LIG    1       29.416 -21.108   4.445  0.00  0.00    +0.144 HD
ENDBRANCH  19  22
ENDBRANCH   5  19
BRANCH   2  25
ATOM     25  O   LIG    1       22.895 -20.486   4.933  0.00  0.00    -0.494 OA
ATOM     26  C   LIG    1       22.130 -21.568   5.460  0.00  0.00    +0.277 C 
ENDBRANCH   2  25
TORSDOF 7
ENDMDL
MODEL 7
REMARK VINA RESULT:      -1.4      2.875      6.375
REMARK  Name = *****
REMARK                            x       y       z     vdW  Elec       q    Type
REMARK                         _______ _______ _______ _____ _____    ______ ____
ROOT
ATOM      1  C   LIG    1       26.844 -17.783   4.172  0.00  0.00    +0.080 A 
ATOM      2  C   LIG    1       27.643 -18.711   4.866  0.00  0.00    +0.132 A 
ATOM      3  C   LIG    1       27.109 -19.968   5.201  0.00  0.00    +0.048 A 
ATOM      4  C   LIG    1       25.790 -20.296   4.875  0.00  0.00    +0.032 A 
ATOM      5  C   LIG    1       24.995 -19.363   4.212  0.00  0.00    +0.106 A 
ATOM      6  C   LIG    1       25.513 -18.111   3.867  0.00  0.00    +0.045 A 
ENDROOT
BRANCH   1   9
ATOM      7  N   LIG    1       26.519 -15.750   2.849  0.00  0.00    -0.310 N 
ATOM      8  H   LIG    1       25.697 -16.233   2.503  0.00  0.00    +0.149 HD
ATOM      9  C   LIG    1       27.315 -16.425   3.744  0.00  0.00    +0.248 C 
ATOM     10  O   LIG    1       28.344 -15.959   4.223  0.00  0.00    -0.270 OA
BRANCH   7  11
ATOM     11  C   LIG    1       26.813 -14.419   2.322  0.00  0.00    +0.123 C 
BRANCH  11  13
ATOM     12  N   LIG    1       25.580 -13.497   4.359  0.00  0.00    -0.298 NA
ATOM     13  C   LIG    1       25.861 -13.353   2.908  0.00  0.00    +0.074 C 
ATOM     14  C   LIG    1       24.472 -13.415   2.246  0.00  0.00    +0.021 C 
ATOM     15  C   LIG    1       23.465 -13.302   3.378  0.00  0.00    +0.017 C 
ATOM     16  C   LIG    1       24.282 -12.840   4.564  0.00  0.00    +0.085 C 
BRANCH  12  18
ATOM     17  C   LIG    1       27.055 -13.730   6.383  0.00  0.00    +0.020 C 
ATOM     18  C   LIG    1       26.638 -12.885   5.180  0.00  0.00    +0.081 C 
ENDBRANCH  12  18
ENDBRANCH  11  13
ENDBRANCH   7  11
ENDBRANCH   1   9
BRANCH   5  19
ATOM     19  S   LIG    1       23.330 -19.797   3.810  0.00  0.00    +0.056 S 
ATOM     20  O   LIG    1       23.328 -21.144   3.293  0.00  0.00    -0.153 OA
ATOM     21  O   LIG    1       22.730 -18.680   3.098  0.00  0.00    -0.153 OA
BRANCH  19  22
ATOM     22  N   LIG    1       22.552 -19.864   5.293  0.00  0.00    -0.203 NA
ATOM     23  H   LIG    1       22.521 -20.825   5.641  0.00  0.00    +0.144 HD
ATOM     24  H   LIG    1       21.649 -19.397   5.252  0.00  0.00    +0.144 HD
ENDBRANCH  19  22
ENDBRANCH   5  19
BRANCH   2  25
ATOM     25  O   LIG    1       28.941 -18.365   5.147  0.00  0.00    -0.494 OA
ATOM     26  C   LIG    1       29.475 -18.889   6.361  0.00  0.00    +0.277 C 
ENDBRANCH   2  25
TORSDOF 7
ENDMDL
