MODEL 1
REMARK VINA RESULT:      -4.8      0.000      0.000
REMARK  Name = *****
REMARK                            x       y       z     vdW  Elec       q    Type
REMARK                         _______ _______ _______ _____ _____    ______ ____
ROOT
ATOM      1  N   LIG    1       26.185 -17.246   3.707  0.00  0.00    -0.310 N 
ATOM      2  H   LIG    1       26.331 -16.976   4.671  0.00  0.00    +0.149 HD
ATOM      3  C   LIG    1       25.937 -18.583   3.397  0.00  0.00    +0.251 C 
ATOM      4  O   LIG    1       25.697 -18.950   2.269  0.00  0.00    -0.270 OA
ENDROOT
BRANCH   3   5
ATOM      5  C   LIG    1       25.979 -19.540   4.571  0.00  0.00    +0.121 A 
ATOM      6  C   LIG    1       24.822 -20.225   4.999  0.00  0.00    +0.150 A 
ATOM      7  C   LIG    1       24.814 -20.816   6.279  0.00  0.00    +0.060 A 
ATOM      8 BR   LIG    1       23.240 -21.572   7.032  0.00  0.00    -0.046 Br
ATOM      9  C   LIG    1       25.968 -20.855   7.061  0.00  0.00    +0.022 A 
ATOM     10  C   LIG    1       27.156 -20.340   6.556  0.00  0.00    +0.048 A 
ATOM     11  C   LIG    1       27.180 -19.697   5.309  0.00  0.00    +0.136 A 
BRANCH   6  12
ATOM     12  O   LIG    1       23.656 -20.334   4.270  0.00  0.00    -0.493 OA
ATOM     13  C   LIG    1       22.752 -19.220   4.329  0.00  0.00    +0.277 C 
ENDBRANCH   6  12
BRANCH  11  14
ATOM     14  O   LIG    1       28.351 -19.168   4.823  0.00  0.00    -0.494 OA
ATOM     15  C   LIG    1       29.348 -18.863   5.799  0.00  0.00    +0.277 C 
ENDBRANCH  11  14
ENDBRANCH   3   5
BRANCH   1  16
ATOM     16  C   LIG    1       26.175 -16.170   2.726  0.00  0.00    +0.123 C 
BRANCH  16  18
ATOM     17  N   LIG    1       25.330 -14.389   4.377  0.00  0.00    -0.298 NA
ATOM     18  C   LIG    1       26.328 -14.763   3.338  0.00  0.00    +0.074 C 
ATOM     19  C   LIG    1       27.652 -14.612   4.083  0.00  0.00    +0.021 C 
ATOM     20  C   LIG    1       27.446 -13.337   4.862  0.00  0.00    +0.017 C 
ATOM     21  C   LIG    1       25.978 -13.382   5.242  0.00  0.00    +0.085 C 
BRANCH  17  23
ATOM     22  C   LIG    1       24.291 -12.755   2.807  0.00  0.00    +0.020 C 
ATOM     23  C   LIG    1       24.067 -13.877   3.826  0.00  0.00    +0.081 C 
ENDBRANCH  17  23
ENDBRANCH  16  18
ENDBRANCH   1  16
TORSDOF 6
ENDMDL
MODEL 2
REMARK VINA RESULT:      -4.6      0.818      1.710
REMARK  Name = *****
REMARK                            x       y       z     vdW  Elec       q    Type
REMARK                         _______ _______ _______ _____ _____    ______ ____
ROOT
ATOM      1  N   LIG    1       26.660 -17.216   4.113  0.00  0.00    -0.310 N 
ATOM      2  H   LIG    1       26.913 -17.104   5.086  0.00  0.00    +0.149 HD
ATOM      3  C   LIG    1       26.103 -18.420   3.681  0.00  0.00    +0.251 C 
ATOM      4  O   LIG    1       25.728 -18.586   2.542  0.00  0.00    -0.270 OA
ENDROOT
BRANCH   3   5
ATOM      5  C   LIG    1       25.992 -19.499   4.738  0.00  0.00    +0.121 A 
ATOM      6  C   LIG    1       24.762 -20.137   5.008  0.00  0.00    +0.150 A 
ATOM      7  C   LIG    1       24.618 -20.861   6.208  0.00  0.00    +0.060 A 
ATOM      8 BR   LIG    1       22.944 -21.572   6.763  0.00  0.00    -0.046 Br
ATOM      9  C   LIG    1       25.705 -21.074   7.055  0.00  0.00    +0.022 A 
ATOM     10  C   LIG    1       26.959 -20.599   6.693  0.00  0.00    +0.048 A 
ATOM     11  C   LIG    1       27.121 -19.827   5.531  0.00  0.00    +0.136 A 
BRANCH   6  12
ATOM     12  O   LIG    1       23.649 -20.075   4.195  0.00  0.00    -0.493 OA
ATOM     13  C   LIG    1       22.754 -18.973   4.408  0.00  0.00    +0.277 C 
ENDBRANCH   6  12
BRANCH  11  14
ATOM     14  O   LIG    1       28.358 -19.340   5.187  0.00  0.00    -0.494 OA
ATOM     15  C   LIG    1       29.293 -19.203   6.260  0.00  0.00    +0.277 C 
ENDBRANCH  11  14
ENDBRANCH   3   5
BRANCH   1  16
ATOM     16  C   LIG    1       26.839 -16.051   3.257  0.00  0.00    +0.123 C 
BRANCH  16  18
ATOM     17  N   LIG    1       26.079 -13.636   2.808  0.00  0.00    -0.298 NA
ATOM     18  C   LIG    1       26.079 -14.799   3.737  0.00  0.00    +0.074 C 
ATOM     19  C   LIG    1       24.588 -15.077   3.917  0.00  0.00    +0.021 C 
ATOM     20  C   LIG    1       24.010 -13.691   4.046  0.00  0.00    +0.017 C 
ATOM     21  C   LIG    1       24.859 -12.857   3.106  0.00  0.00    +0.085 C 
BRANCH  17  23
ATOM     22  C   LIG    1       28.224 -13.269   4.025  0.00  0.00    +0.020 C 
ATOM     23  C   LIG    1       27.281 -12.796   2.914  0.00  0.00    +0.081 C 
ENDBRANCH  17  23
ENDBRANCH  16  18
ENDBRANCH   1  16
TORSDOF 6
ENDMDL
MODEL 3
REMARK VINA RESULT:      -3.1      2.882      6.095
REMARK  Name = *****
REMARK                            x       y       z     vdW  Elec       q    Type
REMARK                         _______ _______ _______ _____ _____    ______ ____
ROOT
ATOM      1  N   LIG    1       25.419 -18.884   3.460  0.00  0.00    -0.310 N 
ATOM      2  H   LIG    1       26.412 -18.721   3.358  0.00  0.00    +0.149 HD
ATOM      3  C   LIG    1       24.557 -17.801   3.629  0.00  0.00    +0.251 C 
ATOM      4  O   LIG    1       23.356 -17.937   3.696  0.00  0.00    -0.270 OA
ENDROOT
BRANCH   3   5
ATOM      5  C   LIG    1       25.228 -16.446   3.713  0.00  0.00    +0.121 A 
ATOM      6  C   LIG    1       24.470 -15.256   3.772  0.00  0.00    +0.150 A 
ATOM      7  C   LIG    1       25.105 -14.029   3.496  0.00  0.00    +0.060 A 
ATOM      8 BR   LIG    1       24.133 -12.402   3.337  0.00  0.00    -0.046 Br
ATOM      9  C   LIG    1       26.486 -13.959   3.306  0.00  0.00    +0.022 A 
ATOM     10  C   LIG    1       27.253 -15.110   3.432  0.00  0.00    +0.048 A 
ATOM     11  C   LIG    1       26.642 -16.354   3.652  0.00  0.00    +0.136 A 
BRANCH   6  12
ATOM     12  O   LIG    1       23.119 -15.196   4.044  0.00  0.00    -0.493 OA
ATOM     13  C   LIG    1       22.739 -15.205   5.429  0.00  0.00    +0.277 C 
ENDBRANCH   6  12
BRANCH  11  14
ATOM     14  O   LIG    1       27.402 -17.494   3.753  0.00  0.00    -0.494 OA
ATOM     15  C   LIG    1       28.435 -17.466   4.740  0.00  0.00    +0.277 C 
ENDBRANCH  11  14
ENDBRANCH   3   5
BRANCH   1  16
ATOM     16  C   LIG    1       24.973 -20.266   3.341  0.00  0.00    +0.123 C 
BRANCH  16  18
ATOM     17  N   LIG    1       25.496 -20.402   5.855  0.00  0.00    -0.298 NA
ATOM     18  C   LIG    1       24.760 -20.973   4.695  0.00  0.00    +0.074 C 
ATOM     19  C   LIG    1       23.306 -20.891   5.152  0.00  0.00    +0.021 C 
ATOM     20  C   LIG    1       23.392 -21.321   6.595  0.00  0.00    +0.017 C 
ATOM     21  C   LIG    1       24.718 -20.751   7.062  0.00  0.00    +0.085 C 
BRANCH  17  23
ATOM     22  C   LIG    1       27.661 -20.138   7.062  0.00  0.00    +0.020 C 
ATOM     23  C   LIG    1       26.883 -20.875   5.966  0.00  0.00    +0.081 C 
ENDBRANCH  17  23
ENDBRANCH  16  18
ENDBRANCH   1  16
TORSDOF 6
ENDMDL
MODEL 4
REMARK VINA RESULT:      -2.3      3.025      6.793
REMARK  Name = *****
REMARK                            x       y       z     vdW  Elec       q    Type
REMARK                         _______ _______ _______ _____ _____    ______ ____
ROOT
ATOM      1  N   LIG    1       25.451 -18.314   3.607  0.00  0.00    -0.310 N 
ATOM      2  H   LIG    1       24.439 -18.349   3.611  0.00  0.00    +0.149 HD
ATOM      3  C   LIG    1       26.097 -17.079   3.567  0.00  0.00    +0.251 C 
ATOM      4  O   LIG    1       27.302 -16.979   3.620  0.00  0.00    -0.270 OA
ENDROOT
BRANCH   3   5
ATOM      5  C   LIG    1       25.186 -15.873   3.463  0.00  0.00    +0.121 A 
ATOM      6  C   LIG    1       25.631 -14.666   2.882  0.00  0.00    +0.150 A 
ATOM      7  C   LIG    1       24.898 -13.486   3.117  0.00  0.00    +0.060 A 
ATOM      8 BR   LIG    1       25.529 -11.779   2.563  0.00  0.00    -0.046 Br
ATOM      9  C   LIG    1       23.677 -13.518   3.790  0.00  0.00    +0.022 A 
ATOM     10  C   LIG    1       23.152 -14.737   4.199  0.00  0.00    +0.048 A 
ATOM     11  C   LIG    1       23.885 -15.923   4.027  0.00  0.00    +0.136 A 
BRANCH   6  12
ATOM     12  O   LIG    1       26.772 -14.535   2.119  0.00  0.00    -0.493 OA
ATOM     13  C   LIG    1       27.888 -13.873   2.735  0.00  0.00    +0.277 C 
ENDBRANCH   6  12
BRANCH  11  14
ATOM     14  O   LIG    1       23.374 -17.124   4.453  0.00  0.00    -0.494 OA
ATOM     15  C   LIG    1       21.948 -17.210   4.503  0.00  0.00    +0.277 C 
ENDBRANCH  11  14
ENDBRANCH   3   5
BRANCH   1  16
ATOM     16  C   LIG    1       26.144 -19.590   3.721  0.00  0.00    +0.123 C 
BRANCH  16  18
ATOM     17  N   LIG    1       25.910 -20.338   6.170  0.00  0.00    -0.298 NA
ATOM     18  C   LIG    1       25.518 -20.553   4.750  0.00  0.00    +0.074 C 
ATOM     19  C   LIG    1       23.998 -20.414   4.802  0.00  0.00    +0.021 C 
ATOM     20  C   LIG    1       23.645 -21.161   6.063  0.00  0.00    +0.017 C 
ATOM     21  C   LIG    1       24.802 -20.859   6.997  0.00  0.00    +0.085 C 
BRANCH  17  23
ATOM     22  C   LIG    1       28.307 -19.951   6.735  0.00  0.00    +0.020 C 
ATOM     23  C   LIG    1       27.184 -20.974   6.534  0.00  0.00    +0.081 C 
ENDBRANCH  17  23
ENDBRANCH  16  18
ENDBRANCH   1  16
TORSDOF 6
ENDMDL
MODEL 5
REMARK VINA RESULT:      -2.0      2.090      3.262
REMARK  Name = *****
REMARK                            x       y       z     vdW  Elec       q    Type
REMARK                         _______ _______ _______ _____ _____    ______ ____
ROOT
ATOM      1  N   LIG    1       24.190 -15.417   4.670  0.00  0.00    -0.310 N 
ATOM      2  H   LIG    1       25.091 -15.757   4.981  0.00  0.00    +0.149 HD
ATOM      3  C   LIG    1       23.265 -16.310   4.134  0.00  0.00    +0.251 C 
ATOM      4  O   LIG    1       22.153 -15.966   3.800  0.00  0.00    -0.270 OA
ENDROOT
BRANCH   3   5
ATOM      5  C   LIG    1       23.743 -17.742   4.008  0.00  0.00    +0.121 A 
ATOM      6  C   LIG    1       22.921 -18.826   4.386  0.00  0.00    +0.150 A 
ATOM      7  C   LIG    1       23.510 -20.090   4.587  0.00  0.00    +0.060 A 
ATOM      8 BR   LIG    1       22.532 -21.556   5.303  0.00  0.00    -0.046 Br
ATOM      9  C   LIG    1       24.852 -20.316   4.284  0.00  0.00    +0.022 A 
ATOM     10  C   LIG    1       25.613 -19.291   3.737  0.00  0.00    +0.048 A 
ATOM     11  C   LIG    1       25.068 -18.007   3.577  0.00  0.00    +0.136 A 
BRANCH   6  12
ATOM     12  O   LIG    1       21.564 -18.740   4.619  0.00  0.00    -0.493 OA
ATOM     13  C   LIG    1       20.705 -18.845   3.473  0.00  0.00    +0.277 C 
ENDBRANCH   6  12
BRANCH  11  14
ATOM     14  O   LIG    1       25.830 -16.989   3.056  0.00  0.00    -0.494 OA
ATOM     15  C   LIG    1       27.147 -16.859   3.596  0.00  0.00    +0.277 C 
ENDBRANCH  11  14
ENDBRANCH   3   5
BRANCH   1  16
ATOM     16  C   LIG    1       23.921 -14.002   4.887  0.00  0.00    +0.123 C 
BRANCH  16  18
ATOM     17  N   LIG    1       26.074 -13.569   3.550  0.00  0.00    -0.298 NA
ATOM     18  C   LIG    1       24.744 -13.061   3.983  0.00  0.00    +0.074 C 
ATOM     19  C   LIG    1       24.041 -12.798   2.654  0.00  0.00    +0.021 C 
ATOM     20  C   LIG    1       25.133 -12.168   1.826  0.00  0.00    +0.017 C 
ATOM     21  C   LIG    1       26.388 -12.894   2.273  0.00  0.00    +0.085 C 
BRANCH  17  23
ATOM     22  C   LIG    1       28.511 -13.161   3.880  0.00  0.00    +0.020 C 
ATOM     23  C   LIG    1       27.141 -13.351   4.538  0.00  0.00    +0.081 C 
ENDBRANCH  17  23
ENDBRANCH  16  18
ENDBRANCH   1  16
TORSDOF 6
ENDMDL
