MODEL 1
REMARK VINA RESULT:      -9.7      0.000      0.000
REMARK  Name = *****
REMARK                            x       y       z     vdW  Elec       q    Type
REMARK                         _______ _______ _______ _____ _____    ______ ____
ROOT
ATOM      1  C   LIG    1       26.681 -20.549   7.204  0.00  0.00    +0.044 C 
ATOM      2  C   LIG    1       26.295 -21.802   6.393  0.00  0.00    +0.006 C 
ATOM      3  C   LIG    1       24.766 -21.728   6.340  0.00  0.00    -0.001 C 
ATOM      4  C   LIG    1       24.286 -23.149   6.047  0.00  0.00    +0.034 C 
ATOM      5  C   LIG    1       25.425 -24.033   6.498  0.00  0.00    -0.073 C 
ATOM      6  C   LIG    1       25.426 -25.381   6.474  0.00  0.00    -0.027 C 
ATOM      7  C   LIG    1       24.351 -21.186   7.713  0.00  0.00    +0.036 C 
ATOM      8  C   LIG    1       26.588 -23.188   6.975  0.00  0.00    +0.035 C 
ATOM      9  C   LIG    1       25.520 -20.324   8.203  0.00  0.00    +0.122 C 
ENDROOT
BRANCH   1  11
ATOM     10  C   LIG    1       28.947 -19.522   7.460  0.00  0.00    +0.000 C 
ATOM     11  C   LIG    1       28.075 -20.496   7.779  0.00  0.00    -0.022 C 
BRANCH  10  12
ATOM     12  C   LIG    1       30.351 -19.397   7.996  0.00  0.00    +0.141 C 
BRANCH  12  13
ATOM     13  C   LIG    1       30.627 -18.016   8.633  0.00  0.00    +0.030 C 
ATOM     14  C   LIG    1       32.133 -17.723   8.720  0.00  0.00    +0.011 C 
BRANCH  13  15
ATOM     15  C   LIG    1       29.959 -17.896  10.018  0.00  0.00    +0.095 C 
BRANCH  15  18
ATOM     16  C   LIG    1       32.064 -15.895  12.910  0.00  0.00    +0.106 C 
ATOM     17  C   LIG    1       31.403 -16.506  11.761  0.00  0.00    -0.106 C 
ATOM     18  C   LIG    1       30.785 -17.081  10.904  0.00  0.00    -0.102 C 
ENDBRANCH  15  18
ENDBRANCH  13  15
ENDBRANCH  12  13
BRANCH  12  19
ATOM     19  O   LIG    1       30.519 -20.401   8.993  0.00  0.00    -0.388 OA
ATOM     20  H   LIG    1       31.121 -20.046   9.670  0.00  0.00    +0.210 HD
ENDBRANCH  12  19
ENDBRANCH  10  12
ENDBRANCH   1  11
BRANCH   9  21
ATOM     21  O   LIG    1       25.834 -20.660   9.549  0.00  0.00    -0.391 OA
ATOM     22  H   LIG    1       26.768 -20.922   9.591  0.00  0.00    +0.210 HD
ENDBRANCH   9  21
BRANCH   6  23
ATOM     23  C   LIG    1       24.274 -26.257   6.031  0.00  0.00    +0.028 C 
BRANCH  23  24
ATOM     24  C   LIG    1       24.404 -27.720   6.488  0.00  0.00    +0.015 C 
BRANCH  24  25
ATOM     25  C   LIG    1       24.401 -28.681   5.292  0.00  0.00    +0.121 C 
BRANCH  25  26
ATOM     26  C   LIG    1       24.724 -30.105   5.687  0.00  0.00    +0.307 C 
ATOM     27  O   LIG    1       25.769 -30.687   5.426  0.00  0.00    -0.251 OA
BRANCH  26  28
ATOM     28  O   LIG    1       23.735 -30.605   6.484  0.00  0.00    -0.457 OA
BRANCH  28  29
ATOM     29  C   LIG    1       24.216 -31.269   7.651  0.00  0.00    +0.311 C 
BRANCH  29  30
ATOM     30  C   LIG    1       23.760 -30.663   8.982  0.00  0.00    +0.200 C 
ATOM     31  O   LIG    1       22.596 -30.715   9.379  0.00  0.00    -0.288 OA
BRANCH  30  32
ATOM     32  C   LIG    1       24.766 -29.871   9.749  0.00  0.00    +0.021 A 
ATOM     33  C   LIG    1       24.574 -29.678  11.124  0.00  0.00    +0.011 A 
ATOM     34  C   LIG    1       25.454 -28.866  11.845  0.00  0.00    +0.001 A 
ATOM     35  C   LIG    1       26.540 -28.267  11.205  0.00  0.00    +0.000 A 
ATOM     36  C   LIG    1       26.757 -28.490   9.848  0.00  0.00    +0.001 A 
ATOM     37  C   LIG    1       25.871 -29.286   9.119  0.00  0.00    +0.011 A 
ENDBRANCH  30  32
ENDBRANCH  29  30
ENDBRANCH  28  29
ENDBRANCH  26  28
ENDBRANCH  25  26
ENDBRANCH  24  25
ENDBRANCH  23  24
ENDBRANCH   6  23
TORSDOF 15
ENDMDL
MODEL 2
REMARK VINA RESULT:      -9.6      1.496      2.151
REMARK  Name = *****
REMARK                            x       y       z     vdW  Elec       q    Type
REMARK                         _______ _______ _______ _____ _____    ______ ____
ROOT
ATOM      1  C   LIG    1       26.629 -20.582   7.200  0.00  0.00    +0.044 C 
ATOM      2  C   LIG    1       26.199 -21.814   6.380  0.00  0.00    +0.006 C 
ATOM      3  C   LIG    1       24.669 -21.721   6.385  0.00  0.00    -0.001 C 
ATOM      4  C   LIG    1       24.162 -23.131   6.082  0.00  0.00    +0.034 C 
ATOM      5  C   LIG    1       25.305 -24.037   6.475  0.00  0.00    -0.073 C 
ATOM      6  C   LIG    1       25.289 -25.384   6.425  0.00  0.00    -0.027 C 
ATOM      7  C   LIG    1       24.311 -21.201   7.781  0.00  0.00    +0.036 C 
ATOM      8  C   LIG    1       26.495 -23.214   6.926  0.00  0.00    +0.035 C 
ATOM      9  C   LIG    1       25.508 -20.363   8.246  0.00  0.00    +0.122 C 
ENDROOT
BRANCH   1  11
ATOM     10  C   LIG    1       28.846 -19.486   7.575  0.00  0.00    +0.000 C 
ATOM     11  C   LIG    1       28.043 -20.556   7.725  0.00  0.00    -0.022 C 
BRANCH  10  12
ATOM     12  C   LIG    1       30.264 -19.382   8.076  0.00  0.00    +0.141 C 
BRANCH  12  13
ATOM     13  C   LIG    1       30.602 -17.979   8.629  0.00  0.00    +0.030 C 
ATOM     14  C   LIG    1       32.119 -17.767   8.751  0.00  0.00    +0.011 C 
BRANCH  13  15
ATOM     15  C   LIG    1       29.898 -17.726   9.978  0.00  0.00    +0.095 C 
BRANCH  15  18
ATOM     16  C   LIG    1       32.084 -15.931  12.945  0.00  0.00    +0.106 C 
ATOM     17  C   LIG    1       31.443 -16.531  11.779  0.00  0.00    -0.106 C 
ATOM     18  C   LIG    1       30.808 -17.050  10.898  0.00  0.00    -0.102 C 
ENDBRANCH  15  18
ENDBRANCH  13  15
ENDBRANCH  12  13
BRANCH  12  19
ATOM     19  O   LIG    1       30.420 -20.335   9.125  0.00  0.00    -0.388 OA
ATOM     20  H   LIG    1       29.549 -20.737   9.289  0.00  0.00    +0.210 HD
ENDBRANCH  12  19
ENDBRANCH  10  12
ENDBRANCH   1  11
BRANCH   9  21
ATOM     21  O   LIG    1       25.866 -20.728   9.572  0.00  0.00    -0.391 OA
ATOM     22  H   LIG    1       25.338 -21.500   9.833  0.00  0.00    +0.210 HD
ENDBRANCH   9  21
BRANCH   6  23
ATOM     23  C   LIG    1       24.111 -26.238   6.008  0.00  0.00    +0.028 C 
BRANCH  23  24
ATOM     24  C   LIG    1       24.422 -27.744   5.985  0.00  0.00    +0.015 C 
BRANCH  24  25
ATOM     25  C   LIG    1       25.350 -28.140   7.140  0.00  0.00    +0.121 C 
BRANCH  25  26
ATOM     26  C   LIG    1       24.851 -29.348   7.901  0.00  0.00    +0.307 C 
ATOM     27  O   LIG    1       23.855 -29.998   7.613  0.00  0.00    -0.251 OA
BRANCH  26  28
ATOM     28  O   LIG    1       25.740 -29.683   8.881  0.00  0.00    -0.457 OA
BRANCH  28  29
ATOM     29  C   LIG    1       26.598 -28.611   9.270  0.00  0.00    +0.311 C 
BRANCH  29  30
ATOM     30  C   LIG    1       27.125 -28.686  10.707  0.00  0.00    +0.200 C 
ATOM     31  O   LIG    1       28.117 -29.341  11.024  0.00  0.00    -0.288 OA
BRANCH  30  32
ATOM     32  C   LIG    1       26.305 -28.029  11.767  0.00  0.00    +0.021 A 
ATOM     33  C   LIG    1       25.073 -28.593  12.121  0.00  0.00    +0.011 A 
ATOM     34  C   LIG    1       24.247 -27.946  13.045  0.00  0.00    +0.001 A 
ATOM     35  C   LIG    1       24.659 -26.751  13.636  0.00  0.00    +0.000 A 
ATOM     36  C   LIG    1       25.901 -26.209  13.318  0.00  0.00    +0.001 A 
ATOM     37  C   LIG    1       26.722 -26.842  12.382  0.00  0.00    +0.011 A 
ENDBRANCH  30  32
ENDBRANCH  29  30
ENDBRANCH  28  29
ENDBRANCH  26  28
ENDBRANCH  25  26
ENDBRANCH  24  25
ENDBRANCH  23  24
ENDBRANCH   6  23
TORSDOF 15
ENDMDL
MODEL 3
REMARK VINA RESULT:      -9.6      2.486      3.885
REMARK  Name = *****
REMARK                            x       y       z     vdW  Elec       q    Type
REMARK                         _______ _______ _______ _____ _____    ______ ____
ROOT
ATOM      1  C   LIG    1       24.764 -21.859   6.039  0.00  0.00    +0.044 C 
ATOM      2  C   LIG    1       25.125 -23.324   5.726  0.00  0.00    +0.006 C 
ATOM      3  C   LIG    1       23.762 -24.023   5.701  0.00  0.00    -0.001 C 
ATOM      4  C   LIG    1       24.046 -25.507   5.934  0.00  0.00    +0.034 C 
ATOM      5  C   LIG    1       25.388 -25.530   6.627  0.00  0.00    -0.073 C 
ATOM      6  C   LIG    1       26.020 -26.635   7.072  0.00  0.00    -0.027 C 
ATOM      7  C   LIG    1       22.953 -23.346   6.813  0.00  0.00    +0.036 C 
ATOM      8  C   LIG    1       25.943 -24.125   6.743  0.00  0.00    +0.035 C 
ATOM      9  C   LIG    1       23.503 -21.921   6.936  0.00  0.00    +0.122 C 
ENDROOT
BRANCH   1  11
ATOM     10  C   LIG    1       26.880 -20.566   5.706  0.00  0.00    +0.000 C 
ATOM     11  C   LIG    1       25.875 -20.956   6.513  0.00  0.00    -0.022 C 
BRANCH  10  12
ATOM     12  C   LIG    1       28.019 -19.663   6.104  0.00  0.00    +0.141 C 
BRANCH  12  13
ATOM     13  C   LIG    1       29.276 -20.446   6.548  0.00  0.00    +0.030 C 
ATOM     14  C   LIG    1       28.989 -21.338   7.766  0.00  0.00    +0.011 C 
BRANCH  13  15
ATOM     15  C   LIG    1       30.458 -19.494   6.825  0.00  0.00    +0.095 C 
BRANCH  15  18
ATOM     16  C   LIG    1       30.330 -17.294  10.281  0.00  0.00    +0.106 C 
ATOM     17  C   LIG    1       30.198 -18.098   9.070  0.00  0.00    -0.106 C 
ATOM     18  C   LIG    1       30.223 -18.751   8.060  0.00  0.00    -0.102 C 
ENDBRANCH  15  18
ENDBRANCH  13  15
ENDBRANCH  12  13
BRANCH  12  19
ATOM     19  O   LIG    1       28.354 -18.870   4.968  0.00  0.00    -0.388 OA
ATOM     20  H   LIG    1       27.780 -19.149   4.234  0.00  0.00    +0.210 HD
ENDBRANCH  12  19
ENDBRANCH  10  12
ENDBRANCH   1  11
BRANCH   9  21
ATOM     21  O   LIG    1       23.743 -21.614   8.303  0.00  0.00    -0.391 OA
ATOM     22  H   LIG    1       24.366 -20.870   8.347  0.00  0.00    +0.210 HD
ENDBRANCH   9  21
BRANCH   6  23
ATOM     23  C   LIG    1       25.485 -28.048   6.998  0.00  0.00    +0.028 C 
BRANCH  23  24
ATOM     24  C   LIG    1       25.494 -28.780   8.351  0.00  0.00    +0.015 C 
BRANCH  24  25
ATOM     25  C   LIG    1       26.628 -28.274   9.251  0.00  0.00    +0.121 C 
BRANCH  25  26
ATOM     26  C   LIG    1       26.988 -29.256  10.344  0.00  0.00    +0.307 C 
ATOM     27  O   LIG    1       28.122 -29.472  10.750  0.00  0.00    -0.251 OA
BRANCH  26  28
ATOM     28  O   LIG    1       25.852 -29.776  10.897  0.00  0.00    -0.457 OA
BRANCH  28  29
ATOM     29  C   LIG    1       25.765 -29.595  12.309  0.00  0.00    +0.311 C 
BRANCH  29  30
ATOM     30  C   LIG    1       25.346 -28.193  12.762  0.00  0.00    +0.200 C 
ATOM     31  O   LIG    1       26.153 -27.331  13.110  0.00  0.00    -0.288 OA
BRANCH  30  32
ATOM     32  C   LIG    1       23.883 -27.931  12.897  0.00  0.00    +0.021 A 
ATOM     33  C   LIG    1       22.976 -28.908  12.464  0.00  0.00    +0.011 A 
ATOM     34  C   LIG    1       21.602 -28.648  12.497  0.00  0.00    +0.001 A 
ATOM     35  C   LIG    1       21.130 -27.429  12.983  0.00  0.00    +0.000 A 
ATOM     36  C   LIG    1       22.027 -26.473  13.452  0.00  0.00    +0.001 A 
ATOM     37  C   LIG    1       23.400 -26.719  13.406  0.00  0.00    +0.011 A 
ENDBRANCH  30  32
ENDBRANCH  29  30
ENDBRANCH  28  29
ENDBRANCH  26  28
ENDBRANCH  25  26
ENDBRANCH  24  25
ENDBRANCH  23  24
ENDBRANCH   6  23
TORSDOF 15
ENDMDL
MODEL 4
REMARK VINA RESULT:      -9.5      1.409      2.168
REMARK  Name = *****
REMARK                            x       y       z     vdW  Elec       q    Type
REMARK                         _______ _______ _______ _____ _____    ______ ____
ROOT
ATOM      1  C   LIG    1       24.521 -21.118   5.871  0.00  0.00    +0.044 C 
ATOM      2  C   LIG    1       24.668 -22.622   5.570  0.00  0.00    +0.006 C 
ATOM      3  C   LIG    1       23.428 -23.234   6.231  0.00  0.00    -0.001 C 
ATOM      4  C   LIG    1       23.755 -24.711   6.451  0.00  0.00    +0.034 C 
ATOM      5  C   LIG    1       25.264 -24.767   6.460  0.00  0.00    -0.073 C 
ATOM      6  C   LIG    1       26.005 -25.873   6.674  0.00  0.00    -0.027 C 
ATOM      7  C   LIG    1       23.231 -22.426   7.519  0.00  0.00    +0.036 C 
ATOM      8  C   LIG    1       25.842 -23.395   6.178  0.00  0.00    +0.035 C 
ATOM      9  C   LIG    1       23.808 -21.033   7.243  0.00  0.00    +0.122 C 
ENDROOT
BRANCH   1  11
ATOM     10  C   LIG    1       26.867 -20.446   6.425  0.00  0.00    +0.000 C 
ATOM     11  C   LIG    1       25.747 -20.253   5.703  0.00  0.00    -0.022 C 
BRANCH  10  12
ATOM     12  C   LIG    1       28.130 -19.632   6.310  0.00  0.00    +0.141 C 
BRANCH  12  13
ATOM     13  C   LIG    1       29.397 -20.439   6.672  0.00  0.00    +0.030 C 
ATOM     14  C   LIG    1       29.154 -21.371   7.870  0.00  0.00    +0.011 C 
BRANCH  13  15
ATOM     15  C   LIG    1       30.598 -19.507   6.931  0.00  0.00    +0.095 C 
BRANCH  15  18
ATOM     16  C   LIG    1       30.250 -17.354  10.401  0.00  0.00    +0.106 C 
ATOM     17  C   LIG    1       30.240 -18.019   9.103  0.00  0.00    -0.106 C 
ATOM     18  C   LIG    1       30.327 -18.649   8.081  0.00  0.00    -0.102 C 
ENDBRANCH  15  18
ENDBRANCH  13  15
ENDBRANCH  12  13
BRANCH  12  19
ATOM     19  O   LIG    1       28.238 -19.196   4.957  0.00  0.00    -0.388 OA
ATOM     20  H   LIG    1       28.806 -19.832   4.488  0.00  0.00    +0.210 HD
ENDBRANCH  12  19
ENDBRANCH  10  12
ENDBRANCH   1  11
BRANCH   9  21
ATOM     21  O   LIG    1       24.652 -20.640   8.317  0.00  0.00    -0.391 OA
ATOM     22  H   LIG    1       24.224 -19.911   8.795  0.00  0.00    +0.210 HD
ENDBRANCH   9  21
BRANCH   6  23
ATOM     23  C   LIG    1       25.464 -27.251   6.986  0.00  0.00    +0.028 C 
BRANCH  23  24
ATOM     24  C   LIG    1       25.257 -28.127   5.738  0.00  0.00    +0.015 C 
BRANCH  24  25
ATOM     25  C   LIG    1       24.066 -29.077   5.914  0.00  0.00    +0.121 C 
BRANCH  25  26
ATOM     26  C   LIG    1       24.490 -30.523   6.055  0.00  0.00    +0.307 C 
ATOM     27  O   LIG    1       25.553 -30.984   5.662  0.00  0.00    -0.251 OA
BRANCH  26  28
ATOM     28  O   LIG    1       23.569 -31.210   6.791  0.00  0.00    -0.457 OA
BRANCH  28  29
ATOM     29  C   LIG    1       24.054 -31.640   8.062  0.00  0.00    +0.311 C 
BRANCH  29  30
ATOM     30  C   LIG    1       23.635 -30.767   9.249  0.00  0.00    +0.200 C 
ATOM     31  O   LIG    1       22.461 -30.598   9.577  0.00  0.00    -0.288 OA
BRANCH  30  32
ATOM     32  C   LIG    1       24.711 -30.001   9.943  0.00  0.00    +0.021 A 
ATOM     33  C   LIG    1       24.454 -29.465  11.212  0.00  0.00    +0.011 A 
ATOM     34  C   LIG    1       25.415 -28.668  11.841  0.00  0.00    +0.001 A 
ATOM     35  C   LIG    1       26.641 -28.425  11.220  0.00  0.00    +0.000 A 
ATOM     36  C   LIG    1       26.915 -28.990   9.978  0.00  0.00    +0.001 A 
ATOM     37  C   LIG    1       25.953 -29.772   9.337  0.00  0.00    +0.011 A 
ENDBRANCH  30  32
ENDBRANCH  29  30
ENDBRANCH  28  29
ENDBRANCH  26  28
ENDBRANCH  25  26
ENDBRANCH  24  25
ENDBRANCH  23  24
ENDBRANCH   6  23
TORSDOF 15
ENDMDL
MODEL 5
REMARK VINA RESULT:      -9.2      1.614     10.759
REMARK  Name = *****
REMARK                            x       y       z     vdW  Elec       q    Type
REMARK                         _______ _______ _______ _____ _____    ______ ____
ROOT
ATOM      1  C   LIG    1       25.053 -27.489   6.199  0.00  0.00    +0.044 C 
ATOM      2  C   LIG    1       24.579 -26.062   6.538  0.00  0.00    +0.006 C 
ATOM      3  C   LIG    1       24.384 -25.420   5.160  0.00  0.00    -0.001 C 
ATOM      4  C   LIG    1       24.445 -23.910   5.388  0.00  0.00    +0.034 C 
ATOM      5  C   LIG    1       25.207 -23.752   6.682  0.00  0.00    -0.073 C 
ATOM      6  C   LIG    1       25.545 -22.579   7.254  0.00  0.00    -0.027 C 
ATOM      7  C   LIG    1       25.523 -25.982   4.302  0.00  0.00    +0.036 C 
ATOM      8  C   LIG    1       25.533 -25.112   7.268  0.00  0.00    +0.035 C 
ATOM      9  C   LIG    1       25.858 -27.360   4.883  0.00  0.00    +0.122 C 
ENDROOT
BRANCH   1  11
ATOM     10  C   LIG    1       25.066 -29.286   7.938  0.00  0.00    +0.000 C 
ATOM     11  C   LIG    1       25.703 -28.285   7.302  0.00  0.00    -0.022 C 
BRANCH  10  12
ATOM     12  C   LIG    1       25.650 -30.130   9.043  0.00  0.00    +0.141 C 
BRANCH  12  13
ATOM     13  C   LIG    1       25.585 -29.437  10.423  0.00  0.00    +0.030 C 
ATOM     14  C   LIG    1       26.966 -29.381  11.095  0.00  0.00    +0.011 C 
BRANCH  13  15
ATOM     15  C   LIG    1       24.549 -30.117  11.341  0.00  0.00    +0.095 C 
BRANCH  15  18
ATOM     16  C   LIG    1       22.910 -26.997  13.434  0.00  0.00    +0.106 C 
ATOM     17  C   LIG    1       23.330 -28.182  12.694  0.00  0.00    -0.106 C 
ATOM     18  C   LIG    1       23.801 -29.107  12.085  0.00  0.00    -0.102 C 
ENDBRANCH  15  18
ENDBRANCH  13  15
ENDBRANCH  12  13
BRANCH  12  19
ATOM     19  O   LIG    1       24.896 -31.338   9.104  0.00  0.00    -0.388 OA
ATOM     20  H   LIG    1       24.024 -31.161   8.711  0.00  0.00    +0.210 HD
ENDBRANCH  12  19
ENDBRANCH  10  12
ENDBRANCH   1  11
BRANCH   9  21
ATOM     21  O   LIG    1       27.265 -27.486   5.043  0.00  0.00    -0.391 OA
ATOM     22  H   LIG    1       27.438 -28.025   5.832  0.00  0.00    +0.210 HD
ENDBRANCH   9  21
BRANCH   6  23
ATOM     23  C   LIG    1       25.262 -21.206   6.684  0.00  0.00    +0.028 C 
BRANCH  23  24
ATOM     24  C   LIG    1       26.513 -20.319   6.568  0.00  0.00    +0.015 C 
BRANCH  24  25
ATOM     25  C   LIG    1       27.324 -20.324   7.870  0.00  0.00    +0.121 C 
BRANCH  25  26
ATOM     26  C   LIG    1       28.785 -20.646   7.646  0.00  0.00    +0.307 C 
ATOM     27  O   LIG    1       29.438 -21.442   8.306  0.00  0.00    -0.251 OA
BRANCH  26  28
ATOM     28  O   LIG    1       29.236 -20.013   6.523  0.00  0.00    -0.457 OA
BRANCH  28  29
ATOM     29  C   LIG    1       29.789 -18.722   6.773  0.00  0.00    +0.311 C 
BRANCH  29  30
ATOM     30  C   LIG    1       31.110 -18.718   7.549  0.00  0.00    +0.200 C 
ATOM     31  O   LIG    1       32.069 -19.426   7.245  0.00  0.00    -0.288 OA
BRANCH  30  32
ATOM     32  C   LIG    1       31.161 -17.903   8.798  0.00  0.00    +0.021 A 
ATOM     33  C   LIG    1       32.235 -17.024   8.992  0.00  0.00    +0.011 A 
ATOM     34  C   LIG    1       32.352 -16.317  10.193  0.00  0.00    +0.001 A 
ATOM     35  C   LIG    1       31.388 -16.465  11.190  0.00  0.00    +0.000 A 
ATOM     36  C   LIG    1       30.298 -17.306  10.984  0.00  0.00    +0.001 A 
ATOM     37  C   LIG    1       30.185 -18.027   9.794  0.00  0.00    +0.011 A 
ENDBRANCH  30  32
ENDBRANCH  29  30
ENDBRANCH  28  29
ENDBRANCH  26  28
ENDBRANCH  25  26
ENDBRANCH  24  25
ENDBRANCH  23  24
ENDBRANCH   6  23
TORSDOF 15
ENDMDL
MODEL 6
REMARK VINA RESULT:      -9.2      1.936      3.241
REMARK  Name = *****
REMARK                            x       y       z     vdW  Elec       q    Type
REMARK                         _______ _______ _______ _____ _____    ______ ____
ROOT
ATOM      1  C   LIG    1       24.790 -21.829   6.040  0.00  0.00    +0.044 C 
ATOM      2  C   LIG    1       25.150 -23.300   5.754  0.00  0.00    +0.006 C 
ATOM      3  C   LIG    1       23.786 -23.996   5.725  0.00  0.00    -0.001 C 
ATOM      4  C   LIG    1       24.064 -25.476   5.985  0.00  0.00    +0.034 C 
ATOM      5  C   LIG    1       25.398 -25.493   6.692  0.00  0.00    -0.073 C 
ATOM      6  C   LIG    1       26.022 -26.592   7.161  0.00  0.00    -0.027 C 
ATOM      7  C   LIG    1       22.966 -23.300   6.817  0.00  0.00    +0.036 C 
ATOM      8  C   LIG    1       25.955 -24.087   6.792  0.00  0.00    +0.035 C 
ATOM      9  C   LIG    1       23.519 -21.874   6.924  0.00  0.00    +0.122 C 
ENDROOT
BRANCH   1  11
ATOM     10  C   LIG    1       26.898 -20.526   5.703  0.00  0.00    +0.000 C 
ATOM     11  C   LIG    1       25.898 -20.922   6.513  0.00  0.00    -0.022 C 
BRANCH  10  12
ATOM     12  C   LIG    1       28.034 -19.618   6.099  0.00  0.00    +0.141 C 
BRANCH  12  13
ATOM     13  C   LIG    1       29.305 -20.395   6.513  0.00  0.00    +0.030 C 
ATOM     14  C   LIG    1       29.053 -21.276   7.747  0.00  0.00    +0.011 C 
BRANCH  13  15
ATOM     15  C   LIG    1       30.493 -19.439   6.747  0.00  0.00    +0.095 C 
BRANCH  15  18
ATOM     16  C   LIG    1       30.245 -17.435  10.314  0.00  0.00    +0.106 C 
ATOM     17  C   LIG    1       30.198 -18.044   8.989  0.00  0.00    -0.106 C 
ATOM     18  C   LIG    1       30.256 -18.630   7.939  0.00  0.00    -0.102 C 
ENDBRANCH  15  18
ENDBRANCH  13  15
ENDBRANCH  12  13
BRANCH  12  19
ATOM     19  O   LIG    1       28.346 -18.804   4.970  0.00  0.00    -0.388 OA
ATOM     20  H   LIG    1       29.259 -18.486   5.080  0.00  0.00    +0.210 HD
ENDBRANCH  12  19
ENDBRANCH  10  12
ENDBRANCH   1  11
BRANCH   9  21
ATOM     21  O   LIG    1       23.745 -21.546   8.289  0.00  0.00    -0.391 OA
ATOM     22  H   LIG    1       24.686 -21.339   8.405  0.00  0.00    +0.210 HD
ENDBRANCH   9  21
BRANCH   6  23
ATOM     23  C   LIG    1       25.483 -28.005   7.104  0.00  0.00    +0.028 C 
BRANCH  23  24
ATOM     24  C   LIG    1       25.513 -28.729   8.461  0.00  0.00    +0.015 C 
BRANCH  24  25
ATOM     25  C   LIG    1       25.581 -30.250   8.281  0.00  0.00    +0.121 C 
BRANCH  25  26
ATOM     26  C   LIG    1       24.267 -30.933   8.585  0.00  0.00    +0.307 C 
ATOM     27  O   LIG    1       24.064 -32.137   8.500  0.00  0.00    -0.251 OA
BRANCH  26  28
ATOM     28  O   LIG    1       23.375 -30.029   9.087  0.00  0.00    -0.457 OA
BRANCH  28  29
ATOM     29  C   LIG    1       22.625 -30.516  10.197  0.00  0.00    +0.311 C 
BRANCH  29  30
ATOM     30  C   LIG    1       23.299 -30.350  11.563  0.00  0.00    +0.200 C 
ATOM     31  O   LIG    1       23.823 -31.283  12.171  0.00  0.00    -0.288 OA
BRANCH  30  32
ATOM     32  C   LIG    1       23.191 -29.013  12.216  0.00  0.00    +0.021 A 
ATOM     33  C   LIG    1       24.363 -28.340  12.586  0.00  0.00    +0.011 A 
ATOM     34  C   LIG    1       24.284 -27.129  13.280  0.00  0.00    +0.001 A 
ATOM     35  C   LIG    1       23.041 -26.574  13.583  0.00  0.00    +0.000 A 
ATOM     36  C   LIG    1       21.874 -27.219  13.181  0.00  0.00    +0.001 A 
ATOM     37  C   LIG    1       21.946 -28.437  12.503  0.00  0.00    +0.011 A 
ENDBRANCH  30  32
ENDBRANCH  29  30
ENDBRANCH  28  29
ENDBRANCH  26  28
ENDBRANCH  25  26
ENDBRANCH  24  25
ENDBRANCH  23  24
ENDBRANCH   6  23
TORSDOF 15
ENDMDL
MODEL 7
REMARK VINA RESULT:      -9.0      2.514      9.467
REMARK  Name = *****
REMARK                            x       y       z     vdW  Elec       q    Type
REMARK                         _______ _______ _______ _____ _____    ______ ____
ROOT
ATOM      1  C   LIG    1       24.931 -30.846   8.059  0.00  0.00    +0.044 C 
ATOM      2  C   LIG    1       24.489 -29.442   7.602  0.00  0.00    +0.006 C 
ATOM      3  C   LIG    1       24.096 -29.659   6.136  0.00  0.00    -0.001 C 
ATOM      4  C   LIG    1       24.166 -28.282   5.475  0.00  0.00    +0.034 C 
ATOM      5  C   LIG    1       25.098 -27.486   6.356  0.00  0.00    -0.073 C 
ATOM      6  C   LIG    1       25.496 -26.217   6.131  0.00  0.00    -0.027 C 
ATOM      7  C   LIG    1       25.112 -30.675   5.603  0.00  0.00    +0.036 C 
ATOM      8  C   LIG    1       25.522 -28.312   7.554  0.00  0.00    +0.035 C 
ATOM      9  C   LIG    1       25.544 -31.520   6.807  0.00  0.00    +0.122 C 
ENDROOT
BRANCH   1  11
ATOM     10  C   LIG    1       25.757 -29.953  10.245  0.00  0.00    +0.000 C 
ATOM     11  C   LIG    1       25.740 -30.940   9.329  0.00  0.00    -0.022 C 
BRANCH  10  12
ATOM     12  C   LIG    1       26.532 -29.976  11.538  0.00  0.00    +0.141 C 
BRANCH  12  13
ATOM     13  C   LIG    1       26.220 -28.763  12.443  0.00  0.00    +0.030 C 
ATOM     14  C   LIG    1       24.712 -28.472  12.504  0.00  0.00    +0.011 C 
BRANCH  13  15
ATOM     15  C   LIG    1       27.007 -27.514  11.996  0.00  0.00    +0.095 C 
BRANCH  15  18
ATOM     16  C   LIG    1       25.315 -24.542  14.255  0.00  0.00    +0.106 C 
ATOM     17  C   LIG    1       26.014 -25.470  13.373  0.00  0.00    -0.106 C 
ATOM     18  C   LIG    1       26.514 -26.333  12.698  0.00  0.00    -0.102 C 
ENDBRANCH  15  18
ENDBRANCH  13  15
ENDBRANCH  12  13
BRANCH  12  19
ATOM     19  O   LIG    1       26.172 -31.167  12.233  0.00  0.00    -0.388 OA
ATOM     20  H   LIG    1       26.759 -31.246  13.005  0.00  0.00    +0.210 HD
ENDBRANCH  12  19
ENDBRANCH  10  12
ENDBRANCH   1  11
BRANCH   9  21
ATOM     21  O   LIG    1       26.961 -31.628   6.836  0.00  0.00    -0.391 OA
ATOM     22  H   LIG    1       27.226 -32.372   6.271  0.00  0.00    +0.210 HD
ENDBRANCH   9  21
BRANCH   6  23
ATOM     23  C   LIG    1       25.117 -25.373   4.933  0.00  0.00    +0.028 C 
BRANCH  23  24
ATOM     24  C   LIG    1       25.018 -23.871   5.248  0.00  0.00    +0.015 C 
BRANCH  24  25
ATOM     25  C   LIG    1       24.777 -23.628   6.743  0.00  0.00    +0.121 C 
BRANCH  25  26
ATOM     26  C   LIG    1       23.383 -23.118   7.033  0.00  0.00    +0.307 C 
ATOM     27  O   LIG    1       22.347 -23.684   6.712  0.00  0.00    -0.251 OA
BRANCH  26  28
ATOM     28  O   LIG    1       23.447 -22.000   7.814  0.00  0.00    -0.457 OA
BRANCH  28  29
ATOM     29  C   LIG    1       24.384 -21.029   7.351  0.00  0.00    +0.311 C 
BRANCH  29  30
ATOM     30  C   LIG    1       25.670 -20.917   8.176  0.00  0.00    +0.200 C 
ATOM     31  O   LIG    1       25.705 -21.107   9.392  0.00  0.00    -0.288 OA
BRANCH  30  32
ATOM     32  C   LIG    1       26.892 -20.432   7.470  0.00  0.00    +0.021 A 
ATOM     33  C   LIG    1       28.024 -20.097   8.223  0.00  0.00    +0.011 A 
ATOM     34  C   LIG    1       29.149 -19.555   7.592  0.00  0.00    +0.001 A 
ATOM     35  C   LIG    1       29.155 -19.373   6.209  0.00  0.00    +0.000 A 
ATOM     36  C   LIG    1       28.048 -19.744   5.452  0.00  0.00    +0.001 A 
ATOM     37  C   LIG    1       26.916 -20.268   6.079  0.00  0.00    +0.011 A 
ENDBRANCH  30  32
ENDBRANCH  29  30
ENDBRANCH  28  29
ENDBRANCH  26  28
ENDBRANCH  25  26
ENDBRANCH  24  25
ENDBRANCH  23  24
ENDBRANCH   6  23
TORSDOF 15
ENDMDL
MODEL 8
REMARK VINA RESULT:      -9.0      3.036     11.017
REMARK  Name = *****
REMARK                            x       y       z     vdW  Elec       q    Type
REMARK                         _______ _______ _______ _____ _____    ______ ____
ROOT
ATOM      1  C   LIG    1       25.107 -27.464   5.530  0.00  0.00    +0.044 C 
ATOM      2  C   LIG    1       24.375 -26.128   5.293  0.00  0.00    +0.006 C 
ATOM      3  C   LIG    1       25.520 -25.116   5.184  0.00  0.00    -0.001 C 
ATOM      4  C   LIG    1       24.904 -23.751   5.485  0.00  0.00    +0.034 C 
ATOM      5  C   LIG    1       23.659 -24.064   6.281  0.00  0.00    -0.073 C 
ATOM      6  C   LIG    1       22.816 -23.154   6.808  0.00  0.00    -0.027 C 
ATOM      7  C   LIG    1       26.559 -25.587   6.207  0.00  0.00    +0.036 C 
ATOM      8  C   LIG    1       23.474 -25.564   6.395  0.00  0.00    +0.035 C 
ATOM      9  C   LIG    1       26.384 -27.105   6.328  0.00  0.00    +0.122 C 
ENDROOT
BRANCH   1  11
ATOM     10  C   LIG    1       24.649 -29.900   5.866  0.00  0.00    +0.000 C 
ATOM     11  C   LIG    1       24.292 -28.617   6.062  0.00  0.00    -0.022 C 
BRANCH  10  12
ATOM     12  C   LIG    1       23.893 -31.103   6.369  0.00  0.00    +0.141 C 
BRANCH  12  13
ATOM     13  C   LIG    1       24.738 -32.397   6.337  0.00  0.00    +0.030 C 
ATOM     14  C   LIG    1       24.713 -33.125   7.691  0.00  0.00    +0.011 C 
BRANCH  13  15
ATOM     15  C   LIG    1       26.185 -32.109   5.890  0.00  0.00    +0.095 C 
BRANCH  15  18
ATOM     16  C   LIG    1       26.522 -32.971   1.897  0.00  0.00    +0.106 C 
ATOM     17  C   LIG    1       26.489 -32.819   3.348  0.00  0.00    -0.106 C 
ATOM     18  C   LIG    1       26.390 -32.580   4.524  0.00  0.00    -0.102 C 
ENDBRANCH  15  18
ENDBRANCH  13  15
ENDBRANCH  12  13
BRANCH  12  19
ATOM     19  O   LIG    1       23.516 -30.839   7.718  0.00  0.00    -0.388 OA
ATOM     20  H   LIG    1       22.621 -30.459   7.705  0.00  0.00    +0.210 HD
ENDBRANCH  12  19
ENDBRANCH  10  12
ENDBRANCH   1  11
BRANCH   9  21
ATOM     21  O   LIG    1       26.341 -27.477   7.699  0.00  0.00    -0.391 OA
ATOM     22  H   LIG    1       27.250 -27.513   8.038  0.00  0.00    +0.210 HD
ENDBRANCH   9  21
BRANCH   6  23
ATOM     23  C   LIG    1       22.984 -21.651   6.738  0.00  0.00    +0.028 C 
BRANCH  23  24
ATOM     24  C   LIG    1       22.327 -21.017   5.500  0.00  0.00    +0.015 C 
BRANCH  24  25
ATOM     25  C   LIG    1       23.086 -19.764   5.045  0.00  0.00    +0.121 C 
BRANCH  25  26
ATOM     26  C   LIG    1       24.271 -20.088   4.163  0.00  0.00    +0.307 C 
ATOM     27  O   LIG    1       24.214 -20.709   3.110  0.00  0.00    -0.251 OA
BRANCH  26  28
ATOM     28  O   LIG    1       25.393 -19.480   4.647  0.00  0.00    -0.457 OA
BRANCH  28  29
ATOM     29  C   LIG    1       26.428 -20.391   5.014  0.00  0.00    +0.311 C 
BRANCH  29  30
ATOM     30  C   LIG    1       26.825 -20.365   6.494  0.00  0.00    +0.200 C 
ATOM     31  O   LIG    1       26.009 -20.471   7.409  0.00  0.00    -0.288 OA
BRANCH  30  32
ATOM     32  C   LIG    1       28.254 -20.072   6.809  0.00  0.00    +0.021 A 
ATOM     33  C   LIG    1       28.951 -19.155   6.011  0.00  0.00    +0.011 A 
ATOM     34  C   LIG    1       30.314 -18.933   6.230  0.00  0.00    +0.001 A 
ATOM     35  C   LIG    1       30.976 -19.601   7.260  0.00  0.00    +0.000 A 
ATOM     36  C   LIG    1       30.277 -20.481   8.081  0.00  0.00    +0.001 A 
ATOM     37  C   LIG    1       28.920 -20.721   7.855  0.00  0.00    +0.011 A 
ENDBRANCH  30  32
ENDBRANCH  29  30
ENDBRANCH  28  29
ENDBRANCH  26  28
ENDBRANCH  25  26
ENDBRANCH  24  25
ENDBRANCH  23  24
ENDBRANCH   6  23
TORSDOF 15
ENDMDL
MODEL 9
REMARK VINA RESULT:      -9.0      2.592     10.346
REMARK  Name = *****
REMARK                            x       y       z     vdW  Elec       q    Type
REMARK                         _______ _______ _______ _____ _____    ______ ____
ROOT
ATOM      1  C   LIG    1       25.510 -27.549   5.418  0.00  0.00    +0.044 C 
ATOM      2  C   LIG    1       24.727 -26.239   5.203  0.00  0.00    +0.006 C 
ATOM      3  C   LIG    1       25.792 -25.157   5.413  0.00  0.00    -0.001 C 
ATOM      4  C   LIG    1       25.027 -23.876   5.748  0.00  0.00    +0.034 C 
ATOM      5  C   LIG    1       23.693 -24.357   6.268  0.00  0.00    -0.073 C 
ATOM      6  C   LIG    1       22.704 -23.567   6.733  0.00  0.00    -0.027 C 
ATOM      7  C   LIG    1       26.674 -25.689   6.548  0.00  0.00    +0.036 C 
ATOM      8  C   LIG    1       23.610 -25.867   6.181  0.00  0.00    +0.035 C 
ATOM      9  C   LIG    1       26.600 -27.218   6.467  0.00  0.00    +0.122 C 
ENDROOT
BRANCH   1  11
ATOM     10  C   LIG    1       25.267 -30.029   5.642  0.00  0.00    +0.000 C 
ATOM     11  C   LIG    1       24.709 -28.804   5.665  0.00  0.00    -0.022 C 
BRANCH  10  12
ATOM     12  C   LIG    1       24.537 -31.325   5.884  0.00  0.00    +0.141 C 
BRANCH  12  13
ATOM     13  C   LIG    1       24.861 -31.947   7.262  0.00  0.00    +0.030 C 
ATOM     14  C   LIG    1       24.114 -31.230   8.398  0.00  0.00    +0.011 C 
BRANCH  13  15
ATOM     15  C   LIG    1       26.381 -31.964   7.523  0.00  0.00    +0.095 C 
BRANCH  15  18
ATOM     16  C   LIG    1       27.438 -29.642  10.732  0.00  0.00    +0.106 C 
ATOM     17  C   LIG    1       26.991 -30.582   9.709  0.00  0.00    -0.106 C 
ATOM     18  C   LIG    1       26.681 -31.276   8.776  0.00  0.00    -0.102 C 
ENDBRANCH  15  18
ENDBRANCH  13  15
ENDBRANCH  12  13
BRANCH  12  19
ATOM     19  O   LIG    1       23.139 -31.047   5.828  0.00  0.00    -0.388 OA
ATOM     20  H   LIG    1       22.980 -30.234   6.337  0.00  0.00    +0.210 HD
ENDBRANCH  12  19
ENDBRANCH  10  12
ENDBRANCH   1  11
BRANCH   9  21
ATOM     21  O   LIG    1       26.352 -27.757   7.758  0.00  0.00    -0.391 OA
ATOM     22  H   LIG    1       27.196 -27.814   8.236  0.00  0.00    +0.210 HD
ENDBRANCH   9  21
BRANCH   6  23
ATOM     23  C   LIG    1       22.763 -22.060   6.860  0.00  0.00    +0.028 C 
BRANCH  23  24
ATOM     24  C   LIG    1       22.345 -21.319   5.579  0.00  0.00    +0.015 C 
BRANCH  24  25
ATOM     25  C   LIG    1       22.964 -19.917   5.517  0.00  0.00    +0.121 C 
BRANCH  25  26
ATOM     26  C   LIG    1       23.951 -19.765   4.382  0.00  0.00    +0.307 C 
ATOM     27  O   LIG    1       23.911 -18.890   3.527  0.00  0.00    -0.251 OA
BRANCH  26  28
ATOM     28  O   LIG    1       24.964 -20.671   4.519  0.00  0.00    -0.457 OA
BRANCH  28  29
ATOM     29  C   LIG    1       26.208 -20.089   4.904  0.00  0.00    +0.311 C 
BRANCH  29  30
ATOM     30  C   LIG    1       26.651 -20.389   6.340  0.00  0.00    +0.200 C 
ATOM     31  O   LIG    1       25.871 -20.739   7.224  0.00  0.00    -0.288 OA
BRANCH  30  32
ATOM     32  C   LIG    1       28.078 -20.115   6.682  0.00  0.00    +0.021 A 
ATOM     33  C   LIG    1       28.774 -19.136   5.959  0.00  0.00    +0.011 A 
ATOM     34  C   LIG    1       30.135 -18.926   6.200  0.00  0.00    +0.001 A 
ATOM     35  C   LIG    1       30.797 -19.669   7.177  0.00  0.00    +0.000 A 
ATOM     36  C   LIG    1       30.100 -20.613   7.925  0.00  0.00    +0.001 A 
ATOM     37  C   LIG    1       28.744 -20.840   7.677  0.00  0.00    +0.011 A 
ENDBRANCH  30  32
ENDBRANCH  29  30
ENDBRANCH  28  29
ENDBRANCH  26  28
ENDBRANCH  25  26
ENDBRANCH  24  25
ENDBRANCH  23  24
ENDBRANCH   6  23
TORSDOF 15
ENDMDL
