MODEL 1
REMARK VINA RESULT:       3.5      0.000      0.000
REMARK  Name = *****
REMARK                            x       y       z     vdW  Elec       q    Type
REMARK                         _______ _______ _______ _____ _____    ______ ____
ROOT
ATOM      1  C   LIG    1       23.697 -16.913   4.470  0.00  0.00    +0.068 C 
ATOM      2  C   LIG    1       22.966 -18.190   4.984  0.00  0.00    +0.097 C 
ATOM      3  C   LIG    1       24.014 -19.260   5.226  0.00  0.00    +0.065 C 
ATOM      4  C   LIG    1       24.994 -19.395   4.309  0.00  0.00    +0.016 C 
ATOM      5  C   LIG    1       26.000 -20.512   4.272  0.00  0.00    +0.061 C 
ATOM      6  N   LIG    1       25.115 -18.412   3.314  0.00  0.00    -0.319 N 
ATOM      7  H   LIG    1       25.939 -18.470   2.711  0.00  0.00    +0.152 HD
ATOM      8  C   LIG    1       24.671 -17.093   3.529  0.00  0.00    +0.045 C 
ENDROOT
BRANCH   2   9
ATOM      9  C   LIG    1       21.763 -18.670   4.094  0.00  0.00    -0.017 A 
ATOM     10  C   LIG    1       21.141 -19.934   4.112  0.00  0.00    +0.045 A 
ATOM     11 CL   LIG    1       21.734 -21.339   4.909  0.00  0.00    -0.083 Cl
ATOM     12  C   LIG    1       19.947 -20.177   3.400  0.00  0.00    +0.020 A 
ATOM     13  C   LIG    1       19.351 -19.198   2.619  0.00  0.00    +0.001 A 
ATOM     14  C   LIG    1       19.961 -17.965   2.536  0.00  0.00    +0.000 A 
ATOM     15  C   LIG    1       21.137 -17.728   3.261  0.00  0.00    +0.006 A 
ENDBRANCH   2   9
BRANCH   1  16
ATOM     16  C   LIG    1       23.270 -15.667   5.207  0.00  0.00    +0.338 C 
ATOM     17  O   LIG    1       22.307 -15.617   5.939  0.00  0.00    -0.245 OA
BRANCH  16  18
ATOM     18  O   LIG    1       24.113 -14.627   4.985  0.00  0.00    -0.462 OA
BRANCH  18  20
ATOM     19  C   LIG    1       24.107 -12.256   4.500  0.00  0.00    +0.048 C 
ATOM     20  C   LIG    1       23.705 -13.637   4.015  0.00  0.00    +0.229 C 
ENDBRANCH  18  20
ENDBRANCH  16  18
ENDBRANCH   1  16
BRANCH   3  21
ATOM     21  C   LIG    1       23.918 -20.039   6.507  0.00  0.00    +0.337 C 
ATOM     22  O   LIG    1       22.930 -20.480   6.992  0.00  0.00    -0.245 OA
BRANCH  21  23
ATOM     23  O   LIG    1       25.186 -20.158   7.017  0.00  0.00    -0.465 OA
ATOM     24  C   LIG    1       25.741 -21.469   7.029  0.00  0.00    +0.280 C 
ENDBRANCH  21  23
ENDBRANCH   3  21
BRANCH   8  25
ATOM     25  C   LIG    1       25.440 -16.023   2.754  0.00  0.00    +0.211 C 
BRANCH  25  26
ATOM     26  O   LIG    1       26.854 -16.013   3.085  0.00  0.00    -0.373 OA
BRANCH  26  27
ATOM     27  C   LIG    1       27.157 -14.963   4.028  0.00  0.00    +0.175 C 
BRANCH  27  28
ATOM     28  C   LIG    1       27.667 -13.681   3.328  0.00  0.00    +0.106 C 
BRANCH  28  29
ATOM     29  N   LIG    1       29.101 -13.484   3.553  0.00  0.00    -0.328 NA
ATOM     30  H   LIG    1       29.362 -13.902   4.443  0.00  0.00    +0.118 HD
ATOM     31  H   LIG    1       29.294 -12.485   3.645  0.00  0.00    +0.118 HD
ENDBRANCH  28  29
ENDBRANCH  27  28
ENDBRANCH  26  27
ENDBRANCH  25  26
ENDBRANCH   8  25
TORSDOF 11
ENDMDL
MODEL 2
REMARK VINA RESULT:       4.7      3.160      6.474
REMARK  Name = *****
REMARK                            x       y       z     vdW  Elec       q    Type
REMARK                         _______ _______ _______ _____ _____    ______ ____
ROOT
ATOM      1  C   LIG    1       26.419 -16.845   3.646  0.00  0.00    +0.068 C 
ATOM      2  C   LIG    1       25.545 -15.575   3.413  0.00  0.00    +0.097 C 
ATOM      3  C   LIG    1       26.471 -14.374   3.375  0.00  0.00    +0.065 C 
ATOM      4  C   LIG    1       27.465 -14.322   4.286  0.00  0.00    +0.016 C 
ATOM      5  C   LIG    1       28.354 -13.135   4.532  0.00  0.00    +0.061 C 
ATOM      6  N   LIG    1       27.720 -15.465   5.059  0.00  0.00    -0.319 N 
ATOM      7  H   LIG    1       28.556 -15.441   5.648  0.00  0.00    +0.152 HD
ATOM      8  C   LIG    1       27.404 -16.754   4.588  0.00  0.00    +0.045 C 
ENDROOT
BRANCH   2   9
ATOM      9  C   LIG    1       24.333 -15.412   4.400  0.00  0.00    -0.017 A 
ATOM     10  C   LIG    1       23.998 -14.273   5.158  0.00  0.00    +0.045 A 
ATOM     11 CL   LIG    1       24.998 -12.893   5.398  0.00  0.00    -0.083 Cl
ATOM     12  C   LIG    1       22.777 -14.188   5.859  0.00  0.00    +0.020 A 
ATOM     13  C   LIG    1       21.866 -15.233   5.869  0.00  0.00    +0.001 A 
ATOM     14  C   LIG    1       22.184 -16.384   5.181  0.00  0.00    +0.000 A 
ATOM     15  C   LIG    1       23.392 -16.453   4.473  0.00  0.00    +0.006 A 
ENDBRANCH   2   9
BRANCH   1  16
ATOM     16  C   LIG    1       26.092 -17.956   2.680  0.00  0.00    +0.338 C 
ATOM     17  O   LIG    1       26.864 -18.364   1.840  0.00  0.00    -0.245 OA
BRANCH  16  18
ATOM     18  O   LIG    1       24.854 -18.469   2.889  0.00  0.00    -0.462 OA
BRANCH  18  20
ATOM     19  C   LIG    1       23.326 -20.118   3.786  0.00  0.00    +0.048 C 
ATOM     20  C   LIG    1       24.771 -19.799   3.448  0.00  0.00    +0.229 C 
ENDBRANCH  18  20
ENDBRANCH  16  18
ENDBRANCH   1  16
BRANCH   3  21
ATOM     21  C   LIG    1       26.250 -13.369   2.280  0.00  0.00    +0.337 C 
ATOM     22  O   LIG    1       27.039 -12.583   1.875  0.00  0.00    -0.245 OA
BRANCH  21  23
ATOM     23  O   LIG    1       24.965 -13.528   1.824  0.00  0.00    -0.465 OA
ATOM     24  C   LIG    1       24.142 -12.367   1.842  0.00  0.00    +0.280 C 
ENDBRANCH  21  23
ENDBRANCH   3  21
BRANCH   8  25
ATOM     25  C   LIG    1       28.304 -17.870   5.120  0.00  0.00    +0.211 C 
BRANCH  25  26
ATOM     26  O   LIG    1       27.544 -19.021   5.571  0.00  0.00    -0.373 OA
BRANCH  26  27
ATOM     27  C   LIG    1       28.377 -19.927   6.326  0.00  0.00    +0.175 C 
BRANCH  27  28
ATOM     28  C   LIG    1       27.604 -21.190   6.776  0.00  0.00    +0.106 C 
BRANCH  28  29
ATOM     29  N   LIG    1       26.279 -21.255   6.155  0.00  0.00    -0.328 NA
ATOM     30  H   LIG    1       25.793 -20.374   6.307  0.00  0.00    +0.118 HD
ATOM     31  H   LIG    1       25.720 -21.968   6.627  0.00  0.00    +0.118 HD
ENDBRANCH  28  29
ENDBRANCH  27  28
ENDBRANCH  26  27
ENDBRANCH  25  26
ENDBRANCH   8  25
TORSDOF 11
ENDMDL
MODEL 3
REMARK VINA RESULT:       5.2      2.489      5.058
REMARK  Name = *****
REMARK                            x       y       z     vdW  Elec       q    Type
REMARK                         _______ _______ _______ _____ _____    ______ ____
ROOT
ATOM      1  C   LIG    1       25.568 -16.502   3.755  0.00  0.00    +0.068 C 
ATOM      2  C   LIG    1       25.978 -18.005   3.683  0.00  0.00    +0.097 C 
ATOM      3  C   LIG    1       24.721 -18.819   3.442  0.00  0.00    +0.065 C 
ATOM      4  C   LIG    1       23.613 -18.479   4.134  0.00  0.00    +0.016 C 
ATOM      5  C   LIG    1       22.340 -19.277   4.179  0.00  0.00    +0.061 C 
ATOM      6  N   LIG    1       23.624 -17.276   4.857  0.00  0.00    -0.319 N 
ATOM      7  H   LIG    1       22.734 -16.981   5.266  0.00  0.00    +0.152 HD
ATOM      8  C   LIG    1       24.450 -16.200   4.479  0.00  0.00    +0.045 C 
ENDROOT
BRANCH   2   9
ATOM      9  C   LIG    1       26.844 -18.515   4.891  0.00  0.00    -0.017 A 
ATOM     10  C   LIG    1       26.531 -19.559   5.783  0.00  0.00    +0.045 A 
ATOM     11 CL   LIG    1       25.000 -20.329   5.935  0.00  0.00    -0.083 Cl
ATOM     12  C   LIG    1       27.478 -20.047   6.708  0.00  0.00    +0.020 A 
ATOM     13  C   LIG    1       28.748 -19.500   6.809  0.00  0.00    +0.001 A 
ATOM     14  C   LIG    1       29.073 -18.442   5.988  0.00  0.00    +0.000 A 
ATOM     15  C   LIG    1       28.131 -17.975   5.061  0.00  0.00    +0.006 A 
ENDBRANCH   2   9
BRANCH   1  16
ATOM     16  C   LIG    1       26.438 -15.624   2.890  0.00  0.00    +0.338 C 
ATOM     17  O   LIG    1       26.093 -15.189   1.814  0.00  0.00    -0.245 OA
BRANCH  16  18
ATOM     18  O   LIG    1       27.630 -15.347   3.477  0.00  0.00    -0.462 OA
BRANCH  18  20
ATOM     19  C   LIG    1       27.756 -13.575   5.121  0.00  0.00    +0.048 C 
ATOM     20  C   LIG    1       27.970 -13.956   3.667  0.00  0.00    +0.229 C 
ENDBRANCH  18  20
ENDBRANCH  16  18
ENDBRANCH   1  16
BRANCH   3  21
ATOM     21  C   LIG    1       24.790 -19.898   2.400  0.00  0.00    +0.337 C 
ATOM     22  O   LIG    1       25.758 -20.253   1.814  0.00  0.00    -0.245 OA
BRANCH  21  23
ATOM     23  O   LIG    1       23.526 -20.409   2.247  0.00  0.00    -0.465 OA
ATOM     24  C   LIG    1       23.215 -21.564   3.018  0.00  0.00    +0.280 C 
ENDBRANCH  21  23
ENDBRANCH   3  21
BRANCH   8  25
ATOM     25  C   LIG    1       23.904 -14.817   4.834  0.00  0.00    +0.211 C 
BRANCH  25  26
ATOM     26  O   LIG    1       24.549 -13.760   4.076  0.00  0.00    -0.373 OA
BRANCH  26  27
ATOM     27  C   LIG    1       23.649 -12.650   3.867  0.00  0.00    +0.175 C 
BRANCH  27  28
ATOM     28  C   LIG    1       23.762 -11.590   4.989  0.00  0.00    +0.106 C 
BRANCH  28  29
ATOM     29  N   LIG    1       25.087 -11.611   5.612  0.00  0.00    -0.328 NA
ATOM     30  H   LIG    1       25.242 -12.520   6.043  0.00  0.00    +0.118 HD
ATOM     31  H   LIG    1       25.112 -10.932   6.375  0.00  0.00    +0.118 HD
ENDBRANCH  28  29
ENDBRANCH  27  28
ENDBRANCH  26  27
ENDBRANCH  25  26
ENDBRANCH   8  25
TORSDOF 11
ENDMDL
