MODEL 1
REMARK VINA RESULT:      -9.6      0.000      0.000
REMARK  Name = *****
REMARK                            x       y       z     vdW  Elec       q    Type
REMARK                         _______ _______ _______ _____ _____    ______ ____
ROOT
ATOM      1  C   LIG    1       27.578 -20.300   6.954  0.00  0.00    +0.033 A 
ATOM      2  C   LIG    1       27.135 -20.296   5.628  0.00  0.00    +0.023 A 
ATOM      3  C   LIG    1       25.778 -20.518   5.333  0.00  0.00    +0.005 A 
ATOM      4  C   LIG    1       24.856 -20.770   6.359  0.00  0.00    -0.046 A 
ATOM      5  C   LIG    1       25.293 -20.688   7.679  0.00  0.00    +0.005 A 
ATOM      6  C   LIG    1       26.625 -20.405   7.968  0.00  0.00    +0.023 A 
ENDROOT
BRANCH   1   8
ATOM      7  C   LIG    1       29.874 -19.330   6.951  0.00  0.00    +0.223 C 
ATOM      8  N   LIG    1       28.968 -20.340   7.226  0.00  0.00    -0.285 N 
ATOM      9  H   LIG    1       29.297 -21.118   7.795  0.00  0.00    +0.155 HD
ATOM     10  O   LIG    1       29.657 -18.327   6.251  0.00  0.00    -0.275 OA
BRANCH   7  11
ATOM     11  C   LIG    1       31.204 -19.436   7.640  0.00  0.00    +0.152 C 
BRANCH  11  15
ATOM     12  C   LIG    1       32.284 -16.592   9.533  0.00  0.00    +0.156 A 
ATOM     13  S   LIG    1       31.550 -17.216  10.952  0.00  0.00    -0.061 S 
ATOM     14  C   LIG    1       31.026 -18.587  10.065  0.00  0.00    +0.072 A 
ATOM     15  C   LIG    1       31.388 -18.452   8.738  0.00  0.00    +0.059 A 
ATOM     16  N   LIG    1       32.076 -17.285   8.444  0.00  0.00    -0.230 NA
BRANCH  12  17
ATOM     17  N   LIG    1       33.025 -15.477   9.545  0.00  0.00    -0.338 N 
ATOM     18  H   LIG    1       33.247 -14.996   8.685  0.00  0.00    +0.144 HD
ATOM     19  H   LIG    1       33.675 -15.360  10.311  0.00  0.00    +0.144 HD
ENDBRANCH  12  17
ENDBRANCH  11  15
ENDBRANCH   7  11
ENDBRANCH   1   8
BRANCH   4  20
ATOM     20  C   LIG    1       23.417 -21.123   6.078  0.00  0.00    +0.050 C 
BRANCH  20  21
ATOM     21  C   LIG    1       22.893 -22.319   6.898  0.00  0.00    +0.085 C 
BRANCH  21  22
ATOM     22  N   LIG    1       23.222 -23.641   6.317  0.00  0.00    -0.313 NA
ATOM     23  H   LIG    1       23.281 -23.546   5.301  0.00  0.00    +0.122 HD
BRANCH  22  24
ATOM     24  C   LIG    1       24.502 -24.170   6.837  0.00  0.00    +0.117 C 
BRANCH  24  25
ATOM     25  C   LIG    1       25.252 -25.062   5.810  0.00  0.00    +0.158 C 
BRANCH  25  26
ATOM     26  C   LIG    1       25.139 -26.535   6.146  0.00  0.00    -0.018 A 
ATOM     27  C   LIG    1       24.320 -27.384   5.386  0.00  0.00    +0.006 A 
ATOM     28  C   LIG    1       24.185 -28.734   5.725  0.00  0.00    +0.000 A 
ATOM     29  C   LIG    1       24.868 -29.252   6.824  0.00  0.00    +0.000 A 
ATOM     30  C   LIG    1       25.697 -28.425   7.578  0.00  0.00    +0.000 A 
ATOM     31  C   LIG    1       25.833 -27.078   7.240  0.00  0.00    +0.006 A 
ENDBRANCH  25  26
BRANCH  25  32
ATOM     32  O   LIG    1       24.725 -24.864   4.498  0.00  0.00    -0.386 OA
ATOM     33  H   LIG    1       24.267 -25.693   4.271  0.00  0.00    +0.210 HD
ENDBRANCH  25  32
ENDBRANCH  24  25
ENDBRANCH  22  24
ENDBRANCH  21  22
ENDBRANCH  20  21
ENDBRANCH   4  20
TORSDOF 11
ENDMDL
MODEL 2
REMARK VINA RESULT:      -9.4      1.632      2.071
REMARK  Name = *****
REMARK                            x       y       z     vdW  Elec       q    Type
REMARK                         _______ _______ _______ _____ _____    ______ ____
ROOT
ATOM      1  C   LIG    1       27.218 -20.344   7.379  0.00  0.00    +0.033 A 
ATOM      2  C   LIG    1       26.589 -20.425   6.132  0.00  0.00    +0.023 A 
ATOM      3  C   LIG    1       25.406 -21.171   5.982  0.00  0.00    +0.005 A 
ATOM      4  C   LIG    1       24.855 -21.862   7.070  0.00  0.00    -0.046 A 
ATOM      5  C   LIG    1       25.442 -21.705   8.323  0.00  0.00    +0.005 A 
ATOM      6  C   LIG    1       26.576 -20.914   8.479  0.00  0.00    +0.023 A 
ENDROOT
BRANCH   1   8
ATOM      7  C   LIG    1       29.654 -20.519   7.874  0.00  0.00    +0.223 C 
ATOM      8  N   LIG    1       28.531 -19.820   7.466  0.00  0.00    -0.285 N 
ATOM      9  H   LIG    1       28.679 -18.897   7.063  0.00  0.00    +0.155 HD
ATOM     10  O   LIG    1       29.661 -21.639   8.412  0.00  0.00    -0.275 OA
BRANCH   7  11
ATOM     11  C   LIG    1       30.977 -19.884   7.549  0.00  0.00    +0.152 C 
BRANCH  11  15
ATOM     12  C   LIG    1       31.296 -17.926  10.533  0.00  0.00    +0.156 A 
ATOM     13  S   LIG    1       32.226 -16.749   9.701  0.00  0.00    -0.061 S 
ATOM     14  C   LIG    1       32.083 -17.670   8.261  0.00  0.00    +0.072 A 
ATOM     15  C   LIG    1       31.392 -18.839   8.520  0.00  0.00    +0.059 A 
ATOM     16  N   LIG    1       30.981 -18.987   9.835  0.00  0.00    -0.230 NA
BRANCH  12  17
ATOM     17  N   LIG    1       30.912 -17.763  11.805  0.00  0.00    -0.338 N 
ATOM     18  H   LIG    1       30.524 -16.885  12.119  0.00  0.00    +0.144 HD
ATOM     19  H   LIG    1       31.372 -18.331  12.505  0.00  0.00    +0.144 HD
ENDBRANCH  12  17
ENDBRANCH  11  15
ENDBRANCH   7  11
ENDBRANCH   1   8
BRANCH   4  20
ATOM     20  C   LIG    1       23.653 -22.762   6.925  0.00  0.00    +0.050 C 
BRANCH  20  21
ATOM     21  C   LIG    1       24.000 -24.212   6.531  0.00  0.00    +0.085 C 
BRANCH  21  22
ATOM     22  N   LIG    1       24.724 -24.332   5.245  0.00  0.00    -0.313 NA
ATOM     23  H   LIG    1       25.554 -23.737   5.280  0.00  0.00    +0.122 HD
BRANCH  22  24
ATOM     24  C   LIG    1       25.130 -25.728   4.967  0.00  0.00    +0.117 C 
BRANCH  24  25
ATOM     25  C   LIG    1       26.053 -26.322   6.066  0.00  0.00    +0.158 C 
BRANCH  25  26
ATOM     26  C   LIG    1       25.488 -27.598   6.656  0.00  0.00    -0.018 A 
ATOM     27  C   LIG    1       25.910 -28.058   7.912  0.00  0.00    +0.006 A 
ATOM     28  C   LIG    1       25.417 -29.258   8.433  0.00  0.00    +0.000 A 
ATOM     29  C   LIG    1       24.497 -30.011   7.707  0.00  0.00    +0.000 A 
ATOM     30  C   LIG    1       24.056 -29.560   6.465  0.00  0.00    +0.000 A 
ATOM     31  C   LIG    1       24.546 -28.361   5.945  0.00  0.00    +0.006 A 
ENDBRANCH  25  26
BRANCH  25  32
ATOM     32  O   LIG    1       27.344 -26.614   5.529  0.00  0.00    -0.386 OA
ATOM     33  H   LIG    1       27.924 -25.894   5.836  0.00  0.00    +0.210 HD
ENDBRANCH  25  32
ENDBRANCH  24  25
ENDBRANCH  22  24
ENDBRANCH  21  22
ENDBRANCH  20  21
ENDBRANCH   4  20
TORSDOF 11
ENDMDL
MODEL 3
REMARK VINA RESULT:      -9.3      3.592     10.139
REMARK  Name = *****
REMARK                            x       y       z     vdW  Elec       q    Type
REMARK                         _______ _______ _______ _____ _____    ______ ____
ROOT
ATOM      1  C   LIG    1       24.442 -24.829   6.589  0.00  0.00    +0.033 A 
ATOM      2  C   LIG    1       25.763 -24.527   6.933  0.00  0.00    +0.023 A 
ATOM      3  C   LIG    1       26.146 -23.194   7.173  0.00  0.00    +0.005 A 
ATOM      4  C   LIG    1       25.217 -22.151   7.048  0.00  0.00    -0.046 A 
ATOM      5  C   LIG    1       23.887 -22.473   6.788  0.00  0.00    +0.005 A 
ATOM      6  C   LIG    1       23.501 -23.799   6.614  0.00  0.00    +0.023 A 
ENDROOT
BRANCH   1   8
ATOM      7  C   LIG    1       24.912 -26.871   5.239  0.00  0.00    +0.223 C 
ATOM      8  N   LIG    1       24.127 -26.120   6.096  0.00  0.00    -0.285 N 
ATOM      9  H   LIG    1       23.325 -26.583   6.518  0.00  0.00    +0.155 HD
ATOM     10  O   LIG    1       25.906 -26.464   4.615  0.00  0.00    -0.275 OA
BRANCH   7  11
ATOM     11  C   LIG    1       24.564 -28.329   5.137  0.00  0.00    +0.152 C 
BRANCH  11  15
ATOM     12  C   LIG    1       25.520 -29.252   8.465  0.00  0.00    +0.156 A 
ATOM     13  S   LIG    1       24.763 -30.781   8.294  0.00  0.00    -0.061 S 
ATOM     14  C   LIG    1       24.297 -30.361   6.697  0.00  0.00    +0.072 A 
ATOM     15  C   LIG    1       24.693 -29.065   6.421  0.00  0.00    +0.059 A 
ATOM     16  N   LIG    1       25.359 -28.432   7.458  0.00  0.00    -0.230 NA
BRANCH  12  17
ATOM     17  N   LIG    1       26.232 -28.926   9.550  0.00  0.00    -0.338 N 
ATOM     18  H   LIG    1       25.778 -28.564  10.376  0.00  0.00    +0.144 HD
ATOM     19  H   LIG    1       27.197 -28.656   9.409  0.00  0.00    +0.144 HD
ENDBRANCH  12  17
ENDBRANCH  11  15
ENDBRANCH   7  11
ENDBRANCH   1   8
BRANCH   4  20
ATOM     20  C   LIG    1       25.613 -20.703   7.187  0.00  0.00    +0.050 C 
BRANCH  20  21
ATOM     21  C   LIG    1       26.908 -20.481   7.994  0.00  0.00    +0.085 C 
BRANCH  21  22
ATOM     22  N   LIG    1       28.063 -20.043   7.177  0.00  0.00    -0.313 NA
ATOM     23  H   LIG    1       27.934 -19.060   6.930  0.00  0.00    +0.122 HD
BRANCH  22  24
ATOM     24  C   LIG    1       29.344 -20.205   7.899  0.00  0.00    +0.117 C 
BRANCH  24  25
ATOM     25  C   LIG    1       30.426 -19.184   7.453  0.00  0.00    +0.158 C 
BRANCH  25  26
ATOM     26  C   LIG    1       30.824 -18.249   8.577  0.00  0.00    -0.018 A 
ATOM     27  C   LIG    1       32.056 -17.580   8.553  0.00  0.00    +0.006 A 
ATOM     28  C   LIG    1       32.437 -16.751   9.612  0.00  0.00    +0.000 A 
ATOM     29  C   LIG    1       31.591 -16.578  10.706  0.00  0.00    +0.000 A 
ATOM     30  C   LIG    1       30.357 -17.223  10.736  0.00  0.00    +0.000 A 
ATOM     31  C   LIG    1       29.975 -18.050   9.679  0.00  0.00    +0.006 A 
ENDBRANCH  25  26
BRANCH  25  32
ATOM     32  O   LIG    1       31.599 -19.865   7.005  0.00  0.00    -0.386 OA
ATOM     33  H   LIG    1       31.432 -20.089   6.072  0.00  0.00    +0.210 HD
ENDBRANCH  25  32
ENDBRANCH  24  25
ENDBRANCH  22  24
ENDBRANCH  21  22
ENDBRANCH  20  21
ENDBRANCH   4  20
TORSDOF 11
ENDMDL
MODEL 4
REMARK VINA RESULT:      -8.9      4.924      9.967
REMARK  Name = *****
REMARK                            x       y       z     vdW  Elec       q    Type
REMARK                         _______ _______ _______ _____ _____    ______ ____
ROOT
ATOM      1  C   LIG    1       25.855 -27.206   5.673  0.00  0.00    +0.033 A 
ATOM      2  C   LIG    1       25.466 -26.531   4.513  0.00  0.00    +0.023 A 
ATOM      3  C   LIG    1       25.084 -25.178   4.573  0.00  0.00    +0.005 A 
ATOM      4  C   LIG    1       25.066 -24.496   5.798  0.00  0.00    -0.046 A 
ATOM      5  C   LIG    1       25.537 -25.153   6.932  0.00  0.00    +0.005 A 
ATOM      6  C   LIG    1       25.974 -26.473   6.855  0.00  0.00    +0.023 A 
ENDROOT
BRANCH   1   8
ATOM      7  C   LIG    1       24.934 -29.522   5.629  0.00  0.00    +0.223 C 
ATOM      8  N   LIG    1       25.982 -28.617   5.652  0.00  0.00    -0.285 N 
ATOM      9  H   LIG    1       26.918 -28.986   5.501  0.00  0.00    +0.155 HD
ATOM     10  O   LIG    1       23.737 -29.255   5.823  0.00  0.00    -0.275 OA
BRANCH   7  11
ATOM     11  C   LIG    1       25.291 -30.930   5.248  0.00  0.00    +0.152 C 
BRANCH  11  15
ATOM     12  C   LIG    1       26.734 -31.837   8.400  0.00  0.00    +0.156 A 
ATOM     13  S   LIG    1       27.465 -33.224   7.704  0.00  0.00    -0.061 S 
ATOM     14  C   LIG    1       26.785 -32.807   6.185  0.00  0.00    +0.072 A 
ATOM     15  C   LIG    1       25.999 -31.678   6.319  0.00  0.00    +0.059 A 
ATOM     16  N   LIG    1       25.951 -31.157   7.602  0.00  0.00    -0.230 NA
BRANCH  12  17
ATOM     17  N   LIG    1       26.958 -31.473   9.668  0.00  0.00    -0.338 N 
ATOM     18  H   LIG    1       27.878 -31.182   9.967  0.00  0.00    +0.144 HD
ATOM     19  H   LIG    1       26.355 -31.869  10.378  0.00  0.00    +0.144 HD
ENDBRANCH  12  17
ENDBRANCH  11  15
ENDBRANCH   7  11
ENDBRANCH   1   8
BRANCH   4  20
ATOM     20  C   LIG    1       24.557 -23.082   5.922  0.00  0.00    +0.050 C 
BRANCH  20  21
ATOM     21  C   LIG    1       23.386 -22.921   6.912  0.00  0.00    +0.085 C 
BRANCH  21  22
ATOM     22  N   LIG    1       23.451 -21.689   7.731  0.00  0.00    -0.313 NA
ATOM     23  H   LIG    1       23.492 -21.954   8.717  0.00  0.00    +0.122 HD
BRANCH  22  24
ATOM     24  C   LIG    1       24.630 -20.862   7.393  0.00  0.00    +0.117 C 
BRANCH  24  25
ATOM     25  C   LIG    1       25.879 -21.206   8.250  0.00  0.00    +0.158 C 
BRANCH  25  26
ATOM     26  C   LIG    1       27.168 -20.796   7.567  0.00  0.00    -0.018 A 
ATOM     27  C   LIG    1       28.408 -21.013   8.184  0.00  0.00    +0.006 A 
ATOM     28  C   LIG    1       29.592 -20.595   7.570  0.00  0.00    +0.000 A 
ATOM     29  C   LIG    1       29.551 -19.957   6.332  0.00  0.00    +0.000 A 
ATOM     30  C   LIG    1       28.328 -19.749   5.699  0.00  0.00    +0.000 A 
ATOM     31  C   LIG    1       27.146 -20.167   6.311  0.00  0.00    +0.006 A 
ENDBRANCH  25  26
BRANCH  25  32
ATOM     32  O   LIG    1       25.815 -20.544   9.513  0.00  0.00    -0.386 OA
ATOM     33  H   LIG    1       25.809 -21.254  10.181  0.00  0.00    +0.210 HD
ENDBRANCH  25  32
ENDBRANCH  24  25
ENDBRANCH  22  24
ENDBRANCH  21  22
ENDBRANCH  20  21
ENDBRANCH   4  20
TORSDOF 11
ENDMDL
MODEL 5
REMARK VINA RESULT:      -8.8      5.410     10.584
REMARK  Name = *****
REMARK                            x       y       z     vdW  Elec       q    Type
REMARK                         _______ _______ _______ _____ _____    ______ ____
ROOT
ATOM      1  C   LIG    1       25.388 -28.242   6.593  0.00  0.00    +0.033 A 
ATOM      2  C   LIG    1       24.399 -27.760   5.730  0.00  0.00    +0.023 A 
ATOM      3  C   LIG    1       24.181 -26.376   5.604  0.00  0.00    +0.005 A 
ATOM      4  C   LIG    1       24.934 -25.463   6.356  0.00  0.00    -0.046 A 
ATOM      5  C   LIG    1       25.972 -25.950   7.146  0.00  0.00    +0.005 A 
ATOM      6  C   LIG    1       26.225 -27.317   7.219  0.00  0.00    +0.023 A 
ENDROOT
BRANCH   1   8
ATOM      7  C   LIG    1       24.488 -30.299   7.675  0.00  0.00    +0.223 C 
ATOM      8  N   LIG    1       25.424 -29.622   6.912  0.00  0.00    -0.285 N 
ATOM      9  H   LIG    1       26.120 -30.182   6.425  0.00  0.00    +0.155 HD
ATOM     10  O   LIG    1       23.590 -29.779   8.357  0.00  0.00    -0.275 OA
BRANCH   7  11
ATOM     11  C   LIG    1       24.528 -31.798   7.585  0.00  0.00    +0.152 C 
BRANCH  11  15
ATOM     12  C   LIG    1       25.627 -32.624   4.276  0.00  0.00    +0.156 A 
ATOM     13  S   LIG    1       26.946 -33.524   4.902  0.00  0.00    -0.061 S 
ATOM     14  C   LIG    1       26.436 -33.142   6.495  0.00  0.00    +0.072 A 
ATOM     15  C   LIG    1       25.335 -32.307   6.446  0.00  0.00    +0.059 A 
ATOM     16  N   LIG    1       24.908 -31.990   5.167  0.00  0.00    -0.230 NA
BRANCH  12  17
ATOM     17  N   LIG    1       25.350 -32.582   2.967  0.00  0.00    -0.338 N 
ATOM     18  H   LIG    1       24.502 -32.148   2.633  0.00  0.00    +0.144 HD
ATOM     19  H   LIG    1       25.748 -33.308   2.385  0.00  0.00    +0.144 HD
ENDBRANCH  12  17
ENDBRANCH  11  15
ENDBRANCH   7  11
ENDBRANCH   1   8
BRANCH   4  20
ATOM     20  C   LIG    1       24.656 -23.981   6.333  0.00  0.00    +0.050 C 
BRANCH  20  21
ATOM     21  C   LIG    1       23.204 -23.610   6.695  0.00  0.00    +0.085 C 
BRANCH  21  22
ATOM     22  N   LIG    1       22.635 -22.518   5.872  0.00  0.00    -0.313 NA
ATOM     23  H   LIG    1       21.617 -22.600   5.878  0.00  0.00    +0.122 HD
BRANCH  22  24
ATOM     24  C   LIG    1       23.025 -21.184   6.378  0.00  0.00    +0.117 C 
BRANCH  24  25
ATOM     25  C   LIG    1       24.125 -20.505   5.518  0.00  0.00    +0.158 C 
BRANCH  25  26
ATOM     26  C   LIG    1       25.461 -20.461   6.231  0.00  0.00    -0.018 A 
ATOM     27  C   LIG    1       25.538 -20.630   7.622  0.00  0.00    +0.006 A 
ATOM     28  C   LIG    1       26.768 -20.547   8.281  0.00  0.00    +0.000 A 
ATOM     29  C   LIG    1       27.934 -20.297   7.561  0.00  0.00    +0.000 A 
ATOM     30  C   LIG    1       27.875 -20.144   6.178  0.00  0.00    +0.000 A 
ATOM     31  C   LIG    1       26.648 -20.228   5.518  0.00  0.00    +0.006 A 
ENDBRANCH  25  26
BRANCH  25  32
ATOM     32  O   LIG    1       24.301 -21.208   4.287  0.00  0.00    -0.386 OA
ATOM     33  H   LIG    1       24.537 -20.530   3.629  0.00  0.00    +0.210 HD
ENDBRANCH  25  32
ENDBRANCH  24  25
ENDBRANCH  22  24
ENDBRANCH  21  22
ENDBRANCH  20  21
ENDBRANCH   4  20
TORSDOF 11
ENDMDL
MODEL 6
REMARK VINA RESULT:      -8.6      3.926      6.886
REMARK  Name = *****
REMARK                            x       y       z     vdW  Elec       q    Type
REMARK                         _______ _______ _______ _____ _____    ______ ____
ROOT
ATOM      1  C   LIG    1       24.968 -25.088   6.015  0.00  0.00    +0.033 A 
ATOM      2  C   LIG    1       25.885 -25.628   6.922  0.00  0.00    +0.023 A 
ATOM      3  C   LIG    1       26.040 -27.022   7.029  0.00  0.00    +0.005 A 
ATOM      4  C   LIG    1       25.264 -27.888   6.245  0.00  0.00    -0.046 A 
ATOM      5  C   LIG    1       24.417 -27.338   5.286  0.00  0.00    +0.005 A 
ATOM      6  C   LIG    1       24.314 -25.958   5.142  0.00  0.00    +0.023 A 
ENDROOT
BRANCH   1   8
ATOM      7  C   LIG    1       23.453 -23.204   6.618  0.00  0.00    +0.223 C 
ATOM      8  N   LIG    1       24.629 -23.715   6.099  0.00  0.00    -0.285 N 
ATOM      9  H   LIG    1       25.371 -23.051   5.887  0.00  0.00    +0.155 HD
ATOM     10  O   LIG    1       22.437 -23.859   6.905  0.00  0.00    -0.275 OA
BRANCH   7  11
ATOM     11  C   LIG    1       23.458 -21.735   6.935  0.00  0.00    +0.152 C 
BRANCH  11  15
ATOM     12  C   LIG    1       26.684 -20.394   6.144  0.00  0.00    +0.156 A 
ATOM     13  S   LIG    1       27.130 -20.400   7.799  0.00  0.00    -0.061 S 
ATOM     14  C   LIG    1       25.592 -21.045   8.200  0.00  0.00    +0.072 A 
ATOM     15  C   LIG    1       24.820 -21.155   7.059  0.00  0.00    +0.059 A 
ATOM     16  N   LIG    1       25.448 -20.742   5.895  0.00  0.00    -0.230 NA
BRANCH  12  17
ATOM     17  N   LIG    1       27.546 -20.062   5.174  0.00  0.00    -0.338 N 
ATOM     18  H   LIG    1       27.236 -19.969   4.218  0.00  0.00    +0.144 HD
ATOM     19  H   LIG    1       28.518 -20.306   5.313  0.00  0.00    +0.144 HD
ENDBRANCH  12  17
ENDBRANCH  11  15
ENDBRANCH   7  11
ENDBRANCH   1   8
BRANCH   4  20
ATOM     20  C   LIG    1       25.319 -29.387   6.409  0.00  0.00    +0.050 C 
BRANCH  20  21
ATOM     21  C   LIG    1       23.969 -30.094   6.175  0.00  0.00    +0.085 C 
BRANCH  21  22
ATOM     22  N   LIG    1       23.616 -31.085   7.217  0.00  0.00    -0.313 NA
ATOM     23  H   LIG    1       23.526 -32.003   6.778  0.00  0.00    +0.122 HD
BRANCH  22  24
ATOM     24  C   LIG    1       24.637 -31.149   8.287  0.00  0.00    +0.117 C 
BRANCH  24  25
ATOM     25  C   LIG    1       24.062 -30.829   9.694  0.00  0.00    +0.158 C 
BRANCH  25  26
ATOM     26  C   LIG    1       24.886 -29.786  10.422  0.00  0.00    -0.018 A 
ATOM     27  C   LIG    1       26.053 -29.262   9.847  0.00  0.00    +0.006 A 
ATOM     28  C   LIG    1       26.832 -28.332  10.540  0.00  0.00    +0.000 A 
ATOM     29  C   LIG    1       26.454 -27.912  11.814  0.00  0.00    +0.000 A 
ATOM     30  C   LIG    1       25.290 -28.412  12.392  0.00  0.00    +0.000 A 
ATOM     31  C   LIG    1       24.510 -29.340  11.700  0.00  0.00    +0.006 A 
ENDBRANCH  25  26
BRANCH  25  32
ATOM     32  O   LIG    1       22.724 -30.344   9.588  0.00  0.00    -0.386 OA
ATOM     33  H   LIG    1       22.314 -30.512  10.456  0.00  0.00    +0.210 HD
ENDBRANCH  25  32
ENDBRANCH  24  25
ENDBRANCH  22  24
ENDBRANCH  21  22
ENDBRANCH  20  21
ENDBRANCH   4  20
TORSDOF 11
ENDMDL
MODEL 7
REMARK VINA RESULT:      -8.6      5.072     10.669
REMARK  Name = *****
REMARK                            x       y       z     vdW  Elec       q    Type
REMARK                         _______ _______ _______ _____ _____    ______ ____
ROOT
ATOM      1  C   LIG    1       25.369 -27.893   6.090  0.00  0.00    +0.033 A 
ATOM      2  C   LIG    1       24.121 -27.278   5.955  0.00  0.00    +0.023 A 
ATOM      3  C   LIG    1       23.998 -25.884   6.090  0.00  0.00    +0.005 A 
ATOM      4  C   LIG    1       25.119 -25.094   6.384  0.00  0.00    -0.046 A 
ATOM      5  C   LIG    1       26.370 -25.706   6.432  0.00  0.00    +0.005 A 
ATOM      6  C   LIG    1       26.494 -27.078   6.235  0.00  0.00    +0.023 A 
ENDROOT
BRANCH   1   8
ATOM      7  C   LIG    1       25.413 -30.010   7.405  0.00  0.00    +0.223 C 
ATOM      8  N   LIG    1       25.445 -29.302   6.216  0.00  0.00    -0.285 N 
ATOM      9  H   LIG    1       25.376 -29.839   5.353  0.00  0.00    +0.155 HD
ATOM     10  O   LIG    1       25.515 -29.526   8.544  0.00  0.00    -0.275 OA
BRANCH   7  11
ATOM     11  C   LIG    1       25.145 -31.483   7.285  0.00  0.00    +0.152 C 
BRANCH  11  15
ATOM     12  C   LIG    1       25.732 -32.766   3.992  0.00  0.00    +0.156 A 
ATOM     13  S   LIG    1       27.224 -33.450   4.487  0.00  0.00    -0.061 S 
ATOM     14  C   LIG    1       26.962 -32.847   6.072  0.00  0.00    +0.072 A 
ATOM     15  C   LIG    1       25.790 -32.115   6.105  0.00  0.00    +0.059 A 
ATOM     16  N   LIG    1       25.117 -32.047   4.895  0.00  0.00    -0.230 NA
BRANCH  12  17
ATOM     17  N   LIG    1       25.229 -32.963   2.767  0.00  0.00    -0.338 N 
ATOM     18  H   LIG    1       25.469 -33.788   2.237  0.00  0.00    +0.144 HD
ATOM     19  H   LIG    1       24.968 -32.142   2.234  0.00  0.00    +0.144 HD
ENDBRANCH  12  17
ENDBRANCH  11  15
ENDBRANCH   7  11
ENDBRANCH   1   8
BRANCH   4  20
ATOM     20  C   LIG    1       25.012 -23.613   6.647  0.00  0.00    +0.050 C 
BRANCH  20  21
ATOM     21  C   LIG    1       26.292 -22.985   7.234  0.00  0.00    +0.085 C 
BRANCH  21  22
ATOM     22  N   LIG    1       26.053 -21.774   8.051  0.00  0.00    -0.313 NA
ATOM     23  H   LIG    1       26.648 -21.816   8.880  0.00  0.00    +0.122 HD
BRANCH  22  24
ATOM     24  C   LIG    1       26.343 -20.533   7.299  0.00  0.00    +0.117 C 
BRANCH  24  25
ATOM     25  C   LIG    1       26.223 -20.713   5.761  0.00  0.00    +0.158 C 
BRANCH  25  26
ATOM     26  C   LIG    1       24.924 -20.149   5.222  0.00  0.00    -0.018 A 
ATOM     27  C   LIG    1       24.904 -19.401   4.035  0.00  0.00    +0.006 A 
ATOM     28  C   LIG    1       23.711 -18.846   3.564  0.00  0.00    +0.000 A 
ATOM     29  C   LIG    1       22.524 -19.033   4.270  0.00  0.00    +0.000 A 
ATOM     30  C   LIG    1       22.526 -19.787   5.441  0.00  0.00    +0.000 A 
ATOM     31  C   LIG    1       23.716 -20.342   5.912  0.00  0.00    +0.006 A 
ENDBRANCH  25  26
BRANCH  25  32
ATOM     32  O   LIG    1       27.303 -20.057   5.096  0.00  0.00    -0.386 OA
ATOM     33  H   LIG    1       26.959 -19.182   4.838  0.00  0.00    +0.210 HD
ENDBRANCH  25  32
ENDBRANCH  24  25
ENDBRANCH  22  24
ENDBRANCH  21  22
ENDBRANCH  20  21
ENDBRANCH   4  20
TORSDOF 11
ENDMDL
MODEL 8
REMARK VINA RESULT:      -8.6      6.143     11.011
REMARK  Name = *****
REMARK                            x       y       z     vdW  Elec       q    Type
REMARK                         _______ _______ _______ _____ _____    ______ ____
ROOT
ATOM      1  C   LIG    1       24.611 -29.334   7.048  0.00  0.00    +0.033 A 
ATOM      2  C   LIG    1       24.117 -28.901   5.813  0.00  0.00    +0.023 A 
ATOM      3  C   LIG    1       24.449 -27.625   5.324  0.00  0.00    +0.005 A 
ATOM      4  C   LIG    1       25.258 -26.761   6.076  0.00  0.00    -0.046 A 
ATOM      5  C   LIG    1       25.813 -27.234   7.263  0.00  0.00    +0.005 A 
ATOM      6  C   LIG    1       25.532 -28.522   7.711  0.00  0.00    +0.023 A 
ENDROOT
BRANCH   1   8
ATOM      7  C   LIG    1       24.760 -31.663   7.922  0.00  0.00    +0.223 C 
ATOM      8  N   LIG    1       24.068 -30.496   7.649  0.00  0.00    -0.285 N 
ATOM      9  H   LIG    1       23.130 -30.411   8.036  0.00  0.00    +0.155 HD
ATOM     10  O   LIG    1       25.896 -31.950   7.509  0.00  0.00    -0.275 OA
BRANCH   7  11
ATOM     11  C   LIG    1       24.094 -32.616   8.873  0.00  0.00    +0.152 C 
BRANCH  11  15
ATOM     12  C   LIG    1       21.439 -30.956  10.615  0.00  0.00    +0.156 A 
ATOM     13  S   LIG    1       22.454 -30.679  11.969  0.00  0.00    -0.061 S 
ATOM     14  C   LIG    1       23.740 -31.468  11.152  0.00  0.00    +0.072 A 
ATOM     15  C   LIG    1       23.297 -31.943   9.932  0.00  0.00    +0.059 A 
ATOM     16  N   LIG    1       21.966 -31.674   9.657  0.00  0.00    -0.230 NA
BRANCH  12  17
ATOM     17  N   LIG    1       20.196 -30.464  10.543  0.00  0.00    -0.338 N 
ATOM     18  H   LIG    1       20.023 -29.478  10.675  0.00  0.00    +0.144 HD
ATOM     19  H   LIG    1       19.434 -31.091  10.768  0.00  0.00    +0.144 HD
ENDBRANCH  12  17
ENDBRANCH  11  15
ENDBRANCH   7  11
ENDBRANCH   1   8
BRANCH   4  20
ATOM     20  C   LIG    1       25.545 -25.346   5.639  0.00  0.00    +0.050 C 
BRANCH  20  21
ATOM     21  C   LIG    1       24.850 -24.272   6.500  0.00  0.00    +0.085 C 
BRANCH  21  22
ATOM     22  N   LIG    1       23.372 -24.358   6.500  0.00  0.00    -0.313 NA
ATOM     23  H   LIG    1       23.079 -24.938   7.288  0.00  0.00    +0.122 HD
BRANCH  22  24
ATOM     24  C   LIG    1       22.740 -23.025   6.607  0.00  0.00    +0.117 C 
BRANCH  24  25
ATOM     25  C   LIG    1       23.769 -21.879   6.806  0.00  0.00    +0.158 C 
BRANCH  25  26
ATOM     26  C   LIG    1       23.717 -20.865   5.681  0.00  0.00    -0.018 A 
ATOM     27  C   LIG    1       24.786 -20.732   4.783  0.00  0.00    +0.006 A 
ATOM     28  C   LIG    1       24.751 -19.766   3.773  0.00  0.00    +0.000 A 
ATOM     29  C   LIG    1       23.648 -18.924   3.647  0.00  0.00    +0.000 A 
ATOM     30  C   LIG    1       22.572 -19.055   4.521  0.00  0.00    +0.000 A 
ATOM     31  C   LIG    1       22.605 -20.020   5.528  0.00  0.00    +0.006 A 
ENDBRANCH  25  26
BRANCH  25  32
ATOM     32  O   LIG    1       23.521 -21.194   8.034  0.00  0.00    -0.386 OA
ATOM     33  H   LIG    1       24.195 -21.520   8.657  0.00  0.00    +0.210 HD
ENDBRANCH  25  32
ENDBRANCH  24  25
ENDBRANCH  22  24
ENDBRANCH  21  22
ENDBRANCH  20  21
ENDBRANCH   4  20
TORSDOF 11
ENDMDL
MODEL 9
REMARK VINA RESULT:      -8.6      4.277     10.761
REMARK  Name = *****
REMARK                            x       y       z     vdW  Elec       q    Type
REMARK                         _______ _______ _______ _____ _____    ______ ____
ROOT
ATOM      1  C   LIG    1       24.575 -25.321   6.142  0.00  0.00    +0.033 A 
ATOM      2  C   LIG    1       23.544 -24.439   6.482  0.00  0.00    +0.023 A 
ATOM      3  C   LIG    1       23.841 -23.190   7.056  0.00  0.00    +0.005 A 
ATOM      4  C   LIG    1       25.168 -22.820   7.315  0.00  0.00    -0.046 A 
ATOM      5  C   LIG    1       26.189 -23.670   6.894  0.00  0.00    +0.005 A 
ATOM      6  C   LIG    1       25.892 -24.878   6.270  0.00  0.00    +0.023 A 
ENDROOT
BRANCH   1   8
ATOM      7  C   LIG    1       24.735 -27.786   6.478  0.00  0.00    +0.223 C 
ATOM      8  N   LIG    1       24.265 -26.665   5.816  0.00  0.00    -0.285 N 
ATOM      9  H   LIG    1       23.529 -26.807   5.127  0.00  0.00    +0.155 HD
ATOM     10  O   LIG    1       25.646 -27.804   7.323  0.00  0.00    -0.275 OA
BRANCH   7  11
ATOM     11  C   LIG    1       24.007 -29.069   6.198  0.00  0.00    +0.152 C 
BRANCH  11  15
ATOM     12  C   LIG    1       26.045 -31.881   5.319  0.00  0.00    +0.156 A 
ATOM     13  S   LIG    1       26.089 -32.402   6.952  0.00  0.00    -0.061 S 
ATOM     14  C   LIG    1       25.112 -31.064   7.394  0.00  0.00    +0.072 A 
ATOM     15  C   LIG    1       24.867 -30.276   6.285  0.00  0.00    +0.059 A 
ATOM     16  N   LIG    1       25.441 -30.739   5.111  0.00  0.00    -0.230 NA
BRANCH  12  17
ATOM     17  N   LIG    1       26.585 -32.599   4.326  0.00  0.00    -0.338 N 
ATOM     18  H   LIG    1       26.932 -33.532   4.494  0.00  0.00    +0.144 HD
ATOM     19  H   LIG    1       27.007 -32.089   3.561  0.00  0.00    +0.144 HD
ENDBRANCH  12  17
ENDBRANCH  11  15
ENDBRANCH   7  11
ENDBRANCH   1   8
BRANCH   4  20
ATOM     20  C   LIG    1       25.520 -21.540   8.030  0.00  0.00    +0.050 C 
BRANCH  20  21
ATOM     21  C   LIG    1       26.574 -20.683   7.298  0.00  0.00    +0.085 C 
BRANCH  21  22
ATOM     22  N   LIG    1       27.720 -20.281   8.146  0.00  0.00    -0.313 NA
ATOM     23  H   LIG    1       27.998 -21.079   8.720  0.00  0.00    +0.122 HD
BRANCH  22  24
ATOM     24  C   LIG    1       28.874 -19.829   7.337  0.00  0.00    +0.117 C 
BRANCH  24  25
ATOM     25  C   LIG    1       30.235 -20.031   8.056  0.00  0.00    +0.158 C 
BRANCH  25  26
ATOM     26  C   LIG    1       30.671 -18.791   8.811  0.00  0.00    -0.018 A 
ATOM     27  C   LIG    1       31.833 -18.097   8.443  0.00  0.00    +0.006 A 
ATOM     28  C   LIG    1       32.253 -16.979   9.168  0.00  0.00    +0.000 A 
ATOM     29  C   LIG    1       31.517 -16.539  10.267  0.00  0.00    +0.000 A 
ATOM     30  C   LIG    1       30.352 -17.208  10.634  0.00  0.00    +0.000 A 
ATOM     31  C   LIG    1       29.931 -18.324   9.910  0.00  0.00    +0.006 A 
ENDBRANCH  25  26
BRANCH  25  32
ATOM     32  O   LIG    1       30.153 -21.111   8.987  0.00  0.00    -0.386 OA
ATOM     33  H   LIG    1       29.450 -20.863   9.615  0.00  0.00    +0.210 HD
ENDBRANCH  25  32
ENDBRANCH  24  25
ENDBRANCH  22  24
ENDBRANCH  21  22
ENDBRANCH  20  21
ENDBRANCH   4  20
TORSDOF 11
ENDMDL
