MODEL 1
REMARK VINA RESULT:      -8.6      0.000      0.000
REMARK  Name = *****
REMARK                            x       y       z     vdW  Elec       q    Type
REMARK                         _______ _______ _______ _____ _____    ______ ____
ROOT
ATOM      1  C   LIG    1       21.394 -18.435   3.907  0.00  0.00    +0.044 C 
ATOM      2  C   LIG    1       22.626 -19.153   4.373  0.00  0.00    -0.050 A 
ATOM      3  C   LIG    1       22.542 -20.093   5.401  0.00  0.00    +0.009 A 
ATOM      4  C   LIG    1       23.684 -20.794   5.840  0.00  0.00    -0.015 A 
ATOM      5  C   LIG    1       24.941 -20.534   5.257  0.00  0.00    +0.035 A 
ATOM      6  C   LIG    1       25.003 -19.618   4.200  0.00  0.00    +0.024 A 
ATOM      7  C   LIG    1       23.864 -18.933   3.766  0.00  0.00    +0.005 A 
ENDROOT
BRANCH   5   8
ATOM      8  N   LIG    1       26.078 -21.277   5.665  0.00  0.00    -0.311 N 
ATOM      9  H   LIG    1       26.376 -21.873   4.887  0.00  0.00    +0.152 HD
BRANCH   8  10
ATOM     10  C   LIG    1       27.237 -20.809   6.356  0.00  0.00    +0.086 A 
ATOM     11  C   LIG    1       27.515 -21.258   7.663  0.00  0.00    +0.065 A 
ATOM     12 CL   LIG    1       26.514 -22.454   8.414  0.00  0.00    -0.082 Cl
ATOM     13  C   LIG    1       28.612 -20.772   8.391  0.00  0.00    +0.022 A 
ATOM     14  C   LIG    1       29.443 -19.802   7.834  0.00  0.00    +0.004 A 
ATOM     15  C   LIG    1       29.171 -19.321   6.557  0.00  0.00    +0.040 A 
ATOM     16  C   LIG    1       28.080 -19.814   5.836  0.00  0.00    +0.146 A 
ATOM     17  F   LIG    1       27.843 -19.286   4.625  0.00  0.00    -0.203 F 
ENDBRANCH   8  10
ENDBRANCH   5   8
BRANCH   4  18
ATOM     18  C   LIG    1       23.528 -21.718   7.029  0.00  0.00    +0.157 C 
BRANCH  18  19
ATOM     19  C   LIG    1       23.356 -23.183   6.698  0.00  0.00    +0.309 C 
ATOM     20  O   LIG    1       24.316 -23.897   6.418  0.00  0.00    -0.251 OA
BRANCH  19  21
ATOM     21  O   LIG    1       22.100 -23.677   6.683  0.00  0.00    -0.480 OA
ATOM     22  H   LIG    1       21.729 -23.890   7.563  0.00  0.00    +0.295 HD
ENDBRANCH  19  21
ENDBRANCH  18  19
ENDBRANCH   4  18
TORSDOF 5
ENDMDL
MODEL 2
REMARK VINA RESULT:      -8.4      2.540      4.279
REMARK  Name = *****
REMARK                            x       y       z     vdW  Elec       q    Type
REMARK                         _______ _______ _______ _____ _____    ______ ____
ROOT
ATOM      1  C   LIG    1       24.310 -27.206   6.078  0.00  0.00    +0.044 C 
ATOM      2  C   LIG    1       24.635 -25.758   6.295  0.00  0.00    -0.050 A 
ATOM      3  C   LIG    1       23.607 -24.829   6.471  0.00  0.00    +0.009 A 
ATOM      4  C   LIG    1       23.889 -23.466   6.697  0.00  0.00    -0.015 A 
ATOM      5  C   LIG    1       25.226 -23.016   6.724  0.00  0.00    +0.035 A 
ATOM      6  C   LIG    1       26.246 -23.964   6.587  0.00  0.00    +0.024 A 
ATOM      7  C   LIG    1       25.957 -25.315   6.370  0.00  0.00    +0.005 A 
ENDROOT
BRANCH   5   8
ATOM      8  N   LIG    1       25.508 -21.655   7.004  0.00  0.00    -0.311 N 
ATOM      9  H   LIG    1       25.104 -21.416   7.913  0.00  0.00    +0.152 HD
BRANCH   8  10
ATOM     10  C   LIG    1       26.749 -20.963   6.855  0.00  0.00    +0.086 A 
ATOM     11  C   LIG    1       26.988 -20.167   5.716  0.00  0.00    +0.065 A 
ATOM     12 CL   LIG    1       25.751 -19.939   4.527  0.00  0.00    -0.082 Cl
ATOM     13  C   LIG    1       28.218 -19.523   5.513  0.00  0.00    +0.022 A 
ATOM     14  C   LIG    1       29.250 -19.683   6.436  0.00  0.00    +0.004 A 
ATOM     15  C   LIG    1       29.048 -20.488   7.552  0.00  0.00    +0.040 A 
ATOM     16  C   LIG    1       27.819 -21.121   7.752  0.00  0.00    +0.146 A 
ATOM     17  F   LIG    1       27.693 -21.916   8.826  0.00  0.00    -0.203 F 
ENDBRANCH   8  10
ENDBRANCH   5   8
BRANCH   4  18
ATOM     18  C   LIG    1       22.719 -22.509   6.773  0.00  0.00    +0.157 C 
BRANCH  18  19
ATOM     19  C   LIG    1       22.788 -21.321   5.840  0.00  0.00    +0.309 C 
ATOM     20  O   LIG    1       22.920 -20.176   6.264  0.00  0.00    -0.251 OA
BRANCH  19  21
ATOM     21  O   LIG    1       22.660 -21.558   4.517  0.00  0.00    -0.480 OA
ATOM     22  H   LIG    1       23.099 -22.372   4.198  0.00  0.00    +0.295 HD
ENDBRANCH  19  21
ENDBRANCH  18  19
ENDBRANCH   4  18
TORSDOF 5
ENDMDL
MODEL 3
REMARK VINA RESULT:      -8.3      1.900      5.264
REMARK  Name = *****
REMARK                            x       y       z     vdW  Elec       q    Type
REMARK                         _______ _______ _______ _____ _____    ______ ____
ROOT
ATOM      1  C   LIG    1       30.589 -18.241   8.564  0.00  0.00    +0.044 C 
ATOM      2  C   LIG    1       29.646 -18.843   7.566  0.00  0.00    -0.050 A 
ATOM      3  C   LIG    1       28.706 -19.792   7.974  0.00  0.00    +0.009 A 
ATOM      4  C   LIG    1       27.796 -20.355   7.056  0.00  0.00    -0.015 A 
ATOM      5  C   LIG    1       27.841 -19.982   5.696  0.00  0.00    +0.035 A 
ATOM      6  C   LIG    1       28.761 -19.001   5.309  0.00  0.00    +0.024 A 
ATOM      7  C   LIG    1       29.655 -18.442   6.229  0.00  0.00    +0.005 A 
ENDROOT
BRANCH   5   8
ATOM      8  N   LIG    1       26.891 -20.511   4.786  0.00  0.00    -0.311 N 
ATOM      9  H   LIG    1       26.888 -21.531   4.872  0.00  0.00    +0.152 HD
BRANCH   8  10
ATOM     10  C   LIG    1       25.555 -20.065   4.546  0.00  0.00    +0.086 A 
ATOM     11  C   LIG    1       24.467 -20.937   4.751  0.00  0.00    +0.065 A 
ATOM     12 CL   LIG    1       24.721 -22.527   5.387  0.00  0.00    -0.082 Cl
ATOM     13  C   LIG    1       23.149 -20.549   4.467  0.00  0.00    +0.022 A 
ATOM     14  C   LIG    1       22.892 -19.283   3.945  0.00  0.00    +0.004 A 
ATOM     15  C   LIG    1       23.953 -18.416   3.705  0.00  0.00    +0.040 A 
ATOM     16  C   LIG    1       25.263 -18.807   3.995  0.00  0.00    +0.146 A 
ATOM     17  F   LIG    1       26.250 -17.944   3.708  0.00  0.00    -0.203 F 
ENDBRANCH   8  10
ENDBRANCH   5   8
BRANCH   4  18
ATOM     18  C   LIG    1       26.880 -21.452   7.556  0.00  0.00    +0.157 C 
BRANCH  18  19
ATOM     19  C   LIG    1       25.799 -21.010   8.516  0.00  0.00    +0.309 C 
ATOM     20  O   LIG    1       26.060 -20.355   9.523  0.00  0.00    -0.251 OA
BRANCH  19  21
ATOM     21  O   LIG    1       24.532 -21.393   8.250  0.00  0.00    -0.480 OA
ATOM     22  H   LIG    1       24.096 -21.903   8.963  0.00  0.00    +0.295 HD
ENDBRANCH  19  21
ENDBRANCH  18  19
ENDBRANCH   4  18
TORSDOF 5
ENDMDL
MODEL 4
REMARK VINA RESULT:      -8.3      2.590      5.321
REMARK  Name = *****
REMARK                            x       y       z     vdW  Elec       q    Type
REMARK                         _______ _______ _______ _____ _____    ______ ____
ROOT
ATOM      1  C   LIG    1       25.072 -27.167   6.479  0.00  0.00    +0.044 C 
ATOM      2  C   LIG    1       25.166 -25.687   6.255  0.00  0.00    -0.050 A 
ATOM      3  C   LIG    1       25.675 -24.858   7.257  0.00  0.00    +0.009 A 
ATOM      4  C   LIG    1       25.792 -23.467   7.060  0.00  0.00    -0.015 A 
ATOM      5  C   LIG    1       25.368 -22.887   5.846  0.00  0.00    +0.035 A 
ATOM      6  C   LIG    1       24.897 -23.734   4.837  0.00  0.00    +0.024 A 
ATOM      7  C   LIG    1       24.792 -25.114   5.038  0.00  0.00    +0.005 A 
ENDROOT
BRANCH   5   8
ATOM      8  N   LIG    1       25.534 -21.495   5.632  0.00  0.00    -0.311 N 
ATOM      9  H   LIG    1       26.394 -21.346   5.098  0.00  0.00    +0.152 HD
BRANCH   8  10
ATOM     10  C   LIG    1       24.556 -20.545   5.203  0.00  0.00    +0.086 A 
ATOM     11  C   LIG    1       23.357 -20.383   5.927  0.00  0.00    +0.065 A 
ATOM     12 CL   LIG    1       23.090 -21.260   7.395  0.00  0.00    -0.082 Cl
ATOM     13  C   LIG    1       22.352 -19.503   5.499  0.00  0.00    +0.022 A 
ATOM     14  C   LIG    1       22.514 -18.781   4.318  0.00  0.00    +0.004 A 
ATOM     15  C   LIG    1       23.676 -18.947   3.570  0.00  0.00    +0.040 A 
ATOM     16  C   LIG    1       24.675 -19.821   4.006  0.00  0.00    +0.146 A 
ATOM     17  F   LIG    1       25.758 -19.970   3.226  0.00  0.00    -0.203 F 
ENDBRANCH   8  10
ENDBRANCH   5   8
BRANCH   4  18
ATOM     18  C   LIG    1       26.255 -22.627   8.231  0.00  0.00    +0.157 C 
BRANCH  18  19
ATOM     19  C   LIG    1       27.257 -21.544   7.901  0.00  0.00    +0.309 C 
ATOM     20  O   LIG    1       28.267 -21.780   7.244  0.00  0.00    -0.251 OA
BRANCH  19  21
ATOM     21  O   LIG    1       27.022 -20.306   8.386  0.00  0.00    -0.480 OA
ATOM     22  H   LIG    1       27.604 -20.034   9.125  0.00  0.00    +0.295 HD
ENDBRANCH  19  21
ENDBRANCH  18  19
ENDBRANCH   4  18
TORSDOF 5
ENDMDL
MODEL 5
REMARK VINA RESULT:      -8.3      1.591      5.048
REMARK  Name = *****
REMARK                            x       y       z     vdW  Elec       q    Type
REMARK                         _______ _______ _______ _____ _____    ______ ____
ROOT
ATOM      1  C   LIG    1       30.187 -20.458   8.340  0.00  0.00    +0.044 C 
ATOM      2  C   LIG    1       28.962 -20.679   7.503  0.00  0.00    -0.050 A 
ATOM      3  C   LIG    1       28.037 -21.662   7.861  0.00  0.00    +0.009 A 
ATOM      4  C   LIG    1       26.868 -21.872   7.101  0.00  0.00    -0.015 A 
ATOM      5  C   LIG    1       26.629 -21.101   5.945  0.00  0.00    +0.035 A 
ATOM      6  C   LIG    1       27.544 -20.092   5.621  0.00  0.00    +0.024 A 
ATOM      7  C   LIG    1       28.697 -19.886   6.385  0.00  0.00    +0.005 A 
ENDROOT
BRANCH   5   8
ATOM      8  N   LIG    1       25.428 -21.279   5.212  0.00  0.00    -0.311 N 
ATOM      9  H   LIG    1       24.982 -22.148   5.520  0.00  0.00    +0.152 HD
BRANCH   8  10
ATOM     10  C   LIG    1       24.412 -20.314   4.934  0.00  0.00    +0.086 A 
ATOM     11  C   LIG    1       23.264 -20.235   5.749  0.00  0.00    +0.065 A 
ATOM     12 CL   LIG    1       23.110 -21.239   7.151  0.00  0.00    -0.082 Cl
ATOM     13  C   LIG    1       22.222 -19.339   5.468  0.00  0.00    +0.022 A 
ATOM     14  C   LIG    1       22.293 -18.517   4.345  0.00  0.00    +0.004 A 
ATOM     15  C   LIG    1       23.403 -18.598   3.509  0.00  0.00    +0.040 A 
ATOM     16  C   LIG    1       24.440 -19.488   3.799  0.00  0.00    +0.146 A 
ATOM     17  F   LIG    1       25.467 -19.551   2.937  0.00  0.00    -0.203 F 
ENDBRANCH   8  10
ENDBRANCH   5   8
BRANCH   4  18
ATOM     18  C   LIG    1       25.971 -23.026   7.495  0.00  0.00    +0.157 C 
BRANCH  18  19
ATOM     19  C   LIG    1       25.705 -24.044   6.411  0.00  0.00    +0.309 C 
ATOM     20  O   LIG    1       26.500 -24.949   6.167  0.00  0.00    -0.251 OA
BRANCH  19  21
ATOM     21  O   LIG    1       24.574 -23.905   5.686  0.00  0.00    -0.480 OA
ATOM     22  H   LIG    1       24.598 -24.318   4.799  0.00  0.00    +0.295 HD
ENDBRANCH  19  21
ENDBRANCH  18  19
ENDBRANCH   4  18
TORSDOF 5
ENDMDL
MODEL 6
REMARK VINA RESULT:      -8.2      2.526      5.494
REMARK  Name = *****
REMARK                            x       y       z     vdW  Elec       q    Type
REMARK                         _______ _______ _______ _____ _____    ______ ____
ROOT
ATOM      1  C   LIG    1       30.265 -18.488   8.280  0.00  0.00    +0.044 C 
ATOM      2  C   LIG    1       29.272 -19.007   7.283  0.00  0.00    -0.050 A 
ATOM      3  C   LIG    1       28.300 -19.929   7.676  0.00  0.00    +0.009 A 
ATOM      4  C   LIG    1       27.344 -20.414   6.760  0.00  0.00    -0.015 A 
ATOM      5  C   LIG    1       27.373 -19.988   5.416  0.00  0.00    +0.035 A 
ATOM      6  C   LIG    1       28.327 -19.033   5.045  0.00  0.00    +0.024 A 
ATOM      7  C   LIG    1       29.267 -18.552   5.962  0.00  0.00    +0.005 A 
ENDROOT
BRANCH   5   8
ATOM      8  N   LIG    1       26.379 -20.438   4.510  0.00  0.00    -0.311 N 
ATOM      9  H   LIG    1       26.421 -21.459   4.458  0.00  0.00    +0.152 HD
BRANCH   8  10
ATOM     10  C   LIG    1       25.013 -20.028   4.425  0.00  0.00    +0.086 A 
ATOM     11  C   LIG    1       24.684 -18.750   3.930  0.00  0.00    +0.065 A 
ATOM     12 CL   LIG    1       25.917 -17.693   3.331  0.00  0.00    -0.082 Cl
ATOM     13  C   LIG    1       23.356 -18.296   3.889  0.00  0.00    +0.022 A 
ATOM     14  C   LIG    1       22.328 -19.105   4.368  0.00  0.00    +0.004 A 
ATOM     15  C   LIG    1       22.632 -20.359   4.890  0.00  0.00    +0.040 A 
ATOM     16  C   LIG    1       23.955 -20.806   4.922  0.00  0.00    +0.146 A 
ATOM     17  F   LIG    1       24.194 -22.008   5.470  0.00  0.00    -0.203 F 
ENDBRANCH   8  10
ENDBRANCH   5   8
BRANCH   4  18
ATOM     18  C   LIG    1       26.393 -21.489   7.240  0.00  0.00    +0.157 C 
BRANCH  18  19
ATOM     19  C   LIG    1       25.490 -21.095   8.387  0.00  0.00    +0.309 C 
ATOM     20  O   LIG    1       25.813 -21.286   9.556  0.00  0.00    -0.251 OA
BRANCH  19  21
ATOM     21  O   LIG    1       24.290 -20.556   8.082  0.00  0.00    -0.480 OA
ATOM     22  H   LIG    1       23.691 -21.141   7.574  0.00  0.00    +0.295 HD
ENDBRANCH  19  21
ENDBRANCH  18  19
ENDBRANCH   4  18
TORSDOF 5
ENDMDL
MODEL 7
REMARK VINA RESULT:      -8.2      1.633      1.946
REMARK  Name = *****
REMARK                            x       y       z     vdW  Elec       q    Type
REMARK                         _______ _______ _______ _____ _____    ______ ____
ROOT
ATOM      1  C   LIG    1       21.350 -18.366   3.994  0.00  0.00    +0.044 C 
ATOM      2  C   LIG    1       22.603 -19.095   4.378  0.00  0.00    -0.050 A 
ATOM      3  C   LIG    1       22.578 -20.038   5.408  0.00  0.00    +0.009 A 
ATOM      4  C   LIG    1       23.739 -20.750   5.771  0.00  0.00    -0.015 A 
ATOM      5  C   LIG    1       24.959 -20.498   5.109  0.00  0.00    +0.035 A 
ATOM      6  C   LIG    1       24.961 -19.580   4.053  0.00  0.00    +0.024 A 
ATOM      7  C   LIG    1       23.802 -18.884   3.694  0.00  0.00    +0.005 A 
ENDROOT
BRANCH   5   8
ATOM      8  N   LIG    1       26.113 -21.252   5.442  0.00  0.00    -0.311 N 
ATOM      9  H   LIG    1       26.536 -21.601   4.578  0.00  0.00    +0.152 HD
BRANCH   8  10
ATOM     10  C   LIG    1       27.154 -20.913   6.360  0.00  0.00    +0.086 A 
ATOM     11  C   LIG    1       28.021 -19.836   6.086  0.00  0.00    +0.065 A 
ATOM     12 CL   LIG    1       27.782 -18.849   4.684  0.00  0.00    -0.082 Cl
ATOM     13  C   LIG    1       29.089 -19.516   6.937  0.00  0.00    +0.022 A 
ATOM     14  C   LIG    1       29.330 -20.286   8.073  0.00  0.00    +0.004 A 
ATOM     15  C   LIG    1       28.506 -21.373   8.349  0.00  0.00    +0.040 A 
ATOM     16  C   LIG    1       27.440 -21.682   7.499  0.00  0.00    +0.146 A 
ATOM     17  F   LIG    1       26.701 -22.764   7.793  0.00  0.00    -0.203 F 
ENDBRANCH   8  10
ENDBRANCH   5   8
BRANCH   4  18
ATOM     18  C   LIG    1       23.651 -21.676   6.965  0.00  0.00    +0.157 C 
BRANCH  18  19
ATOM     19  C   LIG    1       23.465 -23.141   6.641  0.00  0.00    +0.309 C 
ATOM     20  O   LIG    1       24.403 -23.844   6.274  0.00  0.00    -0.251 OA
BRANCH  19  21
ATOM     21  O   LIG    1       22.217 -23.647   6.733  0.00  0.00    -0.480 OA
ATOM     22  H   LIG    1       21.877 -24.060   5.913  0.00  0.00    +0.295 HD
ENDBRANCH  19  21
ENDBRANCH  18  19
ENDBRANCH   4  18
TORSDOF 5
ENDMDL
MODEL 8
REMARK VINA RESULT:      -7.9      2.152      2.544
REMARK  Name = *****
REMARK                            x       y       z     vdW  Elec       q    Type
REMARK                         _______ _______ _______ _____ _____    ______ ____
ROOT
ATOM      1  C   LIG    1       21.769 -18.612   4.020  0.00  0.00    +0.044 C 
ATOM      2  C   LIG    1       23.180 -19.059   4.257  0.00  0.00    -0.050 A 
ATOM      3  C   LIG    1       23.441 -20.132   5.111  0.00  0.00    +0.009 A 
ATOM      4  C   LIG    1       24.759 -20.583   5.332  0.00  0.00    -0.015 A 
ATOM      5  C   LIG    1       25.842 -19.932   4.707  0.00  0.00    +0.035 A 
ATOM      6  C   LIG    1       25.563 -18.884   3.822  0.00  0.00    +0.024 A 
ATOM      7  C   LIG    1       24.252 -18.449   3.603  0.00  0.00    +0.005 A 
ENDROOT
BRANCH   5   8
ATOM      8  N   LIG    1       27.161 -20.419   4.890  0.00  0.00    -0.311 N 
ATOM      9  H   LIG    1       27.652 -20.383   3.993  0.00  0.00    +0.152 HD
BRANCH   8  10
ATOM     10  C   LIG    1       28.084 -20.098   5.933  0.00  0.00    +0.086 A 
ATOM     11  C   LIG    1       28.830 -18.903   5.878  0.00  0.00    +0.065 A 
ATOM     12 CL   LIG    1       28.574 -17.763   4.600  0.00  0.00    -0.082 Cl
ATOM     13  C   LIG    1       29.787 -18.587   6.855  0.00  0.00    +0.022 A 
ATOM     14  C   LIG    1       30.037 -19.476   7.899  0.00  0.00    +0.004 A 
ATOM     15  C   LIG    1       29.334 -20.675   7.957  0.00  0.00    +0.040 A 
ATOM     16  C   LIG    1       28.379 -20.981   6.984  0.00  0.00    +0.146 A 
ATOM     17  F   LIG    1       27.759 -22.168   7.069  0.00  0.00    -0.203 F 
ENDBRANCH   8  10
ENDBRANCH   5   8
BRANCH   4  18
ATOM     18  C   LIG    1       24.964 -21.683   6.352  0.00  0.00    +0.157 C 
BRANCH  18  19
ATOM     19  C   LIG    1       24.435 -21.393   7.738  0.00  0.00    +0.309 C 
ATOM     20  O   LIG    1       23.303 -21.728   8.078  0.00  0.00    -0.251 OA
BRANCH  19  21
ATOM     21  O   LIG    1       25.239 -20.715   8.585  0.00  0.00    -0.480 OA
ATOM     22  H   LIG    1       26.193 -20.914   8.497  0.00  0.00    +0.295 HD
ENDBRANCH  19  21
ENDBRANCH  18  19
ENDBRANCH   4  18
TORSDOF 5
ENDMDL
MODEL 9
REMARK VINA RESULT:      -7.8      3.097      5.845
REMARK  Name = *****
REMARK                            x       y       z     vdW  Elec       q    Type
REMARK                         _______ _______ _______ _____ _____    ______ ____
ROOT
ATOM      1  C   LIG    1       25.483 -26.971   6.854  0.00  0.00    +0.044 C 
ATOM      2  C   LIG    1       25.401 -25.537   6.425  0.00  0.00    -0.050 A 
ATOM      3  C   LIG    1       25.879 -24.527   7.262  0.00  0.00    +0.009 A 
ATOM      4  C   LIG    1       25.830 -23.173   6.870  0.00  0.00    -0.015 A 
ATOM      5  C   LIG    1       25.270 -22.818   5.625  0.00  0.00    +0.035 A 
ATOM      6  C   LIG    1       24.832 -23.843   4.779  0.00  0.00    +0.024 A 
ATOM      7  C   LIG    1       24.891 -25.184   5.174  0.00  0.00    +0.005 A 
ENDROOT
BRANCH   5   8
ATOM      8  N   LIG    1       25.269 -21.461   5.211  0.00  0.00    -0.311 N 
ATOM      9  H   LIG    1       26.015 -21.329   4.523  0.00  0.00    +0.152 HD
BRANCH   8  10
ATOM     10  C   LIG    1       24.152 -20.652   4.841  0.00  0.00    +0.086 A 
ATOM     11  C   LIG    1       24.345 -19.468   4.101  0.00  0.00    +0.065 A 
ATOM     12 CL   LIG    1       25.925 -19.025   3.547  0.00  0.00    -0.082 Cl
ATOM     13  C   LIG    1       23.276 -18.621   3.773  0.00  0.00    +0.022 A 
ATOM     14  C   LIG    1       21.986 -18.928   4.204  0.00  0.00    +0.004 A 
ATOM     15  C   LIG    1       21.775 -20.076   4.962  0.00  0.00    +0.040 A 
ATOM     16  C   LIG    1       22.844 -20.917   5.280  0.00  0.00    +0.146 A 
ATOM     17  F   LIG    1       22.588 -21.990   6.046  0.00  0.00    -0.203 F 
ENDBRANCH   8  10
ENDBRANCH   5   8
BRANCH   4  18
ATOM     18  C   LIG    1       26.272 -22.133   7.877  0.00  0.00    +0.157 C 
BRANCH  18  19
ATOM     19  C   LIG    1       27.642 -21.539   7.642  0.00  0.00    +0.309 C 
ATOM     20  O   LIG    1       28.487 -21.497   8.533  0.00  0.00    -0.251 OA
BRANCH  19  21
ATOM     21  O   LIG    1       27.898 -21.019   6.423  0.00  0.00    -0.480 OA
ATOM     22  H   LIG    1       28.236 -20.101   6.427  0.00  0.00    +0.295 HD
ENDBRANCH  19  21
ENDBRANCH  18  19
ENDBRANCH   4  18
TORSDOF 5
ENDMDL
