MODEL 1
REMARK VINA RESULT:      -8.3      0.000      0.000
REMARK  Name = *****
REMARK                            x       y       z     vdW  Elec       q    Type
REMARK                         _______ _______ _______ _____ _____    ______ ____
ROOT
ATOM      1  C   LIG    1       24.668 -31.441  10.014  0.00  0.00    +0.107 A 
ATOM      2  N   LIG    1       25.070 -30.125   9.733  0.00  0.00    -0.318 N 
ATOM      3  C   LIG    1       24.850 -29.865   8.390  0.00  0.00    +0.147 A 
ATOM      4  C   LIG    1       24.222 -30.948   7.826  0.00  0.00    +0.038 A 
ATOM      5  C   LIG    1       23.978 -30.880   6.461  0.00  0.00    +0.126 A 
ATOM      6  N   LIG    1       24.340 -29.775   5.766  0.00  0.00    -0.222 NA
ATOM      7  C   LIG    1       24.878 -28.734   6.430  0.00  0.00    +0.222 A 
ATOM      8  N   LIG    1       25.170 -28.743   7.739  0.00  0.00    -0.196 NA
ATOM      9  C   LIG    1       23.979 -31.854   8.870  0.00  0.00    +0.044 A 
ENDROOT
BRANCH   1  12
ATOM     10  C   LIG    1       24.089 -33.124  13.391  0.00  0.00    +0.132 C 
ATOM     11  N   LIG    1       23.831 -32.395  12.157  0.00  0.00    -0.302 N 
ATOM     12  C   LIG    1       24.893 -32.173  11.265  0.00  0.00    +0.263 C 
ATOM     13  O   LIG    1       26.015 -32.632  11.538  0.00  0.00    -0.268 OA
ATOM     14  C   LIG    1       22.499 -31.817  12.073  0.00  0.00    +0.132 C 
ENDBRANCH   1  12
BRANCH   2  15
ATOM     15  C   LIG    1       25.623 -29.141  10.655  0.00  0.00    +0.089 C 
ATOM     16  C   LIG    1       24.924 -29.003  12.015  0.00  0.00    +0.025 C 
ATOM     17  C   LIG    1       25.936 -28.207  12.831  0.00  0.00    +0.002 C 
ATOM     18  C   LIG    1       27.284 -28.790  12.430  0.00  0.00    +0.002 C 
ATOM     19  C   LIG    1       27.103 -29.366  11.022  0.00  0.00    +0.025 C 
ENDBRANCH   2  15
BRANCH   7  20
ATOM     20  N   LIG    1       25.114 -27.582   5.678  0.00  0.00    -0.268 N 
ATOM     21  H   LIG    1       24.936 -27.725   4.697  0.00  0.00    +0.156 HD
BRANCH  20  22
ATOM     22  C   LIG    1       24.985 -26.251   6.077  0.00  0.00    +0.125 A 
ATOM     23  N   LIG    1       23.746 -25.732   6.182  0.00  0.00    -0.238 NA
ATOM     24  C   LIG    1       23.634 -24.414   6.544  0.00  0.00    +0.136 A 
ATOM     25  C   LIG    1       24.689 -23.526   6.777  0.00  0.00    +0.048 A 
ATOM     26  C   LIG    1       25.940 -24.122   6.700  0.00  0.00    +0.028 A 
ATOM     27  C   LIG    1       26.087 -25.460   6.350  0.00  0.00    +0.045 A 
BRANCH  25  28
ATOM     28  N   LIG    1       24.574 -22.170   7.100  0.00  0.00    -0.326 N 
ATOM     29  C   LIG    1       25.587 -21.257   6.504  0.00  0.00    +0.120 C 
ATOM     30  C   LIG    1       25.129 -20.778   5.108  0.00  0.00    +0.100 C 
ATOM     31  N   LIG    1       23.814 -20.101   5.139  0.00  0.00    -0.313 NA
ATOM     32  H   LIG    1       23.903 -19.282   5.741  0.00  0.00    +0.122 HD
ATOM     33  C   LIG    1       22.822 -21.013   5.754  0.00  0.00    +0.100 C 
ATOM     34  C   LIG    1       23.241 -21.538   7.148  0.00  0.00    +0.120 C 
ENDBRANCH  25  28
ENDBRANCH  20  22
ENDBRANCH   7  20
TORSDOF 5
ENDMDL
MODEL 2
REMARK VINA RESULT:      -7.8      2.974      9.083
REMARK  Name = *****
REMARK                            x       y       z     vdW  Elec       q    Type
REMARK                         _______ _______ _______ _____ _____    ______ ____
ROOT
ATOM      1  C   LIG    1       24.891 -22.931   5.168  0.00  0.00    +0.107 A 
ATOM      2  N   LIG    1       25.543 -23.429   6.308  0.00  0.00    -0.318 N 
ATOM      3  C   LIG    1       25.558 -24.813   6.250  0.00  0.00    +0.147 A 
ATOM      4  C   LIG    1       25.021 -25.212   5.050  0.00  0.00    +0.038 A 
ATOM      5  C   LIG    1       24.904 -26.581   4.849  0.00  0.00    +0.126 A 
ATOM      6  N   LIG    1       25.328 -27.441   5.806  0.00  0.00    -0.222 NA
ATOM      7  C   LIG    1       25.913 -26.947   6.915  0.00  0.00    +0.222 A 
ATOM      8  N   LIG    1       26.030 -25.639   7.188  0.00  0.00    -0.196 NA
ATOM      9  C   LIG    1       24.753 -24.039   4.327  0.00  0.00    +0.044 A 
ENDROOT
BRANCH   1  12
ATOM     10  C   LIG    1       22.884 -19.687   5.059  0.00  0.00    +0.132 C 
ATOM     11  N   LIG    1       23.238 -21.075   5.319  0.00  0.00    -0.302 N 
ATOM     12  C   LIG    1       24.504 -21.539   4.923  0.00  0.00    +0.263 C 
ATOM     13  O   LIG    1       25.298 -20.743   4.393  0.00  0.00    -0.268 OA
ATOM     14  C   LIG    1       22.139 -21.888   5.817  0.00  0.00    +0.132 C 
ENDBRANCH   1  12
BRANCH   2  15
ATOM     15  C   LIG    1       26.137 -22.672   7.403  0.00  0.00    +0.089 C 
ATOM     16  C   LIG    1       27.299 -21.735   7.040  0.00  0.00    +0.025 C 
ATOM     17  C   LIG    1       27.422 -20.860   8.283  0.00  0.00    +0.002 C 
ATOM     18  C   LIG    1       25.982 -20.589   8.696  0.00  0.00    +0.002 C 
ATOM     19  C   LIG    1       25.152 -21.761   8.163  0.00  0.00    +0.025 C 
ENDBRANCH   2  15
BRANCH   7  20
ATOM     20  N   LIG    1       26.437 -27.888   7.802  0.00  0.00    -0.268 N 
ATOM     21  H   LIG    1       27.337 -27.614   8.160  0.00  0.00    +0.156 HD
BRANCH  20  22
ATOM     22  C   LIG    1       25.743 -28.753   8.650  0.00  0.00    +0.125 A 
ATOM     23  N   LIG    1       24.730 -29.477   8.134  0.00  0.00    -0.238 NA
ATOM     24  C   LIG    1       24.036 -30.300   8.983  0.00  0.00    +0.136 A 
ATOM     25  C   LIG    1       24.243 -30.436  10.360  0.00  0.00    +0.048 A 
ATOM     26  C   LIG    1       25.325 -29.705  10.830  0.00  0.00    +0.028 A 
ATOM     27  C   LIG    1       26.059 -28.872   9.991  0.00  0.00    +0.045 A 
BRANCH  25  28
ATOM     28  N   LIG    1       23.505 -31.240  11.233  0.00  0.00    -0.326 N 
ATOM     29  C   LIG    1       23.321 -30.723  12.617  0.00  0.00    +0.120 C 
ATOM     30  C   LIG    1       22.077 -29.808  12.693  0.00  0.00    +0.100 C 
ATOM     31  N   LIG    1       20.840 -30.490  12.253  0.00  0.00    -0.313 NA
ATOM     32  H   LIG    1       20.687 -31.284  12.876  0.00  0.00    +0.122 HD
ATOM     33  C   LIG    1       21.045 -31.017  10.885  0.00  0.00    +0.100 C 
ATOM     34  C   LIG    1       22.290 -31.926  10.749  0.00  0.00    +0.120 C 
ENDBRANCH  25  28
ENDBRANCH  20  22
ENDBRANCH   7  20
TORSDOF 5
ENDMDL
MODEL 3
REMARK VINA RESULT:      -7.7      2.956      9.294
REMARK  Name = *****
REMARK                            x       y       z     vdW  Elec       q    Type
REMARK                         _______ _______ _______ _____ _____    ______ ____
ROOT
ATOM      1  C   LIG    1       24.847 -23.151   5.289  0.00  0.00    +0.107 A 
ATOM      2  N   LIG    1       25.582 -23.594   6.401  0.00  0.00    -0.318 N 
ATOM      3  C   LIG    1       25.635 -24.978   6.382  0.00  0.00    +0.147 A 
ATOM      4  C   LIG    1       25.039 -25.429   5.230  0.00  0.00    +0.038 A 
ATOM      5  C   LIG    1       24.951 -26.806   5.077  0.00  0.00    +0.126 A 
ATOM      6  N   LIG    1       25.459 -27.624   6.031  0.00  0.00    -0.222 NA
ATOM      7  C   LIG    1       26.096 -27.080   7.086  0.00  0.00    +0.222 A 
ATOM      8  N   LIG    1       26.189 -25.761   7.312  0.00  0.00    -0.196 NA
ATOM      9  C   LIG    1       24.691 -24.288   4.492  0.00  0.00    +0.044 A 
ENDROOT
BRANCH   1  12
ATOM     10  C   LIG    1       22.758 -19.957   5.249  0.00  0.00    +0.132 C 
ATOM     11  N   LIG    1       23.170 -21.325   5.527  0.00  0.00    -0.302 N 
ATOM     12  C   LIG    1       24.403 -21.778   5.029  0.00  0.00    +0.263 C 
ATOM     13  O   LIG    1       25.121 -20.989   4.392  0.00  0.00    -0.268 OA
ATOM     14  C   LIG    1       22.145 -22.139   6.163  0.00  0.00    +0.132 C 
ENDBRANCH   1  12
BRANCH   2  15
ATOM     15  C   LIG    1       26.219 -22.786   7.434  0.00  0.00    +0.089 C 
ATOM     16  C   LIG    1       27.301 -21.801   6.967  0.00  0.00    +0.025 C 
ATOM     17  C   LIG    1       27.474 -20.896   8.182  0.00  0.00    +0.002 C 
ATOM     18  C   LIG    1       26.058 -20.688   8.701  0.00  0.00    +0.002 C 
ATOM     19  C   LIG    1       25.251 -21.910   8.252  0.00  0.00    +0.025 C 
ENDBRANCH   2  15
BRANCH   7  20
ATOM     20  N   LIG    1       26.702 -27.977   7.966  0.00  0.00    -0.268 N 
ATOM     21  H   LIG    1       27.696 -27.832   8.033  0.00  0.00    +0.156 HD
BRANCH  20  22
ATOM     22  C   LIG    1       26.151 -28.577   9.099  0.00  0.00    +0.125 A 
ATOM     23  N   LIG    1       25.189 -29.506   8.927  0.00  0.00    -0.238 NA
ATOM     24  C   LIG    1       24.634 -30.065  10.049  0.00  0.00    +0.136 A 
ATOM     25  C   LIG    1       24.934 -29.737  11.375  0.00  0.00    +0.048 A 
ATOM     26  C   LIG    1       25.961 -28.810  11.496  0.00  0.00    +0.028 A 
ATOM     27  C   LIG    1       26.555 -28.235  10.377  0.00  0.00    +0.045 A 
BRANCH  25  28
ATOM     28  N   LIG    1       24.334 -30.274  12.518  0.00  0.00    -0.326 N 
ATOM     29  C   LIG    1       23.714 -31.620  12.373  0.00  0.00    +0.120 C 
ATOM     30  C   LIG    1       24.762 -32.728  12.621  0.00  0.00    +0.100 C 
ATOM     31  N   LIG    1       25.403 -32.622  13.950  0.00  0.00    -0.313 NA
ATOM     32  H   LIG    1       24.670 -32.716  14.654  0.00  0.00    +0.122 HD
ATOM     33  C   LIG    1       25.996 -31.272  14.088  0.00  0.00    +0.100 C 
ATOM     34  C   LIG    1       24.992 -30.123  13.831  0.00  0.00    +0.120 C 
ENDBRANCH  25  28
ENDBRANCH  20  22
ENDBRANCH   7  20
TORSDOF 5
ENDMDL
MODEL 4
REMARK VINA RESULT:      -7.4      1.634      2.468
REMARK  Name = *****
REMARK                            x       y       z     vdW  Elec       q    Type
REMARK                         _______ _______ _______ _____ _____    ______ ____
ROOT
ATOM      1  C   LIG    1       24.378 -32.037  10.467  0.00  0.00    +0.107 A 
ATOM      2  N   LIG    1       23.735 -30.871  10.019  0.00  0.00    -0.318 N 
ATOM      3  C   LIG    1       24.212 -30.549   8.760  0.00  0.00    +0.147 A 
ATOM      4  C   LIG    1       25.072 -31.537   8.345  0.00  0.00    +0.038 A 
ATOM      5  C   LIG    1       25.692 -31.343   7.119  0.00  0.00    +0.126 A 
ATOM      6  N   LIG    1       25.419 -30.232   6.394  0.00  0.00    -0.222 NA
ATOM      7  C   LIG    1       24.499 -29.362   6.854  0.00  0.00    +0.222 A 
ATOM      8  N   LIG    1       23.886 -29.470   8.042  0.00  0.00    -0.196 NA
ATOM      9  C   LIG    1       25.050 -32.525   9.342  0.00  0.00    +0.044 A 
ENDROOT
BRANCH   1  12
ATOM     10  C   LIG    1       24.950 -32.670  14.187  0.00  0.00    +0.132 C 
ATOM     11  N   LIG    1       25.051 -32.071  12.864  0.00  0.00    -0.302 N 
ATOM     12  C   LIG    1       24.297 -32.616  11.811  0.00  0.00    +0.263 C 
ATOM     13  O   LIG    1       23.541 -33.574  12.045  0.00  0.00    -0.268 OA
ATOM     14  C   LIG    1       26.084 -31.053  12.748  0.00  0.00    +0.132 C 
ENDBRANCH   1  12
BRANCH   2  15
ATOM     15  C   LIG    1       22.717 -30.089  10.710  0.00  0.00    +0.089 C 
ATOM     16  C   LIG    1       21.520 -30.864  11.279  0.00  0.00    +0.025 C 
ATOM     17  C   LIG    1       20.880 -29.848  12.217  0.00  0.00    +0.002 C 
ATOM     18  C   LIG    1       22.060 -29.155  12.885  0.00  0.00    +0.002 C 
ATOM     19  C   LIG    1       23.237 -29.278  11.913  0.00  0.00    +0.025 C 
ENDBRANCH   2  15
BRANCH   7  20
ATOM     20  N   LIG    1       24.174 -28.304   6.003  0.00  0.00    -0.268 N 
ATOM     21  H   LIG    1       23.279 -28.433   5.561  0.00  0.00    +0.156 HD
BRANCH  20  22
ATOM     22  C   LIG    1       24.555 -26.966   6.108  0.00  0.00    +0.125 A 
ATOM     23  N   LIG    1       23.588 -26.033   6.214  0.00  0.00    -0.238 NA
ATOM     24  C   LIG    1       23.974 -24.719   6.285  0.00  0.00    +0.136 A 
ATOM     25  C   LIG    1       25.284 -24.234   6.213  0.00  0.00    +0.048 A 
ATOM     26  C   LIG    1       26.241 -25.237   6.150  0.00  0.00    +0.028 A 
ATOM     27  C   LIG    1       25.883 -26.580   6.091  0.00  0.00    +0.045 A 
BRANCH  25  28
ATOM     28  N   LIG    1       25.672 -22.891   6.238  0.00  0.00    -0.326 N 
ATOM     29  C   LIG    1       24.630 -21.890   5.879  0.00  0.00    +0.120 C 
ATOM     30  C   LIG    1       23.811 -21.490   7.127  0.00  0.00    +0.100 C 
ATOM     31  N   LIG    1       24.655 -20.953   8.216  0.00  0.00    -0.313 NA
ATOM     32  H   LIG    1       25.121 -20.116   7.861  0.00  0.00    +0.122 HD
ATOM     33  C   LIG    1       25.700 -21.949   8.547  0.00  0.00    +0.100 C 
ATOM     34  C   LIG    1       26.539 -22.399   7.327  0.00  0.00    +0.120 C 
ENDBRANCH  25  28
ENDBRANCH  20  22
ENDBRANCH   7  20
TORSDOF 5
ENDMDL
MODEL 5
REMARK VINA RESULT:      -7.4      2.962      9.535
REMARK  Name = *****
REMARK                            x       y       z     vdW  Elec       q    Type
REMARK                         _______ _______ _______ _____ _____    ______ ____
ROOT
ATOM      1  C   LIG    1       24.897 -22.889   5.209  0.00  0.00    +0.107 A 
ATOM      2  N   LIG    1       25.567 -23.385   6.339  0.00  0.00    -0.318 N 
ATOM      3  C   LIG    1       25.566 -24.769   6.291  0.00  0.00    +0.147 A 
ATOM      4  C   LIG    1       25.000 -25.172   5.106  0.00  0.00    +0.038 A 
ATOM      5  C   LIG    1       24.864 -26.541   4.919  0.00  0.00    +0.126 A 
ATOM      6  N   LIG    1       25.299 -27.398   5.874  0.00  0.00    -0.222 NA
ATOM      7  C   LIG    1       25.914 -26.902   6.965  0.00  0.00    +0.222 A 
ATOM      8  N   LIG    1       26.050 -25.593   7.225  0.00  0.00    -0.196 NA
ATOM      9  C   LIG    1       24.728 -24.002   4.380  0.00  0.00    +0.044 A 
ENDROOT
BRANCH   1  12
ATOM     10  C   LIG    1       22.894 -19.643   5.052  0.00  0.00    +0.132 C 
ATOM     11  N   LIG    1       23.238 -21.034   5.313  0.00  0.00    -0.302 N 
ATOM     12  C   LIG    1       24.518 -21.494   4.961  0.00  0.00    +0.263 C 
ATOM     13  O   LIG    1       25.331 -20.694   4.468  0.00  0.00    -0.268 OA
ATOM     14  C   LIG    1       22.122 -21.850   5.763  0.00  0.00    +0.132 C 
ENDBRANCH   1  12
BRANCH   2  15
ATOM     15  C   LIG    1       26.194 -22.625   7.413  0.00  0.00    +0.089 C 
ATOM     16  C   LIG    1       27.325 -21.668   7.011  0.00  0.00    +0.025 C 
ATOM     17  C   LIG    1       27.484 -20.799   8.254  0.00  0.00    +0.002 C 
ATOM     18  C   LIG    1       26.059 -20.554   8.727  0.00  0.00    +0.002 C 
ATOM     19  C   LIG    1       25.227 -21.735   8.219  0.00  0.00    +0.025 C 
ENDBRANCH   2  15
BRANCH   7  20
ATOM     20  N   LIG    1       26.447 -27.841   7.848  0.00  0.00    -0.268 N 
ATOM     21  H   LIG    1       27.282 -27.506   8.302  0.00  0.00    +0.156 HD
BRANCH  20  22
ATOM     22  C   LIG    1       25.770 -28.816   8.582  0.00  0.00    +0.125 A 
ATOM     23  N   LIG    1       26.325 -29.252   9.731  0.00  0.00    -0.238 NA
ATOM     24  C   LIG    1       25.665 -30.232  10.426  0.00  0.00    +0.136 A 
ATOM     25  C   LIG    1       24.481 -30.869  10.042  0.00  0.00    +0.048 A 
ATOM     26  C   LIG    1       23.929 -30.351   8.877  0.00  0.00    +0.028 A 
ATOM     27  C   LIG    1       24.566 -29.347   8.156  0.00  0.00    +0.045 A 
BRANCH  25  28
ATOM     28  N   LIG    1       23.834 -31.901  10.728  0.00  0.00    -0.326 N 
ATOM     29  C   LIG    1       24.149 -33.289  10.292  0.00  0.00    +0.120 C 
ATOM     30  C   LIG    1       25.397 -33.820  11.033  0.00  0.00    +0.100 C 
ATOM     31  N   LIG    1       25.243 -33.789  12.504  0.00  0.00    -0.313 NA
ATOM     32  H   LIG    1       24.453 -34.389  12.744  0.00  0.00    +0.122 HD
ATOM     33  C   LIG    1       24.909 -32.408  12.921  0.00  0.00    +0.100 C 
ATOM     34  C   LIG    1       23.676 -31.820  12.194  0.00  0.00    +0.120 C 
ENDBRANCH  25  28
ENDBRANCH  20  22
ENDBRANCH   7  20
TORSDOF 5
ENDMDL
MODEL 6
REMARK VINA RESULT:      -7.2      1.624      2.037
REMARK  Name = *****
REMARK                            x       y       z     vdW  Elec       q    Type
REMARK                         _______ _______ _______ _____ _____    ______ ____
ROOT
ATOM      1  C   LIG    1       25.427 -31.216   8.379  0.00  0.00    +0.107 A 
ATOM      2  N   LIG    1       25.197 -29.837   8.516  0.00  0.00    -0.318 N 
ATOM      3  C   LIG    1       24.835 -29.316   7.284  0.00  0.00    +0.147 A 
ATOM      4  C   LIG    1       24.728 -30.346   6.382  0.00  0.00    +0.038 A 
ATOM      5  C   LIG    1       24.429 -29.994   5.073  0.00  0.00    +0.126 A 
ATOM      6  N   LIG    1       24.241 -28.691   4.753  0.00  0.00    -0.222 NA
ATOM      7  C   LIG    1       24.289 -27.765   5.730  0.00  0.00    +0.222 A 
ATOM      8  N   LIG    1       24.604 -28.030   7.006  0.00  0.00    -0.196 NA
ATOM      9  C   LIG    1       24.948 -31.530   7.104  0.00  0.00    +0.044 A 
ENDROOT
BRANCH   1  12
ATOM     10  C   LIG    1       25.761 -33.824  11.146  0.00  0.00    +0.132 C 
ATOM     11  N   LIG    1       25.162 -32.950  10.147  0.00  0.00    -0.302 N 
ATOM     12  C   LIG    1       25.997 -32.110   9.391  0.00  0.00    +0.263 C 
ATOM     13  O   LIG    1       27.225 -32.159   9.575  0.00  0.00    -0.268 OA
ATOM     14  C   LIG    1       23.708 -32.926  10.170  0.00  0.00    +0.132 C 
ENDBRANCH   1  12
BRANCH   2  15
ATOM     15  C   LIG    1       25.293 -29.029   9.725  0.00  0.00    +0.089 C 
ATOM     16  C   LIG    1       24.774 -29.666  11.023  0.00  0.00    +0.025 C 
ATOM     17  C   LIG    1       25.349 -28.749  12.097  0.00  0.00    +0.002 C 
ATOM     18  C   LIG    1       26.754 -28.429  11.607  0.00  0.00    +0.002 C 
ATOM     19  C   LIG    1       26.723 -28.576  10.083  0.00  0.00    +0.025 C 
ENDBRANCH   2  15
BRANCH   7  20
ATOM     20  N   LIG    1       23.965 -26.460   5.355  0.00  0.00    -0.268 N 
ATOM     21  H   LIG    1       23.079 -26.410   4.879  0.00  0.00    +0.156 HD
BRANCH  20  22
ATOM     22  C   LIG    1       24.326 -25.268   5.985  0.00  0.00    +0.125 A 
ATOM     23  N   LIG    1       23.370 -24.340   6.192  0.00  0.00    -0.238 NA
ATOM     24  C   LIG    1       23.743 -23.161   6.783  0.00  0.00    +0.136 A 
ATOM     25  C   LIG    1       25.040 -22.795   7.159  0.00  0.00    +0.048 A 
ATOM     26  C   LIG    1       25.975 -23.802   6.966  0.00  0.00    +0.028 A 
ATOM     27  C   LIG    1       25.626 -25.015   6.382  0.00  0.00    +0.045 A 
BRANCH  25  28
ATOM     28  N   LIG    1       25.427 -21.574   7.719  0.00  0.00    -0.326 N 
ATOM     29  C   LIG    1       26.624 -21.597   8.603  0.00  0.00    +0.120 C 
ATOM     30  C   LIG    1       27.915 -21.421   7.771  0.00  0.00    +0.100 C 
ATOM     31  N   LIG    1       27.915 -20.174   6.975  0.00  0.00    -0.313 NA
ATOM     32  H   LIG    1       27.849 -19.391   7.627  0.00  0.00    +0.122 HD
ATOM     33  C   LIG    1       26.708 -20.154   6.117  0.00  0.00    +0.100 C 
ATOM     34  C   LIG    1       25.387 -20.346   6.899  0.00  0.00    +0.120 C 
ENDBRANCH  25  28
ENDBRANCH  20  22
ENDBRANCH   7  20
TORSDOF 5
ENDMDL
MODEL 7
REMARK VINA RESULT:      -6.3      4.303      6.897
REMARK  Name = *****
REMARK                            x       y       z     vdW  Elec       q    Type
REMARK                         _______ _______ _______ _____ _____    ______ ____
ROOT
ATOM      1  C   LIG    1       24.744 -32.744   6.469  0.00  0.00    +0.107 A 
ATOM      2  N   LIG    1       24.529 -31.483   7.049  0.00  0.00    -0.318 N 
ATOM      3  C   LIG    1       23.784 -31.641   8.205  0.00  0.00    +0.147 A 
ATOM      4  C   LIG    1       23.602 -32.983   8.436  0.00  0.00    +0.038 A 
ATOM      5  C   LIG    1       22.820 -33.323   9.532  0.00  0.00    +0.126 A 
ATOM      6  N   LIG    1       22.300 -32.348  10.316  0.00  0.00    -0.222 NA
ATOM      7  C   LIG    1       22.604 -31.063  10.048  0.00  0.00    +0.222 A 
ATOM      8  N   LIG    1       23.326 -30.663   8.991  0.00  0.00    -0.196 NA
ATOM      9  C   LIG    1       24.327 -33.657   7.441  0.00  0.00    +0.044 A 
ENDROOT
BRANCH   1  12
ATOM     10  C   LIG    1       27.258 -33.494   3.696  0.00  0.00    +0.132 C 
ATOM     11  N   LIG    1       26.710 -33.236   5.020  0.00  0.00    -0.302 N 
ATOM     12  C   LIG    1       25.329 -33.009   5.151  0.00  0.00    +0.263 C 
ATOM     13  O   LIG    1       24.611 -33.068   4.138  0.00  0.00    -0.268 OA
ATOM     14  C   LIG    1       27.713 -33.068   6.059  0.00  0.00    +0.132 C 
ENDBRANCH   1  12
BRANCH   2  15
ATOM     15  C   LIG    1       24.994 -30.187   6.571  0.00  0.00    +0.089 C 
ATOM     16  C   LIG    1       23.978 -29.332   5.800  0.00  0.00    +0.025 C 
ATOM     17  C   LIG    1       24.641 -27.959   5.785  0.00  0.00    +0.002 C 
ATOM     18  C   LIG    1       25.249 -27.819   7.174  0.00  0.00    +0.002 C 
ATOM     19  C   LIG    1       25.508 -29.242   7.677  0.00  0.00    +0.025 C 
ENDBRANCH   2  15
BRANCH   7  20
ATOM     20  N   LIG    1       22.139 -30.119  10.965  0.00  0.00    -0.268 N 
ATOM     21  H   LIG    1       21.235 -30.361  11.335  0.00  0.00    +0.156 HD
BRANCH  20  22
ATOM     22  C   LIG    1       22.886 -29.302  11.815  0.00  0.00    +0.125 A 
ATOM     23  N   LIG    1       24.212 -29.525  11.914  0.00  0.00    -0.238 NA
ATOM     24  C   LIG    1       24.929 -28.737  12.776  0.00  0.00    +0.136 A 
ATOM     25  C   LIG    1       24.415 -27.739  13.611  0.00  0.00    +0.048 A 
ATOM     26  C   LIG    1       23.055 -27.520  13.436  0.00  0.00    +0.028 A 
ATOM     27  C   LIG    1       22.302 -28.293  12.559  0.00  0.00    +0.045 A 
BRANCH  25  28
ATOM     28  N   LIG    1       25.139 -26.968  14.524  0.00  0.00    -0.326 N 
ATOM     29  C   LIG    1       26.617 -26.935  14.342  0.00  0.00    +0.120 C 
ATOM     30  C   LIG    1       27.016 -25.816  13.353  0.00  0.00    +0.100 C 
ATOM     31  N   LIG    1       26.543 -24.481  13.781  0.00  0.00    -0.313 NA
ATOM     32  H   LIG    1       26.974 -24.275  14.683  0.00  0.00    +0.122 HD
ATOM     33  C   LIG    1       25.076 -24.534  13.979  0.00  0.00    +0.100 C 
ATOM     34  C   LIG    1       24.620 -25.652  14.948  0.00  0.00    +0.120 C 
ENDBRANCH  25  28
ENDBRANCH  20  22
ENDBRANCH   7  20
TORSDOF 5
ENDMDL
MODEL 8
REMARK VINA RESULT:      -6.3      2.178      3.409
REMARK  Name = *****
REMARK                            x       y       z     vdW  Elec       q    Type
REMARK                         _______ _______ _______ _____ _____    ______ ____
ROOT
ATOM      1  C   LIG    1       25.386 -31.420   7.139  0.00  0.00    +0.107 A 
ATOM      2  N   LIG    1       24.543 -30.380   7.564  0.00  0.00    -0.318 N 
ATOM      3  C   LIG    1       24.649 -29.323   6.675  0.00  0.00    +0.147 A 
ATOM      4  C   LIG    1       25.462 -29.699   5.634  0.00  0.00    +0.038 A 
ATOM      5  C   LIG    1       25.726 -28.732   4.674  0.00  0.00    +0.126 A 
ATOM      6  N   LIG    1       25.173 -27.500   4.789  0.00  0.00    -0.222 NA
ATOM      7  C   LIG    1       24.324 -27.258   5.807  0.00  0.00    +0.222 A 
ATOM      8  N   LIG    1       24.050 -28.134   6.785  0.00  0.00    -0.196 NA
ATOM      9  C   LIG    1       25.789 -31.046   5.854  0.00  0.00    +0.044 A 
ENDROOT
BRANCH   1  12
ATOM     10  C   LIG    1       26.870 -33.821   9.708  0.00  0.00    +0.132 C 
ATOM     11  N   LIG    1       26.570 -32.589   8.992  0.00  0.00    -0.302 N 
ATOM     12  C   LIG    1       25.708 -32.641   7.884  0.00  0.00    +0.263 C 
ATOM     13  O   LIG    1       25.201 -33.731   7.566  0.00  0.00    -0.268 OA
ATOM     14  C   LIG    1       27.358 -31.444   9.418  0.00  0.00    +0.132 C 
ENDBRANCH   1  12
BRANCH   2  15
ATOM     15  C   LIG    1       23.668 -30.356   8.729  0.00  0.00    +0.089 C 
ATOM     16  C   LIG    1       23.006 -31.686   9.121  0.00  0.00    +0.025 C 
ATOM     17  C   LIG    1       22.494 -31.401  10.529  0.00  0.00    +0.002 C 
ATOM     18  C   LIG    1       23.603 -30.582  11.175  0.00  0.00    +0.002 C 
ATOM     19  C   LIG    1       24.344 -29.883  10.031  0.00  0.00    +0.025 C 
ENDBRANCH   2  15
BRANCH   7  20
ATOM     20  N   LIG    1       23.695 -26.013   5.798  0.00  0.00    -0.268 N 
ATOM     21  H   LIG    1       22.705 -26.086   5.970  0.00  0.00    +0.156 HD
BRANCH  20  22
ATOM     22  C   LIG    1       24.230 -24.774   6.152  0.00  0.00    +0.125 A 
ATOM     23  N   LIG    1       25.570 -24.628   6.135  0.00  0.00    -0.238 NA
ATOM     24  C   LIG    1       26.085 -23.416   6.515  0.00  0.00    +0.136 A 
ATOM     25  C   LIG    1       25.358 -22.311   6.968  0.00  0.00    +0.048 A 
ATOM     26  C   LIG    1       23.983 -22.498   6.922  0.00  0.00    +0.028 A 
ATOM     27  C   LIG    1       23.429 -23.711   6.528  0.00  0.00    +0.045 A 
BRANCH  25  28
ATOM     28  N   LIG    1       25.887 -21.091   7.400  0.00  0.00    -0.326 N 
ATOM     29  C   LIG    1       26.888 -21.152   8.500  0.00  0.00    +0.120 C 
ATOM     30  C   LIG    1       28.309 -21.362   7.929  0.00  0.00    +0.100 C 
ATOM     31  N   LIG    1       28.699 -20.308   6.968  0.00  0.00    -0.313 NA
ATOM     32  H   LIG    1       28.686 -19.417   7.465  0.00  0.00    +0.122 HD
ATOM     33  C   LIG    1       27.684 -20.243   5.891  0.00  0.00    +0.100 C 
ATOM     34  C   LIG    1       26.239 -20.053   6.410  0.00  0.00    +0.120 C 
ENDBRANCH  25  28
ENDBRANCH  20  22
ENDBRANCH   7  20
TORSDOF 5
ENDMDL
MODEL 9
REMARK VINA RESULT:      -5.7      2.238      3.676
REMARK  Name = *****
REMARK                            x       y       z     vdW  Elec       q    Type
REMARK                         _______ _______ _______ _____ _____    ______ ____
ROOT
ATOM      1  C   LIG    1       24.628 -30.141   6.386  0.00  0.00    +0.107 A 
ATOM      2  N   LIG    1       24.855 -29.164   7.369  0.00  0.00    -0.318 N 
ATOM      3  C   LIG    1       25.220 -27.980   6.751  0.00  0.00    +0.147 A 
ATOM      4  C   LIG    1       25.135 -28.145   5.390  0.00  0.00    +0.038 A 
ATOM      5  C   LIG    1       25.526 -27.066   4.609  0.00  0.00    +0.126 A 
ATOM      6  N   LIG    1       25.945 -25.922   5.203  0.00  0.00    -0.222 NA
ATOM      7  C   LIG    1       25.915 -25.836   6.547  0.00  0.00    +0.222 A 
ATOM      8  N   LIG    1       25.580 -26.847   7.361  0.00  0.00    -0.196 NA
ATOM      9  C   LIG    1       24.623 -29.435   5.180  0.00  0.00    +0.044 A 
ENDROOT
BRANCH   1  12
ATOM     10  C   LIG    1       25.200 -33.825   7.205  0.00  0.00    +0.132 C 
ATOM     11  N   LIG    1       25.462 -32.410   6.988  0.00  0.00    -0.302 N 
ATOM     12  C   LIG    1       24.398 -31.571   6.614  0.00  0.00    +0.263 C 
ATOM     13  O   LIG    1       23.258 -32.055   6.509  0.00  0.00    -0.268 OA
ATOM     14  C   LIG    1       26.871 -32.052   7.018  0.00  0.00    +0.132 C 
ENDBRANCH   1  12
BRANCH   2  15
ATOM     15  C   LIG    1       24.733 -29.304   8.815  0.00  0.00    +0.089 C 
ATOM     16  C   LIG    1       23.635 -30.249   9.325  0.00  0.00    +0.025 C 
ATOM     17  C   LIG    1       24.017 -30.444  10.788  0.00  0.00    +0.002 C 
ATOM     18  C   LIG    1       25.535 -30.559  10.769  0.00  0.00    +0.002 C 
ATOM     19  C   LIG    1       26.008 -29.804   9.522  0.00  0.00    +0.025 C 
ENDBRANCH   2  15
BRANCH   7  20
ATOM     20  N   LIG    1       26.241 -24.591   7.089  0.00  0.00    -0.268 N 
ATOM     21  H   LIG    1       27.191 -24.558   7.421  0.00  0.00    +0.156 HD
BRANCH  20  22
ATOM     22  C   LIG    1       25.730 -23.340   6.743  0.00  0.00    +0.125 A 
ATOM     23  N   LIG    1       24.481 -23.277   6.238  0.00  0.00    -0.238 NA
ATOM     24  C   LIG    1       24.002 -22.046   5.873  0.00  0.00    +0.136 A 
ATOM     25  C   LIG    1       24.698 -20.834   5.927  0.00  0.00    +0.048 A 
ATOM     26  C   LIG    1       25.960 -20.949   6.496  0.00  0.00    +0.028 A 
ATOM     27  C   LIG    1       26.470 -22.181   6.890  0.00  0.00    +0.045 A 
BRANCH  25  28
ATOM     28  N   LIG    1       24.225 -19.587   5.511  0.00  0.00    -0.326 N 
ATOM     29  C   LIG    1       24.764 -19.067   4.224  0.00  0.00    +0.120 C 
ATOM     30  C   LIG    1       23.921 -19.584   3.036  0.00  0.00    +0.100 C 
ATOM     31  N   LIG    1       22.491 -19.224   3.151  0.00  0.00    -0.313 NA
ATOM     32  H   LIG    1       22.429 -18.205   3.164  0.00  0.00    +0.122 HD
ATOM     33  C   LIG    1       21.974 -19.728   4.445  0.00  0.00    +0.100 C 
ATOM     34  C   LIG    1       22.795 -19.255   5.668  0.00  0.00    +0.120 C 
ENDBRANCH  25  28
ENDBRANCH  20  22
ENDBRANCH   7  20
TORSDOF 5
ENDMDL
