MODEL 1
REMARK VINA RESULT:       0.7      0.000      0.000
REMARK  Name = *****
REMARK                            x       y       z     vdW  Elec       q    Type
REMARK                         _______ _______ _______ _____ _____    ______ ____
ROOT
ATOM      1  C   LIG    1       25.715 -18.729   3.794  0.00  0.00    +0.068 C 
ATOM      2  C   LIG    1       24.554 -17.687   3.711  0.00  0.00    +0.044 C 
ATOM      3  C   LIG    1       24.831 -16.275   4.207  0.00  0.00    +0.086 C 
ATOM      4  N   LIG    1       26.097 -15.692   3.774  0.00  0.00    -0.302 NA
ATOM      5  C   LIG    1       27.180 -16.553   4.237  0.00  0.00    +0.086 C 
ATOM      6  C   LIG    1       27.121 -17.989   3.716  0.00  0.00    +0.044 C 
ENDROOT
BRANCH   1   8
ATOM      7  C   LIG    1       24.445 -20.121   5.485  0.00  0.00    +0.220 C 
ATOM      8  N   LIG    1       25.705 -19.680   5.031  0.00  0.00    -0.263 N 
ATOM      9  O   LIG    1       23.383 -19.711   4.890  0.00  0.00    -0.275 OA
BRANCH   8  10
ATOM     10  C   LIG    1       26.920 -19.976   5.762  0.00  0.00    +0.037 A 
ATOM     11  C   LIG    1       28.083 -19.219   5.559  0.00  0.00    +0.023 A 
ATOM     12  C   LIG    1       29.327 -19.641   6.083  0.00  0.00    +0.002 A 
ATOM     13  C   LIG    1       29.434 -20.843   6.777  0.00  0.00    +0.000 A 
ATOM     14  C   LIG    1       28.276 -21.560   7.061  0.00  0.00    +0.002 A 
ATOM     15  C   LIG    1       27.019 -21.099   6.603  0.00  0.00    +0.023 A 
ENDBRANCH   8  10
BRANCH   7  17
ATOM     16  C   LIG    1       22.775 -21.511   7.061  0.00  0.00    +0.013 C 
ATOM     17  C   LIG    1       24.152 -21.200   6.528  0.00  0.00    +0.093 C 
ENDBRANCH   7  17
ENDBRANCH   1   8
BRANCH   4  18
ATOM     18  C   LIG    1       26.204 -15.334   2.343  0.00  0.00    +0.089 C 
BRANCH  18  19
ATOM     19  C   LIG    1       26.170 -13.825   1.993  0.00  0.00    +0.058 C 
BRANCH  19  20
ATOM     20  C   LIG    1       25.292 -12.970   2.875  0.00  0.00    -0.009 A 
ATOM     21  S   LIG    1       24.051 -12.006   2.180  0.00  0.00    -0.102 S 
ATOM     22  C   LIG    1       23.527 -11.447   3.709  0.00  0.00    +0.045 A 
ATOM     23  C   LIG    1       24.249 -12.006   4.737  0.00  0.00    +0.008 A 
ATOM     24  C   LIG    1       25.268 -12.876   4.254  0.00  0.00    +0.011 A 
ENDBRANCH  19  20
ENDBRANCH  18  19
ENDBRANCH   4  18
BRANCH   1  25
ATOM     25  C   LIG    1       25.540 -19.594   2.454  0.00  0.00    +0.185 C 
BRANCH  25  26
ATOM     26  O   LIG    1       24.201 -20.118   2.308  0.00  0.00    -0.381 OA
ATOM     27  C   LIG    1       24.146 -21.532   2.471  0.00  0.00    +0.193 C 
ENDBRANCH  25  26
ENDBRANCH   1  25
TORSDOF 8
ENDMDL
MODEL 2
REMARK VINA RESULT:       1.2      1.336      3.060
REMARK  Name = *****
REMARK                            x       y       z     vdW  Elec       q    Type
REMARK                         _______ _______ _______ _____ _____    ______ ____
ROOT
ATOM      1  C   LIG    1       25.921 -18.361   3.710  0.00  0.00    +0.068 C 
ATOM      2  C   LIG    1       24.697 -17.390   3.735  0.00  0.00    +0.044 C 
ATOM      3  C   LIG    1       24.915 -15.986   4.280  0.00  0.00    +0.086 C 
ATOM      4  N   LIG    1       26.118 -15.307   3.808  0.00  0.00    -0.302 NA
ATOM      5  C   LIG    1       27.274 -16.118   4.175  0.00  0.00    +0.086 C 
ATOM      6  C   LIG    1       27.274 -17.532   3.594  0.00  0.00    +0.044 C 
ENDROOT
BRANCH   1   8
ATOM      7  C   LIG    1       27.333 -19.644   5.375  0.00  0.00    +0.220 C 
ATOM      8  N   LIG    1       26.035 -19.361   4.901  0.00  0.00    -0.263 N 
ATOM      9  O   LIG    1       28.344 -19.096   4.803  0.00  0.00    -0.275 OA
BRANCH   8  10
ATOM     10  C   LIG    1       24.875 -20.074   5.398  0.00  0.00    +0.037 A 
ATOM     11  C   LIG    1       23.580 -19.679   5.033  0.00  0.00    +0.023 A 
ATOM     12  C   LIG    1       22.445 -20.209   5.691  0.00  0.00    +0.002 A 
ATOM     13  C   LIG    1       22.590 -21.105   6.747  0.00  0.00    +0.000 A 
ATOM     14  C   LIG    1       23.863 -21.571   7.061  0.00  0.00    +0.002 A 
ATOM     15  C   LIG    1       24.993 -21.099   6.353  0.00  0.00    +0.023 A 
ENDBRANCH   8  10
BRANCH   7  17
ATOM     16  C   LIG    1       29.067 -21.054   6.860  0.00  0.00    +0.013 C 
ATOM     17  C   LIG    1       27.719 -20.412   6.639  0.00  0.00    +0.093 C 
ENDBRANCH   7  17
ENDBRANCH   1   8
BRANCH   4  18
ATOM     18  C   LIG    1       26.126 -14.883   2.391  0.00  0.00    +0.089 C 
BRANCH  18  19
ATOM     19  C   LIG    1       25.790 -13.399   2.102  0.00  0.00    +0.058 C 
BRANCH  19  20
ATOM     20  C   LIG    1       25.005 -12.685   3.177  0.00  0.00    -0.009 A 
ATOM     21  S   LIG    1       25.695 -12.445   4.732  0.00  0.00    -0.102 S 
ATOM     22  C   LIG    1       24.324 -11.589   5.289  0.00  0.00    +0.045 A 
ATOM     23  C   LIG    1       23.371 -11.447   4.308  0.00  0.00    +0.008 A 
ATOM     24  C   LIG    1       23.762 -12.085   3.096  0.00  0.00    +0.011 A 
ENDBRANCH  19  20
ENDBRANCH  18  19
ENDBRANCH   4  18
BRANCH   1  25
ATOM     25  C   LIG    1       25.725 -19.177   2.343  0.00  0.00    +0.185 C 
BRANCH  25  26
ATOM     26  O   LIG    1       25.428 -20.573   2.571  0.00  0.00    -0.381 OA
ATOM     27  C   LIG    1       24.055 -20.883   2.352  0.00  0.00    +0.193 C 
ENDBRANCH  25  26
ENDBRANCH   1  25
TORSDOF 8
ENDMDL
MODEL 3
REMARK VINA RESULT:       2.6      1.821      3.481
REMARK  Name = *****
REMARK                            x       y       z     vdW  Elec       q    Type
REMARK                         _______ _______ _______ _____ _____    ______ ____
ROOT
ATOM      1  C   LIG    1       25.565 -18.347   3.659  0.00  0.00    +0.068 C 
ATOM      2  C   LIG    1       24.263 -17.482   3.700  0.00  0.00    +0.044 C 
ATOM      3  C   LIG    1       24.358 -16.086   4.298  0.00  0.00    +0.086 C 
ATOM      4  N   LIG    1       25.507 -15.294   3.869  0.00  0.00    -0.302 NA
ATOM      5  C   LIG    1       26.722 -16.020   4.223  0.00  0.00    +0.086 C 
ATOM      6  C   LIG    1       26.845 -17.406   3.592  0.00  0.00    +0.044 C 
ENDROOT
BRANCH   1   8
ATOM      7  C   LIG    1       27.061 -19.587   5.282  0.00  0.00    +0.220 C 
ATOM      8  N   LIG    1       25.747 -19.378   4.815  0.00  0.00    -0.263 N 
ATOM      9  O   LIG    1       28.032 -18.952   4.731  0.00  0.00    -0.275 OA
BRANCH   8  10
ATOM     10  C   LIG    1       24.638 -20.185   5.284  0.00  0.00    +0.037 A 
ATOM     11  C   LIG    1       23.373 -20.083   4.689  0.00  0.00    +0.023 A 
ATOM     12  C   LIG    1       22.238 -20.682   5.283  0.00  0.00    +0.002 A 
ATOM     13  C   LIG    1       22.344 -21.352   6.499  0.00  0.00    +0.000 A 
ATOM     14  C   LIG    1       23.605 -21.536   7.057  0.00  0.00    +0.002 A 
ATOM     15  C   LIG    1       24.753 -21.002   6.423  0.00  0.00    +0.023 A 
ENDBRANCH   8  10
BRANCH   7  17
ATOM     16  C   LIG    1       28.933 -20.728   6.831  0.00  0.00    +0.013 C 
ATOM     17  C   LIG    1       27.500 -20.370   6.519  0.00  0.00    +0.093 C 
ENDBRANCH   7  17
ENDBRANCH   1   8
BRANCH   4  18
ATOM     18  C   LIG    1       25.496 -14.818   2.468  0.00  0.00    +0.089 C 
BRANCH  18  19
ATOM     19  C   LIG    1       26.213 -13.476   2.178  0.00  0.00    +0.058 C 
BRANCH  19  20
ATOM     20  C   LIG    1       27.213 -13.031   3.218  0.00  0.00    -0.009 A 
ATOM     21  S   LIG    1       26.763 -12.971   4.876  0.00  0.00    -0.102 S 
ATOM     22  C   LIG    1       28.327 -12.477   5.359  0.00  0.00    +0.045 A 
ATOM     23  C   LIG    1       29.193 -12.396   4.294  0.00  0.00    +0.008 A 
ATOM     24  C   LIG    1       28.548 -12.708   3.063  0.00  0.00    +0.011 A 
ENDBRANCH  19  20
ENDBRANCH  18  19
ENDBRANCH   4  18
BRANCH   1  25
ATOM     25  C   LIG    1       25.452 -19.126   2.261  0.00  0.00    +0.185 C 
BRANCH  25  26
ATOM     26  O   LIG    1       25.442 -20.561   2.428  0.00  0.00    -0.381 OA
ATOM     27  C   LIG    1       24.147 -21.125   2.242  0.00  0.00    +0.193 C 
ENDBRANCH  25  26
ENDBRANCH   1  25
TORSDOF 8
ENDMDL
