MODEL 1
REMARK VINA RESULT:      -6.1      0.000      0.000
REMARK  Name = *****
REMARK                            x       y       z     vdW  Elec       q    Type
REMARK                         _______ _______ _______ _____ _____    ______ ____
ROOT
ATOM      1  CA  LYS A  1       30.994 -20.632   8.685  0.00  0.00    +0.147 A 
ATOM      2  N   LYS A  1       31.876 -19.650   9.044  0.00  0.00    -0.248 NA
ATOM      3  CE  LYS A  1       31.629 -18.423   8.536  0.00  0.00    +0.112 A 
ATOM      4  CD  LYS A  1       30.560 -18.134   7.698  0.00  0.00    +0.020 A 
ATOM      5  CG  LYS A  1       29.684 -19.160   7.353  0.00  0.00    +0.004 A 
ATOM      6  CB  LYS A  1       29.900 -20.440   7.854  0.00  0.00    +0.035 A 
ENDROOT
BRANCH   1   8
ATOM      7  O   LYS A  1       30.754 -22.451  10.245  0.00  0.00    -0.243 OA
ATOM      8  C   LYS A  1       31.281 -21.980   9.254  0.00  0.00    +0.355 C 
BRANCH   8   9
ATOM      9  OXT LYS A  1       32.220 -22.612   8.507  0.00  0.00    -0.476 OA
ATOM     10  HXT LYS A  1       32.258 -22.175   7.622  0.00  0.00    +0.295 HD
ENDBRANCH   8   9
ENDBRANCH   1   8
TORSDOF 2
ENDMDL
MODEL 2
REMARK VINA RESULT:      -5.9      2.854      3.573
REMARK  Name = *****
REMARK                            x       y       z     vdW  Elec       q    Type
REMARK                         _______ _______ _______ _____ _____    ______ ____
ROOT
ATOM      1  CA  LYS A  1       31.480 -18.421   8.979  0.00  0.00    +0.147 A 
ATOM      2  N   LYS A  1       31.933 -19.689   9.219  0.00  0.00    -0.248 NA
ATOM      3  CE  LYS A  1       31.188 -20.689   8.700  0.00  0.00    +0.112 A 
ATOM      4  CD  LYS A  1       30.028 -20.487   7.963  0.00  0.00    +0.020 A 
ATOM      5  CG  LYS A  1       29.597 -19.181   7.740  0.00  0.00    +0.004 A 
ATOM      6  CB  LYS A  1       30.335 -18.120   8.257  0.00  0.00    +0.035 A 
ENDROOT
BRANCH   1   8
ATOM      7  O   LYS A  1       32.730 -17.297  10.703  0.00  0.00    -0.243 OA
ATOM      8  C   LYS A  1       32.313 -17.330   9.560  0.00  0.00    +0.355 C 
BRANCH   8   9
ATOM      9  OXT LYS A  1       32.544 -16.371   8.628  0.00  0.00    -0.476 OA
ATOM     10  HXT LYS A  1       31.953 -15.604   8.821  0.00  0.00    +0.295 HD
ENDBRANCH   8   9
ENDBRANCH   1   8
TORSDOF 2
ENDMDL
MODEL 3
REMARK VINA RESULT:      -5.8      2.502      3.141
REMARK  Name = *****
REMARK                            x       y       z     vdW  Elec       q    Type
REMARK                         _______ _______ _______ _____ _____    ______ ____
ROOT
ATOM      1  CA  LYS A  1       30.523 -19.232   7.485  0.00  0.00    +0.147 A 
ATOM      2  N   LYS A  1       30.271 -18.331   6.487  0.00  0.00    -0.248 NA
ATOM      3  CE  LYS A  1       29.238 -18.632   5.670  0.00  0.00    +0.112 A 
ATOM      4  CD  LYS A  1       28.458 -19.774   5.798  0.00  0.00    +0.020 A 
ATOM      5  CG  LYS A  1       28.745 -20.668   6.827  0.00  0.00    +0.004 A 
ATOM      6  CB  LYS A  1       29.800 -20.398   7.692  0.00  0.00    +0.035 A 
ENDROOT
BRANCH   1   8
ATOM      7  O   LYS A  1       32.103 -19.592   9.267  0.00  0.00    -0.243 OA
ATOM      8  C   LYS A  1       31.666 -18.885   8.378  0.00  0.00    +0.355 C 
BRANCH   8   9
ATOM      9  OXT LYS A  1       32.154 -17.660   8.058  0.00  0.00    -0.476 OA
ATOM     10  HXT LYS A  1       32.560 -17.268   8.868  0.00  0.00    +0.295 HD
ENDBRANCH   8   9
ENDBRANCH   1   8
TORSDOF 2
ENDMDL
MODEL 4
REMARK VINA RESULT:      -5.7      1.895      2.598
REMARK  Name = *****
REMARK                            x       y       z     vdW  Elec       q    Type
REMARK                         _______ _______ _______ _____ _____    ______ ____
ROOT
ATOM      1  CA  LYS A  1       30.323 -20.525   8.076  0.00  0.00    +0.147 A 
ATOM      2  N   LYS A  1       29.272 -21.364   8.323  0.00  0.00    -0.248 NA
ATOM      3  CE  LYS A  1       28.186 -21.193   7.538  0.00  0.00    +0.112 A 
ATOM      4  CD  LYS A  1       28.100 -20.238   6.533  0.00  0.00    +0.020 A 
ATOM      5  CG  LYS A  1       29.192 -19.401   6.312  0.00  0.00    +0.004 A 
ATOM      6  CB  LYS A  1       30.331 -19.542   7.098  0.00  0.00    +0.035 A 
ENDROOT
BRANCH   1   8
ATOM      7  O   LYS A  1       31.921 -21.803   9.347  0.00  0.00    -0.243 OA
ATOM      8  C   LYS A  1       31.513 -20.726   8.952  0.00  0.00    +0.355 C 
BRANCH   8   9
ATOM      9  OXT LYS A  1       32.081 -19.531   9.251  0.00  0.00    -0.476 OA
ATOM     10  HXT LYS A  1       32.711 -19.298   8.526  0.00  0.00    +0.295 HD
ENDBRANCH   8   9
ENDBRANCH   1   8
TORSDOF 2
ENDMDL
MODEL 5
REMARK VINA RESULT:      -5.6      2.337      3.197
REMARK  Name = *****
REMARK                            x       y       z     vdW  Elec       q    Type
REMARK                         _______ _______ _______ _____ _____    ______ ____
ROOT
ATOM      1  CA  LYS A  1       30.402 -19.436   7.715  0.00  0.00    +0.147 A 
ATOM      2  N   LYS A  1       29.932 -20.579   8.300  0.00  0.00    -0.248 NA
ATOM      3  CE  LYS A  1       28.865 -21.151   7.700  0.00  0.00    +0.112 A 
ATOM      4  CD  LYS A  1       28.253 -20.643   6.562  0.00  0.00    +0.020 A 
ATOM      5  CG  LYS A  1       28.761 -19.476   5.995  0.00  0.00    +0.004 A 
ATOM      6  CB  LYS A  1       29.859 -18.853   6.580  0.00  0.00    +0.035 A 
ENDROOT
BRANCH   1   8
ATOM      7  O   LYS A  1       32.004 -17.697   8.176  0.00  0.00    -0.243 OA
ATOM      8  C   LYS A  1       31.579 -18.817   8.390  0.00  0.00    +0.355 C 
BRANCH   8   9
ATOM      9  OXT LYS A  1       32.116 -19.686   9.283  0.00  0.00    -0.476 OA
ATOM     10  HXT LYS A  1       32.638 -19.169   9.943  0.00  0.00    +0.295 HD
ENDBRANCH   8   9
ENDBRANCH   1   8
TORSDOF 2
ENDMDL
MODEL 6
REMARK VINA RESULT:      -5.4      2.634      3.367
REMARK  Name = *****
REMARK                            x       y       z     vdW  Elec       q    Type
REMARK                         _______ _______ _______ _____ _____    ______ ____
ROOT
ATOM      1  CA  LYS A  1       31.067 -18.123   8.427  0.00  0.00    +0.147 A 
ATOM      2  N   LYS A  1       32.174 -17.321   8.467  0.00  0.00    -0.248 NA
ATOM      3  CE  LYS A  1       32.293 -16.536   9.561  0.00  0.00    +0.112 A 
ATOM      4  CD  LYS A  1       31.372 -16.513  10.600  0.00  0.00    +0.020 A 
ATOM      5  CG  LYS A  1       30.256 -17.343  10.523  0.00  0.00    +0.004 A 
ATOM      6  CB  LYS A  1       30.094 -18.169   9.415  0.00  0.00    +0.035 A 
ENDROOT
BRANCH   1   8
ATOM      7  O   LYS A  1       30.391 -18.666   6.180  0.00  0.00    -0.243 OA
ATOM      8  C   LYS A  1       30.950 -18.982   7.214  0.00  0.00    +0.355 C 
BRANCH   8   9
ATOM      9  OXT LYS A  1       31.560 -20.175   7.426  0.00  0.00    -0.476 OA
ATOM     10  HXT LYS A  1       32.441 -20.156   6.981  0.00  0.00    +0.295 HD
ENDBRANCH   8   9
ENDBRANCH   1   8
TORSDOF 2
ENDMDL
MODEL 7
REMARK VINA RESULT:      -5.3      5.647      6.429
REMARK  Name = *****
REMARK                            x       y       z     vdW  Elec       q    Type
REMARK                         _______ _______ _______ _____ _____    ______ ____
ROOT
ATOM      1  CA  LYS A  1       25.173 -20.717   7.211  0.00  0.00    +0.147 A 
ATOM      2  N   LYS A  1       25.924 -20.547   6.081  0.00  0.00    -0.248 NA
ATOM      3  CE  LYS A  1       25.231 -20.394   4.931  0.00  0.00    +0.112 A 
ATOM      4  CD  LYS A  1       23.844 -20.403   4.857  0.00  0.00    +0.020 A 
ATOM      5  CG  LYS A  1       23.113 -20.579   6.030  0.00  0.00    +0.004 A 
ATOM      6  CB  LYS A  1       23.786 -20.741   7.236  0.00  0.00    +0.035 A 
ENDROOT
BRANCH   1   8
ATOM      7  O   LYS A  1       25.587 -21.516   9.445  0.00  0.00    -0.243 OA
ATOM      8  C   LYS A  1       25.953 -20.885   8.470  0.00  0.00    +0.355 C 
BRANCH   8   9
ATOM      9  OXT LYS A  1       27.137 -20.230   8.377  0.00  0.00    -0.476 OA
ATOM     10  HXT LYS A  1       27.141 -19.502   9.044  0.00  0.00    +0.295 HD
ENDBRANCH   8   9
ENDBRANCH   1   8
TORSDOF 2
ENDMDL
MODEL 8
REMARK VINA RESULT:      -5.3      7.767      8.264
REMARK  Name = *****
REMARK                            x       y       z     vdW  Elec       q    Type
REMARK                         _______ _______ _______ _____ _____    ______ ____
ROOT
ATOM      1  CA  LYS A  1       23.436 -20.819   5.622  0.00  0.00    +0.147 A 
ATOM      2  N   LYS A  1       24.611 -21.027   4.954  0.00  0.00    -0.248 NA
ATOM      3  CE  LYS A  1       24.884 -20.155   3.959  0.00  0.00    +0.112 A 
ATOM      4  CD  LYS A  1       24.052 -19.102   3.603  0.00  0.00    +0.020 A 
ATOM      5  CG  LYS A  1       22.863 -18.922   4.306  0.00  0.00    +0.004 A 
ATOM      6  CB  LYS A  1       22.542 -19.797   5.339  0.00  0.00    +0.035 A 
ENDROOT
BRANCH   1   8
ATOM      7  O   LYS A  1       23.277 -21.565   7.907  0.00  0.00    -0.243 OA
ATOM      8  C   LYS A  1       23.149 -21.789   6.717  0.00  0.00    +0.355 C 
BRANCH   8   9
ATOM      9  OXT LYS A  1       22.723 -22.968   6.197  0.00  0.00    -0.476 OA
ATOM     10  HXT LYS A  1       22.528 -22.831   5.239  0.00  0.00    +0.295 HD
ENDBRANCH   8   9
ENDBRANCH   1   8
TORSDOF 2
ENDMDL
MODEL 9
REMARK VINA RESULT:      -5.3      6.173      7.131
REMARK  Name = *****
REMARK                            x       y       z     vdW  Elec       q    Type
REMARK                         _______ _______ _______ _____ _____    ______ ____
ROOT
ATOM      1  CA  LYS A  1       25.117 -21.977   7.711  0.00  0.00    +0.147 A 
ATOM      2  N   LYS A  1       23.774 -21.751   7.585  0.00  0.00    -0.248 NA
ATOM      3  CE  LYS A  1       23.054 -22.765   7.055  0.00  0.00    +0.112 A 
ATOM      4  CD  LYS A  1       23.604 -23.974   6.650  0.00  0.00    +0.020 A 
ATOM      5  CG  LYS A  1       24.976 -24.166   6.794  0.00  0.00    +0.004 A 
ATOM      6  CB  LYS A  1       25.756 -23.149   7.335  0.00  0.00    +0.035 A 
ENDROOT
BRANCH   1   8
ATOM      7  O   LYS A  1       25.902 -20.534   9.473  0.00  0.00    -0.243 OA
ATOM      8  C   LYS A  1       25.896 -20.848   8.297  0.00  0.00    +0.355 C 
BRANCH   8   9
ATOM      9  OXT LYS A  1       26.603 -20.215   7.327  0.00  0.00    -0.476 OA
ATOM     10  HXT LYS A  1       27.561 -20.261   7.562  0.00  0.00    +0.295 HD
ENDBRANCH   8   9
ENDBRANCH   1   8
TORSDOF 2
ENDMDL
