MODEL 1
REMARK VINA RESULT:       2.6      0.000      0.000
REMARK  Name = *****
REMARK                            x       y       z     vdW  Elec       q    Type
REMARK                         _______ _______ _______ _____ _____    ______ ____
ROOT
ATOM      1  C   LIG    1       25.020 -19.544   4.034  0.00  0.00    +0.100 C 
ENDROOT
BRANCH   1   2
ATOM      2  C   LIG    1       26.413 -19.377   4.744  0.00  0.00    -0.028 A 
ATOM      3  C   LIG    1       26.814 -20.287   5.753  0.00  0.00    +0.005 A 
ATOM      4  C   LIG    1       28.066 -20.217   6.364  0.00  0.00    +0.000 A 
ATOM      5  C   LIG    1       28.964 -19.229   5.980  0.00  0.00    +0.000 A 
ATOM      6  C   LIG    1       28.603 -18.322   4.986  0.00  0.00    +0.000 A 
ATOM      7  C   LIG    1       27.346 -18.396   4.370  0.00  0.00    +0.005 A 
ENDBRANCH   1   2
BRANCH   1   8
ATOM      8  C   LIG    1       23.958 -20.279   4.948  0.00  0.00    -0.028 A 
ATOM      9  C   LIG    1       24.281 -20.749   6.242  0.00  0.00    +0.005 A 
ATOM     10  C   LIG    1       23.329 -21.376   7.062  0.00  0.00    +0.000 A 
ATOM     11  C   LIG    1       22.032 -21.568   6.618  0.00  0.00    +0.000 A 
ATOM     12  C   LIG    1       21.683 -21.140   5.345  0.00  0.00    +0.000 A 
ATOM     13  C   LIG    1       22.634 -20.515   4.526  0.00  0.00    +0.005 A 
ENDBRANCH   1   8
BRANCH   1  17
ATOM     14  N   LIG    1       24.375 -21.465   2.514  0.00  0.00    -0.328 N 
ATOM     15  H   LIG    1       23.682 -21.744   3.196  0.00  0.00    +0.145 HD
ATOM     16  H   LIG    1       24.465 -21.988   1.655  0.00  0.00    +0.145 HD
ATOM     17  C   LIG    1       25.203 -20.386   2.700  0.00  0.00    +0.226 C 
ATOM     18  O   LIG    1       26.014 -20.134   1.812  0.00  0.00    -0.275 OA
ENDBRANCH   1  17
BRANCH   1  19
ATOM     19  C   LIG    1       24.516 -18.082   3.652  0.00  0.00    +0.028 C 
ATOM     20  C   LIG    1       23.563 -17.412   4.658  0.00  0.00    +0.089 C 
ATOM     21  N   LIG    1       23.763 -15.960   4.546  0.00  0.00    -0.302 NA
ATOM     22  C   LIG    1       25.214 -15.841   4.327  0.00  0.00    +0.085 C 
ATOM     23  C   LIG    1       25.602 -17.010   3.424  0.00  0.00    +0.022 C 
BRANCH  21  24
ATOM     24  C   LIG    1       23.002 -15.305   3.467  0.00  0.00    +0.089 C 
BRANCH  24  25
ATOM     25  C   LIG    1       23.286 -13.798   3.336  0.00  0.00    +0.050 C 
BRANCH  25  26
ATOM     26  C   LIG    1       24.768 -13.497   3.362  0.00  0.00    -0.046 A 
ATOM     27  C   LIG    1       25.398 -13.133   4.564  0.00  0.00    +0.011 A 
ATOM     28  C   LIG    1       26.755 -12.854   4.541  0.00  0.00    -0.002 A 
ATOM     29  C   LIG    1       27.634 -12.392   5.636  0.00  0.00    +0.080 C 
ATOM     30  C   LIG    1       28.989 -12.448   4.925  0.00  0.00    +0.234 C 
ATOM     31  O   LIG    1       28.796 -12.585   3.498  0.00  0.00    -0.491 OA
ATOM     32  C   LIG    1       27.478 -12.927   3.365  0.00  0.00    +0.124 A 
ATOM     33  C   LIG    1       26.893 -13.291   2.171  0.00  0.00    +0.046 A 
ATOM     34  C   LIG    1       25.527 -13.584   2.174  0.00  0.00    +0.007 A 
ENDBRANCH  25  26
ENDBRANCH  24  25
ENDBRANCH  21  24
ENDBRANCH   1  19
TORSDOF 7
ENDMDL
MODEL 2
REMARK VINA RESULT:       3.3      1.886      2.992
REMARK  Name = *****
REMARK                            x       y       z     vdW  Elec       q    Type
REMARK                         _______ _______ _______ _____ _____    ______ ____
ROOT
ATOM      1  C   LIG    1       25.534 -19.224   3.759  0.00  0.00    +0.100 C 
ENDROOT
BRANCH   1   2
ATOM      2  C   LIG    1       26.294 -19.900   4.958  0.00  0.00    -0.028 A 
ATOM      3  C   LIG    1       25.617 -20.807   5.811  0.00  0.00    +0.005 A 
ATOM      4  C   LIG    1       26.267 -21.479   6.846  0.00  0.00    +0.000 A 
ATOM      5  C   LIG    1       27.622 -21.266   7.062  0.00  0.00    +0.000 A 
ATOM      6  C   LIG    1       28.318 -20.385   6.237  0.00  0.00    +0.000 A 
ATOM      7  C   LIG    1       27.665 -19.712   5.194  0.00  0.00    +0.005 A 
ENDBRANCH   1   2
BRANCH   1   8
ATOM      8  C   LIG    1       24.063 -18.786   4.143  0.00  0.00    -0.028 A 
ATOM      9  C   LIG    1       23.640 -17.439   4.071  0.00  0.00    +0.005 A 
ATOM     10  C   LIG    1       22.325 -17.057   4.386  0.00  0.00    +0.000 A 
ATOM     11  C   LIG    1       21.395 -17.997   4.794  0.00  0.00    +0.000 A 
ATOM     12  C   LIG    1       21.779 -19.327   4.897  0.00  0.00    +0.000 A 
ATOM     13  C   LIG    1       23.093 -19.708   4.585  0.00  0.00    +0.005 A 
ENDBRANCH   1   8
BRANCH   1  17
ATOM     14  N   LIG    1       24.221 -20.761   2.232  0.00  0.00    -0.328 N 
ATOM     15  H   LIG    1       23.386 -20.535   2.756  0.00  0.00    +0.145 HD
ATOM     16  H   LIG    1       24.157 -21.385   1.441  0.00  0.00    +0.145 HD
ATOM     17  C   LIG    1       25.454 -20.242   2.542  0.00  0.00    +0.226 C 
ATOM     18  O   LIG    1       26.405 -20.584   1.844  0.00  0.00    -0.275 OA
ENDBRANCH   1  17
BRANCH   1  19
ATOM     19  C   LIG    1       26.398 -17.961   3.314  0.00  0.00    +0.028 C 
ATOM     20  C   LIG    1       25.701 -16.594   3.425  0.00  0.00    +0.089 C 
ATOM     21  N   LIG    1       26.748 -15.590   3.665  0.00  0.00    -0.302 NA
ATOM     22  C   LIG    1       27.687 -16.297   4.551  0.00  0.00    +0.085 C 
ATOM     23  C   LIG    1       27.734 -17.740   4.052  0.00  0.00    +0.022 C 
BRANCH  21  24
ATOM     24  C   LIG    1       27.424 -15.090   2.455  0.00  0.00    +0.089 C 
BRANCH  24  25
ATOM     25  C   LIG    1       27.386 -13.559   2.312  0.00  0.00    +0.050 C 
BRANCH  25  26
ATOM     26  C   LIG    1       26.110 -12.970   2.873  0.00  0.00    -0.046 A 
ATOM     27  C   LIG    1       25.905 -12.911   4.262  0.00  0.00    +0.011 A 
ATOM     28  C   LIG    1       24.718 -12.375   4.733  0.00  0.00    -0.002 A 
ATOM     29  C   LIG    1       24.231 -12.256   6.124  0.00  0.00    +0.080 C 
ATOM     30  C   LIG    1       22.953 -11.447   5.886  0.00  0.00    +0.234 C 
ATOM     31  O   LIG    1       22.620 -11.448   4.478  0.00  0.00    -0.491 OA
ATOM     32  C   LIG    1       23.751 -11.910   3.862  0.00  0.00    +0.124 A 
ATOM     33  C   LIG    1       23.924 -11.945   2.495  0.00  0.00    +0.046 A 
ATOM     34  C   LIG    1       25.117 -12.475   1.999  0.00  0.00    +0.007 A 
ENDBRANCH  25  26
ENDBRANCH  24  25
ENDBRANCH  21  24
ENDBRANCH   1  19
TORSDOF 7
ENDMDL
MODEL 3
REMARK VINA RESULT:       5.2      1.883      3.745
REMARK  Name = *****
REMARK                            x       y       z     vdW  Elec       q    Type
REMARK                         _______ _______ _______ _____ _____    ______ ____
ROOT
ATOM      1  C   LIG    1       25.662 -18.792   4.031  0.00  0.00    +0.100 C 
ENDROOT
BRANCH   1   2
ATOM      2  C   LIG    1       26.528 -17.493   3.848  0.00  0.00    -0.028 A 
ATOM      3  C   LIG    1       26.012 -16.387   3.127  0.00  0.00    +0.005 A 
ATOM      4  C   LIG    1       26.718 -15.192   2.994  0.00  0.00    +0.000 A 
ATOM      5  C   LIG    1       27.969 -15.062   3.583  0.00  0.00    +0.000 A 
ATOM      6  C   LIG    1       28.502 -16.129   4.304  0.00  0.00    +0.000 A 
ATOM      7  C   LIG    1       27.790 -17.329   4.440  0.00  0.00    +0.005 A 
ENDBRANCH   1   2
BRANCH   1   8
ATOM      8  C   LIG    1       26.259 -19.770   5.122  0.00  0.00    -0.028 A 
ATOM      9  C   LIG    1       25.447 -20.685   5.832  0.00  0.00    +0.005 A 
ATOM     10  C   LIG    1       25.985 -21.571   6.780  0.00  0.00    +0.000 A 
ATOM     11  C   LIG    1       27.340 -21.568   7.061  0.00  0.00    +0.000 A 
ATOM     12  C   LIG    1       28.165 -20.670   6.399  0.00  0.00    +0.000 A 
ATOM     13  C   LIG    1       27.628 -19.783   5.455  0.00  0.00    +0.005 A 
ENDBRANCH   1   8
BRANCH   1  17
ATOM     14  N   LIG    1       24.393 -20.200   2.349  0.00  0.00    -0.328 N 
ATOM     15  H   LIG    1       23.600 -20.197   2.977  0.00  0.00    +0.145 HD
ATOM     16  H   LIG    1       24.321 -20.671   1.459  0.00  0.00    +0.145 HD
ATOM     17  C   LIG    1       25.577 -19.572   2.649  0.00  0.00    +0.226 C 
ATOM     18  O   LIG    1       26.480 -19.637   1.821  0.00  0.00    -0.275 OA
ENDBRANCH   1  17
BRANCH   1  19
ATOM     19  C   LIG    1       24.197 -18.319   4.443  0.00  0.00    +0.028 C 
ATOM     20  C   LIG    1       23.270 -17.907   3.285  0.00  0.00    +0.089 C 
ATOM     21  N   LIG    1       21.891 -18.184   3.712  0.00  0.00    -0.302 NA
ATOM     22  C   LIG    1       22.025 -19.435   4.476  0.00  0.00    +0.085 C 
ATOM     23  C   LIG    1       23.342 -19.323   5.242  0.00  0.00    +0.022 C 
BRANCH  21  24
ATOM     24  C   LIG    1       21.264 -17.126   4.523  0.00  0.00    +0.089 C 
BRANCH  24  25
ATOM     25  C   LIG    1       22.220 -16.472   5.535  0.00  0.00    +0.050 C 
BRANCH  25  26
ATOM     26  C   LIG    1       22.777 -15.162   5.023  0.00  0.00    -0.046 A 
ATOM     27  C   LIG    1       23.076 -15.001   3.660  0.00  0.00    +0.011 A 
ATOM     28  C   LIG    1       23.596 -13.790   3.235  0.00  0.00    -0.002 A 
ATOM     29  C   LIG    1       24.050 -13.386   1.888  0.00  0.00    +0.080 C 
ATOM     30  C   LIG    1       24.341 -11.904   2.141  0.00  0.00    +0.234 C 
ATOM     31  O   LIG    1       24.374 -11.641   3.563  0.00  0.00    -0.491 OA
ATOM     32  C   LIG    1       23.821 -12.759   4.129  0.00  0.00    +0.124 A 
ATOM     33  C   LIG    1       23.530 -12.880   5.470  0.00  0.00    +0.046 A 
ATOM     34  C   LIG    1       22.998 -14.091   5.918  0.00  0.00    +0.007 A 
ENDBRANCH  25  26
ENDBRANCH  24  25
ENDBRANCH  21  24
ENDBRANCH   1  19
TORSDOF 7
ENDMDL
