MODEL 1
REMARK VINA RESULT:      -6.8      0.000      0.000
REMARK  Name = *****
REMARK                            x       y       z     vdW  Elec       q    Type
REMARK                         _______ _______ _______ _____ _____    ______ ____
ROOT
ATOM      1  N   LIG    1       29.743 -20.570   6.898  0.00  0.00    -0.272 N 
ATOM      2  H   LIG    1       29.395 -21.418   7.321  0.00  0.00    +0.258 HD
ENDROOT
BRANCH   1   5
ATOM      3  C   LIG    1       31.879 -18.035   8.390  0.00  0.00    +0.291 C 
ATOM      4  N   LIG    1       30.811 -18.666   7.636  0.00  0.00    -0.117 NA
ATOM      5  C   LIG    1       30.716 -19.950   7.620  0.00  0.00    +0.381 C 
BRANCH   5   6
ATOM      6  N   LIG    1       31.543 -20.827   8.263  0.00  0.00    -0.279 N 
ATOM      7  H   LIG    1       32.392 -21.048   7.760  0.00  0.00    +0.258 HD
ATOM      8  C   LIG    1       31.111 -21.892   9.141  0.00  0.00    +0.239 C 
ENDBRANCH   5   6
ENDBRANCH   1   5
BRANCH   1   9
ATOM      9  C   LIG    1       28.736 -19.828   6.163  0.00  0.00    +0.231 C 
BRANCH   9  10
ATOM     10  C   LIG    1       27.373 -20.253   6.657  0.00  0.00    -0.014 A 
ATOM     11  C   LIG    1       26.310 -20.417   5.755  0.00  0.00    +0.007 A 
ATOM     12  C   LIG    1       25.031 -20.728   6.219  0.00  0.00    +0.000 A 
ATOM     13  C   LIG    1       24.799 -20.875   7.585  0.00  0.00    +0.000 A 
ATOM     14  C   LIG    1       25.849 -20.723   8.489  0.00  0.00    +0.000 A 
ATOM     15  C   LIG    1       27.129 -20.412   8.029  0.00  0.00    +0.007 A 
ENDBRANCH   9  10
ENDBRANCH   1   9
TORSDOF 4
ENDMDL
MODEL 2
REMARK VINA RESULT:      -6.7      0.059      1.341
REMARK  Name = *****
REMARK                            x       y       z     vdW  Elec       q    Type
REMARK                         _______ _______ _______ _____ _____    ______ ____
ROOT
ATOM      1  N   LIG    1       29.733 -20.588   6.868  0.00  0.00    -0.272 N 
ATOM      2  H   LIG    1       29.360 -21.415   7.310  0.00  0.00    +0.258 HD
ENDROOT
BRANCH   1   5
ATOM      3  C   LIG    1       31.848 -18.041   8.370  0.00  0.00    +0.291 C 
ATOM      4  N   LIG    1       30.786 -18.678   7.613  0.00  0.00    -0.117 NA
ATOM      5  C   LIG    1       30.701 -19.962   7.594  0.00  0.00    +0.381 C 
BRANCH   5   6
ATOM      6  N   LIG    1       31.533 -20.835   8.235  0.00  0.00    -0.279 N 
ATOM      7  H   LIG    1       32.372 -21.068   7.721  0.00  0.00    +0.258 HD
ATOM      8  C   LIG    1       31.110 -21.885   9.136  0.00  0.00    +0.239 C 
ENDBRANCH   5   6
ENDBRANCH   1   5
BRANCH   1   9
ATOM      9  C   LIG    1       28.757 -19.851   6.086  0.00  0.00    +0.231 C 
BRANCH   9  10
ATOM     10  C   LIG    1       27.379 -20.177   6.611  0.00  0.00    -0.014 A 
ATOM     11  C   LIG    1       27.167 -20.359   7.986  0.00  0.00    +0.007 A 
ATOM     12  C   LIG    1       25.913 -20.742   8.464  0.00  0.00    +0.000 A 
ATOM     13  C   LIG    1       24.860 -20.949   7.575  0.00  0.00    +0.000 A 
ATOM     14  C   LIG    1       25.056 -20.763   6.208  0.00  0.00    +0.000 A 
ATOM     15  C   LIG    1       26.309 -20.381   5.727  0.00  0.00    +0.007 A 
ENDBRANCH   9  10
ENDBRANCH   1   9
TORSDOF 4
ENDMDL
MODEL 3
REMARK VINA RESULT:      -6.6      5.158      6.438
REMARK  Name = *****
REMARK                            x       y       z     vdW  Elec       q    Type
REMARK                         _______ _______ _______ _____ _____    ______ ____
ROOT
ATOM      1  N   LIG    1       24.867 -23.072   5.097  0.00  0.00    -0.272 N 
ATOM      2  H   LIG    1       24.069 -22.942   4.493  0.00  0.00    +0.258 HD
ENDROOT
BRANCH   1   5
ATOM      3  C   LIG    1       25.952 -26.213   6.572  0.00  0.00    +0.291 C 
ATOM      4  N   LIG    1       25.976 -24.926   5.900  0.00  0.00    -0.117 NA
ATOM      5  C   LIG    1       24.880 -24.268   5.749  0.00  0.00    +0.381 C 
BRANCH   5   6
ATOM      6  N   LIG    1       23.640 -24.659   6.168  0.00  0.00    -0.279 N 
ATOM      7  H   LIG    1       23.221 -25.391   5.610  0.00  0.00    +0.258 HD
ATOM      8  C   LIG    1       22.664 -23.802   6.805  0.00  0.00    +0.239 C 
ENDBRANCH   5   6
ENDBRANCH   1   5
BRANCH   1   9
ATOM      9  C   LIG    1       25.332 -21.848   5.722  0.00  0.00    +0.231 C 
BRANCH   9  10
ATOM     10  C   LIG    1       24.502 -20.699   5.201  0.00  0.00    -0.014 A 
ATOM     11  C   LIG    1       23.242 -20.424   5.756  0.00  0.00    +0.007 A 
ATOM     12  C   LIG    1       22.438 -19.417   5.220  0.00  0.00    +0.000 A 
ATOM     13  C   LIG    1       22.882 -18.676   4.126  0.00  0.00    +0.000 A 
ATOM     14  C   LIG    1       24.135 -18.934   3.572  0.00  0.00    +0.000 A 
ATOM     15  C   LIG    1       24.941 -19.941   4.105  0.00  0.00    +0.007 A 
ENDBRANCH   9  10
ENDBRANCH   1   9
TORSDOF 4
ENDMDL
MODEL 4
REMARK VINA RESULT:      -6.6      0.727      2.279
REMARK  Name = *****
REMARK                            x       y       z     vdW  Elec       q    Type
REMARK                         _______ _______ _______ _____ _____    ______ ____
ROOT
ATOM      1  N   LIG    1       29.230 -19.626   7.486  0.00  0.00    -0.272 N 
ATOM      2  H   LIG    1       29.295 -18.620   7.546  0.00  0.00    +0.258 HD
ENDROOT
BRANCH   1   5
ATOM      3  C   LIG    1       31.332 -22.056   9.188  0.00  0.00    +0.291 C 
ATOM      4  N   LIG    1       30.168 -21.398   8.624  0.00  0.00    -0.117 NA
ATOM      5  C   LIG    1       30.309 -20.281   8.000  0.00  0.00    +0.381 C 
BRANCH   5   6
ATOM      6  N   LIG    1       31.483 -19.613   7.797  0.00  0.00    -0.279 N 
ATOM      7  H   LIG    1       32.282 -20.211   7.632  0.00  0.00    +0.258 HD
ATOM      8  C   LIG    1       31.838 -18.345   8.397  0.00  0.00    +0.239 C 
ENDBRANCH   5   6
ENDBRANCH   1   5
BRANCH   1   9
ATOM      9  C   LIG    1       28.532 -20.099   6.305  0.00  0.00    +0.231 C 
BRANCH   9  10
ATOM     10  C   LIG    1       27.082 -20.321   6.664  0.00  0.00    -0.014 A 
ATOM     11  C   LIG    1       26.699 -20.493   8.003  0.00  0.00    +0.007 A 
ATOM     12  C   LIG    1       25.373 -20.782   8.329  0.00  0.00    +0.000 A 
ATOM     13  C   LIG    1       24.417 -20.905   7.322  0.00  0.00    +0.000 A 
ATOM     14  C   LIG    1       24.784 -20.727   5.988  0.00  0.00    +0.000 A 
ATOM     15  C   LIG    1       26.109 -20.439   5.660  0.00  0.00    +0.007 A 
ENDBRANCH   9  10
ENDBRANCH   1   9
TORSDOF 4
ENDMDL
MODEL 5
REMARK VINA RESULT:      -6.4      1.509      2.701
REMARK  Name = *****
REMARK                            x       y       z     vdW  Elec       q    Type
REMARK                         _______ _______ _______ _____ _____    ______ ____
ROOT
ATOM      1  N   LIG    1       27.857 -21.447   7.337  0.00  0.00    -0.272 N 
ATOM      2  H   LIG    1       27.698 -22.439   7.239  0.00  0.00    +0.258 HD
ENDROOT
BRANCH   1   5
ATOM      3  C   LIG    1       31.131 -21.079   8.875  0.00  0.00    +0.291 C 
ATOM      4  N   LIG    1       29.753 -21.476   8.647  0.00  0.00    -0.117 NA
ATOM      5  C   LIG    1       29.158 -21.115   7.564  0.00  0.00    +0.381 C 
BRANCH   5   6
ATOM      6  N   LIG    1       29.700 -20.367   6.558  0.00  0.00    -0.279 N 
ATOM      7  H   LIG    1       30.605 -20.686   6.239  0.00  0.00    +0.258 HD
ATOM      8  C   LIG    1       29.503 -18.946   6.372  0.00  0.00    +0.239 C 
ENDBRANCH   5   6
ENDBRANCH   1   5
BRANCH   1   9
ATOM      9  C   LIG    1       26.758 -20.738   7.967  0.00  0.00    +0.231 C 
BRANCH   9  10
ATOM     10  C   LIG    1       25.602 -20.689   6.997  0.00  0.00    -0.014 A 
ATOM     11  C   LIG    1       25.827 -20.442   5.634  0.00  0.00    +0.007 A 
ATOM     12  C   LIG    1       24.753 -20.313   4.752  0.00  0.00    +0.000 A 
ATOM     13  C   LIG    1       23.445 -20.426   5.221  0.00  0.00    +0.000 A 
ATOM     14  C   LIG    1       23.210 -20.680   6.571  0.00  0.00    +0.000 A 
ATOM     15  C   LIG    1       24.281 -20.809   7.456  0.00  0.00    +0.007 A 
ENDBRANCH   9  10
ENDBRANCH   1   9
TORSDOF 4
ENDMDL
MODEL 6
REMARK VINA RESULT:      -6.4      2.879      4.612
REMARK  Name = *****
REMARK                            x       y       z     vdW  Elec       q    Type
REMARK                         _______ _______ _______ _____ _____    ______ ____
ROOT
ATOM      1  N   LIG    1       25.650 -20.461   6.887  0.00  0.00    -0.272 N 
ATOM      2  H   LIG    1       24.848 -20.423   6.274  0.00  0.00    +0.258 HD
ENDROOT
BRANCH   1   5
ATOM      3  C   LIG    1       29.192 -19.995   6.213  0.00  0.00    +0.291 C 
ATOM      4  N   LIG    1       27.941 -20.213   6.917  0.00  0.00    -0.117 NA
ATOM      5  C   LIG    1       26.842 -20.287   6.251  0.00  0.00    +0.381 C 
BRANCH   5   6
ATOM      6  N   LIG    1       26.711 -20.179   4.895  0.00  0.00    -0.279 N 
ATOM      7  H   LIG    1       27.498 -19.745   4.431  0.00  0.00    +0.258 HD
ATOM      8  C   LIG    1       25.463 -19.993   4.188  0.00  0.00    +0.239 C 
ENDBRANCH   5   6
ENDBRANCH   1   5
BRANCH   1   9
ATOM      9  C   LIG    1       25.495 -21.384   7.996  0.00  0.00    +0.231 C 
BRANCH   9  10
ATOM     10  C   LIG    1       24.958 -22.690   7.460  0.00  0.00    -0.014 A 
ATOM     11  C   LIG    1       25.830 -23.748   7.162  0.00  0.00    +0.007 A 
ATOM     12  C   LIG    1       25.345 -24.925   6.588  0.00  0.00    +0.000 A 
ATOM     13  C   LIG    1       23.986 -25.056   6.304  0.00  0.00    +0.000 A 
ATOM     14  C   LIG    1       23.109 -24.014   6.605  0.00  0.00    +0.000 A 
ATOM     15  C   LIG    1       23.591 -22.837   7.177  0.00  0.00    +0.007 A 
ENDBRANCH   9  10
ENDBRANCH   1   9
TORSDOF 4
ENDMDL
MODEL 7
REMARK VINA RESULT:      -6.3      4.567      6.411
REMARK  Name = *****
REMARK                            x       y       z     vdW  Elec       q    Type
REMARK                         _______ _______ _______ _____ _____    ______ ____
ROOT
ATOM      1  N   LIG    1       23.805 -22.536   6.981  0.00  0.00    -0.272 N 
ATOM      2  H   LIG    1       24.476 -21.836   7.261  0.00  0.00    +0.258 HD
ENDROOT
BRANCH   1   5
ATOM      3  C   LIG    1       24.225 -26.063   6.204  0.00  0.00    +0.291 C 
ATOM      4  N   LIG    1       23.610 -24.772   6.455  0.00  0.00    -0.117 NA
ATOM      5  C   LIG    1       24.354 -23.753   6.713  0.00  0.00    +0.381 C 
BRANCH   5   6
ATOM      6  N   LIG    1       25.719 -23.747   6.779  0.00  0.00    -0.279 N 
ATOM      7  H   LIG    1       26.134 -24.654   6.946  0.00  0.00    +0.258 HD
ATOM      8  C   LIG    1       26.527 -22.653   7.272  0.00  0.00    +0.239 C 
ENDBRANCH   5   6
ENDBRANCH   1   5
BRANCH   1   9
ATOM      9  C   LIG    1       22.691 -22.007   6.216  0.00  0.00    +0.231 C 
BRANCH   9  10
ATOM     10  C   LIG    1       23.196 -20.866   5.364  0.00  0.00    -0.014 A 
ATOM     11  C   LIG    1       22.395 -19.735   5.145  0.00  0.00    +0.007 A 
ATOM     12  C   LIG    1       22.824 -18.718   4.290  0.00  0.00    +0.000 A 
ATOM     13  C   LIG    1       24.056 -18.822   3.645  0.00  0.00    +0.000 A 
ATOM     14  C   LIG    1       24.863 -19.937   3.861  0.00  0.00    +0.000 A 
ATOM     15  C   LIG    1       24.436 -20.955   4.714  0.00  0.00    +0.007 A 
ENDBRANCH   9  10
ENDBRANCH   1   9
TORSDOF 4
ENDMDL
MODEL 8
REMARK VINA RESULT:      -6.3      1.751      2.890
REMARK  Name = *****
REMARK                            x       y       z     vdW  Elec       q    Type
REMARK                         _______ _______ _______ _____ _____    ______ ____
ROOT
ATOM      1  N   LIG    1       28.003 -21.384   7.255  0.00  0.00    -0.272 N 
ATOM      2  H   LIG    1       27.875 -22.352   6.996  0.00  0.00    +0.258 HD
ENDROOT
BRANCH   1   5
ATOM      3  C   LIG    1       31.190 -21.107   8.982  0.00  0.00    +0.291 C 
ATOM      4  N   LIG    1       29.829 -21.495   8.656  0.00  0.00    -0.117 NA
ATOM      5  C   LIG    1       29.287 -21.061   7.572  0.00  0.00    +0.381 C 
BRANCH   5   6
ATOM      6  N   LIG    1       29.873 -20.241   6.650  0.00  0.00    -0.279 N 
ATOM      7  H   LIG    1       30.804 -20.521   6.372  0.00  0.00    +0.258 HD
ATOM      8  C   LIG    1       29.653 -18.816   6.539  0.00  0.00    +0.239 C 
ENDBRANCH   5   6
ENDBRANCH   1   5
BRANCH   1   9
ATOM      9  C   LIG    1       26.868 -20.811   7.954  0.00  0.00    +0.231 C 
BRANCH   9  10
ATOM     10  C   LIG    1       25.638 -21.618   7.613  0.00  0.00    -0.014 A 
ATOM     11  C   LIG    1       25.751 -22.972   7.263  0.00  0.00    +0.007 A 
ATOM     12  C   LIG    1       24.626 -23.697   6.866  0.00  0.00    +0.000 A 
ATOM     13  C   LIG    1       23.378 -23.077   6.813  0.00  0.00    +0.000 A 
ATOM     14  C   LIG    1       23.253 -21.734   7.167  0.00  0.00    +0.000 A 
ATOM     15  C   LIG    1       24.376 -21.007   7.563  0.00  0.00    +0.007 A 
ENDBRANCH   9  10
ENDBRANCH   1   9
TORSDOF 4
ENDMDL
MODEL 9
REMARK VINA RESULT:      -6.2      1.927      3.536
REMARK  Name = *****
REMARK                            x       y       z     vdW  Elec       q    Type
REMARK                         _______ _______ _______ _____ _____    ______ ____
ROOT
ATOM      1  N   LIG    1       26.919 -20.407   7.221  0.00  0.00    -0.272 N 
ATOM      2  H   LIG    1       26.640 -19.445   7.098  0.00  0.00    +0.258 HD
ENDROOT
BRANCH   1   5
ATOM      3  C   LIG    1       30.264 -21.257   8.363  0.00  0.00    +0.291 C 
ATOM      4  N   LIG    1       28.821 -21.103   8.320  0.00  0.00    -0.117 NA
ATOM      5  C   LIG    1       28.267 -20.591   7.278  0.00  0.00    +0.381 C 
BRANCH   5   6
ATOM      6  N   LIG    1       28.911 -20.156   6.154  0.00  0.00    -0.279 N 
ATOM      7  H   LIG    1       29.569 -20.818   5.765  0.00  0.00    +0.258 HD
ATOM      8  C   LIG    1       29.254 -18.780   5.867  0.00  0.00    +0.239 C 
ENDBRANCH   5   6
ENDBRANCH   1   5
BRANCH   1   9
ATOM      9  C   LIG    1       26.037 -21.359   6.571  0.00  0.00    +0.231 C 
BRANCH   9  10
ATOM     10  C   LIG    1       25.013 -20.592   5.769  0.00  0.00    -0.014 A 
ATOM     11  C   LIG    1       23.685 -20.501   6.215  0.00  0.00    +0.007 A 
ATOM     12  C   LIG    1       22.719 -19.865   5.434  0.00  0.00    +0.000 A 
ATOM     13  C   LIG    1       23.067 -19.317   4.201  0.00  0.00    +0.000 A 
ATOM     14  C   LIG    1       24.384 -19.394   3.752  0.00  0.00    +0.000 A 
ATOM     15  C   LIG    1       25.352 -20.030   4.530  0.00  0.00    +0.007 A 
ENDBRANCH   9  10
ENDBRANCH   1   9
TORSDOF 4
ENDMDL
