MODEL 1
REMARK VINA RESULT:       6.6      0.000      0.000
REMARK  Name = *****
REMARK                            x       y       z     vdW  Elec       q    Type
REMARK                         _______ _______ _______ _____ _____    ______ ____
ROOT
ATOM      1  C   LIG    1       23.990 -20.649   4.898  0.00  0.00    +0.036 C 
ATOM      2  C   LIG    1       24.127 -19.147   5.231  0.00  0.00    +0.004 C 
ATOM      3  C   LIG    1       25.597 -18.526   4.808  0.00  0.00    +0.039 C 
ATOM      4  C   LIG    1       26.536 -19.401   4.264  0.00  0.00    +0.066 C 
ATOM      5  C   LIG    1       27.536 -17.961   4.681  0.00  0.00    +0.035 C 
ATOM      6  C   LIG    1       26.580 -16.657   4.178  0.00  0.00    +0.045 C 
ATOM      7  C   LIG    1       24.905 -16.517   4.097  0.00  0.00    +0.103 C 
ATOM      8  C   LIG    1       24.120 -18.057   3.325  0.00  0.00    +0.081 C 
ATOM      9  N   LIG    1       24.688 -15.275   3.292  0.00  0.00    -0.327 N 
ATOM     10  C   LIG    1       23.436 -14.561   3.495  0.00  0.00    +0.130 C 
ATOM     11  C   LIG    1       25.897 -14.529   3.424  0.00  0.00    +0.034 A 
ATOM     12  C   LIG    1       26.080 -13.197   3.082  0.00  0.00    +0.023 A 
ATOM     13  C   LIG    1       27.355 -12.632   3.194  0.00  0.00    +0.002 A 
ATOM     14  C   LIG    1       28.445 -13.399   3.630  0.00  0.00    +0.000 A 
ATOM     15  C   LIG    1       28.277 -14.744   3.960  0.00  0.00    +0.006 A 
ATOM     16  C   LIG    1       27.012 -15.295   3.844  0.00  0.00    -0.016 A 
ATOM     17  N   LIG    1       25.247 -19.508   3.160  0.00  0.00    -0.269 NA
ATOM     18  C   LIG    1       26.342 -17.635   3.181  0.00  0.00    +0.132 C 
ATOM     19  C   LIG    1       23.128 -18.429   4.376  0.00  0.00    +0.025 C 
ATOM     20  C   LIG    1       24.533 -20.748   3.472  0.00  0.00    +0.189 C 
ENDROOT
BRANCH   1  22
ATOM     21  C   LIG    1       25.323 -20.793   7.061  0.00  0.00    +0.004 C 
ATOM     22  C   LIG    1       24.686 -21.572   5.916  0.00  0.00    +0.004 C 
ENDBRANCH   1  22
BRANCH  18  23
ATOM     23  O   LIG    1       25.753 -17.230   1.922  0.00  0.00    -0.391 OA
ATOM     24  H   LIG    1       24.791 -17.083   2.034  0.00  0.00    +0.210 HD
ENDBRANCH  18  23
BRANCH  20  25
ATOM     25  O   LIG    1       23.490 -20.885   2.535  0.00  0.00    -0.377 OA
ATOM     26  H   LIG    1       23.716 -20.195   1.883  0.00  0.00    +0.211 HD
ENDBRANCH  20  25
TORSDOF 3
ENDMDL
MODEL 2
REMARK VINA RESULT:       7.7      1.720      6.304
REMARK  Name = *****
REMARK                            x       y       z     vdW  Elec       q    Type
REMARK                         _______ _______ _______ _____ _____    ______ ____
ROOT
ATOM      1  C   LIG    1       25.802 -12.440   4.473  0.00  0.00    +0.036 C 
ATOM      2  C   LIG    1       25.900 -13.839   5.119  0.00  0.00    +0.004 C 
ATOM      3  C   LIG    1       24.744 -14.883   4.574  0.00  0.00    +0.039 C 
ATOM      4  C   LIG    1       23.810 -14.394   3.663  0.00  0.00    +0.066 C 
ATOM      5  C   LIG    1       23.058 -15.940   4.204  0.00  0.00    +0.035 C 
ATOM      6  C   LIG    1       24.359 -17.025   4.225  0.00  0.00    +0.045 C 
ATOM      7  C   LIG    1       25.993 -16.742   4.513  0.00  0.00    +0.103 C 
ATOM      8  C   LIG    1       26.608 -15.222   3.567  0.00  0.00    +0.081 C 
ATOM      9  N   LIG    1       26.656 -18.013   4.086  0.00  0.00    -0.327 N 
ATOM     10  C   LIG    1       27.938 -18.333   4.697  0.00  0.00    +0.130 C 
ATOM     11  C   LIG    1       25.634 -19.008   4.150  0.00  0.00    +0.034 A 
ATOM     12  C   LIG    1       25.823 -20.381   4.105  0.00  0.00    +0.023 A 
ATOM     13  C   LIG    1       24.705 -21.224   4.093  0.00  0.00    +0.002 A 
ATOM     14  C   LIG    1       23.407 -20.695   4.110  0.00  0.00    +0.000 A 
ATOM     15  C   LIG    1       23.204 -19.315   4.137  0.00  0.00    +0.006 A 
ATOM     16  C   LIG    1       24.316 -18.489   4.146  0.00  0.00    -0.016 A 
ATOM     17  N   LIG    1       25.282 -14.165   2.842  0.00  0.00    -0.269 NA
ATOM     18  C   LIG    1       24.629 -16.219   3.091  0.00  0.00    +0.132 C 
ATOM     19  C   LIG    1       27.207 -14.421   4.674  0.00  0.00    +0.025 C 
ATOM     20  C   LIG    1       25.622 -12.748   2.985  0.00  0.00    +0.189 C 
ENDROOT
BRANCH   1  22
ATOM     21  C   LIG    1       23.477 -11.447   4.176  0.00  0.00    +0.004 C 
ATOM     22  C   LIG    1       24.699 -11.555   5.083  0.00  0.00    +0.004 C 
ENDBRANCH   1  22
BRANCH  18  23
ATOM     23  O   LIG    1       25.584 -16.684   2.107  0.00  0.00    -0.391 OA
ATOM     24  H   LIG    1       25.153 -16.762   1.231  0.00  0.00    +0.210 HD
ENDBRANCH  18  23
BRANCH  20  25
ATOM     25  O   LIG    1       26.813 -12.522   2.268  0.00  0.00    -0.377 OA
ATOM     26  H   LIG    1       27.079 -11.642   2.595  0.00  0.00    +0.211 HD
ENDBRANCH  20  25
TORSDOF 3
ENDMDL
MODEL 3
REMARK VINA RESULT:       7.9      2.903      5.725
REMARK  Name = *****
REMARK                            x       y       z     vdW  Elec       q    Type
REMARK                         _______ _______ _______ _____ _____    ______ ____
ROOT
ATOM      1  C   LIG    1       28.702 -19.370   6.311  0.00  0.00    +0.036 C 
ATOM      2  C   LIG    1       27.198 -19.200   6.617  0.00  0.00    +0.004 C 
ATOM      3  C   LIG    1       26.308 -18.821   5.281  0.00  0.00    +0.039 C 
ATOM      4  C   LIG    1       26.989 -18.651   4.077  0.00  0.00    +0.066 C 
ATOM      5  C   LIG    1       25.376 -17.932   3.719  0.00  0.00    +0.035 C 
ATOM      6  C   LIG    1       24.291 -19.029   4.417  0.00  0.00    +0.045 C 
ATOM      7  C   LIG    1       24.483 -20.031   5.756  0.00  0.00    +0.103 C 
ATOM      8  C   LIG    1       26.157 -20.914   5.723  0.00  0.00    +0.081 C 
ATOM      9  N   LIG    1       23.318 -20.966   5.673  0.00  0.00    -0.327 N 
ATOM     10  C   LIG    1       22.860 -21.570   6.915  0.00  0.00    +0.130 C 
ATOM     11  C   LIG    1       22.348 -20.284   4.878  0.00  0.00    +0.034 A 
ATOM     12  C   LIG    1       21.011 -20.629   4.744  0.00  0.00    +0.023 A 
ATOM     13  C   LIG    1       20.206 -19.906   3.856  0.00  0.00    +0.002 A 
ATOM     14  C   LIG    1       20.739 -18.856   3.096  0.00  0.00    +0.000 A 
ATOM     15  C   LIG    1       22.086 -18.512   3.209  0.00  0.00    +0.006 A 
ATOM     16  C   LIG    1       22.875 -19.234   4.088  0.00  0.00    -0.016 A 
ATOM     17  N   LIG    1       27.361 -20.258   4.489  0.00  0.00    -0.269 NA
ATOM     18  C   LIG    1       25.310 -19.867   3.899  0.00  0.00    +0.132 C 
ATOM     19  C   LIG    1       26.701 -20.542   7.061  0.00  0.00    +0.025 C 
ATOM     20  C   LIG    1       28.713 -20.241   5.054  0.00  0.00    +0.189 C 
ENDROOT
BRANCH   1  22
ATOM     21  C   LIG    1       29.354 -17.455   4.765  0.00  0.00    +0.004 C 
ATOM     22  C   LIG    1       29.457 -18.034   6.172  0.00  0.00    +0.004 C 
ENDBRANCH   1  22
BRANCH  18  23
ATOM     23  O   LIG    1       25.046 -21.281   3.736  0.00  0.00    -0.391 OA
ATOM     24  H   LIG    1       25.859 -21.798   3.911  0.00  0.00    +0.210 HD
ENDBRANCH  18  23
BRANCH  20  25
ATOM     25  O   LIG    1       29.064 -21.571   5.355  0.00  0.00    -0.377 OA
ATOM     26  H   LIG    1       28.189 -21.996   5.430  0.00  0.00    +0.211 HD
ENDBRANCH  20  25
TORSDOF 3
ENDMDL
MODEL 4
REMARK VINA RESULT:       8.9      1.646      2.124
REMARK  Name = *****
REMARK                            x       y       z     vdW  Elec       q    Type
REMARK                         _______ _______ _______ _____ _____    ______ ____
ROOT
ATOM      1  C   LIG    1       24.025 -20.770   5.464  0.00  0.00    +0.036 C 
ATOM      2  C   LIG    1       24.177 -19.282   5.847  0.00  0.00    +0.004 C 
ATOM      3  C   LIG    1       24.836 -18.370   4.638  0.00  0.00    +0.039 C 
ATOM      4  C   LIG    1       25.215 -19.026   3.468  0.00  0.00    +0.066 C 
ATOM      5  C   LIG    1       26.038 -17.430   3.309  0.00  0.00    +0.035 C 
ATOM      6  C   LIG    1       24.860 -16.325   3.817  0.00  0.00    +0.045 C 
ATOM      7  C   LIG    1       23.612 -16.517   4.930  0.00  0.00    +0.103 C 
ATOM      8  C   LIG    1       22.702 -18.156   4.673  0.00  0.00    +0.081 C 
ATOM      9  N   LIG    1       22.746 -15.317   4.706  0.00  0.00    -0.327 N 
ATOM     10  C   LIG    1       21.927 -14.870   5.823  0.00  0.00    +0.130 C 
ATOM     11  C   LIG    1       23.598 -14.351   4.090  0.00  0.00    +0.034 A 
ATOM     12  C   LIG    1       23.327 -13.000   3.936  0.00  0.00    +0.023 A 
ATOM     13  C   LIG    1       24.233 -12.198   3.231  0.00  0.00    +0.002 A 
ATOM     14  C   LIG    1       25.394 -12.748   2.671  0.00  0.00    +0.000 A 
ATOM     15  C   LIG    1       25.668 -14.110   2.805  0.00  0.00    +0.006 A 
ATOM     16  C   LIG    1       24.765 -14.895   3.501  0.00  0.00    -0.016 A 
ATOM     17  N   LIG    1       23.548 -19.351   3.550  0.00  0.00    -0.269 NA
ATOM     18  C   LIG    1       24.108 -17.300   3.114  0.00  0.00    +0.132 C 
ATOM     19  C   LIG    1       22.790 -18.748   6.039  0.00  0.00    +0.025 C 
ATOM     20  C   LIG    1       23.415 -20.716   4.063  0.00  0.00    +0.189 C 
ENDROOT
BRANCH   1  22
ATOM     21  C   LIG    1       26.217 -21.096   6.715  0.00  0.00    +0.004 C 
ATOM     22  C   LIG    1       25.338 -21.569   5.562  0.00  0.00    +0.004 C 
ENDBRANCH   1  22
BRANCH  18  23
ATOM     23  O   LIG    1       22.761 -16.981   2.690  0.00  0.00    -0.391 OA
ATOM     24  H   LIG    1       22.526 -17.504   1.896  0.00  0.00    +0.210 HD
ENDBRANCH  18  23
BRANCH  20  25
ATOM     25  O   LIG    1       22.041 -21.027   4.090  0.00  0.00    -0.377 OA
ATOM     26  H   LIG    1       21.640 -20.147   4.221  0.00  0.00    +0.211 HD
ENDBRANCH  20  25
TORSDOF 3
ENDMDL
