MODEL 1
REMARK VINA RESULT:      -5.0      0.000      0.000
REMARK  Name = *****
REMARK                            x       y       z     vdW  Elec       q    Type
REMARK                         _______ _______ _______ _____ _____    ______ ____
ROOT
ATOM      1  C   LIG    1       26.467 -17.002   3.291  0.00  0.00    +0.161 C 
ENDROOT
BRANCH   1   2
ATOM      2  C   LIG    1       25.479 -18.081   3.700  0.00  0.00    -0.014 A 
ATOM      3  C   LIG    1       25.877 -19.369   4.079  0.00  0.00    +0.055 A 
ATOM      4  C   LIG    1       24.919 -20.323   4.404  0.00  0.00    +0.159 A 
ATOM      5  C   LIG    1       23.557 -20.026   4.339  0.00  0.00    +0.158 A 
ATOM      6  C   LIG    1       23.142 -18.765   3.952  0.00  0.00    +0.049 A 
ATOM      7  C   LIG    1       24.100 -17.797   3.637  0.00  0.00    +0.010 A 
BRANCH   4   8
ATOM      8  O   LIG    1       25.322 -21.570   4.786  0.00  0.00    -0.503 OA
ATOM      9  H   LIG    1       26.280 -21.475   4.961  0.00  0.00    +0.292 HD
ENDBRANCH   4   8
BRANCH   5  10
ATOM     10  O   LIG    1       22.672 -21.017   4.658  0.00  0.00    -0.503 OA
ATOM     11  H   LIG    1       21.782 -20.624   4.697  0.00  0.00    +0.292 HD
ENDBRANCH   5  10
ENDBRANCH   1   2
BRANCH   1  12
ATOM     12  O   LIG    1       27.784 -17.375   3.707  0.00  0.00    -0.386 OA
ATOM     13  H   LIG    1       28.255 -16.565   3.960  0.00  0.00    +0.210 HD
ENDBRANCH   1  12
BRANCH   1  14
ATOM     14  C   LIG    1       26.125 -15.508   3.670  0.00  0.00    +0.087 C 
BRANCH  14  16
ATOM     15  C   LIG    1       27.971 -13.698   3.474  0.00  0.00    +0.005 C 
ATOM     16  C   LIG    1       27.387 -14.845   4.292  0.00  0.00    +0.018 C 
ENDBRANCH  14  16
BRANCH  14  17
ATOM     17  N   LIG    1       25.584 -14.615   2.623  0.00  0.00    -0.308 NA
ATOM     18  H   LIG    1       25.485 -15.131   1.750  0.00  0.00    +0.122 HD
BRANCH  17  19
ATOM     19  C   LIG    1       24.328 -13.922   2.938  0.00  0.00    +0.048 C 
ATOM     20  C   LIG    1       24.543 -12.423   2.700  0.00  0.00    +0.024 C 
ATOM     21  C   LIG    1       23.837 -14.147   4.370  0.00  0.00    +0.024 C 
ENDBRANCH  17  19
ENDBRANCH  14  17
ENDBRANCH   1  14
TORSDOF 8
ENDMDL
MODEL 2
REMARK VINA RESULT:      -4.9      0.672      1.634
REMARK  Name = *****
REMARK                            x       y       z     vdW  Elec       q    Type
REMARK                         _______ _______ _______ _____ _____    ______ ____
ROOT
ATOM      1  C   LIG    1       26.444 -17.010   3.235  0.00  0.00    +0.161 C 
ENDROOT
BRANCH   1   2
ATOM      2  C   LIG    1       25.404 -18.065   3.575  0.00  0.00    -0.014 A 
ATOM      3  C   LIG    1       24.044 -17.768   3.723  0.00  0.00    +0.055 A 
ATOM      4  C   LIG    1       23.149 -18.773   4.074  0.00  0.00    +0.159 A 
ATOM      5  C   LIG    1       23.588 -20.078   4.304  0.00  0.00    +0.158 A 
ATOM      6  C   LIG    1       24.929 -20.390   4.178  0.00  0.00    +0.049 A 
ATOM      7  C   LIG    1       25.832 -19.387   3.812  0.00  0.00    +0.010 A 
BRANCH   4   8
ATOM      8  O   LIG    1       21.824 -18.472   4.200  0.00  0.00    -0.503 OA
ATOM      9  H   LIG    1       21.763 -17.982   5.045  0.00  0.00    +0.292 HD
ENDBRANCH   4   8
BRANCH   5  10
ATOM     10  O   LIG    1       22.654 -21.011   4.660  0.00  0.00    -0.503 OA
ATOM     11  H   LIG    1       22.971 -21.882   4.362  0.00  0.00    +0.292 HD
ENDBRANCH   5  10
ENDBRANCH   1   2
BRANCH   1  12
ATOM     12  O   LIG    1       27.725 -17.429   3.714  0.00  0.00    -0.386 OA
ATOM     13  H   LIG    1       28.007 -16.798   4.395  0.00  0.00    +0.210 HD
ENDBRANCH   1  12
BRANCH   1  14
ATOM     14  C   LIG    1       26.127 -15.512   3.618  0.00  0.00    +0.087 C 
BRANCH  14  16
ATOM     15  C   LIG    1       27.953 -13.678   3.469  0.00  0.00    +0.005 C 
ATOM     16  C   LIG    1       27.400 -14.872   4.240  0.00  0.00    +0.018 C 
ENDBRANCH  14  16
BRANCH  14  17
ATOM     17  N   LIG    1       25.599 -14.608   2.574  0.00  0.00    -0.308 NA
ATOM     18  H   LIG    1       25.484 -15.122   1.701  0.00  0.00    +0.122 HD
BRANCH  17  19
ATOM     19  C   LIG    1       24.361 -13.887   2.896  0.00  0.00    +0.048 C 
ATOM     20  C   LIG    1       24.589 -12.400   2.600  0.00  0.00    +0.024 C 
ATOM     21  C   LIG    1       23.904 -14.056   4.346  0.00  0.00    +0.024 C 
ENDBRANCH  17  19
ENDBRANCH  14  17
ENDBRANCH   1  14
TORSDOF 8
ENDMDL
MODEL 3
REMARK VINA RESULT:      -4.4      3.327      5.518
REMARK  Name = *****
REMARK                            x       y       z     vdW  Elec       q    Type
REMARK                         _______ _______ _______ _____ _____    ______ ____
ROOT
ATOM      1  C   LIG    1       24.606 -21.088   4.486  0.00  0.00    +0.161 C 
ENDROOT
BRANCH   1   2
ATOM      2  C   LIG    1       25.883 -20.635   5.172  0.00  0.00    -0.014 A 
ATOM      3  C   LIG    1       26.719 -19.645   4.640  0.00  0.00    +0.055 A 
ATOM      4  C   LIG    1       27.895 -19.304   5.299  0.00  0.00    +0.159 A 
ATOM      5  C   LIG    1       28.273 -19.949   6.477  0.00  0.00    +0.158 A 
ATOM      6  C   LIG    1       27.471 -20.941   7.011  0.00  0.00    +0.049 A 
ATOM      7  C   LIG    1       26.279 -21.279   6.361  0.00  0.00    +0.010 A 
BRANCH   4   8
ATOM      8  O   LIG    1       28.692 -18.327   4.776  0.00  0.00    -0.503 OA
ATOM      9  H   LIG    1       28.399 -18.241   3.847  0.00  0.00    +0.292 HD
ENDBRANCH   4   8
BRANCH   5  10
ATOM     10  O   LIG    1       29.450 -19.573   7.061  0.00  0.00    -0.503 OA
ATOM     11  H   LIG    1       30.053 -19.275   6.357  0.00  0.00    +0.292 HD
ENDBRANCH   5  10
ENDBRANCH   1   2
BRANCH   1  12
ATOM     12  O   LIG    1       24.846 -21.254   3.086  0.00  0.00    -0.386 OA
ATOM     13  H   LIG    1       25.805 -21.338   2.958  0.00  0.00    +0.210 HD
ENDBRANCH   1  12
BRANCH   1  14
ATOM     14  C   LIG    1       23.286 -20.269   4.770  0.00  0.00    +0.087 C 
BRANCH  14  16
ATOM     15  C   LIG    1       23.057 -21.475   7.053  0.00  0.00    +0.005 C 
ATOM     16  C   LIG    1       23.092 -20.145   6.308  0.00  0.00    +0.018 C 
ENDBRANCH  14  16
BRANCH  14  17
ATOM     17  N   LIG    1       23.135 -18.930   4.160  0.00  0.00    -0.308 NA
ATOM     18  H   LIG    1       23.147 -19.014   3.144  0.00  0.00    +0.122 HD
BRANCH  17  19
ATOM     19  C   LIG    1       21.969 -18.145   4.584  0.00  0.00    +0.048 C 
ATOM     20  C   LIG    1       20.850 -18.371   3.561  0.00  0.00    +0.024 C 
ATOM     21  C   LIG    1       22.246 -16.645   4.715  0.00  0.00    +0.024 C 
ENDBRANCH  17  19
ENDBRANCH  14  17
ENDBRANCH   1  14
TORSDOF 8
ENDMDL
MODEL 4
REMARK VINA RESULT:      -4.4      2.718      5.971
REMARK  Name = *****
REMARK                            x       y       z     vdW  Elec       q    Type
REMARK                         _______ _______ _______ _____ _____    ______ ____
ROOT
ATOM      1  C   LIG    1       25.182 -18.995   3.583  0.00  0.00    +0.161 C 
ENDROOT
BRANCH   1   2
ATOM      2  C   LIG    1       25.199 -17.476   3.606  0.00  0.00    -0.014 A 
ATOM      3  C   LIG    1       26.349 -16.727   3.329  0.00  0.00    +0.055 A 
ATOM      4  C   LIG    1       26.308 -15.339   3.406  0.00  0.00    +0.159 A 
ATOM      5  C   LIG    1       25.139 -14.674   3.776  0.00  0.00    +0.158 A 
ATOM      6  C   LIG    1       23.995 -15.395   4.070  0.00  0.00    +0.049 A 
ATOM      7  C   LIG    1       24.026 -16.790   3.981  0.00  0.00    +0.010 A 
BRANCH   4   8
ATOM      8  O   LIG    1       27.433 -14.622   3.119  0.00  0.00    -0.503 OA
ATOM      9  H   LIG    1       27.242 -13.721   3.451  0.00  0.00    +0.292 HD
ENDBRANCH   4   8
BRANCH   5  10
ATOM     10  O   LIG    1       25.175 -13.310   3.845  0.00  0.00    -0.503 OA
ATOM     11  H   LIG    1       25.827 -12.993   3.195  0.00  0.00    +0.292 HD
ENDBRANCH   5  10
ENDBRANCH   1   2
BRANCH   1  12
ATOM     12  O   LIG    1       23.861 -19.454   3.282  0.00  0.00    -0.386 OA
ATOM     13  H   LIG    1       23.669 -20.205   3.867  0.00  0.00    +0.210 HD
ENDBRANCH   1  12
BRANCH   1  14
ATOM     14  C   LIG    1       25.810 -19.758   4.814  0.00  0.00    +0.087 C 
BRANCH  14  16
ATOM     15  C   LIG    1       24.229 -21.066   6.397  0.00  0.00    +0.005 C 
ATOM     16  C   LIG    1       24.990 -21.053   5.075  0.00  0.00    +0.018 C 
ENDBRANCH  14  16
BRANCH  14  17
ATOM     17  N   LIG    1       27.248 -20.102   4.778  0.00  0.00    -0.308 NA
ATOM     18  H   LIG    1       27.671 -19.719   3.933  0.00  0.00    +0.122 HD
BRANCH  17  19
ATOM     19  C   LIG    1       28.043 -19.721   5.952  0.00  0.00    +0.048 C 
ATOM     20  C   LIG    1       29.092 -18.699   5.502  0.00  0.00    +0.024 C 
ATOM     21  C   LIG    1       28.738 -20.899   6.639  0.00  0.00    +0.024 C 
ENDBRANCH  17  19
ENDBRANCH  14  17
ENDBRANCH   1  14
TORSDOF 8
ENDMDL
MODEL 5
REMARK VINA RESULT:      -4.2      2.803      6.246
REMARK  Name = *****
REMARK                            x       y       z     vdW  Elec       q    Type
REMARK                         _______ _______ _______ _____ _____    ______ ____
ROOT
ATOM      1  C   LIG    1       24.608 -18.836   3.605  0.00  0.00    +0.161 C 
ENDROOT
BRANCH   1   2
ATOM      2  C   LIG    1       25.034 -17.378   3.657  0.00  0.00    -0.014 A 
ATOM      3  C   LIG    1       24.140 -16.336   3.927  0.00  0.00    +0.055 A 
ATOM      4  C   LIG    1       24.587 -15.019   3.921  0.00  0.00    +0.159 A 
ATOM      5  C   LIG    1       25.916 -14.713   3.626  0.00  0.00    +0.158 A 
ATOM      6  C   LIG    1       26.813 -15.726   3.340  0.00  0.00    +0.049 A 
ATOM      7  C   LIG    1       26.373 -17.053   3.359  0.00  0.00    +0.010 A 
BRANCH   4   8
ATOM      8  O   LIG    1       23.707 -14.015   4.201  0.00  0.00    -0.503 OA
ATOM      9  H   LIG    1       22.840 -14.461   4.275  0.00  0.00    +0.292 HD
ENDBRANCH   4   8
BRANCH   5  10
ATOM     10  O   LIG    1       26.282 -13.396   3.623  0.00  0.00    -0.503 OA
ATOM     11  H   LIG    1       25.528 -12.875   3.294  0.00  0.00    +0.292 HD
ENDBRANCH   5  10
ENDBRANCH   1   2
BRANCH   1  12
ATOM     12  O   LIG    1       23.208 -18.916   3.320  0.00  0.00    -0.386 OA
ATOM     13  H   LIG    1       22.747 -19.099   4.155  0.00  0.00    +0.210 HD
ENDBRANCH   1  12
BRANCH   1  14
ATOM     14  C   LIG    1       25.023 -19.768   4.809  0.00  0.00    +0.087 C 
BRANCH  14  16
ATOM     15  C   LIG    1       23.182 -20.969   6.182  0.00  0.00    +0.005 C 
ATOM     16  C   LIG    1       24.014 -20.947   4.904  0.00  0.00    +0.018 C 
ENDBRANCH  14  16
BRANCH  14  17
ATOM     17  N   LIG    1       26.398 -20.312   4.845  0.00  0.00    -0.308 NA
ATOM     18  H   LIG    1       26.940 -19.927   4.072  0.00  0.00    +0.122 HD
BRANCH  17  19
ATOM     19  C   LIG    1       27.136 -20.146   6.104  0.00  0.00    +0.048 C 
ATOM     20  C   LIG    1       28.542 -19.640   5.764  0.00  0.00    +0.024 C 
ATOM     21  C   LIG    1       27.240 -21.426   6.936  0.00  0.00    +0.024 C 
ENDBRANCH  17  19
ENDBRANCH  14  17
ENDBRANCH   1  14
TORSDOF 8
ENDMDL
MODEL 6
REMARK VINA RESULT:      -4.0      1.193      2.621
REMARK  Name = *****
REMARK                            x       y       z     vdW  Elec       q    Type
REMARK                         _______ _______ _______ _____ _____    ______ ____
ROOT
ATOM      1  C   LIG    1       26.027 -17.457   3.222  0.00  0.00    +0.161 C 
ENDROOT
BRANCH   1   2
ATOM      2  C   LIG    1       25.031 -18.503   3.694  0.00  0.00    -0.014 A 
ATOM      3  C   LIG    1       23.650 -18.276   3.722  0.00  0.00    +0.055 A 
ATOM      4  C   LIG    1       22.795 -19.263   4.203  0.00  0.00    +0.159 A 
ATOM      5  C   LIG    1       23.293 -20.475   4.682  0.00  0.00    +0.158 A 
ATOM      6  C   LIG    1       24.655 -20.714   4.678  0.00  0.00    +0.049 A 
ATOM      7  C   LIG    1       25.519 -19.732   4.182  0.00  0.00    +0.010 A 
BRANCH   4   8
ATOM      8  O   LIG    1       21.450 -19.033   4.211  0.00  0.00    -0.503 OA
ATOM      9  H   LIG    1       21.237 -18.788   3.288  0.00  0.00    +0.292 HD
ENDBRANCH   4   8
BRANCH   5  10
ATOM     10  O   LIG    1       22.396 -21.392   5.153  0.00  0.00    -0.503 OA
ATOM     11  H   LIG    1       22.817 -21.875   5.886  0.00  0.00    +0.292 HD
ENDBRANCH   5  10
ENDBRANCH   1   2
BRANCH   1  12
ATOM     12  O   LIG    1       27.300 -17.701   3.827  0.00  0.00    -0.386 OA
ATOM     13  H   LIG    1       27.387 -17.100   4.584  0.00  0.00    +0.210 HD
ENDBRANCH   1  12
BRANCH   1  14
ATOM     14  C   LIG    1       25.603 -15.940   3.318  0.00  0.00    +0.087 C 
BRANCH  14  16
ATOM     15  C   LIG    1       23.768 -14.416   4.333  0.00  0.00    +0.005 C 
ATOM     16  C   LIG    1       24.261 -15.840   4.098  0.00  0.00    +0.018 C 
ENDBRANCH  14  16
BRANCH  14  17
ATOM     17  N   LIG    1       26.561 -14.969   3.891  0.00  0.00    -0.308 NA
ATOM     18  H   LIG    1       27.273 -15.465   4.426  0.00  0.00    +0.122 HD
BRANCH  17  19
ATOM     19  C   LIG    1       27.200 -14.044   2.946  0.00  0.00    +0.048 C 
ATOM     20  C   LIG    1       28.316 -13.303   3.691  0.00  0.00    +0.024 C 
ATOM     21  C   LIG    1       26.238 -13.029   2.325  0.00  0.00    +0.024 C 
ENDBRANCH  17  19
ENDBRANCH  14  17
ENDBRANCH   1  14
TORSDOF 8
ENDMDL
MODEL 7
REMARK VINA RESULT:      -3.9      2.784      6.102
REMARK  Name = *****
REMARK                            x       y       z     vdW  Elec       q    Type
REMARK                         _______ _______ _______ _____ _____    ______ ____
ROOT
ATOM      1  C   LIG    1       25.893 -18.681   3.441  0.00  0.00    +0.161 C 
ENDROOT
BRANCH   1   2
ATOM      2  C   LIG    1       25.924 -17.169   3.585  0.00  0.00    -0.014 A 
ATOM      3  C   LIG    1       24.762 -16.390   3.654  0.00  0.00    +0.055 A 
ATOM      4  C   LIG    1       24.860 -15.006   3.746  0.00  0.00    +0.159 A 
ATOM      5  C   LIG    1       26.103 -14.371   3.748  0.00  0.00    +0.158 A 
ATOM      6  C   LIG    1       27.262 -15.120   3.664  0.00  0.00    +0.049 A 
ATOM      7  C   LIG    1       27.172 -16.513   3.586  0.00  0.00    +0.010 A 
BRANCH   4   8
ATOM      8  O   LIG    1       23.719 -14.261   3.827  0.00  0.00    -0.503 OA
ATOM      9  H   LIG    1       23.000 -14.920   3.895  0.00  0.00    +0.292 HD
ENDBRANCH   4   8
BRANCH   5  10
ATOM     10  O   LIG    1       26.122 -13.007   3.825  0.00  0.00    -0.503 OA
ATOM     11  H   LIG    1       26.083 -12.758   4.765  0.00  0.00    +0.292 HD
ENDBRANCH   5  10
ENDBRANCH   1   2
BRANCH   1  12
ATOM     12  O   LIG    1       25.711 -19.028   2.065  0.00  0.00    -0.386 OA
ATOM     13  H   LIG    1       24.790 -19.313   1.952  0.00  0.00    +0.210 HD
ENDBRANCH   1  12
BRANCH   1  14
ATOM     14  C   LIG    1       24.929 -19.492   4.392  0.00  0.00    +0.087 C 
BRANCH  14  16
ATOM     15  C   LIG    1       22.406 -19.062   4.800  0.00  0.00    +0.005 C 
ATOM     16  C   LIG    1       23.491 -19.454   3.802  0.00  0.00    +0.018 C 
ENDBRANCH  14  16
BRANCH  14  17
ATOM     17  N   LIG    1       25.271 -20.891   4.725  0.00  0.00    -0.308 NA
ATOM     18  H   LIG    1       25.945 -21.250   4.050  0.00  0.00    +0.122 HD
BRANCH  17  19
ATOM     19  C   LIG    1       25.751 -21.142   6.090  0.00  0.00    +0.048 C 
ATOM     20  C   LIG    1       24.606 -20.825   7.059  0.00  0.00    +0.024 C 
ATOM     21  C   LIG    1       26.987 -20.324   6.473  0.00  0.00    +0.024 C 
ENDBRANCH  17  19
ENDBRANCH  14  17
ENDBRANCH   1  14
TORSDOF 8
ENDMDL
MODEL 8
REMARK VINA RESULT:      -3.5      1.863      3.383
REMARK  Name = *****
REMARK                            x       y       z     vdW  Elec       q    Type
REMARK                         _______ _______ _______ _____ _____    ______ ____
ROOT
ATOM      1  C   LIG    1       24.869 -14.656   3.800  0.00  0.00    +0.161 C 
ENDROOT
BRANCH   1   2
ATOM      2  C   LIG    1       24.699 -16.164   3.717  0.00  0.00    -0.014 A 
ATOM      3  C   LIG    1       23.509 -16.813   4.067  0.00  0.00    +0.055 A 
ATOM      4  C   LIG    1       23.432 -18.200   4.006  0.00  0.00    +0.159 A 
ATOM      5  C   LIG    1       24.533 -18.965   3.620  0.00  0.00    +0.158 A 
ATOM      6  C   LIG    1       25.723 -18.346   3.285  0.00  0.00    +0.049 A 
ATOM      7  C   LIG    1       25.803 -16.950   3.330  0.00  0.00    +0.010 A 
BRANCH   4   8
ATOM      8  O   LIG    1       22.261 -18.818   4.337  0.00  0.00    -0.503 OA
ATOM      9  H   LIG    1       21.658 -18.087   4.583  0.00  0.00    +0.292 HD
ENDBRANCH   4   8
BRANCH   5  10
ATOM     10  O   LIG    1       24.389 -20.324   3.597  0.00  0.00    -0.503 OA
ATOM     11  H   LIG    1       23.843 -20.556   2.824  0.00  0.00    +0.292 HD
ENDBRANCH   5  10
ENDBRANCH   1   2
BRANCH   1  12
ATOM     12  O   LIG    1       23.620 -14.051   4.145  0.00  0.00    -0.386 OA
ATOM     13  H   LIG    1       23.733 -13.089   4.091  0.00  0.00    +0.210 HD
ENDBRANCH   1  12
BRANCH   1  14
ATOM     14  C   LIG    1       25.568 -13.926   2.588  0.00  0.00    +0.087 C 
BRANCH  14  16
ATOM     15  C   LIG    1       24.666 -11.574   1.975  0.00  0.00    +0.005 C 
ATOM     16  C   LIG    1       24.506 -13.084   1.826  0.00  0.00    +0.018 C 
ENDBRANCH  14  16
BRANCH  14  17
ATOM     17  N   LIG    1       26.749 -13.076   2.855  0.00  0.00    -0.308 NA
ATOM     18  H   LIG    1       26.444 -12.142   3.127  0.00  0.00    +0.122 HD
BRANCH  17  19
ATOM     19  C   LIG    1       27.719 -13.590   3.830  0.00  0.00    +0.048 C 
ATOM     20  C   LIG    1       27.153 -13.346   5.233  0.00  0.00    +0.024 C 
ATOM     21  C   LIG    1       29.106 -12.952   3.720  0.00  0.00    +0.024 C 
ENDBRANCH  17  19
ENDBRANCH  14  17
ENDBRANCH   1  14
TORSDOF 8
ENDMDL
MODEL 9
REMARK VINA RESULT:      -3.5      1.805      2.731
REMARK  Name = *****
REMARK                            x       y       z     vdW  Elec       q    Type
REMARK                         _______ _______ _______ _____ _____    ______ ____
ROOT
ATOM      1  C   LIG    1       23.991 -15.644   4.362  0.00  0.00    +0.161 C 
ENDROOT
BRANCH   1   2
ATOM      2  C   LIG    1       23.880 -17.152   4.216  0.00  0.00    -0.014 A 
ATOM      3  C   LIG    1       24.950 -17.954   3.801  0.00  0.00    +0.055 A 
ATOM      4  C   LIG    1       24.771 -19.325   3.649  0.00  0.00    +0.159 A 
ATOM      5  C   LIG    1       23.530 -19.918   3.884  0.00  0.00    +0.158 A 
ATOM      6  C   LIG    1       22.455 -19.143   4.279  0.00  0.00    +0.049 A 
ATOM      7  C   LIG    1       22.632 -17.766   4.447  0.00  0.00    +0.010 A 
BRANCH   4   8
ATOM      8  O   LIG    1       25.827 -20.096   3.258  0.00  0.00    -0.503 OA
ATOM      9  H   LIG    1       25.419 -20.920   2.922  0.00  0.00    +0.292 HD
ENDBRANCH   4   8
BRANCH   5  10
ATOM     10  O   LIG    1       23.423 -21.268   3.700  0.00  0.00    -0.503 OA
ATOM     11  H   LIG    1       24.014 -21.520   2.968  0.00  0.00    +0.292 HD
ENDBRANCH   5  10
ENDBRANCH   1   2
BRANCH   1  12
ATOM     12  O   LIG    1       22.682 -15.071   4.417  0.00  0.00    -0.386 OA
ATOM     13  H   LIG    1       22.745 -14.238   4.913  0.00  0.00    +0.210 HD
ENDBRANCH   1  12
BRANCH   1  14
ATOM     14  C   LIG    1       24.936 -14.874   3.360  0.00  0.00    +0.087 C 
BRANCH  14  16
ATOM     15  C   LIG    1       24.566 -12.828   1.812  0.00  0.00    +0.005 C 
ATOM     16  C   LIG    1       24.430 -13.410   3.215  0.00  0.00    +0.018 C 
ENDBRANCH  14  16
BRANCH  14  17
ATOM     17  N   LIG    1       26.390 -14.852   3.627  0.00  0.00    -0.308 NA
ATOM     18  H   LIG    1       26.900 -15.060   2.769  0.00  0.00    +0.122 HD
BRANCH  17  19
ATOM     19  C   LIG    1       26.926 -13.630   4.242  0.00  0.00    +0.048 C 
ATOM     20  C   LIG    1       28.309 -13.364   3.639  0.00  0.00    +0.024 C 
ATOM     21  C   LIG    1       27.037 -13.701   5.767  0.00  0.00    +0.024 C 
ENDBRANCH  17  19
ENDBRANCH  14  17
ENDBRANCH   1  14
TORSDOF 8
ENDMDL
