MODEL 1
REMARK VINA RESULT:      -5.5      0.000      0.000
REMARK  Name = *****
REMARK                            x       y       z     vdW  Elec       q    Type
REMARK                         _______ _______ _______ _____ _____    ______ ____
ROOT
ATOM      1  C   LIG    1       22.105 -19.586   4.400  0.00  0.00    +0.054 A 
ATOM      2  C   LIG    1       23.434 -19.201   4.149  0.00  0.00    +0.043 A 
ATOM      3  C   LIG    1       24.535 -19.728   4.868  0.00  0.00    +0.049 A 
ATOM      4  N   LIG    1       25.885 -19.353   4.588  0.00  0.00    -0.298 N 
ATOM      5  C   LIG    1       27.033 -19.779   5.327  0.00  0.00    +0.048 A 
ATOM      6  C   LIG    1       26.938 -20.725   6.369  0.00  0.00    +0.034 A 
ATOM      7  S   LIG    1       25.415 -21.453   6.914  0.00  0.00    -0.086 S 
ATOM      8  C   LIG    1       28.084 -21.169   7.062  0.00  0.00    +0.017 A 
ATOM      9  C   LIG    1       29.346 -20.681   6.753  0.00  0.00    +0.001 A 
ATOM     10  C   LIG    1       29.469 -19.729   5.756  0.00  0.00    +0.002 A 
ATOM     11  C   LIG    1       28.333 -19.284   5.066  0.00  0.00    +0.024 A 
ATOM     12  C   LIG    1       24.214 -20.650   5.887  0.00  0.00    +0.034 A 
ATOM     13  C   LIG    1       22.878 -21.022   6.148  0.00  0.00    +0.018 A 
ATOM     14  C   LIG    1       21.827 -20.499   5.405  0.00  0.00    +0.020 A 
ENDROOT
BRANCH   1  16
ATOM     15  N   LIG    1       20.180 -18.588   2.972  0.00  0.00    -0.191 NA
ATOM     16  C   LIG    1       21.042 -19.043   3.609  0.00  0.00    +0.099 C 
ENDBRANCH   1  16
BRANCH   4  17
ATOM     17  C   LIG    1       26.133 -18.499   3.399  0.00  0.00    +0.112 C 
BRANCH  17  18
ATOM     18  C   LIG    1       25.569 -17.087   3.606  0.00  0.00    +0.035 C 
BRANCH  18  19
ATOM     19  C   LIG    1       26.670 -16.015   3.535  0.00  0.00    +0.086 C 
BRANCH  19  20
ATOM     20  N   LIG    1       26.157 -14.634   3.663  0.00  0.00    -0.302 NA
ATOM     21  C   LIG    1       24.703 -14.598   3.887  0.00  0.00    +0.087 C 
ATOM     22  C   LIG    1       24.208 -13.172   4.117  0.00  0.00    +0.046 C 
ATOM     23  C   LIG    1       24.601 -12.235   2.984  0.00  0.00    +0.117 C 
ATOM     24  C   LIG    1       26.075 -12.378   2.619  0.00  0.00    +0.046 C 
ATOM     25  C   LIG    1       26.507 -13.840   2.470  0.00  0.00    +0.087 C 
BRANCH  23  26
ATOM     26  O   LIG    1       23.778 -12.463   1.840  0.00  0.00    -0.392 OA
ATOM     27  H   LIG    1       23.334 -11.633   1.602  0.00  0.00    +0.210 HD
ENDBRANCH  23  26
ENDBRANCH  19  20
ENDBRANCH  18  19
ENDBRANCH  17  18
ENDBRANCH   4  17
TORSDOF 6
ENDMDL
