MODEL 1
REMARK VINA RESULT:       3.7      0.000      0.000
REMARK  Name = *****
REMARK                            x       y       z     vdW  Elec       q    Type
REMARK                         _______ _______ _______ _____ _____    ______ ____
ROOT
ATOM      1  C   LIG    1       23.566 -16.201   3.498  0.00  0.00    -0.000 C 
ATOM      2  C   LIG    1       23.595 -14.898   3.831  0.00  0.00    -0.066 C 
ATOM      3  C   LIG    1       24.481 -13.853   3.158  0.00  0.00    +0.021 C 
ATOM      4  C   LIG    1       25.578 -14.358   2.220  0.00  0.00    +0.009 C 
ATOM      5  C   LIG    1       26.554 -13.199   2.162  0.00  0.00    +0.005 C 
ATOM      6  C   LIG    1       26.699 -12.766   3.638  0.00  0.00    +0.002 C 
ATOM      7  C   LIG    1       25.209 -12.888   4.169  0.00  0.00    -0.022 C 
ATOM      8  C   LIG    1       24.555 -11.482   4.077  0.00  0.00    +0.012 C 
ATOM      9  C   LIG    1       25.049 -13.393   5.616  0.00  0.00    +0.008 C 
ATOM     10  C   LIG    1       23.610 -13.693   6.039  0.00  0.00    +0.005 C 
ATOM     11  C   LIG    1       22.751 -14.279   4.926  0.00  0.00    +0.031 C 
ENDROOT
BRANCH   1  19
ATOM     12  C   LIG    1       20.695 -19.439   4.431  0.00  0.00    +0.015 C 
ATOM     13  C   LIG    1       22.013 -19.507   4.668  0.00  0.00    -0.023 C 
ATOM     14  C   LIG    1       22.675 -20.563   5.543  0.00  0.00    +0.147 C 
ATOM     15  C   LIG    1       23.854 -21.245   4.839  0.00  0.00    +0.067 C 
ATOM     16  C   LIG    1       24.837 -20.240   4.251  0.00  0.00    +0.122 C 
ATOM     17  C   LIG    1       24.130 -19.217   3.360  0.00  0.00    +0.067 C 
ATOM     18  C   LIG    1       22.944 -18.554   4.045  0.00  0.00    -0.040 C 
ATOM     19  C   LIG    1       22.742 -17.227   4.106  0.00  0.00    +0.004 C 
BRANCH  14  20
ATOM     20  O   LIG    1       21.747 -21.570   5.938  0.00  0.00    -0.387 OA
ATOM     21  H   LIG    1       21.796 -21.639   6.906  0.00  0.00    +0.210 HD
ENDBRANCH  14  20
BRANCH  16  22
ATOM     22  O   LIG    1       25.568 -19.594   5.293  0.00  0.00    -0.391 OA
ATOM     23  H   LIG    1       25.366 -20.041   6.134  0.00  0.00    +0.210 HD
ENDBRANCH  16  22
ENDBRANCH   1  19
BRANCH   6  24
ATOM     24  C   LIG    1       27.836 -13.564   4.371  0.00  0.00    +0.012 C 
ATOM     25  C   LIG    1       29.257 -13.108   3.986  0.00  0.00    +0.012 C 
BRANCH  24  26
ATOM     26  C   LIG    1       27.775 -15.057   4.058  0.00  0.00    -0.027 C 
ATOM     27  C   LIG    1       28.390 -16.008   4.783  0.00  0.00    -0.027 C 
BRANCH  27  28
ATOM     28  C   LIG    1       28.485 -17.470   4.379  0.00  0.00    +0.011 C 
ATOM     29  C   LIG    1       27.101 -18.027   4.018  0.00  0.00    +0.012 C 
BRANCH  28  30
ATOM     30  C   LIG    1       29.189 -18.346   5.462  0.00  0.00    -0.011 C 
ATOM     31  C   LIG    1       28.558 -19.733   5.644  0.00  0.00    +0.008 C 
ATOM     32  C   LIG    1       29.254 -17.634   6.820  0.00  0.00    +0.008 C 
ENDBRANCH  28  30
ENDBRANCH  27  28
ENDBRANCH  24  26
ENDBRANCH   6  24
TORSDOF 7
ENDMDL
