MODEL 1
REMARK VINA RESULT:      10.9      0.000      0.000
REMARK  Name = *****
REMARK                            x       y       z     vdW  Elec       q    Type
REMARK                         _______ _______ _______ _____ _____    ______ ____
ROOT
ATOM      1  N   LIG    1       28.601 -16.587   3.466  0.00  0.00    -0.234 N 
ATOM      2  H   LIG    1       28.802 -16.720   2.464  0.00  0.00    +0.174 HD
ENDROOT
BRANCH   1   6
ATOM      3  C   LIG    1       29.363 -19.710   6.391  0.00  0.00    +0.070 C 
ATOM      4  C   LIG    1       28.076 -19.419   5.725  0.00  0.00    +0.089 C 
ATOM      5  C   LIG    1       27.951 -18.376   4.679  0.00  0.00    +0.168 C 
ATOM      6  N   LIG    1       28.892 -17.546   4.383  0.00  0.00    -0.175 NA
ATOM      7  C   LIG    1       26.551 -18.479   4.179  0.00  0.00    +0.292 C 
ATOM      8  O   LIG    1       26.121 -17.794   3.261  0.00  0.00    -0.266 OA
ATOM      9  N   LIG    1       26.011 -19.443   5.010  0.00  0.00    -0.155 N 
ATOM     10  N   LIG    1       26.919 -19.996   5.928  0.00  0.00    -0.175 NA
BRANCH   9  11
ATOM     11  C   LIG    1       24.698 -19.948   4.974  0.00  0.00    +0.061 A 
ATOM     12  C   LIG    1       23.712 -19.298   4.215  0.00  0.00    +0.029 A 
ATOM     13  C   LIG    1       22.398 -19.796   4.137  0.00  0.00    -0.046 A 
ATOM     14  C   LIG    1       21.405 -19.066   3.275  0.00  0.00    +0.044 C 
ATOM     15  C   LIG    1       22.045 -20.923   4.901  0.00  0.00    -0.047 A 
ATOM     16  C   LIG    1       20.644 -21.468   4.914  0.00  0.00    +0.044 C 
ATOM     17  C   LIG    1       23.031 -21.571   5.656  0.00  0.00    +0.005 A 
ATOM     18  C   LIG    1       24.343 -21.099   5.679  0.00  0.00    +0.026 A 
ENDBRANCH   9  11
ENDBRANCH   1   6
BRANCH   1  19
ATOM     19  C   LIG    1       28.192 -15.292   3.852  0.00  0.00    +0.090 A 
ATOM     20  C   LIG    1       26.850 -14.973   4.174  0.00  0.00    +0.147 A 
ATOM     21  C   LIG    1       26.433 -13.680   4.560  0.00  0.00    +0.025 A 
ATOM     22  C   LIG    1       27.433 -12.691   4.596  0.00  0.00    +0.012 A 
ATOM     23  C   LIG    1       28.759 -12.971   4.250  0.00  0.00    +0.003 A 
ATOM     24  C   LIG    1       29.133 -14.261   3.877  0.00  0.00    +0.028 A 
BRANCH  21  25
ATOM     25  C   LIG    1       25.026 -13.352   4.923  0.00  0.00    -0.014 A 
ATOM     26  C   LIG    1       24.099 -14.366   5.225  0.00  0.00    +0.023 A 
ATOM     27  C   LIG    1       22.758 -14.087   5.520  0.00  0.00    +0.059 A 
ATOM     28  C   LIG    1       22.332 -12.761   5.600  0.00  0.00    +0.015 A 
ATOM     29  C   LIG    1       23.237 -11.731   5.348  0.00  0.00    +0.001 A 
ATOM     30  C   LIG    1       24.562 -12.026   5.002  0.00  0.00    +0.008 A 
BRANCH  27  31
ATOM     31  C   LIG    1       21.793 -15.179   5.803  0.00  0.00    +0.337 C 
ATOM     32  O   LIG    1       21.520 -16.048   4.985  0.00  0.00    -0.245 OA
BRANCH  31  33
ATOM     33  O   LIG    1       21.273 -15.154   7.047  0.00  0.00    -0.477 OA
ATOM     34  H   LIG    1       20.770 -15.953   7.303  0.00  0.00    +0.295 HD
ENDBRANCH  31  33
ENDBRANCH  27  31
ENDBRANCH  21  25
BRANCH  20  35
ATOM     35  O   LIG    1       25.917 -15.987   4.090  0.00  0.00    -0.504 OA
ATOM     36  H   LIG    1       25.434 -15.756   3.265  0.00  0.00    +0.292 HD
ENDBRANCH  20  35
ENDBRANCH   1  19
TORSDOF 7
ENDMDL
MODEL 2
REMARK VINA RESULT:      13.0      2.576      8.126
REMARK  Name = *****
REMARK                            x       y       z     vdW  Elec       q    Type
REMARK                         _______ _______ _______ _____ _____    ______ ____
ROOT
ATOM      1  N   LIG    1       21.100 -16.663   3.829  0.00  0.00    -0.234 N 
ATOM      2  H   LIG    1       20.667 -16.441   2.921  0.00  0.00    +0.174 HD
ENDROOT
BRANCH   1   6
ATOM      3  C   LIG    1       21.444 -13.697   6.987  0.00  0.00    +0.070 C 
ATOM      4  C   LIG    1       22.459 -14.017   5.962  0.00  0.00    +0.089 C 
ATOM      5  C   LIG    1       22.201 -14.995   4.879  0.00  0.00    +0.168 C 
ATOM      6  N   LIG    1       21.157 -15.750   4.833  0.00  0.00    -0.175 NA
ATOM      7  C   LIG    1       23.401 -14.940   3.997  0.00  0.00    +0.292 C 
ATOM      8  O   LIG    1       23.496 -15.588   2.963  0.00  0.00    -0.266 OA
ATOM      9  N   LIG    1       24.226 -14.063   4.677  0.00  0.00    -0.155 N 
ATOM     10  N   LIG    1       23.664 -13.520   5.844  0.00  0.00    -0.175 NA
BRANCH   9  11
ATOM     11  C   LIG    1       25.506 -13.632   4.282  0.00  0.00    +0.061 A 
ATOM     12  C   LIG    1       26.510 -13.430   5.242  0.00  0.00    +0.029 A 
ATOM     13  C   LIG    1       27.807 -13.026   4.874  0.00  0.00    -0.046 A 
ATOM     14  C   LIG    1       28.841 -12.866   5.955  0.00  0.00    +0.044 C 
ATOM     15  C   LIG    1       28.080 -12.741   3.524  0.00  0.00    -0.047 A 
ATOM     16  C   LIG    1       29.425 -12.244   3.072  0.00  0.00    +0.044 C 
ATOM     17  C   LIG    1       27.077 -12.944   2.567  0.00  0.00    +0.005 A 
ATOM     18  C   LIG    1       25.812 -13.399   2.940  0.00  0.00    +0.026 A 
ENDBRANCH   9  11
ENDBRANCH   1   6
BRANCH   1  19
ATOM     19  C   LIG    1       21.453 -18.015   4.035  0.00  0.00    +0.090 A 
ATOM     20  C   LIG    1       22.680 -18.409   4.626  0.00  0.00    +0.147 A 
ATOM     21  C   LIG    1       23.040 -19.758   4.834  0.00  0.00    +0.025 A 
ATOM     22  C   LIG    1       22.109 -20.722   4.403  0.00  0.00    +0.012 A 
ATOM     23  C   LIG    1       20.907 -20.362   3.786  0.00  0.00    +0.003 A 
ATOM     24  C   LIG    1       20.585 -19.018   3.601  0.00  0.00    +0.028 A 
BRANCH  21  25
ATOM     25  C   LIG    1       24.318 -20.170   5.478  0.00  0.00    -0.014 A 
ATOM     26  C   LIG    1       25.532 -19.536   5.155  0.00  0.00    +0.023 A 
ATOM     27  C   LIG    1       26.754 -19.938   5.708  0.00  0.00    +0.059 A 
ATOM     28  C   LIG    1       26.775 -20.945   6.674  0.00  0.00    +0.015 A 
ATOM     29  C   LIG    1       25.584 -21.563   7.048  0.00  0.00    +0.001 A 
ATOM     30  C   LIG    1       24.375 -21.188   6.447  0.00  0.00    +0.008 A 
BRANCH  27  31
ATOM     31  C   LIG    1       28.024 -19.273   5.323  0.00  0.00    +0.337 C 
ATOM     32  O   LIG    1       29.118 -19.803   5.469  0.00  0.00    -0.245 OA
BRANCH  31  33
ATOM     33  O   LIG    1       27.869 -18.054   4.767  0.00  0.00    -0.477 OA
ATOM     34  H   LIG    1       28.634 -17.452   4.864  0.00  0.00    +0.295 HD
ENDBRANCH  31  33
ENDBRANCH  27  31
ENDBRANCH  21  25
BRANCH  20  35
ATOM     35  O   LIG    1       23.556 -17.410   4.998  0.00  0.00    -0.504 OA
ATOM     36  H   LIG    1       23.035 -16.597   4.811  0.00  0.00    +0.292 HD
ENDBRANCH  20  35
ENDBRANCH   1  19
TORSDOF 7
ENDMDL
MODEL 3
REMARK VINA RESULT:      13.3      1.670      5.975
REMARK  Name = *****
REMARK                            x       y       z     vdW  Elec       q    Type
REMARK                         _______ _______ _______ _____ _____    ______ ____
ROOT
ATOM      1  N   LIG    1       25.394 -20.815   3.651  0.00  0.00    -0.234 N 
ATOM      2  H   LIG    1       25.473 -21.298   2.745  0.00  0.00    +0.174 HD
ENDROOT
BRANCH   1   6
ATOM      3  C   LIG    1       28.886 -19.795   6.029  0.00  0.00    +0.070 C 
ATOM      4  C   LIG    1       28.124 -18.888   5.147  0.00  0.00    +0.089 C 
ATOM      5  C   LIG    1       26.895 -19.326   4.443  0.00  0.00    +0.168 C 
ATOM      6  N   LIG    1       26.487 -20.549   4.412  0.00  0.00    -0.175 NA
ATOM      7  C   LIG    1       26.365 -18.106   3.770  0.00  0.00    +0.292 C 
ATOM      8  O   LIG    1       25.317 -18.098   3.139  0.00  0.00    -0.266 OA
ATOM      9  N   LIG    1       27.339 -17.167   4.051  0.00  0.00    -0.155 N 
ATOM     10  N   LIG    1       28.383 -17.636   4.866  0.00  0.00    -0.175 NA
BRANCH   9  11
ATOM     11  C   LIG    1       27.344 -15.815   3.663  0.00  0.00    +0.061 A 
ATOM     12  C   LIG    1       28.016 -14.859   4.442  0.00  0.00    +0.029 A 
ATOM     13  C   LIG    1       28.062 -13.505   4.064  0.00  0.00    -0.046 A 
ATOM     14  C   LIG    1       28.832 -12.545   4.929  0.00  0.00    +0.044 C 
ATOM     15  C   LIG    1       27.352 -13.085   2.924  0.00  0.00    -0.047 A 
ATOM     16  C   LIG    1       27.306 -11.644   2.501  0.00  0.00    +0.044 C 
ATOM     17  C   LIG    1       26.683 -14.041   2.148  0.00  0.00    +0.005 A 
ATOM     18  C   LIG    1       26.693 -15.389   2.504  0.00  0.00    +0.026 A 
ENDBRANCH   9  11
ENDBRANCH   1   6
BRANCH   1  19
ATOM     19  C   LIG    1       24.125 -20.277   3.962  0.00  0.00    +0.090 A 
ATOM     20  C   LIG    1       23.937 -18.932   4.364  0.00  0.00    +0.147 A 
ATOM     21  C   LIG    1       22.672 -18.388   4.678  0.00  0.00    +0.025 A 
ATOM     22  C   LIG    1       21.579 -19.269   4.587  0.00  0.00    +0.012 A 
ATOM     23  C   LIG    1       21.741 -20.611   4.226  0.00  0.00    +0.003 A 
ATOM     24  C   LIG    1       23.006 -21.110   3.920  0.00  0.00    +0.028 A 
BRANCH  21  25
ATOM     25  C   LIG    1       22.472 -16.967   5.076  0.00  0.00    -0.014 A 
ATOM     26  C   LIG    1       23.147 -15.925   4.414  0.00  0.00    +0.023 A 
ATOM     27  C   LIG    1       23.016 -14.586   4.801  0.00  0.00    +0.059 A 
ATOM     28  C   LIG    1       22.128 -14.249   5.823  0.00  0.00    +0.015 A 
ATOM     29  C   LIG    1       21.412 -15.253   6.471  0.00  0.00    +0.001 A 
ATOM     30  C   LIG    1       21.593 -16.594   6.110  0.00  0.00    +0.008 A 
BRANCH  27  31
ATOM     31  C   LIG    1       23.766 -13.510   4.105  0.00  0.00    +0.337 C 
ATOM     32  O   LIG    1       24.581 -12.797   4.676  0.00  0.00    -0.245 OA
BRANCH  31  33
ATOM     33  O   LIG    1       23.501 -13.410   2.786  0.00  0.00    -0.477 OA
ATOM     34  H   LIG    1       24.039 -13.989   2.209  0.00  0.00    +0.295 HD
ENDBRANCH  31  33
ENDBRANCH  27  31
ENDBRANCH  21  25
BRANCH  20  35
ATOM     35  O   LIG    1       25.059 -18.133   4.459  0.00  0.00    -0.504 OA
ATOM     36  H   LIG    1       24.730 -17.273   4.113  0.00  0.00    +0.292 HD
ENDBRANCH  20  35
ENDBRANCH   1  19
TORSDOF 7
ENDMDL
