MODEL 1
REMARK VINA RESULT:      -2.4      0.000      0.000
REMARK  Name = *****
REMARK                            x       y       z     vdW  Elec       q    Type
REMARK                         _______ _______ _______ _____ _____    ______ ____
ROOT
ATOM      1  O   LIG    1       25.694 -17.886   3.538  0.00  0.00    -0.312 OA
ENDROOT
BRANCH   1   2
ATOM      2  C   LIG    1       25.491 -16.483   3.314  0.00  0.00    +0.285 C 
ATOM      3  C   LIG    1       26.898 -15.858   3.194  0.00  0.00    +0.201 C 
ATOM      4  C   LIG    1       26.821 -14.327   3.103  0.00  0.00    +0.179 C 
ATOM      5  C   LIG    1       25.948 -13.754   4.232  0.00  0.00    +0.177 C 
ATOM      6  C   LIG    1       24.615 -14.500   4.402  0.00  0.00    +0.178 C 
ATOM      7  O   LIG    1       24.810 -15.919   4.430  0.00  0.00    -0.340 OA
BRANCH   3   8
ATOM      8  O   LIG    1       27.657 -16.215   4.376  0.00  0.00    -0.384 OA
ATOM      9  H   LIG    1       28.111 -15.384   4.634  0.00  0.00    +0.210 HD
ENDBRANCH   3   8
BRANCH   4  10
ATOM     10  O   LIG    1       26.383 -13.899   1.812  0.00  0.00    -0.386 OA
ATOM     11  H   LIG    1       25.607 -14.435   1.545  0.00  0.00    +0.210 HD
ENDBRANCH   4  10
BRANCH   5  12
ATOM     12  O   LIG    1       26.661 -13.858   5.482  0.00  0.00    -0.387 OA
ATOM     13  H   LIG    1       26.303 -13.159   6.071  0.00  0.00    +0.210 HD
ENDBRANCH   5  12
BRANCH   6  14
ATOM     14  C   LIG    1       23.497 -14.084   3.431  0.00  0.00    +0.190 C 
BRANCH  14  15
ATOM     15  O   LIG    1       23.768 -12.854   2.770  0.00  0.00    -0.392 OA
ATOM     16  H   LIG    1       24.737 -12.709   2.832  0.00  0.00    +0.209 HD
ENDBRANCH  14  15
ENDBRANCH   6  14
ENDBRANCH   1   2
BRANCH   1  20
ATOM     17  C   LIG    1       24.643 -20.475   5.375  0.00  0.00    +0.178 C 
ATOM     18  C   LIG    1       24.059 -21.044   4.087  0.00  0.00    +0.179 C 
ATOM     19  C   LIG    1       24.435 -20.007   3.034  0.00  0.00    +0.207 C 
ATOM     20  C   LIG    1       24.532 -18.679   3.834  0.00  0.00    +0.225 C 
ATOM     21  O   LIG    1       24.652 -19.043   5.238  0.00  0.00    -0.336 OA
BRANCH  18  22
ATOM     22  O   LIG    1       22.639 -21.191   4.213  0.00  0.00    -0.386 OA
ATOM     23  H   LIG    1       22.226 -20.815   3.403  0.00  0.00    +0.210 HD
ENDBRANCH  18  22
BRANCH  19  24
ATOM     24  O   LIG    1       25.686 -20.384   2.432  0.00  0.00    -0.384 OA
ATOM     25  H   LIG    1       26.343 -19.720   2.740  0.00  0.00    +0.210 HD
ENDBRANCH  19  24
BRANCH  17  26
ATOM     26  C   LIG    1       26.065 -20.967   5.686  0.00  0.00    +0.190 C 
BRANCH  26  27
ATOM     27  O   LIG    1       27.058 -20.143   5.084  0.00  0.00    -0.392 OA
ATOM     28  H   LIG    1       27.320 -20.600   4.244  0.00  0.00    +0.209 HD
ENDBRANCH  26  27
ENDBRANCH  17  26
BRANCH  20  29
ATOM     29  C   LIG    1       23.219 -17.851   3.721  0.00  0.00    +0.223 C 
BRANCH  29  30
ATOM     30  O   LIG    1       22.321 -18.043   4.820  0.00  0.00    -0.390 OA
ATOM     31  H   LIG    1       22.433 -18.976   5.082  0.00  0.00    +0.210 HD
ENDBRANCH  29  30
ENDBRANCH  20  29
ENDBRANCH   1  20
TORSDOF 13
ENDMDL
MODEL 2
REMARK VINA RESULT:      -1.8      1.610      6.028
REMARK  Name = *****
REMARK                            x       y       z     vdW  Elec       q    Type
REMARK                         _______ _______ _______ _____ _____    ______ ____
ROOT
ATOM      1  O   LIG    1       24.967 -16.270   3.427  0.00  0.00    -0.312 OA
ENDROOT
BRANCH   1   2
ATOM      2  C   LIG    1       24.671 -17.523   4.063  0.00  0.00    +0.285 C 
ATOM      3  C   LIG    1       25.859 -18.459   3.746  0.00  0.00    +0.201 C 
ATOM      4  C   LIG    1       25.592 -19.886   4.245  0.00  0.00    +0.179 C 
ATOM      5  C   LIG    1       24.221 -20.388   3.763  0.00  0.00    +0.177 C 
ATOM      6  C   LIG    1       23.094 -19.364   3.974  0.00  0.00    +0.178 C 
ATOM      7  O   LIG    1       23.476 -18.063   3.510  0.00  0.00    -0.340 OA
BRANCH   3   8
ATOM      8  O   LIG    1       26.038 -18.495   2.308  0.00  0.00    -0.384 OA
ATOM      9  H   LIG    1       25.903 -19.438   2.070  0.00  0.00    +0.210 HD
ENDBRANCH   3   8
BRANCH   4  10
ATOM     10  O   LIG    1       25.732 -19.980   5.664  0.00  0.00    -0.386 OA
ATOM     11  H   LIG    1       25.450 -20.872   5.954  0.00  0.00    +0.210 HD
ENDBRANCH   4  10
BRANCH   5  12
ATOM     12  O   LIG    1       24.289 -20.666   2.349  0.00  0.00    -0.387 OA
ATOM     13  H   LIG    1       23.416 -21.034   2.090  0.00  0.00    +0.210 HD
ENDBRANCH   5  12
BRANCH   6  14
ATOM     14  C   LIG    1       22.495 -19.325   5.391  0.00  0.00    +0.190 C 
BRANCH  14  15
ATOM     15  O   LIG    1       22.869 -20.449   6.180  0.00  0.00    -0.392 OA
ATOM     16  H   LIG    1       23.579 -20.144   6.784  0.00  0.00    +0.209 HD
ENDBRANCH  14  15
ENDBRANCH   6  14
ENDBRANCH   1   2
BRANCH   1  20
ATOM     17  C   LIG    1       24.603 -12.986   2.917  0.00  0.00    +0.178 C 
ATOM     18  C   LIG    1       24.960 -12.803   4.387  0.00  0.00    +0.179 C 
ATOM     19  C   LIG    1       25.205 -14.226   4.876  0.00  0.00    +0.207 C 
ATOM     20  C   LIG    1       24.317 -15.100   3.949  0.00  0.00    +0.225 C 
ATOM     21  O   LIG    1       23.991 -14.283   2.790  0.00  0.00    -0.336 OA
BRANCH  18  22
ATOM     22  O   LIG    1       23.876 -12.175   5.083  0.00  0.00    -0.386 OA
ATOM     23  H   LIG    1       24.238 -11.394   5.559  0.00  0.00    +0.210 HD
ENDBRANCH  18  22
BRANCH  19  24
ATOM     24  O   LIG    1       26.605 -14.530   4.751  0.00  0.00    -0.384 OA
ATOM     25  H   LIG    1       26.984 -13.820   4.184  0.00  0.00    +0.210 HD
ENDBRANCH  19  24
BRANCH  17  26
ATOM     26  C   LIG    1       25.805 -12.894   1.965  0.00  0.00    +0.190 C 
BRANCH  26  27
ATOM     27  O   LIG    1       26.494 -14.135   1.854  0.00  0.00    -0.392 OA
ATOM     28  H   LIG    1       27.101 -14.183   2.636  0.00  0.00    +0.209 HD
ENDBRANCH  26  27
ENDBRANCH  17  26
BRANCH  20  29
ATOM     29  C   LIG    1       22.956 -15.442   4.622  0.00  0.00    +0.223 C 
BRANCH  29  30
ATOM     30  O   LIG    1       22.720 -14.726   5.840  0.00  0.00    -0.390 OA
ATOM     31  H   LIG    1       22.410 -15.398   6.476  0.00  0.00    +0.210 HD
ENDBRANCH  29  30
ENDBRANCH  20  29
ENDBRANCH   1  20
TORSDOF 13
ENDMDL
MODEL 3
REMARK VINA RESULT:      -1.3      1.411      6.176
REMARK  Name = *****
REMARK                            x       y       z     vdW  Elec       q    Type
REMARK                         _______ _______ _______ _____ _____    ______ ____
ROOT
ATOM      1  O   LIG    1       25.222 -16.522   3.153  0.00  0.00    -0.312 OA
ENDROOT
BRANCH   1   2
ATOM      2  C   LIG    1       24.855 -17.683   3.914  0.00  0.00    +0.285 C 
ATOM      3  C   LIG    1       25.910 -18.763   3.589  0.00  0.00    +0.201 C 
ATOM      4  C   LIG    1       25.542 -20.110   4.228  0.00  0.00    +0.179 C 
ATOM      5  C   LIG    1       24.091 -20.496   3.896  0.00  0.00    +0.177 C 
ATOM      6  C   LIG    1       23.096 -19.343   4.103  0.00  0.00    +0.178 C 
ATOM      7  O   LIG    1       23.568 -18.131   3.502  0.00  0.00    -0.340 OA
BRANCH   3   8
ATOM      8  O   LIG    1       25.963 -18.930   2.151  0.00  0.00    -0.384 OA
ATOM      9  H   LIG    1       25.753 -19.878   2.008  0.00  0.00    +0.210 HD
ENDBRANCH   3   8
BRANCH   4  10
ATOM     10  O   LIG    1       25.791 -20.109   5.635  0.00  0.00    -0.386 OA
ATOM     11  H   LIG    1       25.671 -19.201   5.980  0.00  0.00    +0.210 HD
ENDBRANCH   4  10
BRANCH   5  12
ATOM     12  O   LIG    1       24.010 -20.888   2.510  0.00  0.00    -0.387 OA
ATOM     13  H   LIG    1       24.933 -20.994   2.191  0.00  0.00    +0.210 HD
ENDBRANCH   5  12
BRANCH   6  14
ATOM     14  C   LIG    1       22.626 -19.130   5.553  0.00  0.00    +0.190 C 
BRANCH  14  15
ATOM     15  O   LIG    1       22.830 -20.274   6.374  0.00  0.00    -0.392 OA
ATOM     16  H   LIG    1       23.801 -20.404   6.438  0.00  0.00    +0.209 HD
ENDBRANCH  14  15
ENDBRANCH   6  14
ENDBRANCH   1   2
BRANCH   1  20
ATOM     17  C   LIG    1       25.739 -13.719   4.900  0.00  0.00    +0.178 C 
ATOM     18  C   LIG    1       26.698 -13.304   3.791  0.00  0.00    +0.179 C 
ATOM     19  C   LIG    1       26.629 -14.465   2.805  0.00  0.00    +0.207 C 
ATOM     20  C   LIG    1       26.261 -15.687   3.689  0.00  0.00    +0.225 C 
ATOM     21  O   LIG    1       25.734 -15.157   4.938  0.00  0.00    -0.336 OA
BRANCH  18  22
ATOM     22  O   LIG    1       28.018 -13.128   4.321  0.00  0.00    -0.386 OA
ATOM     23  H   LIG    1       28.120 -13.741   5.083  0.00  0.00    +0.210 HD
ENDBRANCH  18  22
BRANCH  19  24
ATOM     24  O   LIG    1       25.628 -14.177   1.813  0.00  0.00    -0.384 OA
ATOM     25  H   LIG    1       25.308 -15.051   1.493  0.00  0.00    +0.210 HD
ENDBRANCH  19  24
BRANCH  17  26
ATOM     26  C   LIG    1       24.303 -13.209   4.708  0.00  0.00    +0.190 C 
BRANCH  26  27
ATOM     27  O   LIG    1       24.205 -12.286   3.628  0.00  0.00    -0.392 OA
ATOM     28  H   LIG    1       23.411 -11.723   3.820  0.00  0.00    +0.209 HD
ENDBRANCH  26  27
ENDBRANCH  17  26
BRANCH  20  29
ATOM     29  C   LIG    1       27.525 -16.509   4.077  0.00  0.00    +0.223 C 
BRANCH  29  30
ATOM     30  O   LIG    1       28.513 -15.747   4.782  0.00  0.00    -0.390 OA
ATOM     31  H   LIG    1       28.594 -14.912   4.284  0.00  0.00    +0.210 HD
ENDBRANCH  29  30
ENDBRANCH  20  29
ENDBRANCH   1  20
TORSDOF 13
ENDMDL
MODEL 4
REMARK VINA RESULT:       0.1      1.289      6.202
REMARK  Name = *****
REMARK                            x       y       z     vdW  Elec       q    Type
REMARK                         _______ _______ _______ _____ _____    ______ ____
ROOT
ATOM      1  O   LIG    1       25.030 -16.568   3.500  0.00  0.00    -0.312 OA
ENDROOT
BRANCH   1   2
ATOM      2  C   LIG    1       25.109 -17.998   3.587  0.00  0.00    +0.285 C 
ATOM      3  C   LIG    1       23.684 -18.527   3.311  0.00  0.00    +0.201 C 
ATOM      4  C   LIG    1       23.602 -20.045   3.525  0.00  0.00    +0.179 C 
ATOM      5  C   LIG    1       24.190 -20.439   4.890  0.00  0.00    +0.177 C 
ATOM      6  C   LIG    1       25.547 -19.777   5.177  0.00  0.00    +0.178 C 
ATOM      7  O   LIG    1       25.512 -18.372   4.900  0.00  0.00    -0.340 OA
BRANCH   3   8
ATOM      8  O   LIG    1       22.772 -17.878   4.232  0.00  0.00    -0.384 OA
ATOM      9  H   LIG    1       21.955 -17.737   3.706  0.00  0.00    +0.210 HD
ENDBRANCH   3   8
BRANCH   4  10
ATOM     10  O   LIG    1       24.212 -20.760   2.448  0.00  0.00    -0.386 OA
ATOM     11  H   LIG    1       24.466 -20.126   1.747  0.00  0.00    +0.210 HD
ENDBRANCH   4  10
BRANCH   5  12
ATOM     12  O   LIG    1       23.282 -20.028   5.933  0.00  0.00    -0.387 OA
ATOM     13  H   LIG    1       22.610 -20.738   6.021  0.00  0.00    +0.210 HD
ENDBRANCH   5  12
BRANCH   6  14
ATOM     14  C   LIG    1       26.766 -20.467   4.540  0.00  0.00    +0.190 C 
BRANCH  14  15
ATOM     15  O   LIG    1       27.997 -20.079   5.140  0.00  0.00    -0.392 OA
ATOM     16  H   LIG    1       27.773 -19.457   5.865  0.00  0.00    +0.209 HD
ENDBRANCH  14  15
ENDBRANCH   6  14
ENDBRANCH   1   2
BRANCH   1  20
ATOM     17  C   LIG    1       26.357 -13.715   4.630  0.00  0.00    +0.178 C 
ATOM     18  C   LIG    1       26.944 -13.534   3.235  0.00  0.00    +0.179 C 
ATOM     19  C   LIG    1       26.447 -14.758   2.475  0.00  0.00    +0.207 C 
ATOM     20  C   LIG    1       26.263 -15.836   3.578  0.00  0.00    +0.225 C 
ATOM     21  O   LIG    1       26.222 -15.130   4.850  0.00  0.00    -0.336 OA
BRANCH  18  22
ATOM     22  O   LIG    1       28.376 -13.490   3.305  0.00  0.00    -0.386 OA
ATOM     23  H   LIG    1       28.698 -14.411   3.428  0.00  0.00    +0.210 HD
ENDBRANCH  18  22
BRANCH  19  24
ATOM     24  O   LIG    1       25.214 -14.428   1.812  0.00  0.00    -0.384 OA
ATOM     25  H   LIG    1       25.371 -13.565   1.366  0.00  0.00    +0.210 HD
ENDBRANCH  19  24
BRANCH  17  26
ATOM     26  C   LIG    1       24.994 -13.035   4.827  0.00  0.00    +0.190 C 
BRANCH  26  27
ATOM     27  O   LIG    1       23.915 -13.887   4.455  0.00  0.00    -0.392 OA
ATOM     28  H   LIG    1       23.963 -13.975   3.468  0.00  0.00    +0.209 HD
ENDBRANCH  26  27
ENDBRANCH  17  26
BRANCH  20  29
ATOM     29  C   LIG    1       27.497 -16.782   3.659  0.00  0.00    +0.223 C 
BRANCH  29  30
ATOM     30  O   LIG    1       28.411 -16.449   4.710  0.00  0.00    -0.390 OA
ATOM     31  H   LIG    1       28.773 -17.303   5.014  0.00  0.00    +0.210 HD
ENDBRANCH  29  30
ENDBRANCH  20  29
ENDBRANCH   1  20
TORSDOF 13
ENDMDL
MODEL 5
REMARK VINA RESULT:       0.2      1.379      3.297
REMARK  Name = *****
REMARK                            x       y       z     vdW  Elec       q    Type
REMARK                         _______ _______ _______ _____ _____    ______ ____
ROOT
ATOM      1  O   LIG    1       24.767 -17.402   3.444  0.00  0.00    -0.312 OA
ENDROOT
BRANCH   1   2
ATOM      2  C   LIG    1       25.370 -16.113   3.632  0.00  0.00    +0.285 C 
ATOM      3  C   LIG    1       24.366 -15.284   4.463  0.00  0.00    +0.201 C 
ATOM      4  C   LIG    1       24.830 -13.827   4.604  0.00  0.00    +0.179 C 
ATOM      5  C   LIG    1       25.190 -13.230   3.233  0.00  0.00    +0.177 C 
ATOM      6  C   LIG    1       26.079 -14.156   2.387  0.00  0.00    +0.178 C 
ATOM      7  O   LIG    1       25.569 -15.495   2.365  0.00  0.00    -0.340 OA
BRANCH   3   8
ATOM      8  O   LIG    1       23.088 -15.300   3.781  0.00  0.00    -0.384 OA
ATOM      9  H   LIG    1       22.721 -16.189   3.973  0.00  0.00    +0.210 HD
ENDBRANCH   3   8
BRANCH   4  10
ATOM     10  O   LIG    1       25.901 -13.706   5.543  0.00  0.00    -0.386 OA
ATOM     11  H   LIG    1       26.621 -14.319   5.287  0.00  0.00    +0.210 HD
ENDBRANCH   4  10
BRANCH   5  12
ATOM     12  O   LIG    1       23.979 -12.997   2.486  0.00  0.00    -0.387 OA
ATOM     13  H   LIG    1       24.244 -12.869   1.549  0.00  0.00    +0.210 HD
ENDBRANCH   5  12
BRANCH   6  14
ATOM     14  C   LIG    1       27.582 -14.109   2.715  0.00  0.00    +0.190 C 
BRANCH  14  15
ATOM     15  O   LIG    1       27.979 -12.881   3.313  0.00  0.00    -0.392 OA
ATOM     16  H   LIG    1       27.226 -12.581   3.866  0.00  0.00    +0.209 HD
ENDBRANCH  14  15
ENDBRANCH   6  14
ENDBRANCH   1   2
BRANCH   1  20
ATOM     17  C   LIG    1       24.866 -20.741   3.314  0.00  0.00    +0.178 C 
ATOM     18  C   LIG    1       24.889 -20.716   4.838  0.00  0.00    +0.179 C 
ATOM     19  C   LIG    1       24.831 -19.230   5.173  0.00  0.00    +0.207 C 
ATOM     20  C   LIG    1       25.484 -18.542   3.943  0.00  0.00    +0.225 C 
ATOM     21  O   LIG    1       25.473 -19.517   2.863  0.00  0.00    -0.336 OA
BRANCH  18  22
ATOM     22  O   LIG    1       26.090 -21.329   5.323  0.00  0.00    -0.386 OA
ATOM     23  H   LIG    1       26.747 -20.615   5.486  0.00  0.00    +0.210 HD
ENDBRANCH  18  22
BRANCH  19  24
ATOM     24  O   LIG    1       23.457 -18.846   5.357  0.00  0.00    -0.384 OA
ATOM     25  H   LIG    1       22.926 -19.480   4.824  0.00  0.00    +0.210 HD
ENDBRANCH  19  24
BRANCH  17  26
ATOM     26  C   LIG    1       23.458 -20.865   2.712  0.00  0.00    +0.190 C 
BRANCH  26  27
ATOM     27  O   LIG    1       22.496 -21.260   3.684  0.00  0.00    -0.392 OA
ATOM     28  H   LIG    1       22.960 -21.227   4.559  0.00  0.00    +0.209 HD
ENDBRANCH  26  27
ENDBRANCH  17  26
BRANCH  20  29
ATOM     29  C   LIG    1       26.984 -18.217   4.205  0.00  0.00    +0.223 C 
BRANCH  29  30
ATOM     30  O   LIG    1       27.695 -19.270   4.866  0.00  0.00    -0.390 OA
ATOM     31  H   LIG    1       28.164 -19.747   4.156  0.00  0.00    +0.210 HD
ENDBRANCH  29  30
ENDBRANCH  20  29
ENDBRANCH   1  20
TORSDOF 13
ENDMDL
MODEL 6
REMARK VINA RESULT:       0.3      0.969      2.307
REMARK  Name = *****
REMARK                            x       y       z     vdW  Elec       q    Type
REMARK                         _______ _______ _______ _____ _____    ______ ____
ROOT
ATOM      1  O   LIG    1       26.063 -17.700   4.147  0.00  0.00    -0.312 OA
ENDROOT
BRANCH   1   2
ATOM      2  C   LIG    1       25.860 -16.372   3.644  0.00  0.00    +0.285 C 
ATOM      3  C   LIG    1       27.256 -15.713   3.588  0.00  0.00    +0.201 C 
ATOM      4  C   LIG    1       27.157 -14.229   3.207  0.00  0.00    +0.179 C 
ATOM      5  C   LIG    1       26.128 -13.503   4.091  0.00  0.00    +0.177 C 
ATOM      6  C   LIG    1       24.802 -14.268   4.227  0.00  0.00    +0.178 C 
ATOM      7  O   LIG    1       25.025 -15.648   4.541  0.00  0.00    -0.340 OA
BRANCH   3   8
ATOM      8  O   LIG    1       27.860 -15.815   4.902  0.00  0.00    -0.384 OA
ATOM      9  H   LIG    1       27.511 -15.039   5.390  0.00  0.00    +0.210 HD
ENDBRANCH   3   8
BRANCH   4  10
ATOM     10  O   LIG    1       26.883 -14.062   1.814  0.00  0.00    -0.386 OA
ATOM     11  H   LIG    1       27.235 -14.834   1.325  0.00  0.00    +0.210 HD
ENDBRANCH   4  10
BRANCH   5  12
ATOM     12  O   LIG    1       26.672 -13.346   5.417  0.00  0.00    -0.387 OA
ATOM     13  H   LIG    1       27.621 -13.119   5.310  0.00  0.00    +0.210 HD
ENDBRANCH   5  12
BRANCH   6  14
ATOM     14  C   LIG    1       23.813 -14.087   3.062  0.00  0.00    +0.190 C 
BRANCH  14  15
ATOM     15  O   LIG    1       23.641 -12.724   2.690  0.00  0.00    -0.392 OA
ATOM     16  H   LIG    1       22.769 -12.445   3.044  0.00  0.00    +0.209 HD
ENDBRANCH  14  15
ENDBRANCH   6  14
ENDBRANCH   1   2
BRANCH   1  20
ATOM     17  C   LIG    1       22.989 -19.005   4.007  0.00  0.00    +0.178 C 
ATOM     18  C   LIG    1       23.638 -20.352   4.300  0.00  0.00    +0.179 C 
ATOM     19  C   LIG    1       25.119 -20.015   4.434  0.00  0.00    +0.207 C 
ATOM     20  C   LIG    1       25.299 -18.756   3.544  0.00  0.00    +0.225 C 
ATOM     21  O   LIG    1       23.970 -18.204   3.325  0.00  0.00    -0.336 OA
BRANCH  18  22
ATOM     22  O   LIG    1       23.390 -21.264   3.222  0.00  0.00    -0.386 OA
ATOM     23  H   LIG    1       24.129 -21.176   2.579  0.00  0.00    +0.210 HD
ENDBRANCH  18  22
BRANCH  19  24
ATOM     24  O   LIG    1       25.418 -19.762   5.818  0.00  0.00    -0.384 OA
ATOM     25  H   LIG    1       25.778 -20.606   6.174  0.00  0.00    +0.210 HD
ENDBRANCH  19  24
BRANCH  17  26
ATOM     26  C   LIG    1       22.501 -18.261   5.259  0.00  0.00    +0.190 C 
BRANCH  26  27
ATOM     27  O   LIG    1       22.359 -16.863   5.027  0.00  0.00    -0.392 OA
ATOM     28  H   LIG    1       21.386 -16.697   4.935  0.00  0.00    +0.209 HD
ENDBRANCH  26  27
ENDBRANCH  17  26
BRANCH  20  29
ATOM     29  C   LIG    1       25.838 -19.131   2.132  0.00  0.00    +0.223 C 
BRANCH  29  30
ATOM     30  O   LIG    1       25.698 -20.520   1.812  0.00  0.00    -0.390 OA
ATOM     31  H   LIG    1       26.398 -20.703   1.157  0.00  0.00    +0.210 HD
ENDBRANCH  29  30
ENDBRANCH  20  29
ENDBRANCH   1  20
TORSDOF 13
ENDMDL
MODEL 7
REMARK VINA RESULT:       0.4      1.645      5.876
REMARK  Name = *****
REMARK                            x       y       z     vdW  Elec       q    Type
REMARK                         _______ _______ _______ _____ _____    ______ ____
ROOT
ATOM      1  O   LIG    1       23.916 -15.207   4.503  0.00  0.00    -0.312 OA
ENDROOT
BRANCH   1   2
ATOM      2  C   LIG    1       23.492 -16.481   3.997  0.00  0.00    +0.285 C 
ATOM      3  C   LIG    1       22.046 -16.686   4.501  0.00  0.00    +0.201 C 
ATOM      4  C   LIG    1       21.527 -18.088   4.151  0.00  0.00    +0.179 C 
ATOM      5  C   LIG    1       22.529 -19.169   4.590  0.00  0.00    +0.177 C 
ATOM      6  C   LIG    1       23.978 -18.850   4.184  0.00  0.00    +0.178 C 
ATOM      7  O   LIG    1       24.331 -17.503   4.522  0.00  0.00    -0.340 OA
BRANCH   3   8
ATOM      8  O   LIG    1       22.042 -16.535   5.942  0.00  0.00    -0.384 OA
ATOM      9  H   LIG    1       21.623 -15.661   6.094  0.00  0.00    +0.210 HD
ENDBRANCH   3   8
BRANCH   4  10
ATOM     10  O   LIG    1       21.194 -18.193   2.765  0.00  0.00    -0.386 OA
ATOM     11  H   LIG    1       21.606 -19.001   2.397  0.00  0.00    +0.210 HD
ENDBRANCH   4  10
BRANCH   5  12
ATOM     12  O   LIG    1       22.502 -19.284   6.027  0.00  0.00    -0.387 OA
ATOM     13  H   LIG    1       22.449 -20.242   6.234  0.00  0.00    +0.210 HD
ENDBRANCH   5  12
BRANCH   6  14
ATOM     14  C   LIG    1       24.349 -19.204   2.733  0.00  0.00    +0.190 C 
BRANCH  14  15
ATOM     15  O   LIG    1       25.684 -19.682   2.605  0.00  0.00    -0.392 OA
ATOM     16  H   LIG    1       25.733 -20.518   3.116  0.00  0.00    +0.209 HD
ENDBRANCH  14  15
ENDBRANCH   6  14
ENDBRANCH   1   2
BRANCH   1  20
ATOM     17  C   LIG    1       26.943 -15.006   3.098  0.00  0.00    +0.178 C 
ATOM     18  C   LIG    1       27.006 -13.581   3.636  0.00  0.00    +0.179 C 
ATOM     19  C   LIG    1       25.682 -13.418   4.373  0.00  0.00    +0.207 C 
ATOM     20  C   LIG    1       24.720 -14.390   3.637  0.00  0.00    +0.225 C 
ATOM     21  O   LIG    1       25.554 -15.316   2.886  0.00  0.00    -0.336 OA
BRANCH  18  22
ATOM     22  O   LIG    1       27.136 -12.651   2.553  0.00  0.00    -0.386 OA
ATOM     23  H   LIG    1       26.788 -13.084   1.742  0.00  0.00    +0.210 HD
ENDBRANCH  18  22
BRANCH  19  24
ATOM     24  O   LIG    1       25.870 -13.766   5.756  0.00  0.00    -0.384 OA
ATOM     25  H   LIG    1       25.159 -14.412   5.969  0.00  0.00    +0.210 HD
ENDBRANCH  19  24
BRANCH  17  26
ATOM     26  C   LIG    1       27.564 -16.055   4.033  0.00  0.00    +0.190 C 
BRANCH  26  27
ATOM     27  O   LIG    1       27.165 -17.378   3.690  0.00  0.00    -0.392 OA
ATOM     28  H   LIG    1       27.619 -17.977   4.336  0.00  0.00    +0.209 HD
ENDBRANCH  26  27
ENDBRANCH  17  26
BRANCH  20  29
ATOM     29  C   LIG    1       23.858 -13.643   2.578  0.00  0.00    +0.223 C 
BRANCH  29  30
ATOM     30  O   LIG    1       23.957 -12.216   2.657  0.00  0.00    -0.390 OA
ATOM     31  H   LIG    1       23.350 -11.957   3.376  0.00  0.00    +0.210 HD
ENDBRANCH  29  30
ENDBRANCH  20  29
ENDBRANCH   1  20
TORSDOF 13
ENDMDL
