MODEL 1
REMARK VINA RESULT:      11.0      0.000      0.000
REMARK  Name = *****
REMARK                            x       y       z     vdW  Elec       q    Type
REMARK                         _______ _______ _______ _____ _____    ______ ____
ROOT
ATOM      1  C   LIG    1       24.870 -16.565   2.884  0.00  0.00    +0.177 C 
ENDROOT
BRANCH   1   2
ATOM      2  O   LIG    1       23.862 -15.558   3.065  0.00  0.00    -0.387 OA
ATOM      3  H   LIG    1       23.445 -15.750   3.929  0.00  0.00    +0.210 HD
ENDBRANCH   1   2
BRANCH   1   4
ATOM      4  C   LIG    1       24.217 -17.970   2.961  0.00  0.00    +0.186 C 
BRANCH   4   5
ATOM      5  C   LIG    1       23.145 -18.021   4.047  0.00  0.00    +0.259 C 
ATOM      6  F   LIG    1       23.623 -18.715   5.123  0.00  0.00    -0.235 F 
BRANCH   5   8
ATOM      7  O   LIG    1       22.728 -15.657   3.671  0.00  0.00    -0.298 OA
ATOM      8  C   LIG    1       22.749 -16.610   4.436  0.00  0.00    +0.262 C 
ENDBRANCH   5   8
ENDBRANCH   4   5
BRANCH   4   9
ATOM      9  O   LIG    1       25.206 -18.976   3.237  0.00  0.00    -0.386 OA
ATOM     10  H   LIG    1       25.967 -18.519   3.659  0.00  0.00    +0.210 HD
ENDBRANCH   4   9
ENDBRANCH   1   4
BRANCH   1  11
ATOM     11  C   LIG    1       25.986 -16.365   3.933  0.00  0.00    +0.171 C 
BRANCH  11  12
ATOM     12  O   LIG    1       26.327 -17.629   4.533  0.00  0.00    -0.387 OA
ATOM     13  H   LIG    1       25.813 -18.294   4.026  0.00  0.00    +0.210 HD
ENDBRANCH  11  12
BRANCH  11  14
ATOM     14  C   LIG    1       25.569 -15.371   5.031  0.00  0.00    +0.190 C 
BRANCH  14  15
ATOM     15  O   LIG    1       24.140 -15.327   5.101  0.00  0.00    -0.392 OA
ATOM     16  H   LIG    1       23.903 -15.501   6.031  0.00  0.00    +0.209 HD
ENDBRANCH  14  15
ENDBRANCH  11  14
ENDBRANCH   1  11
TORSDOF 9
ENDMDL
MODEL 2
REMARK VINA RESULT:      13.5      1.713      2.977
REMARK  Name = *****
REMARK                            x       y       z     vdW  Elec       q    Type
REMARK                         _______ _______ _______ _____ _____    ______ ____
ROOT
ATOM      1  C   LIG    1       25.184 -17.481   4.982  0.00  0.00    +0.177 C 
ENDROOT
BRANCH   1   2
ATOM      2  O   LIG    1       24.567 -18.771   4.847  0.00  0.00    -0.387 OA
ATOM      3  H   LIG    1       23.966 -18.700   4.077  0.00  0.00    +0.210 HD
ENDBRANCH   1   2
BRANCH   1   4
ATOM      4  C   LIG    1       24.116 -16.374   4.779  0.00  0.00    +0.186 C 
BRANCH   4   5
ATOM      5  C   LIG    1       22.802 -16.962   4.267  0.00  0.00    +0.259 C 
ATOM      6  F   LIG    1       22.725 -16.790   2.914  0.00  0.00    -0.235 F 
BRANCH   5   8
ATOM      7  O   LIG    1       23.643 -19.074   5.125  0.00  0.00    -0.298 OA
ATOM      8  C   LIG    1       22.725 -18.430   4.639  0.00  0.00    +0.262 C 
ENDBRANCH   5   8
ENDBRANCH   4   5
BRANCH   4   9
ATOM      9  O   LIG    1       24.579 -15.387   3.841  0.00  0.00    -0.386 OA
ATOM     10  H   LIG    1       24.367 -15.726   2.944  0.00  0.00    +0.210 HD
ENDBRANCH   4   9
ENDBRANCH   1   4
BRANCH   1  11
ATOM     11  C   LIG    1       26.359 -17.370   3.986  0.00  0.00    +0.171 C 
BRANCH  11  12
ATOM     12  O   LIG    1       26.349 -16.074   3.359  0.00  0.00    -0.387 OA
ATOM     13  H   LIG    1       26.622 -16.241   2.431  0.00  0.00    +0.210 HD
ENDBRANCH  11  12
BRANCH  11  14
ATOM     14  C   LIG    1       26.300 -18.463   2.905  0.00  0.00    +0.190 C 
BRANCH  14  15
ATOM     15  O   LIG    1       24.982 -19.019   2.877  0.00  0.00    -0.392 OA
ATOM     16  H   LIG    1       24.407 -18.395   3.359  0.00  0.00    +0.209 HD
ENDBRANCH  14  15
ENDBRANCH  11  14
ENDBRANCH   1  11
TORSDOF 9
ENDMDL
