MODEL 1
REMARK VINA RESULT:     -10.2      0.000      0.000
REMARK  Name = *****
REMARK                            x       y       z     vdW  Elec       q    Type
REMARK                         _______ _______ _______ _____ _____    ______ ____
ROOT
ATOM      1  C   LIG    1       26.608 -21.734   7.241  0.00  0.00    -0.017 C 
ATOM      2  C   LIG    1       25.633 -22.127   6.391  0.00  0.00    -0.014 C 
ATOM      3  C   LIG    1       25.251 -23.564   6.382  0.00  0.00    -0.014 A 
ATOM      4  C   LIG    1       23.921 -24.003   6.556  0.00  0.00    -0.039 A 
ATOM      5  C   LIG    1       23.654 -25.388   6.490  0.00  0.00    +0.004 A 
ATOM      6  C   LIG    1       24.668 -26.318   6.262  0.00  0.00    +0.000 A 
ATOM      7  C   LIG    1       25.974 -25.883   6.086  0.00  0.00    +0.001 A 
ATOM      8  C   LIG    1       22.710 -23.108   6.765  0.00  0.00    +0.040 C 
ATOM      9  C   LIG    1       22.902 -21.628   7.113  0.00  0.00    +0.040 C 
ATOM     10  C   LIG    1       23.540 -20.850   5.989  0.00  0.00    -0.039 A 
ATOM     11  C   LIG    1       22.821 -19.874   5.288  0.00  0.00    +0.004 A 
ATOM     12  C   LIG    1       23.421 -19.173   4.240  0.00  0.00    +0.000 A 
ATOM     13  C   LIG    1       24.736 -19.449   3.875  0.00  0.00    +0.001 A 
ATOM     14  C   LIG    1       25.459 -20.424   4.562  0.00  0.00    +0.009 A 
ATOM     15  C   LIG    1       26.260 -24.519   6.141  0.00  0.00    +0.009 A 
ATOM     16  C   LIG    1       24.873 -21.113   5.630  0.00  0.00    -0.014 A 
ENDROOT
BRANCH   1  17
ATOM     17  C   LIG    1       27.099 -20.331   7.508  0.00  0.00    +0.043 C 
BRANCH  17  18
ATOM     18  C   LIG    1       28.402 -19.988   6.766  0.00  0.00    +0.085 C 
BRANCH  18  20
ATOM     19  C   LIG    1       30.260 -20.692   8.126  0.00  0.00    +0.101 C 
ATOM     20  N   LIG    1       29.434 -21.011   6.969  0.00  0.00    -0.319 NA
ATOM     21  H   LIG    1       28.977 -21.909   7.127  0.00  0.00    +0.122 HD
ENDBRANCH  18  20
ENDBRANCH  17  18
ENDBRANCH   1  17
TORSDOF 3
ENDMDL
MODEL 2
REMARK VINA RESULT:      -8.6      2.140      5.243
REMARK  Name = *****
REMARK                            x       y       z     vdW  Elec       q    Type
REMARK                         _______ _______ _______ _____ _____    ______ ____
ROOT
ATOM      1  C   LIG    1       25.606 -19.976   4.552  0.00  0.00    -0.017 C 
ATOM      2  C   LIG    1       25.984 -20.789   5.565  0.00  0.00    -0.014 C 
ATOM      3  C   LIG    1       27.157 -20.384   6.385  0.00  0.00    -0.014 A 
ATOM      4  C   LIG    1       27.107 -20.282   7.791  0.00  0.00    -0.039 A 
ATOM      5  C   LIG    1       28.286 -19.929   8.484  0.00  0.00    +0.004 A 
ATOM      6  C   LIG    1       29.483 -19.681   7.811  0.00  0.00    +0.000 A 
ATOM      7  C   LIG    1       29.530 -19.789   6.428  0.00  0.00    +0.001 A 
ATOM      8  C   LIG    1       25.893 -20.566   8.661  0.00  0.00    +0.040 C 
ATOM      9  C   LIG    1       24.506 -20.698   8.021  0.00  0.00    +0.040 C 
ATOM     10  C   LIG    1       24.401 -21.904   7.121  0.00  0.00    -0.039 A 
ATOM     11  C   LIG    1       23.580 -22.988   7.459  0.00  0.00    +0.004 A 
ATOM     12  C   LIG    1       23.504 -24.103   6.622  0.00  0.00    +0.000 A 
ATOM     13  C   LIG    1       24.254 -24.151   5.449  0.00  0.00    +0.001 A 
ATOM     14  C   LIG    1       25.078 -23.080   5.107  0.00  0.00    +0.009 A 
ATOM     15  C   LIG    1       28.379 -20.141   5.724  0.00  0.00    +0.009 A 
ATOM     16  C   LIG    1       25.141 -21.948   5.927  0.00  0.00    -0.014 A 
ENDROOT
BRANCH   1  17
ATOM     17  C   LIG    1       24.402 -20.114   3.651  0.00  0.00    +0.043 C 
BRANCH  17  18
ATOM     18  C   LIG    1       23.313 -19.063   3.921  0.00  0.00    +0.085 C 
BRANCH  18  20
ATOM     19  C   LIG    1       21.923 -20.794   4.854  0.00  0.00    +0.101 C 
ATOM     20  N   LIG    1       22.446 -19.447   5.041  0.00  0.00    -0.319 NA
ATOM     21  H   LIG    1       22.994 -19.421   5.901  0.00  0.00    +0.122 HD
ENDBRANCH  18  20
ENDBRANCH  17  18
ENDBRANCH   1  17
TORSDOF 3
ENDMDL
MODEL 3
REMARK VINA RESULT:      -8.3      1.992      5.187
REMARK  Name = *****
REMARK                            x       y       z     vdW  Elec       q    Type
REMARK                         _______ _______ _______ _____ _____    ______ ____
ROOT
ATOM      1  C   LIG    1       26.599 -22.938   6.954  0.00  0.00    -0.017 C 
ATOM      2  C   LIG    1       26.466 -21.596   6.850  0.00  0.00    -0.014 C 
ATOM      3  C   LIG    1       27.702 -20.769   6.870  0.00  0.00    -0.014 A 
ATOM      4  C   LIG    1       28.011 -19.832   5.861  0.00  0.00    -0.039 A 
ATOM      5  C   LIG    1       29.189 -19.064   5.992  0.00  0.00    +0.004 A 
ATOM      6  C   LIG    1       30.043 -19.216   7.084  0.00  0.00    +0.000 A 
ATOM      7  C   LIG    1       29.733 -20.134   8.077  0.00  0.00    +0.001 A 
ATOM      8  C   LIG    1       27.156 -19.524   4.642  0.00  0.00    +0.040 C 
ATOM      9  C   LIG    1       26.006 -20.461   4.256  0.00  0.00    +0.040 C 
ATOM     10  C   LIG    1       24.902 -20.470   5.284  0.00  0.00    -0.039 A 
ATOM     11  C   LIG    1       23.640 -19.936   4.991  0.00  0.00    +0.004 A 
ATOM     12  C   LIG    1       22.632 -19.938   5.958  0.00  0.00    +0.000 A 
ATOM     13  C   LIG    1       22.878 -20.459   7.226  0.00  0.00    +0.001 A 
ATOM     14  C   LIG    1       24.133 -20.987   7.528  0.00  0.00    +0.009 A 
ATOM     15  C   LIG    1       28.572 -20.899   7.971  0.00  0.00    +0.009 A 
ATOM     16  C   LIG    1       25.140 -21.012   6.557  0.00  0.00    -0.014 A 
ENDROOT
BRANCH   1  17
ATOM     17  C   LIG    1       25.517 -23.989   6.858  0.00  0.00    +0.043 C 
BRANCH  17  18
ATOM     18  C   LIG    1       25.208 -24.418   5.414  0.00  0.00    +0.085 C 
BRANCH  18  20
ATOM     19  C   LIG    1       24.373 -26.583   6.060  0.00  0.00    +0.101 C 
ATOM     20  N   LIG    1       24.073 -25.347   5.350  0.00  0.00    -0.319 NA
ATOM     21  H   LIG    1       23.264 -24.903   5.784  0.00  0.00    +0.122 HD
ENDBRANCH  18  20
ENDBRANCH  17  18
ENDBRANCH   1  17
TORSDOF 3
ENDMDL
