MODEL 1
REMARK VINA RESULT:      -3.8      0.000      0.000
REMARK  Name = *****
REMARK                            x       y       z     vdW  Elec       q    Type
REMARK                         _______ _______ _______ _____ _____    ______ ____
ROOT
ATOM      1  C   LIG    1       25.592 -15.616   3.429  0.00  0.00    +0.080 C 
ATOM      2  C   LIG    1       25.573 -17.149   3.319  0.00  0.00    +0.097 C 
ATOM      3  C   LIG    1       24.218 -17.776   3.741  0.00  0.00    +0.065 C 
ATOM      4  C   LIG    1       23.231 -17.020   4.285  0.00  0.00    +0.016 C 
ATOM      5  C   LIG    1       21.912 -17.525   4.823  0.00  0.00    +0.061 C 
ATOM      6  N   LIG    1       23.400 -15.654   4.370  0.00  0.00    -0.309 N 
ATOM      7  H   LIG    1       22.665 -15.109   4.820  0.00  0.00    +0.152 HD
ATOM      8  C   LIG    1       24.524 -14.977   3.948  0.00  0.00    +0.120 C 
ENDROOT
BRANCH   2   9
ATOM      9  C   LIG    1       26.725 -17.787   4.128  0.00  0.00    -0.029 A 
ATOM     10  C   LIG    1       26.543 -19.030   4.768  0.00  0.00    +0.088 A 
ATOM     11  C   LIG    1       27.575 -19.585   5.543  0.00  0.00    +0.273 A 
ATOM     12  C   LIG    1       28.812 -18.937   5.652  0.00  0.00    +0.084 A 
ATOM     13  C   LIG    1       29.010 -17.726   4.990  0.00  0.00    +0.007 A 
ATOM     14  C   LIG    1       27.976 -17.151   4.244  0.00  0.00    +0.005 A 
BRANCH  11  15
ATOM     15  N   LIG    1       27.348 -20.832   6.287  0.00  0.00    +0.080 N 
ATOM     16  O   LIG    1       26.226 -21.356   6.214  0.00  0.00    -0.576 OA
ATOM     17  O   LIG    1       28.285 -21.279   6.965  0.00  0.00    +0.041 OA
ENDBRANCH  11  15
ENDBRANCH   2   9
BRANCH   1  18
ATOM     18  C   LIG    1       26.837 -14.909   3.025  0.00  0.00    +0.338 C 
ATOM     19  O   LIG    1       27.091 -14.595   1.861  0.00  0.00    -0.245 OA
BRANCH  18  21
ATOM     20  C   LIG    1       28.316 -13.359   4.055  0.00  0.00    +0.280 C 
ATOM     21  O   LIG    1       27.603 -14.600   4.077  0.00  0.00    -0.465 OA
ENDBRANCH  18  21
ENDBRANCH   1  18
BRANCH   3  22
ATOM     22  C   LIG    1       24.081 -19.227   3.444  0.00  0.00    +0.338 C 
ATOM     23  O   LIG    1       24.945 -19.856   2.846  0.00  0.00    -0.245 OA
BRANCH  22  24
ATOM     24  O   LIG    1       22.930 -19.742   3.934  0.00  0.00    -0.459 OA
BRANCH  24  25
ATOM     25  C   LIG    1       23.033 -20.855   4.842  0.00  0.00    +0.171 C 
ATOM     26  C   LIG    1       21.683 -21.571   4.860  0.00  0.00    +0.051 C 
ATOM     27  C   LIG    1       23.364 -20.332   6.234  0.00  0.00    +0.051 C 
ENDBRANCH  24  25
ENDBRANCH  22  24
ENDBRANCH   3  22
BRANCH   8  28
ATOM     28  C   LIG    1       24.543 -13.641   4.388  0.00  0.00    +0.115 C 
ATOM     29  N   LIG    1       24.559 -12.549   4.748  0.00  0.00    -0.190 NA
ENDBRANCH   8  28
TORSDOF 8
ENDMDL
MODEL 2
REMARK VINA RESULT:      -2.3      2.062      6.198
REMARK  Name = *****
REMARK                            x       y       z     vdW  Elec       q    Type
REMARK                         _______ _______ _______ _____ _____    ______ ____
ROOT
ATOM      1  C   LIG    1       26.670 -17.648   3.753  0.00  0.00    +0.080 C 
ATOM      2  C   LIG    1       25.778 -16.476   3.314  0.00  0.00    +0.097 C 
ATOM      3  C   LIG    1       26.406 -15.087   3.602  0.00  0.00    +0.065 C 
ATOM      4  C   LIG    1       27.562 -14.968   4.304  0.00  0.00    +0.016 C 
ATOM      5  C   LIG    1       28.218 -13.676   4.730  0.00  0.00    +0.061 C 
ATOM      6  N   LIG    1       28.239 -16.108   4.682  0.00  0.00    -0.309 N 
ATOM      7  H   LIG    1       29.082 -15.998   5.244  0.00  0.00    +0.152 HD
ATOM      8  C   LIG    1       27.822 -17.392   4.407  0.00  0.00    +0.120 C 
ENDROOT
BRANCH   2   9
ATOM      9  C   LIG    1       24.375 -16.564   3.957  0.00  0.00    -0.029 A 
ATOM     10  C   LIG    1       23.640 -17.766   3.901  0.00  0.00    +0.088 A 
ATOM     11  C   LIG    1       22.346 -17.829   4.444  0.00  0.00    +0.273 A 
ATOM     12  C   LIG    1       21.787 -16.718   5.087  0.00  0.00    +0.084 A 
ATOM     13  C   LIG    1       22.525 -15.539   5.178  0.00  0.00    +0.007 A 
ATOM     14  C   LIG    1       23.801 -15.458   4.612  0.00  0.00    +0.005 A 
BRANCH  11  15
ATOM     15  N   LIG    1       21.545 -19.054   4.297  0.00  0.00    +0.080 N 
ATOM     16  O   LIG    1       21.971 -20.093   4.824  0.00  0.00    -0.576 OA
ATOM     17  O   LIG    1       20.499 -18.984   3.635  0.00  0.00    +0.041 OA
ENDBRANCH  11  15
ENDBRANCH   2   9
BRANCH   1  18
ATOM     18  C   LIG    1       26.174 -19.027   3.502  0.00  0.00    +0.338 C 
ATOM     19  O   LIG    1       25.984 -19.484   2.374  0.00  0.00    -0.245 OA
BRANCH  18  21
ATOM     20  C   LIG    1       25.153 -20.854   4.628  0.00  0.00    +0.280 C 
ATOM     21  O   LIG    1       26.029 -19.724   4.635  0.00  0.00    -0.465 OA
ENDBRANCH  18  21
ENDBRANCH   1  18
BRANCH   3  22
ATOM     22  C   LIG    1       25.682 -13.936   2.999  0.00  0.00    +0.338 C 
ATOM     23  O   LIG    1       25.381 -13.902   1.812  0.00  0.00    -0.245 OA
BRANCH  22  24
ATOM     24  O   LIG    1       25.387 -12.984   3.913  0.00  0.00    -0.459 OA
BRANCH  24  25
ATOM     25  C   LIG    1       24.092 -12.357   3.825  0.00  0.00    +0.171 C 
ATOM     26  C   LIG    1       24.096 -11.447   2.597  0.00  0.00    +0.051 C 
ATOM     27  C   LIG    1       23.853 -11.532   5.083  0.00  0.00    +0.051 C 
ENDBRANCH  24  25
ENDBRANCH  22  24
ENDBRANCH   3  22
BRANCH   8  28
ATOM     28  C   LIG    1       28.550 -18.359   5.126  0.00  0.00    +0.115 C 
ATOM     29  N   LIG    1       29.145 -19.148   5.713  0.00  0.00    -0.190 NA
ENDBRANCH   8  28
TORSDOF 8
ENDMDL
MODEL 3
REMARK VINA RESULT:      -1.5      1.933      6.951
REMARK  Name = *****
REMARK                            x       y       z     vdW  Elec       q    Type
REMARK                         _______ _______ _______ _____ _____    ______ ____
ROOT
ATOM      1  C   LIG    1       24.972 -18.652   3.728  0.00  0.00    +0.080 C 
ATOM      2  C   LIG    1       25.312 -17.204   3.341  0.00  0.00    +0.097 C 
ATOM      3  C   LIG    1       26.772 -16.806   3.683  0.00  0.00    +0.065 C 
ATOM      4  C   LIG    1       27.584 -17.638   4.385  0.00  0.00    +0.016 C 
ATOM      5  C   LIG    1       28.983 -17.327   4.861  0.00  0.00    +0.061 C 
ATOM      6  N   LIG    1       27.132 -18.898   4.712  0.00  0.00    -0.309 N 
ATOM      7  H   LIG    1       27.740 -19.492   5.275  0.00  0.00    +0.152 HD
ATOM      8  C   LIG    1       25.887 -19.393   4.387  0.00  0.00    +0.120 C 
ENDROOT
BRANCH   2   9
ATOM      9  C   LIG    1       24.327 -16.202   3.986  0.00  0.00    -0.029 A 
ATOM     10  C   LIG    1       24.505 -14.815   3.810  0.00  0.00    +0.088 A 
ATOM     11  C   LIG    1       23.637 -13.906   4.437  0.00  0.00    +0.273 A 
ATOM     12  C   LIG    1       22.558 -14.362   5.204  0.00  0.00    +0.084 A 
ATOM     13  C   LIG    1       22.355 -15.734   5.349  0.00  0.00    +0.007 A 
ATOM     14  C   LIG    1       23.235 -16.645   4.756  0.00  0.00    +0.005 A 
BRANCH  11  15
ATOM     15  N   LIG    1       23.884 -12.460   4.331  0.00  0.00    +0.080 N 
ATOM     16  O   LIG    1       23.843 -11.785   5.371  0.00  0.00    -0.576 OA
ATOM     17  O   LIG    1       24.098 -11.992   3.202  0.00  0.00    +0.041 OA
ENDBRANCH  11  15
ENDBRANCH   2   9
BRANCH   1  18
ATOM     18  C   LIG    1       23.603 -19.147   3.422  0.00  0.00    +0.338 C 
ATOM     19  O   LIG    1       23.261 -19.550   2.310  0.00  0.00    -0.245 OA
BRANCH  18  21
ATOM     20  C   LIG    1       22.101 -20.364   4.804  0.00  0.00    +0.280 C 
ATOM     21  O   LIG    1       22.821 -19.164   4.507  0.00  0.00    -0.465 OA
ENDBRANCH  18  21
ENDBRANCH   1  18
BRANCH   3  22
ATOM     22  C   LIG    1       27.208 -15.496   3.132  0.00  0.00    +0.338 C 
ATOM     23  O   LIG    1       26.862 -15.104   2.024  0.00  0.00    -0.245 OA
BRANCH  22  24
ATOM     24  O   LIG    1       27.986 -14.809   4.000  0.00  0.00    -0.459 OA
BRANCH  24  25
ATOM     25  C   LIG    1       27.625 -13.442   4.277  0.00  0.00    +0.171 C 
ATOM     26  C   LIG    1       28.870 -12.579   4.072  0.00  0.00    +0.051 C 
ATOM     27  C   LIG    1       27.150 -13.336   5.721  0.00  0.00    +0.051 C 
ENDBRANCH  24  25
ENDBRANCH  22  24
ENDBRANCH   3  22
BRANCH   8  28
ATOM     28  C   LIG    1       25.591 -20.591   5.062  0.00  0.00    +0.115 C 
ATOM     29  N   LIG    1       25.349 -21.571   5.614  0.00  0.00    -0.190 NA
ENDBRANCH   8  28
TORSDOF 8
ENDMDL
