@<TRIPOS>MOLECULE
MOL
   48    50     1     0     0
SMALL
resp


@<TRIPOS>ATOM
      1 O1          -1.4470     4.4540    -1.2520 oh         1 MOL      -0.464391
      2 C1          -0.7940     2.5030     0.0380 c3         1 MOL      -0.298736
      3 C2          -1.2860     1.5570    -1.0750 c2         1 MOL       0.557019
      4 C3          -2.3300    -0.7820    -0.3240 c3         1 MOL       0.493586
      5 C4          -1.9010    -1.9750     0.4660 c3         1 MOL      -0.233421
      6 C5          -3.1960    -2.4580     1.1840 c3         1 MOL       0.177383
      7 C6          -4.4390    -2.2170     0.2590 c3         1 MOL      -0.066125
      8 N1          -4.0290    -2.5000    -1.0830 n3         1 MOL      -0.620234
      9 C7          -3.1780    -1.3470    -1.5230 c3         1 MOL      -0.061946
     10 C8           0.3960     1.8500     0.7680 ca         1 MOL       0.278795
     11 C9           0.6250     2.1290     2.1240 ca         1 MOL      -0.230288
     12 C10          1.7080     1.5340     2.7870 ca         1 MOL      -0.059926
     13 C11          2.5570     0.6590     2.0960 ca         1 MOL      -0.141621
     14 C12          2.3260     0.3780     0.7430 cp         1 MOL       0.059250
     15 C13          3.2570    -0.5910    -0.0120 cq         1 MOL       0.067398
     16 C14          3.0350    -0.8720    -1.3690 ca         1 MOL      -0.118201
     17 C15          3.8910    -1.7480    -2.0540 ca         1 MOL      -0.057179
     18 C16          4.9660    -2.3470    -1.3820 ca         1 MOL      -0.095045
     19 C17          5.1840    -2.0710    -0.0230 ca         1 MOL      -0.057179
     20 C18          4.3280    -1.1930     0.6630 ca         1 MOL      -0.118201
     21 C19          1.2470     0.9750     0.0740 ca         1 MOL      -0.243906
     22 C20         -0.3430     3.8470    -0.5730 c3         1 MOL       0.122334
     23 C21         -1.1540     0.0310    -0.8930 c1         1 MOL      -0.487126
     24 O2          -1.7940     2.0260    -2.1270 o          1 MOL      -0.316172
     25 O3          -3.4510    -1.7230     2.3950 oh         1 MOL      -0.476208
     26 H1          -2.1610     4.6110    -0.6290 ho         1 MOL       0.308697
     27 H2          -1.5890     2.6830     0.7340 hc         1 MOL       0.086723
     28 H3          -2.9130    -0.1570     0.3270 hc         1 MOL      -0.049147
     29 H4          -1.1470    -1.7730     1.2020 hc         1 MOL       0.078764
     30 H5          -1.5230    -2.6990    -0.2340 hc         1 MOL       0.078764
     31 H6          -3.0470    -3.4970     1.4150 h1         1 MOL       0.042045
     32 H7          -4.7470    -1.1920     0.2830 h1         1 MOL       0.091620
     33 H8          -5.2480    -2.8350     0.5930 h1         1 MOL       0.091620
     34 H9          -3.5150    -3.3640    -1.0590 hn         1 MOL       0.320049
     35 H10         -3.7800    -0.5370    -1.8940 h1         1 MOL       0.094967
     36 H11         -2.5420    -1.7170    -2.3050 h1         1 MOL       0.094967
     37 H12         -0.0230     2.7940     2.6520 ha         1 MOL       0.111782
     38 H13          1.8860     1.7460     3.8210 ha         1 MOL       0.080049
     39 H14          3.3830     0.2060     2.6040 ha         1 MOL       0.099938
     40 H15          2.2140    -0.4180    -1.8840 ha         1 MOL       0.073811
     41 H16          3.7230    -1.9620    -3.0920 ha         1 MOL       0.073976
     42 H17          5.6190    -3.0130    -1.9070 ha         1 MOL       0.076057
     43 H18          6.0030    -2.5320     0.4920 ha         1 MOL       0.073976
     44 H19          4.4920    -0.9800     1.7010 ha         1 MOL       0.073811
     45 H20          1.0760     0.7640    -0.9630 ha         1 MOL       0.120308
     46 H21         -0.0040     4.4970     0.2070 h1         1 MOL       0.037793
     47 H22          0.4500     3.6750    -1.2660 h1         1 MOL       0.037793
     48 H23         -4.2500    -2.0440     2.8150 ho         1 MOL       0.291776
@<TRIPOS>BOND
     1     1    22 1   
     2     1    26 1   
     3     2     3 1   
     4     2    10 1   
     5     2    22 1   
     6     2    27 1   
     7     3    23 1   
     8     3    24 1   
     9     4     5 1   
    10     4     9 1   
    11     4    23 1   
    12     4    28 1   
    13     5     6 1   
    14     5    29 1   
    15     5    30 1   
    16     6     7 1   
    17     6    25 1   
    18     6    31 1   
    19     7     8 1   
    20     7    32 1   
    21     7    33 1   
    22     8     9 1   
    23     8    34 1   
    24     9    35 1   
    25     9    36 1   
    26    10    11 1   
    27    10    21 1   
    28    11    12 1   
    29    11    37 1   
    30    12    13 1   
    31    12    38 1   
    32    13    14 1   
    33    13    39 1   
    34    14    15 1   
    35    14    21 1   
    36    15    16 1   
    37    15    20 1   
    38    16    17 1   
    39    16    40 1   
    40    17    18 1   
    41    17    41 1   
    42    18    19 1   
    43    18    42 1   
    44    19    20 1   
    45    19    43 1   
    46    20    44 1   
    47    21    45 1   
    48    22    46 1   
    49    22    47 1   
    50    25    48 1   
@<TRIPOS>SUBSTRUCTURE
     1 MOL         1 TEMP              0 ****  ****    0 ROOT
