MODEL 1
REMARK VINA RESULT:      -8.8      0.000      0.000
REMARK  Name = *****
REMARK                            x       y       z     vdW  Elec       q    Type
REMARK                         _______ _______ _______ _____ _____    ______ ____
ROOT
ATOM      1  C   LIG    1       25.704 -21.319   6.622  0.00  0.00    +0.061 C 
ATOM      2  C   LIG    1       26.526 -20.204   5.908  0.00  0.00    +0.054 C 
ATOM      3  C   LIG    1       27.957 -20.014   6.373  0.00  0.00    -0.039 A 
ATOM      4  C   LIG    1       28.459 -20.657   7.517  0.00  0.00    -0.003 A 
ATOM      5  C   LIG    1       29.811 -20.478   7.850  0.00  0.00    +0.120 A 
ATOM      6  C   LIG    1       30.627 -19.605   7.132  0.00  0.00    +0.045 A 
ATOM      7  C   LIG    1       30.108 -18.917   6.042  0.00  0.00    +0.004 A 
ATOM      8  C   LIG    1       27.535 -21.502   8.353  0.00  0.00    +0.041 C 
ATOM      9  C   LIG    1       28.786 -19.133   5.655  0.00  0.00    +0.004 A 
ATOM     10  C   LIG    1       26.050 -21.175   8.124  0.00  0.00    +0.024 C 
ENDROOT
BRANCH   5  11
ATOM     11  O   LIG    1       30.412 -21.135   8.888  0.00  0.00    -0.506 OA
ATOM     12  H   LIG    1       29.793 -21.795   9.238  0.00  0.00    +0.292 HD
ENDBRANCH   5  11
BRANCH   1  13
ATOM     13  N   LIG    1       24.216 -21.297   6.301  0.00  0.00    -0.299 NA
BRANCH  13  14
ATOM     14  C   LIG    1       23.908 -20.239   5.297  0.00  0.00    +0.084 C 
BRANCH  14  16
ATOM     15  C   LIG    1       22.412 -18.506   4.296  0.00  0.00    +0.005 C 
ATOM     16  C   LIG    1       22.503 -19.624   5.332  0.00  0.00    +0.012 C 
ENDBRANCH  14  16
ENDBRANCH  13  14
BRANCH  13  17
ATOM     17  C   LIG    1       23.808 -22.609   5.691  0.00  0.00    +0.090 C 
BRANCH  17  18
ATOM     18  C   LIG    1       23.483 -23.785   6.658  0.00  0.00    +0.058 C 
BRANCH  18  19
ATOM     19  C   LIG    1       24.359 -24.976   6.362  0.00  0.00    -0.009 A 
ATOM     20  S   LIG    1       26.041 -24.920   6.711  0.00  0.00    -0.102 S 
ATOM     21  C   LIG    1       26.280 -26.521   6.165  0.00  0.00    +0.045 A 
ATOM     22  C   LIG    1       25.103 -27.088   5.705  0.00  0.00    +0.008 A 
ATOM     23  C   LIG    1       24.005 -26.187   5.815  0.00  0.00    +0.011 A 
ENDBRANCH  18  19
ENDBRANCH  17  18
ENDBRANCH  13  17
ENDBRANCH   1  13
TORSDOF 7
ENDMDL
MODEL 2
REMARK VINA RESULT:      -8.8      1.253      1.912
REMARK  Name = *****
REMARK                            x       y       z     vdW  Elec       q    Type
REMARK                         _______ _______ _______ _____ _____    ______ ____
ROOT
ATOM      1  C   LIG    1       25.697 -20.658   6.969  0.00  0.00    +0.061 C 
ATOM      2  C   LIG    1       26.931 -21.190   7.758  0.00  0.00    +0.054 C 
ATOM      3  C   LIG    1       28.272 -20.566   7.420  0.00  0.00    -0.039 A 
ATOM      4  C   LIG    1       28.436 -19.709   6.318  0.00  0.00    -0.003 A 
ATOM      5  C   LIG    1       29.695 -19.124   6.105  0.00  0.00    +0.120 A 
ATOM      6  C   LIG    1       30.793 -19.455   6.895  0.00  0.00    +0.045 A 
ATOM      7  C   LIG    1       30.643 -20.357   7.941  0.00  0.00    +0.004 A 
ATOM      8  C   LIG    1       27.271 -19.455   5.401  0.00  0.00    +0.041 C 
ATOM      9  C   LIG    1       29.386 -20.897   8.211  0.00  0.00    +0.004 A 
ATOM     10  C   LIG    1       26.179 -20.533   5.503  0.00  0.00    +0.024 C 
ENDROOT
BRANCH   5  11
ATOM     11  O   LIG    1       29.927 -18.206   5.118  0.00  0.00    -0.506 OA
ATOM     12  H   LIG    1       29.215 -17.547   5.133  0.00  0.00    +0.292 HD
ENDBRANCH   5  11
BRANCH   1  13
ATOM     13  N   LIG    1       24.433 -21.483   7.161  0.00  0.00    -0.299 NA
BRANCH  13  14
ATOM     14  C   LIG    1       23.218 -20.656   6.911  0.00  0.00    +0.084 C 
BRANCH  14  16
ATOM     15  C   LIG    1       22.510 -19.236   4.981  0.00  0.00    +0.005 C 
ATOM     16  C   LIG    1       22.639 -20.670   5.491  0.00  0.00    +0.012 C 
ENDBRANCH  14  16
ENDBRANCH  13  14
BRANCH  13  17
ATOM     17  C   LIG    1       24.405 -22.612   6.168  0.00  0.00    +0.090 C 
BRANCH  17  18
ATOM     18  C   LIG    1       23.648 -23.910   6.571  0.00  0.00    +0.058 C 
BRANCH  18  19
ATOM     19  C   LIG    1       24.474 -25.130   6.251  0.00  0.00    -0.009 A 
ATOM     20  S   LIG    1       26.176 -25.107   6.486  0.00  0.00    -0.102 S 
ATOM     21  C   LIG    1       26.341 -26.728   5.971  0.00  0.00    +0.045 A 
ATOM     22  C   LIG    1       25.123 -27.277   5.607  0.00  0.00    +0.008 A 
ATOM     23  C   LIG    1       24.056 -26.347   5.764  0.00  0.00    +0.011 A 
ENDBRANCH  18  19
ENDBRANCH  17  18
ENDBRANCH  13  17
ENDBRANCH   1  13
TORSDOF 7
ENDMDL
MODEL 3
REMARK VINA RESULT:      -8.2      4.189      8.263
REMARK  Name = *****
REMARK                            x       y       z     vdW  Elec       q    Type
REMARK                         _______ _______ _______ _____ _____    ______ ____
ROOT
ATOM      1  C   LIG    1       28.426 -20.439   7.553  0.00  0.00    +0.061 C 
ATOM      2  C   LIG    1       27.014 -20.466   8.212  0.00  0.00    +0.054 C 
ATOM      3  C   LIG    1       25.829 -20.567   7.270  0.00  0.00    -0.039 A 
ATOM      4  C   LIG    1       25.972 -20.434   5.879  0.00  0.00    -0.003 A 
ATOM      5  C   LIG    1       24.837 -20.599   5.068  0.00  0.00    +0.120 A 
ATOM      6  C   LIG    1       23.571 -20.786   5.620  0.00  0.00    +0.045 A 
ATOM      7  C   LIG    1       23.423 -20.847   7.000  0.00  0.00    +0.004 A 
ATOM      8  C   LIG    1       27.325 -20.111   5.304  0.00  0.00    +0.041 C 
ATOM      9  C   LIG    1       24.547 -20.754   7.819  0.00  0.00    +0.004 A 
ATOM     10  C   LIG    1       28.284 -19.495   6.335  0.00  0.00    +0.024 C 
ENDROOT
BRANCH   5  11
ATOM     11  O   LIG    1       24.894 -20.582   3.702  0.00  0.00    -0.506 OA
ATOM     12  H   LIG    1       24.154 -20.051   3.367  0.00  0.00    +0.292 HD
ENDBRANCH   5  11
BRANCH   1  13
ATOM     13  N   LIG    1       29.553 -20.085   8.514  0.00  0.00    -0.299 NA
BRANCH  13  14
ATOM     14  C   LIG    1       30.864 -20.562   7.988  0.00  0.00    +0.084 C 
BRANCH  14  16
ATOM     15  C   LIG    1       30.674 -22.201   9.864  0.00  0.00    +0.005 C 
ATOM     16  C   LIG    1       31.619 -21.603   8.824  0.00  0.00    +0.012 C 
ENDBRANCH  14  16
ENDBRANCH  13  14
BRANCH  13  17
ATOM     17  C   LIG    1       29.655 -18.591   8.651  0.00  0.00    +0.090 C 
BRANCH  17  18
ATOM     18  C   LIG    1       31.067 -17.949   8.525  0.00  0.00    +0.058 C 
BRANCH  18  19
ATOM     19  C   LIG    1       31.483 -17.317   9.829  0.00  0.00    -0.009 A 
ATOM     20  S   LIG    1       32.786 -16.198   9.871  0.00  0.00    -0.102 S 
ATOM     21  C   LIG    1       32.611 -15.948  11.552  0.00  0.00    +0.045 A 
ATOM     22  C   LIG    1       31.589 -16.718  12.082  0.00  0.00    +0.008 A 
ATOM     23  C   LIG    1       30.951 -17.509  11.083  0.00  0.00    +0.011 A 
ENDBRANCH  18  19
ENDBRANCH  17  18
ENDBRANCH  13  17
ENDBRANCH   1  13
TORSDOF 7
ENDMDL
MODEL 4
REMARK VINA RESULT:      -7.9      1.857      4.527
REMARK  Name = *****
REMARK                            x       y       z     vdW  Elec       q    Type
REMARK                         _______ _______ _______ _____ _____    ______ ____
ROOT
ATOM      1  C   LIG    1       26.249 -21.427   6.671  0.00  0.00    +0.061 C 
ATOM      2  C   LIG    1       27.551 -21.846   7.417  0.00  0.00    +0.054 C 
ATOM      3  C   LIG    1       28.725 -20.890   7.321  0.00  0.00    -0.039 A 
ATOM      4  C   LIG    1       28.720 -19.792   6.443  0.00  0.00    -0.003 A 
ATOM      5  C   LIG    1       29.819 -18.919   6.453  0.00  0.00    +0.120 A 
ATOM      6  C   LIG    1       30.944 -19.176   7.234  0.00  0.00    +0.045 A 
ATOM      7  C   LIG    1       30.975 -20.301   8.049  0.00  0.00    +0.004 A 
ATOM      8  C   LIG    1       27.550 -19.594   5.517  0.00  0.00    +0.041 C 
ATOM      9  C   LIG    1       29.866 -21.144   8.104  0.00  0.00    +0.004 A 
ATOM     10  C   LIG    1       26.727 -20.876   5.305  0.00  0.00    +0.024 C 
ENDROOT
BRANCH   5  11
ATOM     11  O   LIG    1       29.863 -17.774   5.705  0.00  0.00    -0.506 OA
ATOM     12  H   LIG    1       30.777 -17.449   5.689  0.00  0.00    +0.292 HD
ENDBRANCH   5  11
BRANCH   1  13
ATOM     13  N   LIG    1       25.199 -22.526   6.588  0.00  0.00    -0.299 NA
BRANCH  13  14
ATOM     14  C   LIG    1       25.611 -23.712   7.392  0.00  0.00    +0.084 C 
BRANCH  14  16
ATOM     15  C   LIG    1       24.387 -25.581   6.274  0.00  0.00    +0.005 C 
ATOM     16  C   LIG    1       25.767 -25.044   6.649  0.00  0.00    +0.012 C 
ENDBRANCH  14  16
ENDBRANCH  13  14
BRANCH  13  17
ATOM     17  C   LIG    1       23.902 -22.035   7.168  0.00  0.00    +0.090 C 
BRANCH  17  18
ATOM     18  C   LIG    1       22.694 -21.873   6.201  0.00  0.00    +0.058 C 
BRANCH  18  19
ATOM     19  C   LIG    1       22.905 -20.699   5.277  0.00  0.00    -0.009 A 
ATOM     20  S   LIG    1       23.799 -20.892   3.823  0.00  0.00    -0.102 S 
ATOM     21  C   LIG    1       23.568 -19.259   3.380  0.00  0.00    +0.045 A 
ATOM     22  C   LIG    1       22.837 -18.567   4.331  0.00  0.00    +0.008 A 
ATOM     23  C   LIG    1       22.467 -19.403   5.423  0.00  0.00    +0.011 A 
ENDBRANCH  18  19
ENDBRANCH  17  18
ENDBRANCH  13  17
ENDBRANCH   1  13
TORSDOF 7
ENDMDL
MODEL 5
REMARK VINA RESULT:      -7.8      3.616      7.856
REMARK  Name = *****
REMARK                            x       y       z     vdW  Elec       q    Type
REMARK                         _______ _______ _______ _____ _____    ______ ____
ROOT
ATOM      1  C   LIG    1       27.225 -20.898   7.597  0.00  0.00    +0.061 C 
ATOM      2  C   LIG    1       27.233 -22.445   7.412  0.00  0.00    +0.054 C 
ATOM      3  C   LIG    1       25.898 -23.097   7.101  0.00  0.00    -0.039 A 
ATOM      4  C   LIG    1       24.688 -22.387   7.180  0.00  0.00    -0.003 A 
ATOM      5  C   LIG    1       23.500 -23.043   6.821  0.00  0.00    +0.120 A 
ATOM      6  C   LIG    1       23.489 -24.397   6.491  0.00  0.00    +0.045 A 
ATOM      7  C   LIG    1       24.679 -25.114   6.481  0.00  0.00    +0.004 A 
ATOM      8  C   LIG    1       24.700 -20.959   7.655  0.00  0.00    +0.041 C 
ATOM      9  C   LIG    1       25.878 -24.464   6.770  0.00  0.00    +0.004 A 
ATOM     10  C   LIG    1       25.967 -20.600   8.449  0.00  0.00    +0.024 C 
ENDROOT
BRANCH   5  11
ATOM     11  O   LIG    1       22.289 -22.410   6.775  0.00  0.00    -0.506 OA
ATOM     12  H   LIG    1       21.621 -22.987   7.178  0.00  0.00    +0.292 HD
ENDBRANCH   5  11
BRANCH   1  13
ATOM     13  N   LIG    1       28.525 -20.332   8.151  0.00  0.00    -0.299 NA
BRANCH  13  14
ATOM     14  C   LIG    1       29.646 -21.296   7.958  0.00  0.00    +0.084 C 
BRANCH  14  16
ATOM     15  C   LIG    1       31.870 -21.798   8.979  0.00  0.00    +0.005 C 
ATOM     16  C   LIG    1       30.362 -21.803   9.216  0.00  0.00    +0.012 C 
ENDBRANCH  14  16
ENDBRANCH  13  14
BRANCH  13  17
ATOM     17  C   LIG    1       28.894 -19.079   7.406  0.00  0.00    +0.090 C 
BRANCH  17  18
ATOM     18  C   LIG    1       30.380 -18.621   7.455  0.00  0.00    +0.058 C 
BRANCH  18  19
ATOM     19  C   LIG    1       30.689 -17.952   8.771  0.00  0.00    -0.009 A 
ATOM     20  S   LIG    1       32.240 -17.269   9.052  0.00  0.00    -0.102 S 
ATOM     21  C   LIG    1       31.800 -16.733  10.613  0.00  0.00    +0.045 A 
ATOM     22  C   LIG    1       30.497 -17.082  10.928  0.00  0.00    +0.008 A 
ATOM     23  C   LIG    1       29.869 -17.791   9.864  0.00  0.00    +0.011 A 
ENDBRANCH  18  19
ENDBRANCH  17  18
ENDBRANCH  13  17
ENDBRANCH   1  13
TORSDOF 7
ENDMDL
MODEL 6
REMARK VINA RESULT:      -7.8      1.575      4.345
REMARK  Name = *****
REMARK                            x       y       z     vdW  Elec       q    Type
REMARK                         _______ _______ _______ _____ _____    ______ ____
ROOT
ATOM      1  C   LIG    1       26.385 -22.243   6.718  0.00  0.00    +0.061 C 
ATOM      2  C   LIG    1       26.766 -21.009   5.845  0.00  0.00    +0.054 C 
ATOM      3  C   LIG    1       27.946 -20.183   6.321  0.00  0.00    -0.039 A 
ATOM      4  C   LIG    1       28.536 -20.384   7.580  0.00  0.00    -0.003 A 
ATOM      5  C   LIG    1       29.662 -19.619   7.924  0.00  0.00    +0.120 A 
ATOM      6  C   LIG    1       30.135 -18.607   7.092  0.00  0.00    +0.045 A 
ATOM      7  C   LIG    1       29.506 -18.363   5.877  0.00  0.00    +0.004 A 
ATOM      8  C   LIG    1       27.941 -21.398   8.520  0.00  0.00    +0.041 C 
ATOM      9  C   LIG    1       28.428 -19.157   5.487  0.00  0.00    +0.004 A 
ATOM     10  C   LIG    1       26.482 -21.747   8.181  0.00  0.00    +0.024 C 
ENDROOT
BRANCH   5  11
ATOM     11  O   LIG    1       30.360 -19.809   9.085  0.00  0.00    -0.506 OA
ATOM     12  H   LIG    1       29.734 -20.037   9.790  0.00  0.00    +0.292 HD
ENDBRANCH   5  11
BRANCH   1  13
ATOM     13  N   LIG    1       25.054 -22.881   6.343  0.00  0.00    -0.299 NA
BRANCH  13  14
ATOM     14  C   LIG    1       24.993 -24.293   6.819  0.00  0.00    +0.084 C 
BRANCH  14  16
ATOM     15  C   LIG    1       25.886 -26.625   6.906  0.00  0.00    +0.005 C 
ATOM     16  C   LIG    1       25.926 -25.304   6.140  0.00  0.00    +0.012 C 
ENDBRANCH  14  16
ENDBRANCH  13  14
BRANCH  13  17
ATOM     17  C   LIG    1       23.929 -22.145   7.015  0.00  0.00    +0.090 C 
BRANCH  17  18
ATOM     18  C   LIG    1       22.665 -21.826   6.164  0.00  0.00    +0.058 C 
BRANCH  18  19
ATOM     19  C   LIG    1       22.919 -20.652   5.253  0.00  0.00    -0.009 A 
ATOM     20  S   LIG    1       23.930 -20.829   3.875  0.00  0.00    -0.102 S 
ATOM     21  C   LIG    1       23.695 -19.205   3.404  0.00  0.00    +0.045 A 
ATOM     22  C   LIG    1       22.874 -18.527   4.290  0.00  0.00    +0.008 A 
ATOM     23  C   LIG    1       22.439 -19.367   5.355  0.00  0.00    +0.011 A 
ENDBRANCH  18  19
ENDBRANCH  17  18
ENDBRANCH  13  17
ENDBRANCH   1  13
TORSDOF 7
ENDMDL
MODEL 7
REMARK VINA RESULT:      -7.7      4.014      7.892
REMARK  Name = *****
REMARK                            x       y       z     vdW  Elec       q    Type
REMARK                         _______ _______ _______ _____ _____    ______ ____
ROOT
ATOM      1  C   LIG    1       27.796 -20.083   7.876  0.00  0.00    +0.061 C 
ATOM      2  C   LIG    1       27.552 -19.973   6.341  0.00  0.00    +0.054 C 
ATOM      3  C   LIG    1       26.161 -20.326   5.850  0.00  0.00    -0.039 A 
ATOM      4  C   LIG    1       25.204 -20.919   6.690  0.00  0.00    -0.003 A 
ATOM      5  C   LIG    1       23.919 -21.163   6.178  0.00  0.00    +0.120 A 
ATOM      6  C   LIG    1       23.613 -20.925   4.840  0.00  0.00    +0.045 A 
ATOM      7  C   LIG    1       24.584 -20.403   3.993  0.00  0.00    +0.004 A 
ATOM      8  C   LIG    1       25.584 -21.283   8.100  0.00  0.00    +0.041 C 
ATOM      9  C   LIG    1       25.845 -20.092   4.499  0.00  0.00    +0.004 A 
ATOM     10  C   LIG    1       27.105 -21.402   8.301  0.00  0.00    +0.024 C 
ENDROOT
BRANCH   5  11
ATOM     11  O   LIG    1       22.896 -21.648   6.945  0.00  0.00    -0.506 OA
ATOM     12  H   LIG    1       23.171 -21.635   7.875  0.00  0.00    +0.292 HD
ENDBRANCH   5  11
BRANCH   1  13
ATOM     13  N   LIG    1       29.258 -19.965   8.283  0.00  0.00    -0.299 NA
BRANCH  13  14
ATOM     14  C   LIG    1       30.052 -21.103   7.737  0.00  0.00    +0.084 C 
BRANCH  14  16
ATOM     15  C   LIG    1       30.657 -22.172   9.913  0.00  0.00    +0.005 C 
ATOM     16  C   LIG    1       31.209 -21.629   8.596  0.00  0.00    +0.012 C 
ENDBRANCH  14  16
ENDBRANCH  13  14
BRANCH  13  17
ATOM     17  C   LIG    1       29.847 -18.707   7.707  0.00  0.00    +0.090 C 
BRANCH  17  18
ATOM     18  C   LIG    1       31.337 -18.393   8.031  0.00  0.00    +0.058 C 
BRANCH  18  19
ATOM     19  C   LIG    1       31.455 -17.680   9.355  0.00  0.00    -0.009 A 
ATOM     20  S   LIG    1       32.540 -16.360   9.533  0.00  0.00    -0.102 S 
ATOM     21  C   LIG    1       32.089 -16.115  11.162  0.00  0.00    +0.045 A 
ATOM     22  C   LIG    1       31.139 -17.035  11.575  0.00  0.00    +0.008 A 
ATOM     23  C   LIG    1       30.787 -17.936  10.530  0.00  0.00    +0.011 A 
ENDBRANCH  18  19
ENDBRANCH  17  18
ENDBRANCH  13  17
ENDBRANCH   1  13
TORSDOF 7
ENDMDL
MODEL 8
REMARK VINA RESULT:      -7.7      3.065      7.071
REMARK  Name = *****
REMARK                            x       y       z     vdW  Elec       q    Type
REMARK                         _______ _______ _______ _____ _____    ______ ____
ROOT
ATOM      1  C   LIG    1       25.399 -24.590   5.998  0.00  0.00    +0.061 C 
ATOM      2  C   LIG    1       25.943 -25.498   7.141  0.00  0.00    +0.054 C 
ATOM      3  C   LIG    1       25.524 -26.956   7.105  0.00  0.00    -0.039 A 
ATOM      4  C   LIG    1       24.538 -27.424   6.220  0.00  0.00    -0.003 A 
ATOM      5  C   LIG    1       24.247 -28.798   6.205  0.00  0.00    +0.120 A 
ATOM      6  C   LIG    1       24.837 -29.676   7.113  0.00  0.00    +0.045 A 
ATOM      7  C   LIG    1       25.760 -29.197   8.034  0.00  0.00    +0.004 A 
ATOM      8  C   LIG    1       23.822 -26.446   5.329  0.00  0.00    +0.041 C 
ATOM      9  C   LIG    1       26.113 -27.848   8.020  0.00  0.00    +0.004 A 
ATOM     10  C   LIG    1       23.914 -24.995   5.832  0.00  0.00    +0.024 C 
ENDROOT
BRANCH   5  11
ATOM     11  O   LIG    1       23.374 -29.361   5.316  0.00  0.00    -0.506 OA
ATOM     12  H   LIG    1       23.056 -30.201   5.682  0.00  0.00    +0.292 HD
ENDBRANCH   5  11
BRANCH   1  13
ATOM     13  N   LIG    1       25.637 -23.102   6.220  0.00  0.00    -0.299 NA
BRANCH  13  14
ATOM     14  C   LIG    1       24.345 -22.360   6.260  0.00  0.00    +0.084 C 
BRANCH  14  16
ATOM     15  C   LIG    1       22.808 -20.548   5.486  0.00  0.00    +0.005 C 
ATOM     16  C   LIG    1       24.144 -21.243   5.229  0.00  0.00    +0.012 C 
ENDBRANCH  14  16
ENDBRANCH  13  14
BRANCH  13  17
ATOM     17  C   LIG    1       26.306 -22.886   7.549  0.00  0.00    +0.090 C 
BRANCH  17  18
ATOM     18  C   LIG    1       26.462 -21.421   8.049  0.00  0.00    +0.058 C 
BRANCH  18  19
ATOM     19  C   LIG    1       27.569 -20.718   7.305  0.00  0.00    -0.009 A 
ATOM     20  S   LIG    1       29.191 -20.828   7.862  0.00  0.00    -0.102 S 
ATOM     21  C   LIG    1       29.775 -19.875   6.571  0.00  0.00    +0.045 A 
ATOM     22  C   LIG    1       28.751 -19.460   5.735  0.00  0.00    +0.008 A 
ATOM     23  C   LIG    1       27.485 -19.944   6.171  0.00  0.00    +0.011 A 
ENDBRANCH  18  19
ENDBRANCH  17  18
ENDBRANCH  13  17
ENDBRANCH   1  13
TORSDOF 7
ENDMDL
MODEL 9
REMARK VINA RESULT:      -7.6      3.804      7.687
REMARK  Name = *****
REMARK                            x       y       z     vdW  Elec       q    Type
REMARK                         _______ _______ _______ _____ _____    ______ ____
ROOT
ATOM      1  C   LIG    1       27.669 -20.367   7.535  0.00  0.00    +0.061 C 
ATOM      2  C   LIG    1       27.004 -20.269   6.129  0.00  0.00    +0.054 C 
ATOM      3  C   LIG    1       25.527 -20.607   6.053  0.00  0.00    -0.039 A 
ATOM      4  C   LIG    1       24.838 -21.175   7.138  0.00  0.00    -0.003 A 
ATOM      5  C   LIG    1       23.458 -21.404   7.011  0.00  0.00    +0.120 A 
ATOM      6  C   LIG    1       22.791 -21.176   5.809  0.00  0.00    +0.045 A 
ATOM      7  C   LIG    1       23.490 -20.679   4.716  0.00  0.00    +0.004 A 
ATOM      8  C   LIG    1       25.595 -21.529   8.389  0.00  0.00    +0.041 C 
ATOM      9  C   LIG    1       24.847 -20.382   4.842  0.00  0.00    +0.004 A 
ATOM     10  C   LIG    1       27.109 -21.669   8.157  0.00  0.00    +0.024 C 
ENDROOT
BRANCH   5  11
ATOM     11  O   LIG    1       22.686 -21.864   8.042  0.00  0.00    -0.506 OA
ATOM     12  H   LIG    1       22.773 -21.255   8.792  0.00  0.00    +0.292 HD
ENDBRANCH   5  11
BRANCH   1  13
ATOM     13  N   LIG    1       29.188 -20.267   7.512  0.00  0.00    -0.299 NA
BRANCH  13  14
ATOM     14  C   LIG    1       29.673 -19.898   6.152  0.00  0.00    +0.084 C 
BRANCH  14  16
ATOM     15  C   LIG    1       28.923 -17.832   4.963  0.00  0.00    +0.005 C 
ATOM     16  C   LIG    1       29.982 -18.418   5.894  0.00  0.00    +0.012 C 
ENDBRANCH  14  16
ENDBRANCH  13  14
BRANCH  13  17
ATOM     17  C   LIG    1       29.641 -19.181   8.448  0.00  0.00    +0.090 C 
BRANCH  17  18
ATOM     18  C   LIG    1       31.037 -19.341   9.118  0.00  0.00    +0.058 C 
BRANCH  18  19
ATOM     19  C   LIG    1       31.492 -18.035   9.719  0.00  0.00    -0.009 A 
ATOM     20  S   LIG    1       30.951 -17.566  11.280  0.00  0.00    -0.102 S 
ATOM     21  C   LIG    1       31.862 -16.122  11.242  0.00  0.00    +0.045 A 
ATOM     22  C   LIG    1       32.556 -15.984  10.051  0.00  0.00    +0.008 A 
ATOM     23  C   LIG    1       32.329 -17.087   9.177  0.00  0.00    +0.011 A 
ENDBRANCH  18  19
ENDBRANCH  17  18
ENDBRANCH  13  17
ENDBRANCH   1  13
TORSDOF 7
ENDMDL
