MODEL 1
REMARK VINA RESULT:      18.2      0.000      0.000
REMARK  Name = *****
REMARK                            x       y       z     vdW  Elec       q    Type
REMARK                         _______ _______ _______ _____ _____    ______ ____
ROOT
ATOM      1  C   LIG    1       23.381 -31.911   8.803  0.00  0.00    +0.078 C 
ATOM      2  C   LIG    1       25.149 -32.065   8.434  0.00  0.00    +0.142 C 
ATOM      3  O   LIG    1       25.676 -33.163   8.209  0.00  0.00    -0.297 OA
ATOM      4  C   LIG    1       26.036 -30.824   8.189  0.00  0.00    +0.106 C 
ATOM      5  C   LIG    1       27.268 -30.563   9.042  0.00  0.00    +0.128 C 
ATOM      6  C   LIG    1       27.188 -29.407  10.088  0.00  0.00    +0.060 C 
ATOM      7  C   LIG    1       28.616 -29.011  10.514  0.00  0.00    +0.014 C 
ATOM      8  C   LIG    1       26.303 -28.111   9.783  0.00  0.00    +0.207 C 
ATOM      9  O   LIG    1       24.884 -28.450   9.761  0.00  0.00    -0.455 OA
ATOM     10  C   LIG    1       24.387 -29.169  10.829  0.00  0.00    +0.328 C 
ATOM     11  O   LIG    1       24.834 -29.055  11.965  0.00  0.00    -0.249 OA
ATOM     12  C   LIG    1       23.573 -30.446  10.268  0.00  0.00    +0.185 C 
ATOM     13  N   LIG    1       21.921 -30.502   9.390  0.00  0.00    -0.281 N 
ATOM     14  C   LIG    1       21.211 -32.052   8.589  0.00  0.00    +0.109 C 
ATOM     15  C   LIG    1       22.062 -33.775   8.854  0.00  0.00    +0.019 C 
ATOM     16  C   LIG    1       23.648 -33.821   9.940  0.00  0.00    +0.004 C 
ATOM     17  C   LIG    1       21.037 -29.557   9.867  0.00  0.00    +0.288 C 
ATOM     18  O   LIG    1       21.346 -28.445  10.260  0.00  0.00    -0.267 OA
ATOM     19  C   LIG    1       19.640 -30.096   9.984  0.00  0.00    +0.276 C 
ATOM     20  O   LIG    1       18.792 -29.765   9.158  0.00  0.00    -0.281 OA
ATOM     21  C   LIG    1       19.387 -31.048  11.176  0.00  0.00    +0.240 C 
ATOM     22  C   LIG    1       19.734 -32.977  11.027  0.00  0.00    +0.056 C 
ATOM     23  C   LIG    1       18.429 -33.781  10.684  0.00  0.00    +0.013 C 
ATOM     24  C   LIG    1       20.757 -33.824  12.493  0.00  0.00    +0.043 C 
ATOM     25  C   LIG    1       21.483 -32.684  13.919  0.00  0.00    +0.150 C 
ATOM     26  C   LIG    1       20.758 -30.849  14.080  0.00  0.00    +0.179 C 
ATOM     27  C   LIG    1       19.780 -30.558  15.263  0.00  0.00    +0.149 C 
ATOM     28  C   LIG    1       18.834 -31.700  15.499  0.00  0.00    +0.038 C 
ATOM     29  C   LIG    1       19.028 -32.797  14.467  0.00  0.00    -0.008 C 
ATOM     30  C   LIG    1       17.594 -33.369  14.223  0.00  0.00    +0.008 C 
ATOM     31  C   LIG    1       19.693 -32.145  12.964  0.00  0.00    +0.033 C 
ATOM     32  C   LIG    1       21.455 -31.702  11.899  0.00  0.00    -0.076 C 
ATOM     33  C   LIG    1       22.521 -30.628  12.557  0.00  0.00    +0.038 C 
ATOM     34  O   LIG    1       20.088 -30.098  12.551  0.00  0.00    -0.334 OA
ATOM     35  C   LIG    1       24.341 -32.205  10.740  0.00  0.00    +0.034 C 
ATOM     36  C   LIG    1       22.193 -32.204  10.528  0.00  0.00    -0.017 C 
ENDROOT
BRANCH   8  37
ATOM     37  C   LIG    1       26.560 -27.290   8.480  0.00  0.00    -0.036 C 
ATOM     38  C   LIG    1       26.081 -26.048   8.251  0.00  0.00    -0.021 C 
ATOM     39  C   LIG    1       27.451 -27.963   7.454  0.00  0.00    +0.042 C 
BRANCH  38  40
ATOM     40  C   LIG    1       26.236 -25.139   7.046  0.00  0.00    +0.014 C 
ATOM     41  C   LIG    1       25.496 -25.657   5.788  0.00  0.00    +0.040 C 
ATOM     42  C   LIG    1       23.962 -25.486   5.805  0.00  0.00    +0.136 C 
ATOM     43  C   LIG    1       23.593 -24.028   6.161  0.00  0.00    +0.109 C 
ATOM     44 CL   LIG    1       21.819 -23.810   6.307  0.00  0.00    -0.119 Cl
ATOM     45  C   LIG    1       24.273 -23.548   7.441  0.00  0.00    +0.022 C 
ATOM     46  C   LIG    1       25.792 -23.701   7.348  0.00  0.00    +0.009 C 
BRANCH  42  47
ATOM     47  O   LIG    1       23.334 -26.393   6.722  0.00  0.00    -0.378 OA
ATOM     48  C   LIG    1       23.860 -27.716   6.673  0.00  0.00    +0.194 C 
ENDBRANCH  42  47
ENDBRANCH  38  40
ENDBRANCH   8  37
BRANCH   1  50
ATOM     49  C   LIG    1       23.633 -30.935   6.000  0.00  0.00    +0.005 C 
ATOM     50  C   LIG    1       23.147 -30.642   7.426  0.00  0.00    +0.011 C 
ENDBRANCH   1  50
BRANCH   5  51
ATOM     51  O   LIG    1       27.732 -31.757   9.669  0.00  0.00    -0.391 OA
ATOM     52  H   LIG    1       26.996 -32.102  10.217  0.00  0.00    +0.210 HD
ENDBRANCH   5  51
BRANCH  27  53
ATOM     53  O   LIG    1       19.099 -29.312  15.047  0.00  0.00    -0.377 OA
ATOM     54  C   LIG    1       17.703 -29.446  14.805  0.00  0.00    +0.194 C 
ENDBRANCH  27  53
BRANCH  25  55
ATOM     55  O   LIG    1       21.596 -33.403  15.164  0.00  0.00    -0.377 OA
ATOM     56  C   LIG    1       22.929 -33.764  15.498  0.00  0.00    +0.194 C 
ENDBRANCH  25  55
BRANCH  21  57
ATOM     57  O   LIG    1       17.919 -30.968  11.312  0.00  0.00    -0.358 OA
ATOM     58  H   LIG    1       17.567 -31.853  11.097  0.00  0.00    +0.213 HD
ENDBRANCH  21  57
TORSDOF 8
ENDMDL
