MODEL 1
REMARK VINA RESULT:      -8.4      0.000      0.000
REMARK  Name = *****
REMARK                            x       y       z     vdW  Elec       q    Type
REMARK                         _______ _______ _______ _____ _____    ______ ____
ROOT
ATOM      1  C   LIG    1       29.931 -19.626   7.143  0.00  0.00    +0.167 C 
ATOM      2  O   LIG    1       30.557 -19.334   6.118  0.00  0.00    -0.292 OA
ENDROOT
BRANCH   1   7
ATOM      3  C   LIG    1       24.253 -20.909   6.824  0.00  0.00    +0.044 C 
ATOM      4  C   LIG    1       25.717 -20.590   6.904  0.00  0.00    -0.050 A 
ATOM      5  C   LIG    1       26.445 -20.346   5.733  0.00  0.00    +0.004 A 
ATOM      6  C   LIG    1       27.808 -20.025   5.786  0.00  0.00    +0.012 A 
ATOM      7  C   LIG    1       28.468 -19.947   7.019  0.00  0.00    +0.018 A 
ATOM      8  C   LIG    1       27.732 -20.175   8.192  0.00  0.00    +0.012 A 
ATOM      9  C   LIG    1       26.371 -20.492   8.137  0.00  0.00    +0.004 A 
ENDBRANCH   1   7
BRANCH   1  10
ATOM     10  C   LIG    1       30.616 -19.683   8.512  0.00  0.00    +0.071 C 
ATOM     11  C   LIG    1       31.134 -21.101   8.754  0.00  0.00    +0.017 C 
BRANCH  10  12
ATOM     12  C   LIG    1       31.758 -18.636   8.565  0.00  0.00    +0.095 C 
BRANCH  12  13
ATOM     13  N   LIG    1       31.328 -17.249   8.853  0.00  0.00    -0.302 NA
ATOM     14  C   LIG    1       30.228 -17.212   9.834  0.00  0.00    +0.084 C 
ATOM     15  C   LIG    1       30.660 -17.474  11.281  0.00  0.00    +0.015 C 
ATOM     16  C   LIG    1       31.815 -16.569  11.700  0.00  0.00    +0.002 C 
ATOM     17  C   LIG    1       32.941 -16.618  10.672  0.00  0.00    +0.015 C 
ATOM     18  C   LIG    1       32.402 -16.337   9.269  0.00  0.00    +0.084 C 
ENDBRANCH  12  13
ENDBRANCH  10  12
ENDBRANCH   1  10
TORSDOF 4
ENDMDL
MODEL 2
REMARK VINA RESULT:      -8.2      3.843      7.451
REMARK  Name = *****
REMARK                            x       y       z     vdW  Elec       q    Type
REMARK                         _______ _______ _______ _____ _____    ______ ____
ROOT
ATOM      1  C   LIG    1       26.026 -21.779   7.744  0.00  0.00    +0.167 C 
ATOM      2  O   LIG    1       25.665 -21.855   8.923  0.00  0.00    -0.292 OA
ENDROOT
BRANCH   1   7
ATOM      3  C   LIG    1       31.162 -19.222   6.706  0.00  0.00    +0.044 C 
ATOM      4  C   LIG    1       29.837 -19.871   6.980  0.00  0.00    -0.050 A 
ATOM      5  C   LIG    1       28.724 -19.546   6.195  0.00  0.00    +0.004 A 
ATOM      6  C   LIG    1       27.482 -20.156   6.419  0.00  0.00    +0.012 A 
ATOM      7  C   LIG    1       27.334 -21.103   7.440  0.00  0.00    +0.018 A 
ATOM      8  C   LIG    1       28.455 -21.438   8.215  0.00  0.00    +0.012 A 
ATOM      9  C   LIG    1       29.695 -20.831   7.987  0.00  0.00    +0.004 A 
ENDBRANCH   1   7
BRANCH   1  10
ATOM     10  C   LIG    1       25.186 -22.371   6.608  0.00  0.00    +0.071 C 
ATOM     11  C   LIG    1       24.870 -23.832   6.928  0.00  0.00    +0.017 C 
BRANCH  10  12
ATOM     12  C   LIG    1       23.897 -21.529   6.424  0.00  0.00    +0.095 C 
BRANCH  12  13
ATOM     13  N   LIG    1       23.330 -21.537   5.057  0.00  0.00    -0.302 NA
ATOM     14  C   LIG    1       22.146 -20.665   4.952  0.00  0.00    +0.084 C 
ATOM     15  C   LIG    1       22.464 -19.166   4.908  0.00  0.00    +0.015 C 
ATOM     16  C   LIG    1       23.498 -18.839   3.835  0.00  0.00    +0.002 C 
ATOM     17  C   LIG    1       24.713 -19.752   3.957  0.00  0.00    +0.015 C 
ATOM     18  C   LIG    1       24.284 -21.219   3.985  0.00  0.00    +0.084 C 
ENDBRANCH  12  13
ENDBRANCH  10  12
ENDBRANCH   1  10
TORSDOF 4
ENDMDL
MODEL 3
REMARK VINA RESULT:      -8.2      5.496      7.743
REMARK  Name = *****
REMARK                            x       y       z     vdW  Elec       q    Type
REMARK                         _______ _______ _______ _____ _____    ______ ____
ROOT
ATOM      1  C   LIG    1       26.128 -22.687   7.038  0.00  0.00    +0.167 C 
ATOM      2  O   LIG    1       27.326 -22.590   7.328  0.00  0.00    -0.292 OA
ENDROOT
BRANCH   1   7
ATOM      3  C   LIG    1       24.176 -28.015   5.698  0.00  0.00    +0.044 C 
ATOM      4  C   LIG    1       24.679 -26.640   6.031  0.00  0.00    -0.050 A 
ATOM      5  C   LIG    1       23.777 -25.576   6.153  0.00  0.00    +0.004 A 
ATOM      6  C   LIG    1       24.222 -24.290   6.485  0.00  0.00    +0.012 A 
ATOM      7  C   LIG    1       25.585 -24.046   6.698  0.00  0.00    +0.018 A 
ATOM      8  C   LIG    1       26.485 -25.118   6.591  0.00  0.00    +0.012 A 
ATOM      9  C   LIG    1       26.037 -26.402   6.263  0.00  0.00    +0.004 A 
ENDBRANCH   1   7
BRANCH   1  10
ATOM     10  C   LIG    1       25.201 -21.467   7.038  0.00  0.00    +0.071 C 
ATOM     11  C   LIG    1       25.513 -20.602   8.259  0.00  0.00    +0.017 C 
BRANCH  10  12
ATOM     12  C   LIG    1       25.380 -20.680   5.714  0.00  0.00    +0.095 C 
BRANCH  12  13
ATOM     13  N   LIG    1       24.392 -20.993   4.658  0.00  0.00    -0.302 NA
ATOM     14  C   LIG    1       23.013 -20.980   5.179  0.00  0.00    +0.084 C 
ATOM     15  C   LIG    1       22.442 -19.578   5.423  0.00  0.00    +0.015 C 
ATOM     16  C   LIG    1       22.585 -18.686   4.193  0.00  0.00    +0.002 C 
ATOM     17  C   LIG    1       24.015 -18.716   3.666  0.00  0.00    +0.015 C 
ATOM     18  C   LIG    1       24.481 -20.157   3.453  0.00  0.00    +0.084 C 
ENDBRANCH  12  13
ENDBRANCH  10  12
ENDBRANCH   1  10
TORSDOF 4
ENDMDL
MODEL 4
REMARK VINA RESULT:      -8.0      6.926      8.879
REMARK  Name = *****
REMARK                            x       y       z     vdW  Elec       q    Type
REMARK                         _______ _______ _______ _____ _____    ______ ____
ROOT
ATOM      1  C   LIG    1       25.361 -22.951   6.538  0.00  0.00    +0.167 C 
ATOM      2  O   LIG    1       26.492 -22.697   6.967  0.00  0.00    -0.292 OA
ENDROOT
BRANCH   1   7
ATOM      3  C   LIG    1       22.160 -18.593   4.357  0.00  0.00    +0.044 C 
ATOM      4  C   LIG    1       22.976 -19.723   4.916  0.00  0.00    -0.050 A 
ATOM      5  C   LIG    1       23.809 -20.468   4.072  0.00  0.00    +0.004 A 
ATOM      6  C   LIG    1       24.595 -21.513   4.576  0.00  0.00    +0.012 A 
ATOM      7  C   LIG    1       24.557 -21.832   5.939  0.00  0.00    +0.018 A 
ATOM      8  C   LIG    1       23.735 -21.072   6.785  0.00  0.00    +0.012 A 
ATOM      9  C   LIG    1       22.953 -20.027   6.280  0.00  0.00    +0.004 A 
ENDBRANCH   1   7
BRANCH   1  10
ATOM     10  C   LIG    1       24.784 -24.369   6.589  0.00  0.00    +0.071 C 
ATOM     11  C   LIG    1       23.259 -24.286   6.663  0.00  0.00    +0.017 C 
BRANCH  10  12
ATOM     12  C   LIG    1       25.258 -25.166   5.347  0.00  0.00    +0.095 C 
BRANCH  12  13
ATOM     13  N   LIG    1       26.291 -26.192   5.614  0.00  0.00    -0.302 NA
ATOM     14  C   LIG    1       26.184 -26.731   6.982  0.00  0.00    +0.084 C 
ATOM     15  C   LIG    1       25.026 -27.716   7.186  0.00  0.00    +0.015 C 
ATOM     16  C   LIG    1       25.040 -28.830   6.144  0.00  0.00    +0.002 C 
ATOM     17  C   LIG    1       25.155 -28.254   4.736  0.00  0.00    +0.015 C 
ATOM     18  C   LIG    1       26.342 -27.294   4.643  0.00  0.00    +0.084 C 
ENDBRANCH  12  13
ENDBRANCH  10  12
ENDBRANCH   1  10
TORSDOF 4
ENDMDL
MODEL 5
REMARK VINA RESULT:      -7.9      3.549      7.691
REMARK  Name = *****
REMARK                            x       y       z     vdW  Elec       q    Type
REMARK                         _______ _______ _______ _____ _____    ______ ____
ROOT
ATOM      1  C   LIG    1       25.546 -20.304   5.116  0.00  0.00    +0.167 C 
ATOM      2  O   LIG    1       25.527 -19.958   3.929  0.00  0.00    -0.292 OA
ENDROOT
BRANCH   1   7
ATOM      3  C   LIG    1       30.358 -19.490   8.307  0.00  0.00    +0.044 C 
ATOM      4  C   LIG    1       29.116 -19.688   7.487  0.00  0.00    -0.050 A 
ATOM      5  C   LIG    1       29.120 -19.370   6.123  0.00  0.00    +0.004 A 
ATOM      6  C   LIG    1       27.979 -19.567   5.334  0.00  0.00    +0.012 A 
ATOM      7  C   LIG    1       26.808 -20.086   5.902  0.00  0.00    +0.018 A 
ATOM      8  C   LIG    1       26.812 -20.419   7.265  0.00  0.00    +0.012 A 
ATOM      9  C   LIG    1       27.954 -20.225   8.050  0.00  0.00    +0.004 A 
ENDBRANCH   1   7
BRANCH   1  10
ATOM     10  C   LIG    1       24.319 -20.922   5.791  0.00  0.00    +0.071 C 
ATOM     11  C   LIG    1       23.056 -20.273   5.226  0.00  0.00    +0.017 C 
BRANCH  10  12
ATOM     12  C   LIG    1       24.325 -22.458   5.571  0.00  0.00    +0.095 C 
BRANCH  12  13
ATOM     13  N   LIG    1       24.285 -23.270   6.807  0.00  0.00    -0.302 NA
ATOM     14  C   LIG    1       23.383 -24.429   6.670  0.00  0.00    +0.084 C 
ATOM     15  C   LIG    1       23.951 -25.577   5.827  0.00  0.00    +0.015 C 
ATOM     16  C   LIG    1       25.338 -25.998   6.305  0.00  0.00    +0.002 C 
ATOM     17  C   LIG    1       26.254 -24.787   6.445  0.00  0.00    +0.015 C 
ATOM     18  C   LIG    1       25.595 -23.710   7.307  0.00  0.00    +0.084 C 
ENDBRANCH  12  13
ENDBRANCH  10  12
ENDBRANCH   1  10
TORSDOF 4
ENDMDL
MODEL 6
REMARK VINA RESULT:      -7.7      4.367      6.224
REMARK  Name = *****
REMARK                            x       y       z     vdW  Elec       q    Type
REMARK                         _______ _______ _______ _____ _____    ______ ____
ROOT
ATOM      1  C   LIG    1       24.047 -23.623   6.645  0.00  0.00    +0.167 C 
ATOM      2  O   LIG    1       23.154 -24.477   6.687  0.00  0.00    -0.292 OA
ENDROOT
BRANCH   1   7
ATOM      3  C   LIG    1       22.957 -18.543   3.998  0.00  0.00    +0.044 C 
ATOM      4  C   LIG    1       23.248 -19.846   4.685  0.00  0.00    -0.050 A 
ATOM      5  C   LIG    1       22.818 -20.054   6.001  0.00  0.00    +0.004 A 
ATOM      6  C   LIG    1       23.060 -21.270   6.653  0.00  0.00    +0.012 A 
ATOM      7  C   LIG    1       23.740 -22.302   5.996  0.00  0.00    +0.018 A 
ATOM      8  C   LIG    1       24.155 -22.097   4.670  0.00  0.00    +0.012 A 
ATOM      9  C   LIG    1       23.910 -20.883   4.020  0.00  0.00    +0.004 A 
ENDBRANCH   1   7
BRANCH   1  10
ATOM     10  C   LIG    1       25.430 -23.878   7.251  0.00  0.00    +0.071 C 
ATOM     11  C   LIG    1       25.865 -25.306   6.923  0.00  0.00    +0.017 C 
BRANCH  10  12
ATOM     12  C   LIG    1       26.436 -22.830   6.705  0.00  0.00    +0.095 C 
BRANCH  12  13
ATOM     13  N   LIG    1       26.691 -21.679   7.599  0.00  0.00    -0.302 NA
ATOM     14  C   LIG    1       28.073 -21.682   8.112  0.00  0.00    +0.084 C 
ATOM     15  C   LIG    1       29.128 -21.238   7.093  0.00  0.00    +0.015 C 
ATOM     16  C   LIG    1       28.770 -19.900   6.453  0.00  0.00    +0.002 C 
ATOM     17  C   LIG    1       27.337 -19.914   5.932  0.00  0.00    +0.015 C 
ATOM     18  C   LIG    1       26.370 -20.363   7.029  0.00  0.00    +0.084 C 
ENDBRANCH  12  13
ENDBRANCH  10  12
ENDBRANCH   1  10
TORSDOF 4
ENDMDL
MODEL 7
REMARK VINA RESULT:      -7.6      1.273      2.472
REMARK  Name = *****
REMARK                            x       y       z     vdW  Elec       q    Type
REMARK                         _______ _______ _______ _____ _____    ______ ____
ROOT
ATOM      1  C   LIG    1       28.105 -19.876   6.542  0.00  0.00    +0.167 C 
ATOM      2  O   LIG    1       28.783 -19.481   5.587  0.00  0.00    -0.292 OA
ENDROOT
BRANCH   1   7
ATOM      3  C   LIG    1       22.507 -21.090   5.457  0.00  0.00    +0.044 C 
ATOM      4  C   LIG    1       23.945 -20.767   5.740  0.00  0.00    -0.050 A 
ATOM      5  C   LIG    1       24.444 -20.877   7.043  0.00  0.00    +0.004 A 
ATOM      6  C   LIG    1       25.789 -20.601   7.325  0.00  0.00    +0.012 A 
ATOM      7  C   LIG    1       26.659 -20.204   6.303  0.00  0.00    +0.018 A 
ATOM      8  C   LIG    1       26.160 -20.110   4.994  0.00  0.00    +0.012 A 
ATOM      9  C   LIG    1       24.818 -20.390   4.714  0.00  0.00    +0.004 A 
ENDBRANCH   1   7
BRANCH   1  10
ATOM     10  C   LIG    1       28.711 -20.050   7.938  0.00  0.00    +0.071 C 
ATOM     11  C   LIG    1       29.557 -21.324   7.961  0.00  0.00    +0.017 C 
BRANCH  10  12
ATOM     12  C   LIG    1       29.549 -18.796   8.299  0.00  0.00    +0.095 C 
BRANCH  12  13
ATOM     13  N   LIG    1       30.503 -18.978   9.416  0.00  0.00    -0.302 NA
ATOM     14  C   LIG    1       31.892 -18.716   8.996  0.00  0.00    +0.084 C 
ATOM     15  C   LIG    1       32.234 -17.231   8.828  0.00  0.00    +0.015 C 
ATOM     16  C   LIG    1       31.860 -16.421  10.065  0.00  0.00    +0.002 C 
ATOM     17  C   LIG    1       30.423 -16.707  10.487  0.00  0.00    +0.015 C 
ATOM     18  C   LIG    1       30.194 -18.212  10.632  0.00  0.00    +0.084 C 
ENDBRANCH  12  13
ENDBRANCH  10  12
ENDBRANCH   1  10
TORSDOF 4
ENDMDL
MODEL 8
REMARK VINA RESULT:      -7.6      2.239      6.993
REMARK  Name = *****
REMARK                            x       y       z     vdW  Elec       q    Type
REMARK                         _______ _______ _______ _____ _____    ______ ____
ROOT
ATOM      1  C   LIG    1       29.018 -20.311   7.994  0.00  0.00    +0.167 C 
ATOM      2  O   LIG    1       29.266 -21.471   8.343  0.00  0.00    -0.292 OA
ENDROOT
BRANCH   1   7
ATOM      3  C   LIG    1       32.621 -16.020   9.607  0.00  0.00    +0.044 C 
ATOM      4  C   LIG    1       31.691 -17.119   9.182  0.00  0.00    -0.050 A 
ATOM      5  C   LIG    1       32.131 -18.101   8.286  0.00  0.00    +0.004 A 
ATOM      6  C   LIG    1       31.286 -19.147   7.892  0.00  0.00    +0.012 A 
ATOM      7  C   LIG    1       29.979 -19.226   8.390  0.00  0.00    +0.018 A 
ATOM      8  C   LIG    1       29.546 -18.250   9.301  0.00  0.00    +0.012 A 
ATOM      9  C   LIG    1       30.393 -17.208   9.695  0.00  0.00    +0.004 A 
ENDBRANCH   1   7
BRANCH   1  10
ATOM     10  C   LIG    1       27.778 -19.972   7.161  0.00  0.00    +0.071 C 
ATOM     11  C   LIG    1       28.174 -19.883   5.687  0.00  0.00    +0.017 C 
BRANCH  10  12
ATOM     12  C   LIG    1       26.684 -21.045   7.400  0.00  0.00    +0.095 C 
BRANCH  12  13
ATOM     13  N   LIG    1       25.857 -21.374   6.218  0.00  0.00    -0.302 NA
ATOM     14  C   LIG    1       25.505 -22.805   6.179  0.00  0.00    +0.084 C 
ATOM     15  C   LIG    1       24.410 -23.215   7.171  0.00  0.00    +0.015 C 
ATOM     16  C   LIG    1       23.173 -22.330   7.047  0.00  0.00    +0.002 C 
ATOM     17  C   LIG    1       23.557 -20.854   7.085  0.00  0.00    +0.015 C 
ATOM     18  C   LIG    1       24.647 -20.555   6.056  0.00  0.00    +0.084 C 
ENDBRANCH  12  13
ENDBRANCH  10  12
ENDBRANCH   1  10
TORSDOF 4
ENDMDL
MODEL 9
REMARK VINA RESULT:      -7.5      2.105      6.800
REMARK  Name = *****
REMARK                            x       y       z     vdW  Elec       q    Type
REMARK                         _______ _______ _______ _____ _____    ______ ____
ROOT
ATOM      1  C   LIG    1       29.360 -20.245   7.974  0.00  0.00    +0.167 C 
ATOM      2  O   LIG    1       29.706 -21.381   8.316  0.00  0.00    -0.292 OA
ENDROOT
BRANCH   1   7
ATOM      3  C   LIG    1       32.656 -15.782   9.769  0.00  0.00    +0.044 C 
ATOM      4  C   LIG    1       31.810 -16.937   9.317  0.00  0.00    -0.050 A 
ATOM      5  C   LIG    1       30.485 -17.047   9.755  0.00  0.00    +0.004 A 
ATOM      6  C   LIG    1       29.671 -18.106   9.329  0.00  0.00    +0.012 A 
ATOM      7  C   LIG    1       30.174 -19.077   8.454  0.00  0.00    +0.018 A 
ATOM      8  C   LIG    1       31.498 -18.954   8.003  0.00  0.00    +0.012 A 
ATOM      9  C   LIG    1       32.308 -17.895   8.427  0.00  0.00    +0.004 A 
ENDBRANCH   1   7
BRANCH   1  10
ATOM     10  C   LIG    1       28.146 -20.014   7.069  0.00  0.00    +0.071 C 
ATOM     11  C   LIG    1       28.617 -19.417   5.743  0.00  0.00    +0.017 C 
BRANCH  10  12
ATOM     12  C   LIG    1       27.392 -21.354   6.863  0.00  0.00    +0.095 C 
BRANCH  12  13
ATOM     13  N   LIG    1       26.549 -21.783   8.001  0.00  0.00    -0.302 NA
ATOM     14  C   LIG    1       25.532 -20.771   8.339  0.00  0.00    +0.084 C 
ATOM     15  C   LIG    1       24.347 -20.715   7.367  0.00  0.00    +0.015 C 
ATOM     16  C   LIG    1       23.722 -22.092   7.157  0.00  0.00    +0.002 C 
ATOM     17  C   LIG    1       24.789 -23.125   6.813  0.00  0.00    +0.015 C 
ATOM     18  C   LIG    1       25.916 -23.100   7.846  0.00  0.00    +0.084 C 
ENDBRANCH  12  13
ENDBRANCH  10  12
ENDBRANCH   1  10
TORSDOF 4
ENDMDL
