MODEL 1
REMARK VINA RESULT:      -7.7      0.000      0.000
REMARK  Name = *****
REMARK                            x       y       z     vdW  Elec       q    Type
REMARK                         _______ _______ _______ _____ _____    ______ ____
ROOT
ATOM      1  C   LIG    1       25.602 -20.870   8.001  0.00  0.00    +0.158 C 
ENDROOT
BRANCH   1   2
ATOM      2  C   LIG    1       25.088 -22.195   7.468  0.00  0.00    -0.011 A 
ATOM      3  C   LIG    1       23.716 -22.392   7.259  0.00  0.00    +0.051 A 
ATOM      4  C   LIG    1       23.242 -23.611   6.760  0.00  0.00    +0.121 A 
ATOM      5  C   LIG    1       24.113 -24.648   6.464  0.00  0.00    +0.090 A 
ATOM      6  C   LIG    1       25.470 -24.462   6.683  0.00  0.00    +0.121 A 
ATOM      7  C   LIG    1       25.964 -23.251   7.176  0.00  0.00    +0.051 A 
BRANCH   4   8
ATOM      8  O   LIG    1       21.898 -23.734   6.554  0.00  0.00    -0.507 OA
ATOM      9  H   LIG    1       21.661 -24.669   6.656  0.00  0.00    +0.292 HD
ENDBRANCH   4   8
BRANCH   6  10
ATOM     10  O   LIG    1       26.313 -25.497   6.395  0.00  0.00    -0.507 OA
ATOM     11  H   LIG    1       26.166 -25.775   5.479  0.00  0.00    +0.292 HD
ENDBRANCH   6  10
ENDBRANCH   1   2
BRANCH   1  12
ATOM     12  O   LIG    1       25.806 -20.993   9.410  0.00  0.00    -0.386 OA
ATOM     13  H   LIG    1       26.777 -21.013   9.518  0.00  0.00    +0.210 HD
ENDBRANCH   1  12
BRANCH   1  14
ATOM     14  C   LIG    1       26.926 -20.400   7.333  0.00  0.00    +0.117 C 
BRANCH  14  15
ATOM     15  N   LIG    1       27.926 -20.041   8.367  0.00  0.00    -0.308 NA
ATOM     16  H   LIG    1       27.587 -19.218   8.871  0.00  0.00    +0.122 HD
BRANCH  15  18
ATOM     17  C   LIG    1       29.956 -18.584   8.616  0.00  0.00    +0.027 C 
ATOM     18  C   LIG    1       29.292 -19.753   7.868  0.00  0.00    +0.011 C 
ATOM     19  C   LIG    1       30.138 -21.021   8.120  0.00  0.00    +0.027 C 
ATOM     20  C   LIG    1       29.295 -19.480   6.355  0.00  0.00    +0.027 C 
ENDBRANCH  15  18
ENDBRANCH  14  15
ENDBRANCH   1  14
TORSDOF 7
ENDMDL
MODEL 2
REMARK VINA RESULT:      -7.6      0.066      2.066
REMARK  Name = *****
REMARK                            x       y       z     vdW  Elec       q    Type
REMARK                         _______ _______ _______ _____ _____    ______ ____
ROOT
ATOM      1  C   LIG    1       25.619 -20.818   7.985  0.00  0.00    +0.158 C 
ENDROOT
BRANCH   1   2
ATOM      2  C   LIG    1       25.065 -22.129   7.459  0.00  0.00    -0.011 A 
ATOM      3  C   LIG    1       25.927 -23.194   7.157  0.00  0.00    +0.051 A 
ATOM      4  C   LIG    1       25.417 -24.406   6.677  0.00  0.00    +0.121 A 
ATOM      5  C   LIG    1       24.054 -24.582   6.488  0.00  0.00    +0.090 A 
ATOM      6  C   LIG    1       23.200 -23.527   6.772  0.00  0.00    +0.121 A 
ATOM      7  C   LIG    1       23.689 -22.310   7.257  0.00  0.00    +0.051 A 
BRANCH   4   8
ATOM      8  O   LIG    1       26.302 -25.412   6.425  0.00  0.00    -0.507 OA
ATOM      9  H   LIG    1       26.954 -25.088   5.783  0.00  0.00    +0.292 HD
ENDBRANCH   4   8
BRANCH   6  10
ATOM     10  O   LIG    1       21.862 -23.713   6.572  0.00  0.00    -0.507 OA
ATOM     11  H   LIG    1       21.377 -23.334   7.321  0.00  0.00    +0.292 HD
ENDBRANCH   6  10
ENDBRANCH   1   2
BRANCH   1  12
ATOM     12  O   LIG    1       25.808 -20.936   9.396  0.00  0.00    -0.386 OA
ATOM     13  H   LIG    1       26.595 -21.509   9.493  0.00  0.00    +0.210 HD
ENDBRANCH   1  12
BRANCH   1  14
ATOM     14  C   LIG    1       26.963 -20.399   7.324  0.00  0.00    +0.117 C 
BRANCH  14  15
ATOM     15  N   LIG    1       27.955 -20.028   8.361  0.00  0.00    -0.308 NA
ATOM     16  H   LIG    1       27.606 -19.208   8.862  0.00  0.00    +0.122 HD
BRANCH  15  18
ATOM     17  C   LIG    1       29.959 -18.534   8.600  0.00  0.00    +0.027 C 
ATOM     18  C   LIG    1       29.320 -19.727   7.868  0.00  0.00    +0.011 C 
ATOM     19  C   LIG    1       30.184 -20.976   8.148  0.00  0.00    +0.027 C 
ATOM     20  C   LIG    1       29.330 -19.479   6.350  0.00  0.00    +0.027 C 
ENDBRANCH  15  18
ENDBRANCH  14  15
ENDBRANCH   1  14
TORSDOF 7
ENDMDL
MODEL 3
REMARK VINA RESULT:      -7.6      2.756      6.309
REMARK  Name = *****
REMARK                            x       y       z     vdW  Elec       q    Type
REMARK                         _______ _______ _______ _____ _____    ______ ____
ROOT
ATOM      1  C   LIG    1       27.467 -21.636   7.498  0.00  0.00    +0.158 C 
ENDROOT
BRANCH   1   2
ATOM      2  C   LIG    1       28.733 -20.804   7.402  0.00  0.00    -0.011 A 
ATOM      3  C   LIG    1       28.856 -19.810   6.420  0.00  0.00    +0.051 A 
ATOM      4  C   LIG    1       30.019 -19.037   6.335  0.00  0.00    +0.121 A 
ATOM      5  C   LIG    1       31.074 -19.235   7.213  0.00  0.00    +0.090 A 
ATOM      6  C   LIG    1       30.961 -20.226   8.177  0.00  0.00    +0.121 A 
ATOM      7  C   LIG    1       29.806 -21.006   8.282  0.00  0.00    +0.051 A 
BRANCH   4   8
ATOM      8  O   LIG    1       30.070 -18.069   5.374  0.00  0.00    -0.507 OA
ATOM      9  H   LIG    1       30.878 -17.550   5.511  0.00  0.00    +0.292 HD
ENDBRANCH   4   8
BRANCH   6  10
ATOM     10  O   LIG    1       32.012 -20.414   9.029  0.00  0.00    -0.507 OA
ATOM     11  H   LIG    1       31.754 -21.057   9.707  0.00  0.00    +0.292 HD
ENDBRANCH   6  10
ENDBRANCH   1   2
BRANCH   1  12
ATOM     12  O   LIG    1       26.953 -21.535   8.826  0.00  0.00    -0.386 OA
ATOM     13  H   LIG    1       26.103 -22.019   8.800  0.00  0.00    +0.210 HD
ENDBRANCH   1  12
BRANCH   1  14
ATOM     14  C   LIG    1       26.362 -21.209   6.489  0.00  0.00    +0.117 C 
BRANCH  14  15
ATOM     15  N   LIG    1       25.034 -21.212   7.148  0.00  0.00    -0.308 NA
ATOM     16  H   LIG    1       25.057 -21.886   7.916  0.00  0.00    +0.122 HD
BRANCH  15  18
ATOM     17  C   LIG    1       22.957 -20.332   6.044  0.00  0.00    +0.027 C 
ATOM     18  C   LIG    1       23.883 -21.539   6.273  0.00  0.00    +0.011 C 
ATOM     19  C   LIG    1       24.465 -21.960   4.906  0.00  0.00    +0.027 C 
ATOM     20  C   LIG    1       23.074 -22.725   6.825  0.00  0.00    +0.027 C 
ENDBRANCH  15  18
ENDBRANCH  14  15
ENDBRANCH   1  14
TORSDOF 7
ENDMDL
MODEL 4
REMARK VINA RESULT:      -7.5      2.754      6.459
REMARK  Name = *****
REMARK                            x       y       z     vdW  Elec       q    Type
REMARK                         _______ _______ _______ _____ _____    ______ ____
ROOT
ATOM      1  C   LIG    1       27.478 -21.687   7.578  0.00  0.00    +0.158 C 
ENDROOT
BRANCH   1   2
ATOM      2  C   LIG    1       28.717 -20.822   7.434  0.00  0.00    -0.011 A 
ATOM      3  C   LIG    1       29.809 -20.997   8.296  0.00  0.00    +0.051 A 
ATOM      4  C   LIG    1       30.954 -20.205   8.160  0.00  0.00    +0.121 A 
ATOM      5  C   LIG    1       31.036 -19.231   7.176  0.00  0.00    +0.090 A 
ATOM      6  C   LIG    1       29.953 -19.046   6.330  0.00  0.00    +0.121 A 
ATOM      7  C   LIG    1       28.801 -19.830   6.446  0.00  0.00    +0.051 A 
BRANCH   4   8
ATOM      8  O   LIG    1       31.993 -20.438   9.013  0.00  0.00    -0.507 OA
ATOM      9  H   LIG    1       31.632 -20.793   9.840  0.00  0.00    +0.292 HD
ENDBRANCH   4   8
BRANCH   6  10
ATOM     10  O   LIG    1       30.046 -18.077   5.371  0.00  0.00    -0.507 OA
ATOM     11  H   LIG    1       29.154 -17.769   5.151  0.00  0.00    +0.292 HD
ENDBRANCH   6  10
ENDBRANCH   1   2
BRANCH   1  12
ATOM     12  O   LIG    1       26.880 -21.422   8.847  0.00  0.00    -0.386 OA
ATOM     13  H   LIG    1       26.122 -20.837   8.646  0.00  0.00    +0.210 HD
ENDBRANCH   1  12
BRANCH   1  14
ATOM     14  C   LIG    1       26.422 -21.455   6.458  0.00  0.00    +0.117 C 
BRANCH  14  15
ATOM     15  N   LIG    1       25.120 -21.065   7.050  0.00  0.00    -0.308 NA
ATOM     16  H   LIG    1       25.042 -21.501   7.972  0.00  0.00    +0.122 HD
BRANCH  15  18
ATOM     17  C   LIG    1       22.975 -20.231   6.045  0.00  0.00    +0.027 C 
ATOM     18  C   LIG    1       23.920 -21.427   6.259  0.00  0.00    +0.011 C 
ATOM     19  C   LIG    1       24.420 -21.893   4.874  0.00  0.00    +0.027 C 
ATOM     20  C   LIG    1       23.153 -22.595   6.900  0.00  0.00    +0.027 C 
ENDBRANCH  15  18
ENDBRANCH  14  15
ENDBRANCH   1  14
TORSDOF 7
ENDMDL
MODEL 5
REMARK VINA RESULT:      -7.4      2.801      6.186
REMARK  Name = *****
REMARK                            x       y       z     vdW  Elec       q    Type
REMARK                         _______ _______ _______ _____ _____    ______ ____
ROOT
ATOM      1  C   LIG    1       25.942 -20.737   6.057  0.00  0.00    +0.158 C 
ENDROOT
BRANCH   1   2
ATOM      2  C   LIG    1       27.383 -20.426   6.419  0.00  0.00    -0.011 A 
ATOM      3  C   LIG    1       28.094 -19.441   5.719  0.00  0.00    +0.051 A 
ATOM      4  C   LIG    1       29.421 -19.149   6.058  0.00  0.00    +0.121 A 
ATOM      5  C   LIG    1       30.061 -19.825   7.085  0.00  0.00    +0.090 A 
ATOM      6  C   LIG    1       29.365 -20.810   7.770  0.00  0.00    +0.121 A 
ATOM      7  C   LIG    1       28.038 -21.113   7.452  0.00  0.00    +0.051 A 
BRANCH   4   8
ATOM      8  O   LIG    1       30.052 -18.163   5.357  0.00  0.00    -0.507 OA
ATOM      9  H   LIG    1       29.508 -17.361   5.406  0.00  0.00    +0.292 HD
ENDBRANCH   4   8
BRANCH   6  10
ATOM     10  O   LIG    1       30.013 -21.472   8.774  0.00  0.00    -0.507 OA
ATOM     11  H   LIG    1       29.586 -22.332   8.907  0.00  0.00    +0.292 HD
ENDBRANCH   6  10
ENDBRANCH   1   2
BRANCH   1  12
ATOM     12  O   LIG    1       25.818 -20.734   4.634  0.00  0.00    -0.386 OA
ATOM     13  H   LIG    1       25.290 -19.936   4.434  0.00  0.00    +0.210 HD
ENDBRANCH   1  12
BRANCH   1  14
ATOM     14  C   LIG    1       25.441 -22.103   6.610  0.00  0.00    +0.117 C 
BRANCH  14  15
ATOM     15  N   LIG    1       25.128 -23.027   5.494  0.00  0.00    -0.308 NA
ATOM     16  H   LIG    1       24.294 -22.681   5.014  0.00  0.00    +0.122 HD
BRANCH  15  18
ATOM     17  C   LIG    1       25.070 -25.406   4.691  0.00  0.00    +0.027 C 
ATOM     18  C   LIG    1       24.894 -24.440   5.876  0.00  0.00    +0.011 C 
ATOM     19  C   LIG    1       25.952 -24.797   6.943  0.00  0.00    +0.027 C 
ATOM     20  C   LIG    1       23.505 -24.632   6.509  0.00  0.00    +0.027 C 
ENDBRANCH  15  18
ENDBRANCH  14  15
ENDBRANCH   1  14
TORSDOF 7
ENDMDL
MODEL 6
REMARK VINA RESULT:      -7.3      2.799      6.218
REMARK  Name = *****
REMARK                            x       y       z     vdW  Elec       q    Type
REMARK                         _______ _______ _______ _____ _____    ______ ____
ROOT
ATOM      1  C   LIG    1       25.913 -20.748   6.026  0.00  0.00    +0.158 C 
ENDROOT
BRANCH   1   2
ATOM      2  C   LIG    1       27.352 -20.427   6.386  0.00  0.00    -0.011 A 
ATOM      3  C   LIG    1       27.996 -21.119   7.421  0.00  0.00    +0.051 A 
ATOM      4  C   LIG    1       29.326 -20.828   7.749  0.00  0.00    +0.121 A 
ATOM      5  C   LIG    1       30.033 -19.853   7.063  0.00  0.00    +0.090 A 
ATOM      6  C   LIG    1       29.395 -19.156   6.048  0.00  0.00    +0.121 A 
ATOM      7  C   LIG    1       28.070 -19.435   5.701  0.00  0.00    +0.051 A 
BRANCH   4   8
ATOM      8  O   LIG    1       29.906 -21.552   8.750  0.00  0.00    -0.507 OA
ATOM      9  H   LIG    1       30.403 -20.941   9.316  0.00  0.00    +0.292 HD
ENDBRANCH   4   8
BRANCH   6  10
ATOM     10  O   LIG    1       30.103 -18.192   5.388  0.00  0.00    -0.507 OA
ATOM     11  H   LIG    1       30.653 -17.715   6.028  0.00  0.00    +0.292 HD
ENDBRANCH   6  10
ENDBRANCH   1   2
BRANCH   1  12
ATOM     12  O   LIG    1       25.787 -20.752   4.604  0.00  0.00    -0.386 OA
ATOM     13  H   LIG    1       25.935 -19.822   4.340  0.00  0.00    +0.210 HD
ENDBRANCH   1  12
BRANCH   1  14
ATOM     14  C   LIG    1       25.420 -22.113   6.586  0.00  0.00    +0.117 C 
BRANCH  14  15
ATOM     15  N   LIG    1       25.183 -23.070   5.478  0.00  0.00    -0.308 NA
ATOM     16  H   LIG    1       24.367 -22.753   4.949  0.00  0.00    +0.122 HD
BRANCH  15  18
ATOM     17  C   LIG    1       25.961 -24.949   6.951  0.00  0.00    +0.027 C 
ATOM     18  C   LIG    1       24.960 -24.478   5.881  0.00  0.00    +0.011 C 
ATOM     19  C   LIG    1       23.542 -24.551   6.491  0.00  0.00    +0.027 C 
ATOM     20  C   LIG    1       24.999 -25.425   4.670  0.00  0.00    +0.027 C 
ENDBRANCH  15  18
ENDBRANCH  14  15
ENDBRANCH   1  14
TORSDOF 7
ENDMDL
MODEL 7
REMARK VINA RESULT:      -7.3      3.976      5.565
REMARK  Name = *****
REMARK                            x       y       z     vdW  Elec       q    Type
REMARK                         _______ _______ _______ _____ _____    ______ ____
ROOT
ATOM      1  C   LIG    1       25.333 -24.799   5.657  0.00  0.00    +0.158 C 
ENDROOT
BRANCH   1   2
ATOM      2  C   LIG    1       25.225 -26.237   6.131  0.00  0.00    -0.011 A 
ATOM      3  C   LIG    1       26.065 -26.714   7.147  0.00  0.00    +0.051 A 
ATOM      4  C   LIG    1       25.961 -28.038   7.590  0.00  0.00    +0.121 A 
ATOM      5  C   LIG    1       25.032 -28.906   7.036  0.00  0.00    +0.090 A 
ATOM      6  C   LIG    1       24.209 -28.441   6.021  0.00  0.00    +0.121 A 
ATOM      7  C   LIG    1       24.293 -27.121   5.568  0.00  0.00    +0.051 A 
BRANCH   4   8
ATOM      8  O   LIG    1       26.789 -28.437   8.599  0.00  0.00    -0.507 OA
ATOM      9  H   LIG    1       27.087 -27.647   9.076  0.00  0.00    +0.292 HD
ENDBRANCH   4   8
BRANCH   6  10
ATOM     10  O   LIG    1       23.306 -29.311   5.479  0.00  0.00    -0.507 OA
ATOM     11  H   LIG    1       23.617 -29.579   4.601  0.00  0.00    +0.292 HD
ENDBRANCH   6  10
ENDBRANCH   1   2
BRANCH   1  12
ATOM     12  O   LIG    1       24.781 -24.709   4.343  0.00  0.00    -0.386 OA
ATOM     13  H   LIG    1       25.232 -25.414   3.837  0.00  0.00    +0.210 HD
ENDBRANCH   1  12
BRANCH   1  14
ATOM     14  C   LIG    1       24.609 -23.781   6.585  0.00  0.00    +0.117 C 
BRANCH  14  15
ATOM     15  N   LIG    1       23.540 -23.074   5.840  0.00  0.00    -0.308 NA
ATOM     16  H   LIG    1       23.552 -23.401   4.871  0.00  0.00    +0.122 HD
BRANCH  15  18
ATOM     17  C   LIG    1       22.407 -20.933   5.177  0.00  0.00    +0.027 C 
ATOM     18  C   LIG    1       23.632 -21.594   5.833  0.00  0.00    +0.011 C 
ATOM     19  C   LIG    1       23.684 -21.142   7.309  0.00  0.00    +0.027 C 
ATOM     20  C   LIG    1       24.921 -21.111   5.148  0.00  0.00    +0.027 C 
ENDBRANCH  15  18
ENDBRANCH  14  15
ENDBRANCH   1  14
TORSDOF 7
ENDMDL
MODEL 8
REMARK VINA RESULT:      -7.3      3.984      5.328
REMARK  Name = *****
REMARK                            x       y       z     vdW  Elec       q    Type
REMARK                         _______ _______ _______ _____ _____    ______ ____
ROOT
ATOM      1  C   LIG    1       25.322 -24.767   5.651  0.00  0.00    +0.158 C 
ENDROOT
BRANCH   1   2
ATOM      2  C   LIG    1       25.237 -26.202   6.139  0.00  0.00    -0.011 A 
ATOM      3  C   LIG    1       24.305 -27.088   5.580  0.00  0.00    +0.051 A 
ATOM      4  C   LIG    1       24.231 -28.414   6.024  0.00  0.00    +0.121 A 
ATOM      5  C   LIG    1       25.072 -28.879   7.024  0.00  0.00    +0.090 A 
ATOM      6  C   LIG    1       25.986 -28.002   7.589  0.00  0.00    +0.121 A 
ATOM      7  C   LIG    1       26.079 -26.676   7.156  0.00  0.00    +0.051 A 
BRANCH   4   8
ATOM      8  O   LIG    1       23.321 -29.235   5.425  0.00  0.00    -0.507 OA
ATOM      9  H   LIG    1       23.800 -29.978   5.026  0.00  0.00    +0.292 HD
ENDBRANCH   4   8
BRANCH   6  10
ATOM     10  O   LIG    1       26.800 -28.474   8.578  0.00  0.00    -0.507 OA
ATOM     11  H   LIG    1       26.663 -29.430   8.667  0.00  0.00    +0.292 HD
ENDBRANCH   6  10
ENDBRANCH   1   2
BRANCH   1  12
ATOM     12  O   LIG    1       24.764 -24.697   4.338  0.00  0.00    -0.386 OA
ATOM     13  H   LIG    1       25.199 -25.422   3.846  0.00  0.00    +0.210 HD
ENDBRANCH   1  12
BRANCH   1  14
ATOM     14  C   LIG    1       24.586 -23.752   6.572  0.00  0.00    +0.117 C 
BRANCH  14  15
ATOM     15  N   LIG    1       23.520 -23.050   5.819  0.00  0.00    -0.308 NA
ATOM     16  H   LIG    1       23.540 -23.379   4.851  0.00  0.00    +0.122 HD
BRANCH  15  18
ATOM     17  C   LIG    1       22.389 -20.916   5.131  0.00  0.00    +0.027 C 
ATOM     18  C   LIG    1       23.605 -21.570   5.811  0.00  0.00    +0.011 C 
ATOM     19  C   LIG    1       23.628 -21.115   7.287  0.00  0.00    +0.027 C 
ATOM     20  C   LIG    1       24.904 -21.083   5.148  0.00  0.00    +0.027 C 
ENDBRANCH  15  18
ENDBRANCH  14  15
ENDBRANCH   1  14
TORSDOF 7
ENDMDL
MODEL 9
REMARK VINA RESULT:      -7.1      3.082      6.263
REMARK  Name = *****
REMARK                            x       y       z     vdW  Elec       q    Type
REMARK                         _______ _______ _______ _____ _____    ______ ____
ROOT
ATOM      1  C   LIG    1       23.910 -24.168   6.740  0.00  0.00    +0.158 C 
ENDROOT
BRANCH   1   2
ATOM      2  C   LIG    1       24.670 -22.857   6.811  0.00  0.00    -0.011 A 
ATOM      3  C   LIG    1       24.956 -22.268   8.051  0.00  0.00    +0.051 A 
ATOM      4  C   LIG    1       25.664 -21.062   8.117  0.00  0.00    +0.121 A 
ATOM      5  C   LIG    1       26.095 -20.423   6.965  0.00  0.00    +0.090 A 
ATOM      6  C   LIG    1       25.802 -20.995   5.736  0.00  0.00    +0.121 A 
ATOM      7  C   LIG    1       25.101 -22.202   5.647  0.00  0.00    +0.051 A 
BRANCH   4   8
ATOM      8  O   LIG    1       25.933 -20.551   9.353  0.00  0.00    -0.507 OA
ATOM      9  H   LIG    1       26.891 -20.600   9.498  0.00  0.00    +0.292 HD
ENDBRANCH   4   8
BRANCH   6  10
ATOM     10  O   LIG    1       26.227 -20.348   4.610  0.00  0.00    -0.507 OA
ATOM     11  H   LIG    1       26.639 -20.993   4.016  0.00  0.00    +0.292 HD
ENDBRANCH   6  10
ENDBRANCH   1   2
BRANCH   1  12
ATOM     12  O   LIG    1       22.515 -23.882   6.624  0.00  0.00    -0.386 OA
ATOM     13  H   LIG    1       22.082 -24.758   6.628  0.00  0.00    +0.210 HD
ENDBRANCH   1  12
BRANCH   1  14
ATOM     14  C   LIG    1       24.344 -25.078   5.554  0.00  0.00    +0.117 C 
BRANCH  14  15
ATOM     15  N   LIG    1       23.928 -26.479   5.800  0.00  0.00    -0.308 NA
ATOM     16  H   LIG    1       23.423 -26.514   6.689  0.00  0.00    +0.122 HD
BRANCH  15  18
ATOM     17  C   LIG    1       24.538 -28.897   5.505  0.00  0.00    +0.027 C 
ATOM     18  C   LIG    1       25.023 -27.477   5.846  0.00  0.00    +0.011 C 
ATOM     19  C   LIG    1       26.056 -27.057   4.777  0.00  0.00    +0.027 C 
ATOM     20  C   LIG    1       25.731 -27.476   7.211  0.00  0.00    +0.027 C 
ENDBRANCH  15  18
ENDBRANCH  14  15
ENDBRANCH   1  14
TORSDOF 7
ENDMDL
