MODEL 1
REMARK VINA RESULT:      -9.0      0.000      0.000
REMARK  Name = *****
REMARK                            x       y       z     vdW  Elec       q    Type
REMARK                         _______ _______ _______ _____ _____    ______ ____
ROOT
ATOM      1  C   LIG    1       26.083 -27.510   7.610  0.00  0.00    +0.038 C 
ATOM      2  C   LIG    1       24.930 -28.169   6.838  0.00  0.00    -0.076 C 
ATOM      3  C   LIG    1       24.379 -29.380   7.174  0.00  0.00    -0.023 C 
ENDROOT
BRANCH   2   4
ATOM      4  C   LIG    1       24.693 -27.487   5.479  0.00  0.00    +0.030 C 
BRANCH   4   5
ATOM      5  C   LIG    1       25.615 -26.332   5.026  0.00  0.00    +0.005 C 
BRANCH   5   6
ATOM      6  C   LIG    1       25.130 -24.864   5.209  0.00  0.00    +0.003 C 
BRANCH   6   7
ATOM      7  C   LIG    1       24.934 -24.324   6.637  0.00  0.00    -0.014 C 
ATOM      8  C   LIG    1       23.578 -23.670   6.725  0.00  0.00    +0.007 C 
BRANCH   7   9
ATOM      9  C   LIG    1       25.814 -23.201   7.175  0.00  0.00    +0.003 C 
BRANCH   9  10
ATOM     10  C   LIG    1       25.226 -22.044   7.952  0.00  0.00    +0.000 C 
BRANCH  10  11
ATOM     11  C   LIG    1       25.907 -20.666   7.773  0.00  0.00    +0.003 C 
BRANCH  11  12
ATOM     12  C   LIG    1       26.980 -20.678   6.651  0.00  0.00    -0.014 C 
ATOM     13  C   LIG    1       28.275 -20.107   7.226  0.00  0.00    +0.007 C 
BRANCH  12  14
ATOM     14  C   LIG    1       26.629 -19.980   5.307  0.00  0.00    +0.003 C 
BRANCH  14  15
ATOM     15  C   LIG    1       25.377 -20.523   4.538  0.00  0.00    +0.000 C 
BRANCH  15  16
ATOM     16  C   LIG    1       24.332 -19.553   3.926  0.00  0.00    +0.003 C 
BRANCH  16  17
ATOM     17  C   LIG    1       22.880 -19.569   4.450  0.00  0.00    -0.017 C 
ATOM     18  C   LIG    1       22.238 -18.187   4.487  0.00  0.00    +0.007 C 
ATOM     19  C   LIG    1       22.759 -20.168   5.854  0.00  0.00    +0.007 C 
ENDBRANCH  16  17
ENDBRANCH  15  16
ENDBRANCH  14  15
ENDBRANCH  12  14
ENDBRANCH  11  12
ENDBRANCH  10  11
ENDBRANCH   9  10
ENDBRANCH   7   9
ENDBRANCH   6   7
ENDBRANCH   5   6
ENDBRANCH   4   5
ENDBRANCH   2   4
BRANCH   3  20
ATOM     20  C   LIG    1       24.894 -30.344   8.266  0.00  0.00    +0.066 C 
BRANCH  20  21
ATOM     21  C   LIG    1       24.605 -30.010   9.766  0.00  0.00    +0.010 C 
ATOM     22  C   LIG    1       23.162 -30.174  10.158  0.00  0.00    +0.191 C 
ATOM     23  O   LIG    1       22.360 -30.711   9.407  0.00  0.00    -0.287 OA
ATOM     24  C   LIG    1       22.718 -29.709  11.498  0.00  0.00    +0.033 A 
ATOM     25  C   LIG    1       23.601 -29.120  12.388  0.00  0.00    +0.033 A 
ATOM     26  C   LIG    1       23.193 -28.712  13.666  0.00  0.00    +0.012 A 
ATOM     27  C   LIG    1       21.868 -28.928  14.065  0.00  0.00    +0.001 A 
ATOM     28  C   LIG    1       20.980 -29.520  13.180  0.00  0.00    +0.001 A 
ATOM     29  C   LIG    1       25.001 -28.923  12.030  0.00  0.00    +0.190 C 
ATOM     30  O   LIG    1       25.738 -28.352  12.764  0.00  0.00    -0.287 OA
ATOM     31  C   LIG    1       21.389 -29.903  11.897  0.00  0.00    +0.012 A 
ATOM     32  C   LIG    1       25.435 -29.472  10.694  0.00  0.00    +0.004 C 
ATOM     33  C   LIG    1       26.914 -29.315  10.646  0.00  0.00    +0.048 C 
ENDBRANCH  20  21
ENDBRANCH   3  20
TORSDOF 14
ENDMDL
MODEL 2
REMARK VINA RESULT:      -8.8      0.980      2.812
REMARK  Name = *****
REMARK                            x       y       z     vdW  Elec       q    Type
REMARK                         _______ _______ _______ _____ _____    ______ ____
ROOT
ATOM      1  C   LIG    1       26.151 -27.834   7.920  0.00  0.00    +0.038 C 
ATOM      2  C   LIG    1       25.013 -28.495   7.128  0.00  0.00    -0.076 C 
ATOM      3  C   LIG    1       24.364 -29.634   7.529  0.00  0.00    -0.023 C 
ENDROOT
BRANCH   2   4
ATOM      4  C   LIG    1       24.913 -27.930   5.699  0.00  0.00    +0.030 C 
BRANCH   4   5
ATOM      5  C   LIG    1       25.795 -26.731   5.282  0.00  0.00    +0.005 C 
BRANCH   5   6
ATOM      6  C   LIG    1       25.107 -25.427   4.781  0.00  0.00    +0.003 C 
BRANCH   6   7
ATOM      7  C   LIG    1       24.869 -24.285   5.785  0.00  0.00    -0.014 C 
ATOM      8  C   LIG    1       25.936 -24.347   6.850  0.00  0.00    +0.007 C 
BRANCH   7   9
ATOM      9  C   LIG    1       23.617 -24.258   6.655  0.00  0.00    +0.003 C 
BRANCH   9  10
ATOM     10  C   LIG    1       22.728 -23.035   6.719  0.00  0.00    +0.000 C 
BRANCH  10  11
ATOM     11  C   LIG    1       23.328 -21.771   7.378  0.00  0.00    +0.003 C 
BRANCH  11  12
ATOM     12  C   LIG    1       23.624 -20.649   6.347  0.00  0.00    -0.014 C 
ATOM     13  C   LIG    1       22.506 -20.652   5.306  0.00  0.00    +0.007 C 
BRANCH  12  14
ATOM     14  C   LIG    1       25.014 -20.654   5.651  0.00  0.00    +0.003 C 
BRANCH  14  15
ATOM     15  C   LIG    1       26.270 -20.620   6.586  0.00  0.00    +0.000 C 
BRANCH  15  16
ATOM     16  C   LIG    1       27.651 -20.151   6.056  0.00  0.00    +0.003 C 
BRANCH  16  17
ATOM     17  C   LIG    1       28.766 -19.783   7.058  0.00  0.00    -0.017 C 
ATOM     18  C   LIG    1       29.915 -19.010   6.421  0.00  0.00    +0.007 C 
ATOM     19  C   LIG    1       29.366 -21.005   7.758  0.00  0.00    +0.007 C 
ENDBRANCH  16  17
ENDBRANCH  15  16
ENDBRANCH  14  15
ENDBRANCH  12  14
ENDBRANCH  11  12
ENDBRANCH  10  11
ENDBRANCH   9  10
ENDBRANCH   7   9
ENDBRANCH   6   7
ENDBRANCH   5   6
ENDBRANCH   4   5
ENDBRANCH   2   4
BRANCH   3  20
ATOM     20  C   LIG    1       24.741 -30.520   8.737  0.00  0.00    +0.066 C 
BRANCH  20  21
ATOM     21  C   LIG    1       24.357 -30.040  10.175  0.00  0.00    +0.010 C 
ATOM     22  C   LIG    1       22.886 -30.133  10.475  0.00  0.00    +0.191 C 
ATOM     23  O   LIG    1       22.122 -30.718   9.719  0.00  0.00    -0.287 OA
ATOM     24  C   LIG    1       22.363 -29.533  11.729  0.00  0.00    +0.033 A 
ATOM     25  C   LIG    1       23.199 -28.884  12.623  0.00  0.00    +0.033 A 
ATOM     26  C   LIG    1       22.715 -28.348  13.826  0.00  0.00    +0.012 A 
ATOM     27  C   LIG    1       21.359 -28.494  14.145  0.00  0.00    +0.001 A 
ATOM     28  C   LIG    1       20.518 -29.145  13.256  0.00  0.00    +0.001 A 
ATOM     29  C   LIG    1       24.627 -28.755  12.352  0.00  0.00    +0.190 C 
ATOM     30  O   LIG    1       25.327 -28.135  13.082  0.00  0.00    -0.287 OA
ATOM     31  C   LIG    1       21.005 -29.657  12.047  0.00  0.00    +0.012 A 
ATOM     32  C   LIG    1       25.136 -29.437  11.107  0.00  0.00    +0.004 C 
ATOM     33  C   LIG    1       26.619 -29.321  11.152  0.00  0.00    +0.048 C 
ENDBRANCH  20  21
ENDBRANCH   3  20
TORSDOF 14
ENDMDL
MODEL 3
REMARK VINA RESULT:      -8.5      1.416      3.261
REMARK  Name = *****
REMARK                            x       y       z     vdW  Elec       q    Type
REMARK                         _______ _______ _______ _____ _____    ______ ____
ROOT
ATOM      1  C   LIG    1       24.186 -29.765   8.013  0.00  0.00    +0.038 C 
ATOM      2  C   LIG    1       25.501 -29.014   8.266  0.00  0.00    -0.076 C 
ATOM      3  C   LIG    1       26.198 -29.069   9.446  0.00  0.00    -0.023 C 
ENDROOT
BRANCH   2   4
ATOM      4  C   LIG    1       25.768 -27.954   7.182  0.00  0.00    +0.030 C 
BRANCH   4   5
ATOM      5  C   LIG    1       24.587 -27.356   6.384  0.00  0.00    +0.005 C 
BRANCH   5   6
ATOM      6  C   LIG    1       24.870 -26.221   5.356  0.00  0.00    +0.003 C 
BRANCH   6   7
ATOM      7  C   LIG    1       24.687 -24.760   5.801  0.00  0.00    -0.014 C 
ATOM      8  C   LIG    1       25.789 -24.406   6.768  0.00  0.00    +0.007 C 
BRANCH   7   9
ATOM      9  C   LIG    1       23.467 -24.337   6.613  0.00  0.00    +0.003 C 
BRANCH   9  10
ATOM     10  C   LIG    1       23.312 -22.921   7.124  0.00  0.00    +0.000 C 
BRANCH  10  11
ATOM     11  C   LIG    1       22.740 -21.881   6.133  0.00  0.00    +0.003 C 
BRANCH  11  12
ATOM     12  C   LIG    1       23.578 -20.575   6.095  0.00  0.00    -0.014 C 
ATOM     13  C   LIG    1       22.954 -19.639   5.063  0.00  0.00    +0.007 C 
BRANCH  12  14
ATOM     14  C   LIG    1       25.109 -20.705   5.855  0.00  0.00    +0.003 C 
BRANCH  14  15
ATOM     15  C   LIG    1       26.037 -20.480   7.096  0.00  0.00    +0.000 C 
BRANCH  15  16
ATOM     16  C   LIG    1       27.427 -21.163   7.190  0.00  0.00    +0.003 C 
BRANCH  16  17
ATOM     17  C   LIG    1       28.681 -20.404   6.705  0.00  0.00    -0.017 C 
ATOM     18  C   LIG    1       29.411 -19.671   7.825  0.00  0.00    +0.007 C 
ATOM     19  C   LIG    1       28.372 -19.378   5.611  0.00  0.00    +0.007 C 
ENDBRANCH  16  17
ENDBRANCH  15  16
ENDBRANCH  14  15
ENDBRANCH  12  14
ENDBRANCH  11  12
ENDBRANCH  10  11
ENDBRANCH   9  10
ENDBRANCH   7   9
ENDBRANCH   6   7
ENDBRANCH   5   6
ENDBRANCH   4   5
ENDBRANCH   2   4
BRANCH   3  20
ATOM     20  C   LIG    1       25.730 -29.754  10.750  0.00  0.00    +0.066 C 
BRANCH  20  21
ATOM     21  C   LIG    1       24.928 -28.916  11.798  0.00  0.00    +0.010 C 
ATOM     22  C   LIG    1       23.458 -29.235  11.835  0.00  0.00    +0.191 C 
ATOM     23  O   LIG    1       23.005 -30.200  11.235  0.00  0.00    -0.287 OA
ATOM     24  C   LIG    1       22.551 -28.382  12.646  0.00  0.00    +0.033 A 
ATOM     25  C   LIG    1       23.029 -27.296  13.361  0.00  0.00    +0.033 A 
ATOM     26  C   LIG    1       22.182 -26.509  14.156  0.00  0.00    +0.012 A 
ATOM     27  C   LIG    1       20.826 -26.845  14.253  0.00  0.00    +0.001 A 
ATOM     28  C   LIG    1       20.343 -27.933  13.543  0.00  0.00    +0.001 A 
ATOM     29  C   LIG    1       24.444 -26.943  13.327  0.00  0.00    +0.190 C 
ATOM     30  O   LIG    1       24.838 -25.970  13.879  0.00  0.00    -0.287 OA
ATOM     31  C   LIG    1       21.190 -28.698  12.733  0.00  0.00    +0.012 A 
ATOM     32  C   LIG    1       25.347 -27.871  12.554  0.00  0.00    +0.004 C 
ATOM     33  C   LIG    1       26.737 -27.411  12.822  0.00  0.00    +0.048 C 
ENDBRANCH  20  21
ENDBRANCH   3  20
TORSDOF 14
ENDMDL
MODEL 4
REMARK VINA RESULT:      -8.4      2.876      9.946
REMARK  Name = *****
REMARK                            x       y       z     vdW  Elec       q    Type
REMARK                         _______ _______ _______ _____ _____    ______ ____
ROOT
ATOM      1  C   LIG    1       26.092 -24.823   6.471  0.00  0.00    +0.038 C 
ATOM      2  C   LIG    1       24.558 -24.840   6.411  0.00  0.00    -0.076 C 
ATOM      3  C   LIG    1       23.767 -23.781   6.776  0.00  0.00    -0.023 C 
ENDROOT
BRANCH   2   4
ATOM      4  C   LIG    1       24.012 -26.266   6.214  0.00  0.00    +0.030 C 
BRANCH   4   5
ATOM      5  C   LIG    1       24.991 -27.437   5.968  0.00  0.00    +0.005 C 
BRANCH   5   6
ATOM      6  C   LIG    1       24.568 -28.875   6.388  0.00  0.00    +0.003 C 
BRANCH   6   7
ATOM      7  C   LIG    1       25.151 -29.466   7.684  0.00  0.00    -0.014 C 
ATOM      8  C   LIG    1       24.029 -30.081   8.484  0.00  0.00    +0.007 C 
BRANCH   7   9
ATOM      9  C   LIG    1       25.777 -28.564   8.743  0.00  0.00    +0.003 C 
BRANCH   9  10
ATOM     10  C   LIG    1       26.978 -29.010   9.547  0.00  0.00    +0.000 C 
BRANCH  10  11
ATOM     11  C   LIG    1       26.704 -29.540  10.974  0.00  0.00    +0.003 C 
BRANCH  11  12
ATOM     12  C   LIG    1       25.487 -28.844  11.640  0.00  0.00    -0.014 C 
ATOM     13  C   LIG    1       26.015 -27.814  12.638  0.00  0.00    +0.007 C 
BRANCH  12  14
ATOM     14  C   LIG    1       24.413 -29.747  12.311  0.00  0.00    +0.003 C 
BRANCH  14  15
ATOM     15  C   LIG    1       22.916 -29.417  11.989  0.00  0.00    +0.000 C 
BRANCH  15  16
ATOM     16  C   LIG    1       22.016 -28.693  13.025  0.00  0.00    +0.003 C 
BRANCH  16  17
ATOM     17  C   LIG    1       21.750 -27.180  12.876  0.00  0.00    -0.017 C 
ATOM     18  C   LIG    1       22.747 -26.316  13.640  0.00  0.00    +0.007 C 
ATOM     19  C   LIG    1       20.346 -26.773  13.334  0.00  0.00    +0.007 C 
ENDBRANCH  16  17
ENDBRANCH  15  16
ENDBRANCH  14  15
ENDBRANCH  12  14
ENDBRANCH  11  12
ENDBRANCH  10  11
ENDBRANCH   9  10
ENDBRANCH   7   9
ENDBRANCH   6   7
ENDBRANCH   5   6
ENDBRANCH   4   5
ENDBRANCH   2   4
BRANCH   3  20
ATOM     20  C   LIG    1       24.248 -22.468   7.433  0.00  0.00    +0.066 C 
BRANCH  20  21
ATOM     21  C   LIG    1       25.358 -21.629   6.719  0.00  0.00    +0.010 C 
ATOM     22  C   LIG    1       26.558 -21.347   7.582  0.00  0.00    +0.191 C 
ATOM     23  O   LIG    1       26.705 -21.905   8.661  0.00  0.00    -0.287 OA
ATOM     24  C   LIG    1       27.596 -20.403   7.094  0.00  0.00    +0.033 A 
ATOM     25  C   LIG    1       27.478 -19.770   5.867  0.00  0.00    +0.033 A 
ATOM     26  C   LIG    1       28.473 -18.906   5.388  0.00  0.00    +0.012 A 
ATOM     27  C   LIG    1       29.626 -18.696   6.154  0.00  0.00    +0.001 A 
ATOM     28  C   LIG    1       29.752 -19.328   7.381  0.00  0.00    +0.001 A 
ATOM     29  C   LIG    1       26.316 -20.001   5.016  0.00  0.00    +0.190 C 
ATOM     30  O   LIG    1       26.181 -19.403   4.001  0.00  0.00    -0.287 OA
ATOM     31  C   LIG    1       28.743 -20.171   7.863  0.00  0.00    +0.012 A 
ATOM     32  C   LIG    1       25.317 -21.019   5.508  0.00  0.00    +0.004 C 
ATOM     33  C   LIG    1       24.343 -21.209   4.399  0.00  0.00    +0.048 C 
ENDBRANCH  20  21
ENDBRANCH   3  20
TORSDOF 14
ENDMDL
MODEL 5
REMARK VINA RESULT:      -8.3      2.906      9.567
REMARK  Name = *****
REMARK                            x       y       z     vdW  Elec       q    Type
REMARK                         _______ _______ _______ _____ _____    ______ ____
ROOT
ATOM      1  C   LIG    1       23.962 -25.036   6.330  0.00  0.00    +0.038 C 
ATOM      2  C   LIG    1       25.449 -25.142   6.699  0.00  0.00    -0.076 C 
ATOM      3  C   LIG    1       26.107 -24.236   7.490  0.00  0.00    -0.023 C 
ENDROOT
BRANCH   2   4
ATOM      4  C   LIG    1       26.178 -26.180   5.826  0.00  0.00    +0.030 C 
BRANCH   4   5
ATOM      5  C   LIG    1       25.401 -26.950   4.735  0.00  0.00    +0.005 C 
BRANCH   5   6
ATOM      6  C   LIG    1       24.623 -28.240   5.131  0.00  0.00    +0.003 C 
BRANCH   6   7
ATOM      7  C   LIG    1       25.212 -29.149   6.224  0.00  0.00    -0.014 C 
ATOM      8  C   LIG    1       25.380 -30.538   5.660  0.00  0.00    +0.007 C 
BRANCH   7   9
ATOM      9  C   LIG    1       24.421 -29.463   7.490  0.00  0.00    +0.003 C 
BRANCH   9  10
ATOM     10  C   LIG    1       25.040 -29.316   8.862  0.00  0.00    +0.000 C 
BRANCH  10  11
ATOM     11  C   LIG    1       26.285 -28.404   8.972  0.00  0.00    +0.003 C 
BRANCH  11  12
ATOM     12  C   LIG    1       27.068 -28.627  10.293  0.00  0.00    -0.014 C 
ATOM     13  C   LIG    1       26.987 -30.110  10.649  0.00  0.00    +0.007 C 
BRANCH  12  14
ATOM     14  C   LIG    1       26.682 -27.753  11.520  0.00  0.00    +0.003 C 
BRANCH  14  15
ATOM     15  C   LIG    1       25.783 -28.429  12.611  0.00  0.00    +0.000 C 
BRANCH  15  16
ATOM     16  C   LIG    1       24.253 -28.179  12.655  0.00  0.00    +0.003 C 
BRANCH  16  17
ATOM     17  C   LIG    1       23.683 -27.114  13.616  0.00  0.00    -0.017 C 
ATOM     18  C   LIG    1       22.277 -26.659  13.244  0.00  0.00    +0.007 C 
ATOM     19  C   LIG    1       24.561 -25.863  13.708  0.00  0.00    +0.007 C 
ENDBRANCH  16  17
ENDBRANCH  15  16
ENDBRANCH  14  15
ENDBRANCH  12  14
ENDBRANCH  11  12
ENDBRANCH  10  11
ENDBRANCH   9  10
ENDBRANCH   7   9
ENDBRANCH   6   7
ENDBRANCH   5   6
ENDBRANCH   4   5
ENDBRANCH   2   4
BRANCH   3  20
ATOM     20  C   LIG    1       25.532 -22.903   8.020  0.00  0.00    +0.066 C 
BRANCH  20  21
ATOM     21  C   LIG    1       25.382 -21.700   7.033  0.00  0.00    +0.010 C 
ATOM     22  C   LIG    1       23.958 -21.397   6.655  0.00  0.00    +0.191 C 
ATOM     23  O   LIG    1       23.022 -21.929   7.236  0.00  0.00    -0.287 OA
ATOM     24  C   LIG    1       23.689 -20.406   5.581  0.00  0.00    +0.033 A 
ATOM     25  C   LIG    1       24.720 -19.763   4.916  0.00  0.00    +0.033 A 
ATOM     26  C   LIG    1       24.469 -18.801   3.926  0.00  0.00    +0.012 A 
ATOM     27  C   LIG    1       23.145 -18.461   3.620  0.00  0.00    +0.001 A 
ATOM     28  C   LIG    1       22.109 -19.098   4.284  0.00  0.00    +0.001 A 
ATOM     29  C   LIG    1       26.112 -20.051   5.241  0.00  0.00    +0.190 C 
ATOM     30  O   LIG    1       26.993 -19.555   4.620  0.00  0.00    -0.287 OA
ATOM     31  C   LIG    1       22.367 -20.075   5.254  0.00  0.00    +0.012 A 
ATOM     32  C   LIG    1       26.350 -21.006   6.383  0.00  0.00    +0.004 C 
ATOM     33  C   LIG    1       27.816 -20.990   6.635  0.00  0.00    +0.048 C 
ENDBRANCH  20  21
ENDBRANCH   3  20
TORSDOF 14
ENDMDL
MODEL 6
REMARK VINA RESULT:      -8.2      2.973     10.117
REMARK  Name = *****
REMARK                            x       y       z     vdW  Elec       q    Type
REMARK                         _______ _______ _______ _____ _____    ______ ____
ROOT
ATOM      1  C   LIG    1       22.459 -23.233   6.723  0.00  0.00    +0.038 C 
ATOM      2  C   LIG    1       23.835 -23.913   6.789  0.00  0.00    -0.076 C 
ATOM      3  C   LIG    1       25.000 -23.253   7.088  0.00  0.00    -0.023 C 
ENDROOT
BRANCH   2   4
ATOM      4  C   LIG    1       23.803 -25.322   6.170  0.00  0.00    +0.030 C 
BRANCH   4   5
ATOM      5  C   LIG    1       25.112 -25.969   5.662  0.00  0.00    +0.005 C 
BRANCH   5   6
ATOM      6  C   LIG    1       25.823 -27.031   6.552  0.00  0.00    +0.003 C 
BRANCH   6   7
ATOM      7  C   LIG    1       25.359 -28.496   6.464  0.00  0.00    -0.014 C 
ATOM      8  C   LIG    1       24.375 -28.625   5.328  0.00  0.00    +0.007 C 
BRANCH   7   9
ATOM      9  C   LIG    1       24.555 -29.130   7.595  0.00  0.00    +0.003 C 
BRANCH   9  10
ATOM     10  C   LIG    1       24.892 -30.506   8.124  0.00  0.00    +0.000 C 
BRANCH  10  11
ATOM     11  C   LIG    1       25.484 -30.579   9.551  0.00  0.00    +0.003 C 
BRANCH  11  12
ATOM     12  C   LIG    1       25.456 -29.206  10.274  0.00  0.00    -0.014 C 
ATOM     13  C   LIG    1       26.847 -28.583  10.166  0.00  0.00    +0.007 C 
BRANCH  12  14
ATOM     14  C   LIG    1       24.960 -29.173  11.747  0.00  0.00    +0.003 C 
BRANCH  14  15
ATOM     15  C   LIG    1       23.432 -29.427  11.981  0.00  0.00    +0.000 C 
BRANCH  15  16
ATOM     16  C   LIG    1       22.659 -28.683  13.101  0.00  0.00    +0.003 C 
BRANCH  16  17
ATOM     17  C   LIG    1       22.246 -27.210  12.891  0.00  0.00    -0.017 C 
ATOM     18  C   LIG    1       23.135 -26.224  13.641  0.00  0.00    +0.007 C 
ATOM     19  C   LIG    1       20.799 -26.932  13.307  0.00  0.00    +0.007 C 
ENDBRANCH  16  17
ENDBRANCH  15  16
ENDBRANCH  14  15
ENDBRANCH  12  14
ENDBRANCH  11  12
ENDBRANCH  10  11
ENDBRANCH   9  10
ENDBRANCH   7   9
ENDBRANCH   6   7
ENDBRANCH   5   6
ENDBRANCH   4   5
ENDBRANCH   2   4
BRANCH   3  20
ATOM     20  C   LIG    1       25.164 -21.727   7.263  0.00  0.00    +0.066 C 
BRANCH  20  21
ATOM     21  C   LIG    1       26.509 -21.057   6.829  0.00  0.00    +0.010 C 
ATOM     22  C   LIG    1       27.635 -21.266   7.805  0.00  0.00    +0.191 C 
ATOM     23  O   LIG    1       27.528 -22.056   8.734  0.00  0.00    -0.287 OA
ATOM     24  C   LIG    1       28.909 -20.527   7.611  0.00  0.00    +0.033 A 
ATOM     25  C   LIG    1       29.079 -19.644   6.558  0.00  0.00    +0.033 A 
ATOM     26  C   LIG    1       30.292 -18.970   6.351  0.00  0.00    +0.012 A 
ATOM     27  C   LIG    1       31.368 -19.216   7.214  0.00  0.00    +0.001 A 
ATOM     28  C   LIG    1       31.205 -20.101   8.268  0.00  0.00    +0.001 A 
ATOM     29  C   LIG    1       28.000 -19.399   5.607  0.00  0.00    +0.190 C 
ATOM     30  O   LIG    1       28.121 -18.587   4.750  0.00  0.00    -0.287 OA
ATOM     31  C   LIG    1       29.984 -20.751   8.481  0.00  0.00    +0.012 A 
ATOM     32  C   LIG    1       26.747 -20.218   5.790  0.00  0.00    +0.004 C 
ATOM     33  C   LIG    1       25.889 -19.926   4.610  0.00  0.00    +0.048 C 
ENDBRANCH  20  21
ENDBRANCH   3  20
TORSDOF 14
ENDMDL
MODEL 7
REMARK VINA RESULT:      -8.1      1.293      2.283
REMARK  Name = *****
REMARK                            x       y       z     vdW  Elec       q    Type
REMARK                         _______ _______ _______ _____ _____    ______ ____
ROOT
ATOM      1  C   LIG    1       24.006 -31.704   7.554  0.00  0.00    +0.038 C 
ATOM      2  C   LIG    1       24.625 -30.306   7.703  0.00  0.00    -0.076 C 
ATOM      3  C   LIG    1       25.006 -29.763   8.904  0.00  0.00    -0.023 C 
ENDROOT
BRANCH   2   4
ATOM      4  C   LIG    1       24.467 -29.474   6.418  0.00  0.00    +0.030 C 
BRANCH   4   5
ATOM      5  C   LIG    1       25.494 -28.367   6.087  0.00  0.00    +0.005 C 
BRANCH   5   6
ATOM      6  C   LIG    1       25.334 -26.967   6.750  0.00  0.00    +0.003 C 
BRANCH   6   7
ATOM      7  C   LIG    1       24.529 -25.887   6.006  0.00  0.00    -0.014 C 
ATOM      8  C   LIG    1       25.000 -25.831   4.575  0.00  0.00    +0.007 C 
BRANCH   7   9
ATOM      9  C   LIG    1       24.652 -24.416   6.392  0.00  0.00    +0.003 C 
BRANCH   9  10
ATOM     10  C   LIG    1       25.976 -23.823   6.820  0.00  0.00    +0.000 C 
BRANCH  10  11
ATOM     11  C   LIG    1       25.930 -22.736   7.919  0.00  0.00    +0.003 C 
BRANCH  11  12
ATOM     12  C   LIG    1       25.660 -21.320   7.342  0.00  0.00    -0.014 C 
ATOM     13  C   LIG    1       26.762 -20.386   7.839  0.00  0.00    +0.007 C 
BRANCH  12  14
ATOM     14  C   LIG    1       24.261 -20.691   7.592  0.00  0.00    +0.003 C 
BRANCH  14  15
ATOM     15  C   LIG    1       23.056 -21.324   6.816  0.00  0.00    +0.000 C 
BRANCH  15  16
ATOM     16  C   LIG    1       22.696 -20.860   5.380  0.00  0.00    +0.003 C 
BRANCH  16  17
ATOM     17  C   LIG    1       23.302 -19.552   4.829  0.00  0.00    -0.017 C 
ATOM     18  C   LIG    1       22.251 -18.512   4.455  0.00  0.00    +0.007 C 
ATOM     19  C   LIG    1       24.185 -19.776   3.598  0.00  0.00    +0.007 C 
ENDBRANCH  16  17
ENDBRANCH  15  16
ENDBRANCH  14  15
ENDBRANCH  12  14
ENDBRANCH  11  12
ENDBRANCH  10  11
ENDBRANCH   9  10
ENDBRANCH   7   9
ENDBRANCH   6   7
ENDBRANCH   5   6
ENDBRANCH   4   5
ENDBRANCH   2   4
BRANCH   3  20
ATOM     20  C   LIG    1       24.755 -30.374  10.301  0.00  0.00    +0.066 C 
BRANCH  20  21
ATOM     21  C   LIG    1       24.339 -29.428  11.475  0.00  0.00    +0.010 C 
ATOM     22  C   LIG    1       22.857 -29.394  11.732  0.00  0.00    +0.191 C 
ATOM     23  O   LIG    1       22.103 -30.192  11.191  0.00  0.00    -0.287 OA
ATOM     24  C   LIG    1       22.310 -28.397  12.688  0.00  0.00    +0.033 A 
ATOM     25  C   LIG    1       23.133 -27.494  13.340  0.00  0.00    +0.033 A 
ATOM     26  C   LIG    1       22.626 -26.574  14.270  0.00  0.00    +0.012 A 
ATOM     27  C   LIG    1       21.257 -26.586  14.568  0.00  0.00    +0.001 A 
ATOM     28  C   LIG    1       20.429 -27.489  13.921  0.00  0.00    +0.001 A 
ATOM     29  C   LIG    1       24.572 -27.483  13.095  0.00  0.00    +0.190 C 
ATOM     30  O   LIG    1       25.264 -26.661  13.598  0.00  0.00    -0.287 OA
ATOM     31  C   LIG    1       20.940 -28.388  12.977  0.00  0.00    +0.012 A 
ATOM     32  C   LIG    1       25.103 -28.554  12.176  0.00  0.00    +0.004 C 
ATOM     33  C   LIG    1       26.586 -28.449  12.236  0.00  0.00    +0.048 C 
ENDBRANCH  20  21
ENDBRANCH   3  20
TORSDOF 14
ENDMDL
MODEL 8
REMARK VINA RESULT:      -8.1      1.779      3.976
REMARK  Name = *****
REMARK                            x       y       z     vdW  Elec       q    Type
REMARK                         _______ _______ _______ _____ _____    ______ ____
ROOT
ATOM      1  C   LIG    1       25.502 -32.682   8.758  0.00  0.00    +0.038 C 
ATOM      2  C   LIG    1       26.177 -31.379   8.304  0.00  0.00    -0.076 C 
ATOM      3  C   LIG    1       26.699 -30.448   9.165  0.00  0.00    -0.023 C 
ENDROOT
BRANCH   2   4
ATOM      4  C   LIG    1       25.911 -31.089   6.816  0.00  0.00    +0.030 C 
BRANCH   4   5
ATOM      5  C   LIG    1       24.544 -30.517   6.376  0.00  0.00    +0.005 C 
BRANCH   5   6
ATOM      6  C   LIG    1       24.184 -29.049   6.754  0.00  0.00    +0.003 C 
BRANCH   6   7
ATOM      7  C   LIG    1       25.018 -27.907   6.148  0.00  0.00    -0.014 C 
ATOM      8  C   LIG    1       25.961 -27.383   7.202  0.00  0.00    +0.007 C 
BRANCH   7   9
ATOM      9  C   LIG    1       24.356 -26.606   5.705  0.00  0.00    +0.003 C 
BRANCH   9  10
ATOM     10  C   LIG    1       25.100 -25.589   4.867  0.00  0.00    +0.000 C 
BRANCH  10  11
ATOM     11  C   LIG    1       24.895 -24.101   5.233  0.00  0.00    +0.003 C 
BRANCH  11  12
ATOM     12  C   LIG    1       24.489 -23.907   6.718  0.00  0.00    -0.014 C 
ATOM     13  C   LIG    1       22.997 -23.579   6.764  0.00  0.00    +0.007 C 
BRANCH  12  14
ATOM     14  C   LIG    1       25.296 -22.880   7.562  0.00  0.00    +0.003 C 
BRANCH  14  15
ATOM     15  C   LIG    1       24.858 -21.380   7.451  0.00  0.00    +0.000 C 
BRANCH  15  16
ATOM     16  C   LIG    1       25.157 -20.550   6.175  0.00  0.00    +0.003 C 
BRANCH  16  17
ATOM     17  C   LIG    1       24.094 -20.461   5.059  0.00  0.00    -0.017 C 
ATOM     18  C   LIG    1       24.528 -19.593   3.883  0.00  0.00    +0.007 C 
ATOM     19  C   LIG    1       22.751 -19.921   5.557  0.00  0.00    +0.007 C 
ENDBRANCH  16  17
ENDBRANCH  15  16
ENDBRANCH  14  15
ENDBRANCH  12  14
ENDBRANCH  11  12
ENDBRANCH  10  11
ENDBRANCH   9  10
ENDBRANCH   7   9
ENDBRANCH   6   7
ENDBRANCH   5   6
ENDBRANCH   4   5
ENDBRANCH   2   4
BRANCH   3  20
ATOM     20  C   LIG    1       26.578 -30.463  10.706  0.00  0.00    +0.066 C 
BRANCH  20  21
ATOM     21  C   LIG    1       25.632 -29.429  11.399  0.00  0.00    +0.010 C 
ATOM     22  C   LIG    1       26.341 -28.207  11.916  0.00  0.00    +0.191 C 
ATOM     23  O   LIG    1       27.508 -27.985  11.627  0.00  0.00    -0.287 OA
ATOM     24  C   LIG    1       25.595 -27.240  12.761  0.00  0.00    +0.033 A 
ATOM     25  C   LIG    1       24.264 -27.443  13.090  0.00  0.00    +0.033 A 
ATOM     26  C   LIG    1       23.546 -26.514  13.858  0.00  0.00    +0.012 A 
ATOM     27  C   LIG    1       24.180 -25.339  14.281  0.00  0.00    +0.001 A 
ATOM     28  C   LIG    1       25.510 -25.128  13.953  0.00  0.00    +0.001 A 
ATOM     29  C   LIG    1       23.553 -28.629  12.626  0.00  0.00    +0.190 C 
ATOM     30  O   LIG    1       22.437 -28.838  12.969  0.00  0.00    -0.287 OA
ATOM     31  C   LIG    1       26.226 -26.071  13.206  0.00  0.00    +0.012 A 
ATOM     32  C   LIG    1       24.317 -29.554  11.712  0.00  0.00    +0.004 C 
ATOM     33  C   LIG    1       23.336 -30.566  11.236  0.00  0.00    +0.048 C 
ENDBRANCH  20  21
ENDBRANCH   3  20
TORSDOF 14
ENDMDL
MODEL 9
REMARK VINA RESULT:      -8.0      1.243      3.624
REMARK  Name = *****
REMARK                            x       y       z     vdW  Elec       q    Type
REMARK                         _______ _______ _______ _____ _____    ______ ____
ROOT
ATOM      1  C   LIG    1       24.537 -29.871   7.354  0.00  0.00    +0.038 C 
ATOM      2  C   LIG    1       25.577 -28.965   8.031  0.00  0.00    -0.076 C 
ATOM      3  C   LIG    1       25.959 -29.087   9.343  0.00  0.00    -0.023 C 
ENDROOT
BRANCH   2   4
ATOM      4  C   LIG    1       25.889 -27.722   7.178  0.00  0.00    +0.030 C 
BRANCH   4   5
ATOM      5  C   LIG    1       24.756 -27.026   6.390  0.00  0.00    +0.005 C 
BRANCH   5   6
ATOM      6  C   LIG    1       25.117 -25.867   5.415  0.00  0.00    +0.003 C 
BRANCH   6   7
ATOM      7  C   LIG    1       24.866 -24.418   5.865  0.00  0.00    -0.014 C 
ATOM      8  C   LIG    1       25.873 -24.059   6.929  0.00  0.00    +0.007 C 
BRANCH   7   9
ATOM      9  C   LIG    1       23.571 -24.033   6.574  0.00  0.00    +0.003 C 
BRANCH   9  10
ATOM     10  C   LIG    1       23.330 -22.622   7.062  0.00  0.00    +0.000 C 
BRANCH  10  11
ATOM     11  C   LIG    1       22.627 -21.655   6.081  0.00  0.00    +0.003 C 
BRANCH  11  12
ATOM     12  C   LIG    1       23.453 -20.366   5.825  0.00  0.00    -0.014 C 
ATOM     13  C   LIG    1       22.620 -19.433   4.949  0.00  0.00    +0.007 C 
BRANCH  12  14
ATOM     14  C   LIG    1       24.884 -20.528   5.238  0.00  0.00    +0.003 C 
BRANCH  14  15
ATOM     15  C   LIG    1       26.071 -20.501   6.260  0.00  0.00    +0.000 C 
BRANCH  15  16
ATOM     16  C   LIG    1       27.486 -20.033   5.830  0.00  0.00    +0.003 C 
BRANCH  16  17
ATOM     17  C   LIG    1       28.578 -19.828   6.902  0.00  0.00    -0.017 C 
ATOM     18  C   LIG    1       29.784 -19.047   6.391  0.00  0.00    +0.007 C 
ATOM     19  C   LIG    1       29.098 -21.145   7.484  0.00  0.00    +0.007 C 
ENDBRANCH  16  17
ENDBRANCH  15  16
ENDBRANCH  14  15
ENDBRANCH  12  14
ENDBRANCH  11  12
ENDBRANCH  10  11
ENDBRANCH   9  10
ENDBRANCH   7   9
ENDBRANCH   6   7
ENDBRANCH   5   6
ENDBRANCH   4   5
ENDBRANCH   2   4
BRANCH   3  20
ATOM     20  C   LIG    1       25.329 -30.031  10.391  0.00  0.00    +0.066 C 
BRANCH  20  21
ATOM     21  C   LIG    1       23.994 -29.606  11.085  0.00  0.00    +0.010 C 
ATOM     22  C   LIG    1       24.168 -28.554  12.146  0.00  0.00    +0.191 C 
ATOM     23  O   LIG    1       25.232 -27.968  12.286  0.00  0.00    -0.287 OA
ATOM     24  C   LIG    1       23.014 -28.200  13.012  0.00  0.00    +0.033 A 
ATOM     25  C   LIG    1       21.785 -28.822  12.868  0.00  0.00    +0.033 A 
ATOM     26  C   LIG    1       20.683 -28.466  13.660  0.00  0.00    +0.012 A 
ATOM     27  C   LIG    1       20.819 -27.436  14.600  0.00  0.00    +0.001 A 
ATOM     28  C   LIG    1       22.045 -26.807  14.746  0.00  0.00    +0.001 A 
ATOM     29  C   LIG    1       21.588 -29.864  11.866  0.00  0.00    +0.190 C 
ATOM     30  O   LIG    1       20.557 -30.447  11.794  0.00  0.00    -0.287 OA
ATOM     31  C   LIG    1       23.146 -27.186  13.969  0.00  0.00    +0.012 A 
ATOM     32  C   LIG    1       22.757 -30.148  10.957  0.00  0.00    +0.004 C 
ATOM     33  C   LIG    1       22.254 -31.094   9.924  0.00  0.00    +0.048 C 
ENDBRANCH  20  21
ENDBRANCH   3  20
TORSDOF 14
ENDMDL
