MODEL 1
REMARK VINA RESULT:      -3.7      0.000      0.000
REMARK  Name = *****
REMARK                            x       y       z     vdW  Elec       q    Type
REMARK                         _______ _______ _______ _____ _____    ______ ____
ROOT
ATOM      1  C   LIG    1       25.886 -15.412   2.922  0.00  0.00    +0.144 C 
ENDROOT
BRANCH   1   2
ATOM      2  C   LIG    1       24.877 -14.234   3.131  0.00  0.00    +0.072 C 
ATOM      3  N   LIG    1       25.133 -13.145   2.160  0.00  0.00    -0.312 NA
ATOM      4  H   LIG    1       26.049 -12.735   2.341  0.00  0.00    +0.122 HD
ATOM      5  C   LIG    1       24.111 -12.103   2.240  0.00  0.00    +0.081 C 
ATOM      6  C   LIG    1       24.094 -11.448   3.616  0.00  0.00    +0.015 C 
ATOM      7  C   LIG    1       23.908 -12.493   4.713  0.00  0.00    +0.003 C 
ATOM      8  C   LIG    1       24.907 -13.646   4.560  0.00  0.00    +0.020 C 
ENDBRANCH   1   2
BRANCH   1   9
ATOM      9  C   LIG    1       25.388 -16.797   3.358  0.00  0.00    -0.032 A 
ATOM     10  C   LIG    1       26.214 -17.932   3.302  0.00  0.00    +0.004 A 
ATOM     11  C   LIG    1       25.739 -19.193   3.669  0.00  0.00    +0.000 A 
ATOM     12  C   LIG    1       24.423 -19.348   4.087  0.00  0.00    +0.000 A 
ATOM     13  C   LIG    1       23.581 -18.239   4.136  0.00  0.00    +0.000 A 
ATOM     14  C   LIG    1       24.055 -16.973   3.771  0.00  0.00    +0.004 A 
ENDBRANCH   1   9
BRANCH   1  15
ATOM     15  C   LIG    1       27.207 -15.098   3.616  0.00  0.00    +0.316 C 
ATOM     16  O   LIG    1       27.635 -15.708   4.588  0.00  0.00    -0.250 OA
BRANCH  15  18
ATOM     17  C   LIG    1       28.506 -13.161   3.915  0.00  0.00    +0.280 C 
ATOM     18  O   LIG    1       27.844 -14.049   3.017  0.00  0.00    -0.468 OA
ENDBRANCH  15  18
ENDBRANCH   1  15
TORSDOF 4
ENDMDL
MODEL 2
REMARK VINA RESULT:      -3.7      2.245      3.749
REMARK  Name = *****
REMARK                            x       y       z     vdW  Elec       q    Type
REMARK                         _______ _______ _______ _____ _____    ______ ____
ROOT
ATOM      1  C   LIG    1       24.597 -14.011   4.444  0.00  0.00    +0.144 C 
ENDROOT
BRANCH   1   2
ATOM      2  C   LIG    1       26.160 -13.926   4.445  0.00  0.00    +0.072 C 
ATOM      3  N   LIG    1       26.631 -12.930   5.436  0.00  0.00    -0.312 NA
ATOM      4  H   LIG    1       26.322 -11.999   5.157  0.00  0.00    +0.122 HD
ATOM      5  C   LIG    1       28.087 -12.942   5.560  0.00  0.00    +0.081 C 
ATOM      6  C   LIG    1       28.757 -12.576   4.241  0.00  0.00    +0.015 C 
ATOM      7  C   LIG    1       28.288 -13.497   3.118  0.00  0.00    +0.003 C 
ATOM      8  C   LIG    1       26.758 -13.576   3.064  0.00  0.00    +0.020 C 
ENDBRANCH   1   2
BRANCH   1   9
ATOM      9  C   LIG    1       24.010 -15.422   4.295  0.00  0.00    -0.032 A 
ATOM     10  C   LIG    1       22.713 -15.734   4.735  0.00  0.00    +0.004 A 
ATOM     11  C   LIG    1       22.202 -17.029   4.626  0.00  0.00    +0.000 A 
ATOM     12  C   LIG    1       22.984 -18.043   4.086  0.00  0.00    +0.000 A 
ATOM     13  C   LIG    1       24.279 -17.760   3.656  0.00  0.00    +0.000 A 
ATOM     14  C   LIG    1       24.793 -16.462   3.762  0.00  0.00    +0.004 A 
ENDBRANCH   1   9
BRANCH   1  15
ATOM     15  C   LIG    1       24.025 -13.098   3.364  0.00  0.00    +0.316 C 
ATOM     16  O   LIG    1       23.554 -13.497   2.306  0.00  0.00    -0.250 OA
BRANCH  15  18
ATOM     17  C   LIG    1       23.484 -11.468   4.968  0.00  0.00    +0.280 C 
ATOM     18  O   LIG    1       24.112 -11.786   3.728  0.00  0.00    -0.468 OA
ENDBRANCH  15  18
ENDBRANCH   1  15
TORSDOF 4
ENDMDL
MODEL 3
REMARK VINA RESULT:      -3.6      2.103      5.294
REMARK  Name = *****
REMARK                            x       y       z     vdW  Elec       q    Type
REMARK                         _______ _______ _______ _____ _____    ______ ____
ROOT
ATOM      1  C   LIG    1       25.130 -15.172   3.394  0.00  0.00    +0.144 C 
ENDROOT
BRANCH   1   2
ATOM      2  C   LIG    1       25.091 -16.664   3.864  0.00  0.00    +0.072 C 
ATOM      3  N   LIG    1       26.109 -17.467   3.149  0.00  0.00    -0.312 NA
ATOM      4  H   LIG    1       25.879 -17.503   2.155  0.00  0.00    +0.122 HD
ATOM      5  C   LIG    1       26.190 -18.827   3.678  0.00  0.00    +0.081 C 
ATOM      6  C   LIG    1       24.870 -19.568   3.506  0.00  0.00    +0.015 C 
ATOM      7  C   LIG    1       23.723 -18.791   4.146  0.00  0.00    +0.003 C 
ATOM      8  C   LIG    1       23.708 -17.331   3.678  0.00  0.00    +0.020 C 
ENDBRANCH   1   2
BRANCH   1   9
ATOM      9  C   LIG    1       26.363 -14.370   3.834  0.00  0.00    -0.032 A 
ATOM     10  C   LIG    1       26.504 -13.890   5.147  0.00  0.00    +0.004 A 
ATOM     11  C   LIG    1       27.614 -13.132   5.526  0.00  0.00    +0.000 A 
ATOM     12  C   LIG    1       28.600 -12.827   4.597  0.00  0.00    +0.000 A 
ATOM     13  C   LIG    1       28.475 -13.279   3.285  0.00  0.00    +0.000 A 
ATOM     14  C   LIG    1       27.364 -14.042   2.902  0.00  0.00    +0.004 A 
ENDBRANCH   1   9
BRANCH   1  15
ATOM     15  C   LIG    1       23.861 -14.450   3.840  0.00  0.00    +0.316 C 
ATOM     16  O   LIG    1       23.218 -14.746   4.839  0.00  0.00    -0.250 OA
BRANCH  15  18
ATOM     17  C   LIG    1       23.836 -12.131   3.458  0.00  0.00    +0.280 C 
ATOM     18  O   LIG    1       23.538 -13.441   2.979  0.00  0.00    -0.468 OA
ENDBRANCH  15  18
ENDBRANCH   1  15
TORSDOF 4
ENDMDL
MODEL 4
REMARK VINA RESULT:      -3.3      3.423      6.123
REMARK  Name = *****
REMARK                            x       y       z     vdW  Elec       q    Type
REMARK                         _______ _______ _______ _____ _____    ______ ____
ROOT
ATOM      1  C   LIG    1       26.109 -19.654   4.082  0.00  0.00    +0.144 C 
ENDROOT
BRANCH   1   2
ATOM      2  C   LIG    1       24.969 -20.600   4.589  0.00  0.00    +0.072 C 
ATOM      3  N   LIG    1       23.745 -20.431   3.772  0.00  0.00    -0.312 NA
ATOM      4  H   LIG    1       23.375 -19.489   3.902  0.00  0.00    +0.122 HD
ATOM      5  C   LIG    1       22.720 -21.409   4.131  0.00  0.00    +0.081 C 
ATOM      6  C   LIG    1       22.286 -21.247   5.583  0.00  0.00    +0.015 C 
ATOM      7  C   LIG    1       23.485 -21.330   6.522  0.00  0.00    +0.003 C 
ATOM      8  C   LIG    1       24.609 -20.387   6.077  0.00  0.00    +0.020 C 
ENDBRANCH   1   2
BRANCH   1   9
ATOM      9  C   LIG    1       27.282 -19.452   5.051  0.00  0.00    -0.032 A 
ATOM     10  C   LIG    1       28.291 -18.506   4.804  0.00  0.00    +0.004 A 
ATOM     11  C   LIG    1       29.373 -18.356   5.675  0.00  0.00    +0.000 A 
ATOM     12  C   LIG    1       29.475 -19.158   6.804  0.00  0.00    +0.000 A 
ATOM     13  C   LIG    1       28.494 -20.114   7.062  0.00  0.00    +0.000 A 
ATOM     14  C   LIG    1       27.407 -20.265   6.192  0.00  0.00    +0.004 A 
ENDBRANCH   1   9
BRANCH   1  15
ATOM     15  C   LIG    1       25.526 -18.299   3.689  0.00  0.00    +0.316 C 
ATOM     16  O   LIG    1       24.339 -18.010   3.778  0.00  0.00    -0.250 OA
BRANCH  15  18
ATOM     17  C   LIG    1       26.188 -16.072   3.333  0.00  0.00    +0.280 C 
ATOM     18  O   LIG    1       26.497 -17.460   3.224  0.00  0.00    -0.468 OA
ENDBRANCH  15  18
ENDBRANCH   1  15
TORSDOF 4
ENDMDL
MODEL 5
REMARK VINA RESULT:      -3.1      1.055      1.914
REMARK  Name = *****
REMARK                            x       y       z     vdW  Elec       q    Type
REMARK                         _______ _______ _______ _____ _____    ______ ____
ROOT
ATOM      1  C   LIG    1       26.041 -15.011   3.138  0.00  0.00    +0.144 C 
ENDROOT
BRANCH   1   2
ATOM      2  C   LIG    1       25.514 -13.542   3.263  0.00  0.00    +0.072 C 
ATOM      3  N   LIG    1       24.622 -13.403   4.437  0.00  0.00    -0.312 NA
ATOM      4  H   LIG    1       23.783 -13.967   4.298  0.00  0.00    +0.122 HD
ATOM      5  C   LIG    1       24.238 -12.010   4.658  0.00  0.00    +0.081 C 
ATOM      6  C   LIG    1       23.463 -11.454   3.470  0.00  0.00    +0.015 C 
ATOM      7  C   LIG    1       24.261 -11.612   2.179  0.00  0.00    +0.003 C 
ATOM      8  C   LIG    1       24.763 -13.050   2.005  0.00  0.00    +0.020 C 
ENDBRANCH   1   2
BRANCH   1   9
ATOM      9  C   LIG    1       25.026 -16.111   3.478  0.00  0.00    -0.032 A 
ATOM     10  C   LIG    1       23.771 -15.813   4.034  0.00  0.00    +0.004 A 
ATOM     11  C   LIG    1       22.869 -16.825   4.371  0.00  0.00    +0.000 A 
ATOM     12  C   LIG    1       23.210 -18.158   4.172  0.00  0.00    +0.000 A 
ATOM     13  C   LIG    1       24.456 -18.477   3.636  0.00  0.00    +0.000 A 
ATOM     14  C   LIG    1       25.361 -17.464   3.294  0.00  0.00    +0.004 A 
ENDBRANCH   1   9
BRANCH   1  15
ATOM     15  C   LIG    1       27.297 -15.188   3.988  0.00  0.00    +0.316 C 
ATOM     16  O   LIG    1       27.857 -16.262   4.168  0.00  0.00    -0.250 OA
BRANCH  15  18
ATOM     17  C   LIG    1       28.672 -13.299   3.738  0.00  0.00    +0.280 C 
ATOM     18  O   LIG    1       27.707 -14.000   4.519  0.00  0.00    -0.468 OA
ENDBRANCH  15  18
ENDBRANCH   1  15
TORSDOF 4
ENDMDL
MODEL 6
REMARK VINA RESULT:      -2.8      1.539      2.261
REMARK  Name = *****
REMARK                            x       y       z     vdW  Elec       q    Type
REMARK                         _______ _______ _______ _____ _____    ______ ____
ROOT
ATOM      1  C   LIG    1       26.164 -17.134   3.166  0.00  0.00    +0.144 C 
ENDROOT
BRANCH   1   2
ATOM      2  C   LIG    1       25.477 -15.740   2.982  0.00  0.00    +0.072 C 
ATOM      3  N   LIG    1       26.462 -14.723   2.546  0.00  0.00    -0.312 NA
ATOM      4  H   LIG    1       27.151 -14.576   3.284  0.00  0.00    +0.122 HD
ATOM      5  C   LIG    1       25.816 -13.453   2.224  0.00  0.00    +0.081 C 
ATOM      6  C   LIG    1       25.113 -12.865   3.443  0.00  0.00    +0.015 C 
ATOM      7  C   LIG    1       24.118 -13.862   4.029  0.00  0.00    +0.003 C 
ATOM      8  C   LIG    1       24.767 -15.231   4.258  0.00  0.00    +0.020 C 
ENDBRANCH   1   2
BRANCH   1   9
ATOM      9  C   LIG    1       25.252 -18.263   3.666  0.00  0.00    -0.032 A 
ATOM     10  C   LIG    1       25.749 -19.546   3.949  0.00  0.00    +0.004 A 
ATOM     11  C   LIG    1       24.903 -20.574   4.369  0.00  0.00    +0.000 A 
ATOM     12  C   LIG    1       23.539 -20.344   4.504  0.00  0.00    +0.000 A 
ATOM     13  C   LIG    1       23.021 -19.083   4.214  0.00  0.00    +0.000 A 
ATOM     14  C   LIG    1       23.868 -18.050   3.795  0.00  0.00    +0.004 A 
ENDBRANCH   1   9
BRANCH   1  15
ATOM     15  C   LIG    1       27.373 -17.003   4.088  0.00  0.00    +0.316 C 
ATOM     16  O   LIG    1       27.885 -15.935   4.402  0.00  0.00    -0.250 OA
BRANCH  15  18
ATOM     17  C   LIG    1       29.017 -18.201   5.267  0.00  0.00    +0.280 C 
ATOM     18  O   LIG    1       27.808 -18.226   4.511  0.00  0.00    -0.468 OA
ENDBRANCH  15  18
ENDBRANCH   1  15
TORSDOF 4
ENDMDL
MODEL 7
REMARK VINA RESULT:      -2.7      2.986      6.144
REMARK  Name = *****
REMARK                            x       y       z     vdW  Elec       q    Type
REMARK                         _______ _______ _______ _____ _____    ______ ____
ROOT
ATOM      1  C   LIG    1       26.324 -17.787   3.573  0.00  0.00    +0.144 C 
ENDROOT
BRANCH   1   2
ATOM      2  C   LIG    1       27.160 -18.313   4.788  0.00  0.00    +0.072 C 
ATOM      3  N   LIG    1       28.611 -18.160   4.532  0.00  0.00    -0.312 NA
ATOM      4  H   LIG    1       28.885 -18.758   3.752  0.00  0.00    +0.122 HD
ATOM      5  C   LIG    1       29.403 -18.505   5.710  0.00  0.00    +0.081 C 
ATOM      6  C   LIG    1       29.195 -19.961   6.110  0.00  0.00    +0.015 C 
ATOM      7  C   LIG    1       27.715 -20.259   6.330  0.00  0.00    +0.003 C 
ATOM      8  C   LIG    1       26.869 -19.790   5.141  0.00  0.00    +0.020 C 
ENDBRANCH   1   2
BRANCH   1   9
ATOM      9  C   LIG    1       26.072 -16.273   3.548  0.00  0.00    -0.032 A 
ATOM     10  C   LIG    1       24.782 -15.736   3.694  0.00  0.00    +0.004 A 
ATOM     11  C   LIG    1       24.560 -14.358   3.634  0.00  0.00    +0.000 A 
ATOM     12  C   LIG    1       25.622 -13.490   3.413  0.00  0.00    +0.000 A 
ATOM     13  C   LIG    1       26.908 -14.001   3.249  0.00  0.00    +0.000 A 
ATOM     14  C   LIG    1       27.134 -15.382   3.312  0.00  0.00    +0.004 A 
ENDBRANCH   1   9
BRANCH   1  15
ATOM     15  C   LIG    1       24.995 -18.532   3.492  0.00  0.00    +0.316 C 
ATOM     16  O   LIG    1       23.955 -18.140   4.008  0.00  0.00    -0.250 OA
BRANCH  15  18
ATOM     17  C   LIG    1       24.206 -20.719   3.146  0.00  0.00    +0.280 C 
ATOM     18  O   LIG    1       25.118 -19.688   2.777  0.00  0.00    -0.468 OA
ENDBRANCH  15  18
ENDBRANCH   1  15
TORSDOF 4
ENDMDL
MODEL 8
REMARK VINA RESULT:      -2.6      1.526      4.889
REMARK  Name = *****
REMARK                            x       y       z     vdW  Elec       q    Type
REMARK                         _______ _______ _______ _____ _____    ______ ____
ROOT
ATOM      1  C   LIG    1       25.189 -15.340   4.147  0.00  0.00    +0.144 C 
ENDROOT
BRANCH   1   2
ATOM      2  C   LIG    1       24.309 -16.574   3.757  0.00  0.00    +0.072 C 
ATOM      3  N   LIG    1       23.107 -16.655   4.619  0.00  0.00    -0.312 NA
ATOM      4  H   LIG    1       23.390 -16.834   5.583  0.00  0.00    +0.122 HD
ATOM      5  C   LIG    1       22.198 -17.711   4.177  0.00  0.00    +0.081 C 
ATOM      6  C   LIG    1       22.864 -19.080   4.248  0.00  0.00    +0.015 C 
ATOM      7  C   LIG    1       24.164 -19.095   3.449  0.00  0.00    +0.003 C 
ATOM      8  C   LIG    1       25.068 -17.919   3.832  0.00  0.00    +0.020 C 
ENDBRANCH   1   2
BRANCH   1   9
ATOM      9  C   LIG    1       24.691 -13.982   3.631  0.00  0.00    -0.032 A 
ATOM     10  C   LIG    1       24.719 -13.654   2.266  0.00  0.00    +0.004 A 
ATOM     11  C   LIG    1       24.296 -12.402   1.812  0.00  0.00    +0.000 A 
ATOM     12  C   LIG    1       23.850 -11.447   2.718  0.00  0.00    +0.000 A 
ATOM     13  C   LIG    1       23.828 -11.745   4.079  0.00  0.00    +0.000 A 
ATOM     14  C   LIG    1       24.249 -13.000   4.536  0.00  0.00    +0.004 A 
ENDBRANCH   1   9
BRANCH   1  15
ATOM     15  C   LIG    1       26.630 -15.564   3.699  0.00  0.00    +0.316 C 
ATOM     16  O   LIG    1       26.966 -16.375   2.844  0.00  0.00    -0.250 OA
BRANCH  15  18
ATOM     17  C   LIG    1       28.062 -13.702   3.595  0.00  0.00    +0.280 C 
ATOM     18  O   LIG    1       27.491 -14.749   4.377  0.00  0.00    -0.468 OA
ENDBRANCH  15  18
ENDBRANCH   1  15
TORSDOF 4
ENDMDL
MODEL 9
REMARK VINA RESULT:      -2.3      3.497      6.638
REMARK  Name = *****
REMARK                            x       y       z     vdW  Elec       q    Type
REMARK                         _______ _______ _______ _____ _____    ______ ____
ROOT
ATOM      1  C   LIG    1       25.745 -19.230   3.897  0.00  0.00    +0.144 C 
ENDROOT
BRANCH   1   2
ATOM      2  C   LIG    1       26.338 -19.743   5.252  0.00  0.00    +0.072 C 
ATOM      3  N   LIG    1       27.805 -19.922   5.148  0.00  0.00    -0.312 NA
ATOM      4  H   LIG    1       28.011 -20.664   4.479  0.00  0.00    +0.122 HD
ATOM      5  C   LIG    1       28.398 -20.256   6.441  0.00  0.00    +0.081 C 
ATOM      6  C   LIG    1       27.848 -21.571   6.980  0.00  0.00    +0.015 C 
ATOM      7  C   LIG    1       26.325 -21.531   7.062  0.00  0.00    +0.003 C 
ATOM      8  C   LIG    1       25.706 -21.068   5.738  0.00  0.00    +0.020 C 
ENDBRANCH   1   2
BRANCH   1   9
ATOM      9  C   LIG    1       25.726 -17.706   3.716  0.00  0.00    -0.032 A 
ATOM     10  C   LIG    1       26.909 -16.968   3.536  0.00  0.00    +0.004 A 
ATOM     11  C   LIG    1       26.882 -15.578   3.407  0.00  0.00    +0.000 A 
ATOM     12  C   LIG    1       25.674 -14.895   3.468  0.00  0.00    +0.000 A 
ATOM     13  C   LIG    1       24.490 -15.604   3.661  0.00  0.00    +0.000 A 
ATOM     14  C   LIG    1       24.513 -16.999   3.788  0.00  0.00    +0.004 A 
ENDBRANCH   1   9
BRANCH   1  15
ATOM     15  C   LIG    1       24.339 -19.790   3.698  0.00  0.00    +0.316 C 
ATOM     16  O   LIG    1       24.028 -20.563   2.801  0.00  0.00    -0.250 OA
BRANCH  15  18
ATOM     17  C   LIG    1       22.357 -20.154   4.909  0.00  0.00    +0.280 C 
ATOM     18  O   LIG    1       23.478 -19.313   4.645  0.00  0.00    -0.468 OA
ENDBRANCH  15  18
ENDBRANCH   1  15
TORSDOF 4
ENDMDL
