MODEL 1
REMARK VINA RESULT:      -3.7      0.000      0.000
REMARK  Name = *****
REMARK                            x       y       z     vdW  Elec       q    Type
REMARK                         _______ _______ _______ _____ _____    ______ ____
ROOT
ATOM      1  N   LIG    1       26.393 -18.906   4.192  0.00  0.00    -0.269 N 
ATOM      2  C   LIG    1       25.349 -19.773   4.435  0.00  0.00    +0.368 A 
ATOM      3  C   LIG    1       25.723 -20.542   5.508  0.00  0.00    +0.217 A 
ATOM      4  N   LIG    1       26.986 -20.210   5.904  0.00  0.00    -0.234 NA
ATOM      5  C   LIG    1       27.384 -19.232   5.111  0.00  0.00    +0.112 A 
ATOM      6  C   LIG    1       28.703 -18.558   5.256  0.00  0.00    +0.086 C 
ENDROOT
BRANCH   2   7
ATOM      7  N   LIG    1       24.115 -19.839   3.731  0.00  0.00    +0.100 N 
ATOM      8  O   LIG    1       24.025 -20.702   2.851  0.00  0.00    -0.575 OA
ATOM      9  O   LIG    1       23.224 -19.045   4.052  0.00  0.00    +0.043 OA
ENDBRANCH   2   7
BRANCH   1  10
ATOM     10  C   LIG    1       26.475 -17.842   3.195  0.00  0.00    +0.152 C 
BRANCH  10  11
ATOM     11  C   LIG    1       25.610 -16.641   3.549  0.00  0.00    +0.187 C 
BRANCH  11  12
ATOM     12  S   LIG    1       26.492 -15.097   3.464  0.00  0.00    -0.030 S 
ATOM     13  O   LIG    1       27.773 -15.294   4.129  0.00  0.00    -0.174 OA
ATOM     14  O   LIG    1       26.446 -14.661   2.074  0.00  0.00    -0.174 OA
BRANCH  12  16
ATOM     15  C   LIG    1       24.034 -14.065   4.188  0.00  0.00    +0.028 C 
ATOM     16  C   LIG    1       25.527 -13.959   4.435  0.00  0.00    +0.162 C 
ENDBRANCH  12  16
ENDBRANCH  11  12
ENDBRANCH  10  11
ENDBRANCH   1  10
TORSDOF 5
ENDMDL
MODEL 2
REMARK VINA RESULT:      -3.7      2.161      2.840
REMARK  Name = *****
REMARK                            x       y       z     vdW  Elec       q    Type
REMARK                         _______ _______ _______ _____ _____    ______ ____
ROOT
ATOM      1  N   LIG    1       26.026 -18.978   4.238  0.00  0.00    -0.269 N 
ATOM      2  C   LIG    1       26.780 -19.682   5.154  0.00  0.00    +0.368 A 
ATOM      3  C   LIG    1       25.944 -20.618   5.709  0.00  0.00    +0.217 A 
ATOM      4  N   LIG    1       24.685 -20.482   5.200  0.00  0.00    -0.234 NA
ATOM      5  C   LIG    1       24.739 -19.497   4.322  0.00  0.00    +0.112 A 
ATOM      6  C   LIG    1       23.566 -19.072   3.510  0.00  0.00    +0.086 C 
ENDROOT
BRANCH   2   7
ATOM      7  N   LIG    1       28.159 -19.493   5.447  0.00  0.00    +0.100 N 
ATOM      8  O   LIG    1       28.745 -20.438   5.985  0.00  0.00    -0.575 OA
ATOM      9  O   LIG    1       28.671 -18.412   5.135  0.00  0.00    +0.043 OA
ENDBRANCH   2   7
BRANCH   1  10
ATOM     10  C   LIG    1       26.456 -17.913   3.338  0.00  0.00    +0.152 C 
BRANCH  10  11
ATOM     11  C   LIG    1       25.553 -16.690   3.405  0.00  0.00    +0.187 C 
BRANCH  11  12
ATOM     12  S   LIG    1       26.457 -15.156   3.426  0.00  0.00    -0.030 S 
ATOM     13  O   LIG    1       27.697 -15.395   4.153  0.00  0.00    -0.174 OA
ATOM     14  O   LIG    1       26.492 -14.668   2.054  0.00  0.00    -0.174 OA
BRANCH  12  16
ATOM     15  C   LIG    1       23.967 -14.331   4.294  0.00  0.00    +0.028 C 
ATOM     16  C   LIG    1       25.454 -14.041   4.386  0.00  0.00    +0.162 C 
ENDBRANCH  12  16
ENDBRANCH  11  12
ENDBRANCH  10  11
ENDBRANCH   1  10
TORSDOF 5
ENDMDL
MODEL 3
REMARK VINA RESULT:      -3.2      2.871      5.761
REMARK  Name = *****
REMARK                            x       y       z     vdW  Elec       q    Type
REMARK                         _______ _______ _______ _____ _____    ______ ____
ROOT
ATOM      1  N   LIG    1       24.977 -15.673   3.723  0.00  0.00    -0.269 N 
ATOM      2  C   LIG    1       25.720 -14.521   3.577  0.00  0.00    +0.368 A 
ATOM      3  C   LIG    1       24.952 -13.497   4.070  0.00  0.00    +0.217 A 
ATOM      4  N   LIG    1       23.738 -13.973   4.472  0.00  0.00    -0.234 NA
ATOM      5  C   LIG    1       23.757 -15.277   4.259  0.00  0.00    +0.112 A 
ATOM      6  C   LIG    1       22.622 -16.171   4.617  0.00  0.00    +0.086 C 
ENDROOT
BRANCH   2   7
ATOM      7  N   LIG    1       27.035 -14.418   3.043  0.00  0.00    +0.100 N 
ATOM      8  O   LIG    1       27.134 -14.412   1.812  0.00  0.00    -0.575 OA
ATOM      9  O   LIG    1       27.975 -14.330   3.842  0.00  0.00    +0.043 OA
ENDBRANCH   2   7
BRANCH   1  10
ATOM     10  C   LIG    1       25.360 -17.046   3.407  0.00  0.00    +0.152 C 
BRANCH  10  11
ATOM     11  C   LIG    1       24.251 -18.045   3.701  0.00  0.00    +0.187 C 
BRANCH  11  12
ATOM     12  S   LIG    1       24.855 -19.698   3.973  0.00  0.00    -0.030 S 
ATOM     13  O   LIG    1       24.632 -20.447   2.744  0.00  0.00    -0.174 OA
ATOM     14  O   LIG    1       26.199 -19.571   4.521  0.00  0.00    -0.174 OA
BRANCH  12  16
ATOM     15  C   LIG    1       22.390 -19.817   5.214  0.00  0.00    +0.028 C 
ATOM     16  C   LIG    1       23.801 -20.374   5.239  0.00  0.00    +0.162 C 
ENDBRANCH  12  16
ENDBRANCH  11  12
ENDBRANCH  10  11
ENDBRANCH   1  10
TORSDOF 5
ENDMDL
MODEL 4
REMARK VINA RESULT:      -3.0      2.677      5.756
REMARK  Name = *****
REMARK                            x       y       z     vdW  Elec       q    Type
REMARK                         _______ _______ _______ _____ _____    ______ ____
ROOT
ATOM      1  N   LIG    1       24.651 -16.261   3.811  0.00  0.00    -0.269 N 
ATOM      2  C   LIG    1       25.336 -15.080   3.616  0.00  0.00    +0.368 A 
ATOM      3  C   LIG    1       24.513 -14.075   4.056  0.00  0.00    +0.217 A 
ATOM      4  N   LIG    1       23.321 -14.594   4.471  0.00  0.00    -0.234 NA
ATOM      5  C   LIG    1       23.407 -15.903   4.319  0.00  0.00    +0.112 A 
ATOM      6  C   LIG    1       22.316 -16.836   4.711  0.00  0.00    +0.086 C 
ENDROOT
BRANCH   2   7
ATOM      7  N   LIG    1       26.649 -14.935   3.087  0.00  0.00    +0.100 N 
ATOM      8  O   LIG    1       26.738 -14.466   1.948  0.00  0.00    -0.575 OA
ATOM      9  O   LIG    1       27.598 -15.272   3.803  0.00  0.00    +0.043 OA
ENDBRANCH   2   7
BRANCH   1  10
ATOM     10  C   LIG    1       25.106 -17.625   3.561  0.00  0.00    +0.152 C 
BRANCH  10  11
ATOM     11  C   LIG    1       23.957 -18.622   3.494  0.00  0.00    +0.187 C 
BRANCH  11  12
ATOM     12  S   LIG    1       24.282 -20.122   4.397  0.00  0.00    -0.030 S 
ATOM     13  O   LIG    1       23.514 -20.057   5.633  0.00  0.00    -0.174 OA
ATOM     14  O   LIG    1       24.085 -21.226   3.467  0.00  0.00    -0.174 OA
BRANCH  12  16
ATOM     15  C   LIG    1       26.319 -20.515   6.221  0.00  0.00    +0.028 C 
ATOM     16  C   LIG    1       26.013 -20.047   4.811  0.00  0.00    +0.162 C 
ENDBRANCH  12  16
ENDBRANCH  11  12
ENDBRANCH  10  11
ENDBRANCH   1  10
TORSDOF 5
ENDMDL
MODEL 5
REMARK VINA RESULT:      -2.6      3.064      5.280
REMARK  Name = *****
REMARK                            x       y       z     vdW  Elec       q    Type
REMARK                         _______ _______ _______ _____ _____    ______ ____
ROOT
ATOM      1  N   LIG    1       26.014 -15.521   3.588  0.00  0.00    -0.269 N 
ATOM      2  C   LIG    1       25.789 -14.193   3.292  0.00  0.00    +0.368 A 
ATOM      3  C   LIG    1       26.993 -13.552   3.436  0.00  0.00    +0.217 A 
ATOM      4  N   LIG    1       27.945 -14.434   3.858  0.00  0.00    -0.234 NA
ATOM      5  C   LIG    1       27.353 -15.611   3.950  0.00  0.00    +0.112 A 
ATOM      6  C   LIG    1       28.077 -16.853   4.338  0.00  0.00    +0.086 C 
ENDROOT
BRANCH   2   7
ATOM      7  N   LIG    1       24.556 -13.607   2.891  0.00  0.00    +0.100 N 
ATOM      8  O   LIG    1       24.554 -13.004   1.813  0.00  0.00    -0.575 OA
ATOM      9  O   LIG    1       23.580 -13.752   3.637  0.00  0.00    +0.043 OA
ENDBRANCH   2   7
BRANCH   1  10
ATOM     10  C   LIG    1       25.073 -16.636   3.529  0.00  0.00    +0.152 C 
BRANCH  10  11
ATOM     11  C   LIG    1       25.750 -17.956   3.189  0.00  0.00    +0.187 C 
BRANCH  11  12
ATOM     12  S   LIG    1       24.829 -19.374   3.746  0.00  0.00    -0.030 S 
ATOM     13  O   LIG    1       24.699 -20.278   2.612  0.00  0.00    -0.174 OA
ATOM     14  O   LIG    1       25.459 -19.829   4.979  0.00  0.00    -0.174 OA
BRANCH  12  16
ATOM     15  C   LIG    1       22.510 -19.537   5.239  0.00  0.00    +0.028 C 
ATOM     16  C   LIG    1       23.212 -18.748   4.149  0.00  0.00    +0.162 C 
ENDBRANCH  12  16
ENDBRANCH  11  12
ENDBRANCH  10  11
ENDBRANCH   1  10
TORSDOF 5
ENDMDL
MODEL 6
REMARK VINA RESULT:      -2.4      2.044      2.924
REMARK  Name = *****
REMARK                            x       y       z     vdW  Elec       q    Type
REMARK                         _______ _______ _______ _____ _____    ______ ____
ROOT
ATOM      1  N   LIG    1       24.068 -17.948   3.951  0.00  0.00    -0.269 N 
ATOM      2  C   LIG    1       23.801 -19.295   4.071  0.00  0.00    +0.368 A 
ATOM      3  C   LIG    1       22.508 -19.399   4.517  0.00  0.00    +0.217 A 
ATOM      4  N   LIG    1       21.983 -18.155   4.723  0.00  0.00    -0.234 NA
ATOM      5  C   LIG    1       22.922 -17.291   4.385  0.00  0.00    +0.112 A 
ATOM      6  C   LIG    1       22.717 -15.817   4.423  0.00  0.00    +0.086 C 
ENDROOT
BRANCH   2   7
ATOM      7  N   LIG    1       24.684 -20.369   3.768  0.00  0.00    +0.100 N 
ATOM      8  O   LIG    1       24.301 -21.177   2.916  0.00  0.00    -0.575 OA
ATOM      9  O   LIG    1       25.766 -20.411   4.364  0.00  0.00    +0.043 OA
ENDBRANCH   2   7
BRANCH   1  10
ATOM     10  C   LIG    1       25.283 -17.305   3.459  0.00  0.00    +0.152 C 
BRANCH  10  11
ATOM     11  C   LIG    1       25.137 -15.795   3.339  0.00  0.00    +0.187 C 
BRANCH  11  12
ATOM     12  S   LIG    1       26.698 -14.939   3.375  0.00  0.00    -0.030 S 
ATOM     13  O   LIG    1       27.684 -15.861   3.921  0.00  0.00    -0.174 OA
ATOM     14  O   LIG    1       26.890 -14.356   2.053  0.00  0.00    -0.174 OA
BRANCH  12  16
ATOM     15  C   LIG    1       25.076 -13.012   4.512  0.00  0.00    +0.028 C 
ATOM     16  C   LIG    1       26.471 -13.610   4.539  0.00  0.00    +0.162 C 
ENDBRANCH  12  16
ENDBRANCH  11  12
ENDBRANCH  10  11
ENDBRANCH   1  10
TORSDOF 5
ENDMDL
MODEL 7
REMARK VINA RESULT:      -2.3      1.635      1.998
REMARK  Name = *****
REMARK                            x       y       z     vdW  Elec       q    Type
REMARK                         _______ _______ _______ _____ _____    ______ ____
ROOT
ATOM      1  N   LIG    1       24.545 -18.668   4.032  0.00  0.00    -0.269 N 
ATOM      2  C   LIG    1       23.284 -18.885   4.544  0.00  0.00    +0.368 A 
ATOM      3  C   LIG    1       23.377 -19.984   5.359  0.00  0.00    +0.217 A 
ATOM      4  N   LIG    1       24.648 -20.483   5.328  0.00  0.00    -0.234 NA
ATOM      5  C   LIG    1       25.342 -19.692   4.530  0.00  0.00    +0.112 A 
ATOM      6  C   LIG    1       26.797 -19.877   4.274  0.00  0.00    +0.086 C 
ENDROOT
BRANCH   2   7
ATOM      7  N   LIG    1       22.118 -18.107   4.297  0.00  0.00    +0.100 N 
ATOM      8  O   LIG    1       21.210 -18.655   3.664  0.00  0.00    -0.575 OA
ATOM      9  O   LIG    1       22.093 -16.952   4.738  0.00  0.00    +0.043 OA
ENDBRANCH   2   7
BRANCH   1  10
ATOM     10  C   LIG    1       24.996 -17.589   3.158  0.00  0.00    +0.152 C 
BRANCH  10  11
ATOM     11  C   LIG    1       26.282 -16.939   3.647  0.00  0.00    +0.187 C 
BRANCH  11  12
ATOM     12  S   LIG    1       26.254 -15.162   3.529  0.00  0.00    -0.030 S 
ATOM     13  O   LIG    1       27.176 -14.648   4.533  0.00  0.00    -0.174 OA
ATOM     14  O   LIG    1       26.438 -14.830   2.123  0.00  0.00    -0.174 OA
BRANCH  12  16
ATOM     15  C   LIG    1       24.372 -13.194   3.997  0.00  0.00    +0.028 C 
ATOM     16  C   LIG    1       24.601 -14.694   3.997  0.00  0.00    +0.162 C 
ENDBRANCH  12  16
ENDBRANCH  11  12
ENDBRANCH  10  11
ENDBRANCH   1  10
TORSDOF 5
ENDMDL
MODEL 8
REMARK VINA RESULT:      -1.8      2.185      3.305
REMARK  Name = *****
REMARK                            x       y       z     vdW  Elec       q    Type
REMARK                         _______ _______ _______ _____ _____    ______ ____
ROOT
ATOM      1  N   LIG    1       24.173 -17.612   3.773  0.00  0.00    -0.269 N 
ATOM      2  C   LIG    1       23.956 -18.958   3.977  0.00  0.00    +0.368 A 
ATOM      3  C   LIG    1       22.720 -19.070   4.560  0.00  0.00    +0.217 A 
ATOM      4  N   LIG    1       22.186 -17.831   4.768  0.00  0.00    -0.234 NA
ATOM      5  C   LIG    1       23.062 -16.961   4.297  0.00  0.00    +0.112 A 
ATOM      6  C   LIG    1       22.822 -15.492   4.295  0.00  0.00    +0.086 C 
ENDROOT
BRANCH   2   7
ATOM      7  N   LIG    1       24.831 -20.025   3.627  0.00  0.00    +0.100 N 
ATOM      8  O   LIG    1       25.858 -20.143   4.303  0.00  0.00    -0.575 OA
ATOM      9  O   LIG    1       24.498 -20.758   2.689  0.00  0.00    +0.043 OA
ENDBRANCH   2   7
BRANCH   1  10
ATOM     10  C   LIG    1       25.312 -16.964   3.130  0.00  0.00    +0.152 C 
BRANCH  10  11
ATOM     11  C   LIG    1       26.043 -16.008   4.061  0.00  0.00    +0.187 C 
BRANCH  11  12
ATOM     12  S   LIG    1       26.279 -14.391   3.353  0.00  0.00    -0.030 S 
ATOM     13  O   LIG    1       26.882 -14.578   2.040  0.00  0.00    -0.174 OA
ATOM     14  O   LIG    1       25.013 -13.683   3.486  0.00  0.00    -0.174 OA
BRANCH  12  16
ATOM     15  C   LIG    1       28.673 -13.046   3.659  0.00  0.00    +0.028 C 
ATOM     16  C   LIG    1       27.473 -13.594   4.408  0.00  0.00    +0.162 C 
ENDBRANCH  12  16
ENDBRANCH  11  12
ENDBRANCH  10  11
ENDBRANCH   1  10
TORSDOF 5
ENDMDL
MODEL 9
REMARK VINA RESULT:      -1.1      3.300      5.283
REMARK  Name = *****
REMARK                            x       y       z     vdW  Elec       q    Type
REMARK                         _______ _______ _______ _____ _____    ______ ____
ROOT
ATOM      1  N   LIG    1       25.172 -15.405   3.753  0.00  0.00    -0.269 N 
ATOM      2  C   LIG    1       23.907 -14.940   4.043  0.00  0.00    +0.368 A 
ATOM      3  C   LIG    1       23.844 -13.656   3.565  0.00  0.00    +0.217 A 
ATOM      4  N   LIG    1       25.047 -13.296   3.030  0.00  0.00    -0.234 NA
ATOM      5  C   LIG    1       25.840 -14.345   3.148  0.00  0.00    +0.112 A 
ATOM      6  C   LIG    1       27.237 -14.366   2.634  0.00  0.00    +0.086 C 
ENDROOT
BRANCH   2   7
ATOM      7  N   LIG    1       22.863 -15.659   4.690  0.00  0.00    +0.100 N 
ATOM      8  O   LIG    1       22.439 -15.187   5.750  0.00  0.00    -0.575 OA
ATOM      9  O   LIG    1       22.450 -16.688   4.144  0.00  0.00    +0.043 OA
ENDBRANCH   2   7
BRANCH   1  10
ATOM     10  C   LIG    1       25.730 -16.731   3.998  0.00  0.00    +0.152 C 
BRANCH  10  11
ATOM     11  C   LIG    1       25.166 -17.786   3.057  0.00  0.00    +0.187 C 
BRANCH  11  12
ATOM     12  S   LIG    1       25.108 -19.410   3.785  0.00  0.00    -0.030 S 
ATOM     13  O   LIG    1       25.057 -20.372   2.693  0.00  0.00    -0.174 OA
ATOM     14  O   LIG    1       26.181 -19.471   4.768  0.00  0.00    -0.174 OA
BRANCH  12  16
ATOM     15  C   LIG    1       23.555 -20.433   5.829  0.00  0.00    +0.028 C 
ATOM     16  C   LIG    1       23.555 -19.471   4.656  0.00  0.00    +0.162 C 
ENDBRANCH  12  16
ENDBRANCH  11  12
ENDBRANCH  10  11
ENDBRANCH   1  10
TORSDOF 5
ENDMDL
