MODEL 1
REMARK VINA RESULT:      -5.1      0.000      0.000
REMARK  Name = *****
REMARK                            x       y       z     vdW  Elec       q    Type
REMARK                         _______ _______ _______ _____ _____    ______ ____
ROOT
ATOM      1  C   LIG    1       22.086 -30.771  12.651  0.00  0.00    +0.064 A 
ATOM      2  C   LIG    1       22.842 -31.169  11.535  0.00  0.00    +0.049 A 
ATOM      3  I   LIG    1       23.873 -33.145  12.257  0.00  0.00    -0.041 I 
ATOM      4  C   LIG    1       23.807 -30.323  10.946  0.00  0.00    +0.065 A 
ATOM      5  C   LIG    1       24.178 -29.143  11.625  0.00  0.00    +0.040 A 
ATOM      6  I   LIG    1       26.463 -29.616  12.139  0.00  0.00    -0.042 I 
ATOM      7  C   LIG    1       23.490 -28.734  12.777  0.00  0.00    +0.065 A 
ATOM      8  C   LIG    1       22.581 -29.646  13.346  0.00  0.00    +0.049 A 
ATOM      9  I   LIG    1       23.814 -30.318  15.333  0.00  0.00    -0.041 I 
ENDROOT
BRANCH   7  10
ATOM     10  C   LIG    1       23.400 -27.290  13.182  0.00  0.00    +0.246 C 
ATOM     11  N   LIG    1       22.171 -26.639  13.222  0.00  0.00    -0.309 N 
ATOM     12  H   LIG    1       22.254 -25.702  13.601  0.00  0.00    +0.149 HD
ATOM     13  O   LIG    1       24.408 -26.665  13.458  0.00  0.00    -0.270 OA
BRANCH  11  14
ATOM     14  C   LIG    1       20.824 -27.130  12.910  0.00  0.00    +0.132 C 
BRANCH  14  15
ATOM     15  C   LIG    1       19.938 -27.323  14.124  0.00  0.00    +0.174 C 
BRANCH  15  16
ATOM     16  O   LIG    1       18.815 -28.119  13.793  0.00  0.00    -0.394 OA
ATOM     17  H   LIG    1       18.104 -27.898  14.421  0.00  0.00    +0.209 HD
ENDBRANCH  15  16
ENDBRANCH  14  15
ENDBRANCH  11  14
ENDBRANCH   7  10
BRANCH   1  20
ATOM     18  C   LIG    1       20.576 -32.087  14.904  0.00  0.00    +0.110 C 
ATOM     19  C   LIG    1       19.894 -31.416  13.739  0.00  0.00    +0.217 C 
ATOM     20  N   LIG    1       20.648 -31.010  12.617  0.00  0.00    -0.267 N 
ATOM     21  O   LIG    1       18.665 -31.334  13.808  0.00  0.00    -0.276 OA
BRANCH  20  22
ATOM     22  C   LIG    1       19.914 -30.431  11.452  0.00  0.00    +0.147 C 
BRANCH  22  23
ATOM     23  C   LIG    1       19.480 -31.450  10.353  0.00  0.00    +0.158 C 
BRANCH  23  24
ATOM     24  O   LIG    1       19.683 -32.785  10.840  0.00  0.00    -0.388 OA
ATOM     25  H   LIG    1       20.249 -32.690  11.631  0.00  0.00    +0.210 HD
ENDBRANCH  23  24
BRANCH  23  26
ATOM     26  C   LIG    1       18.011 -31.315   9.949  0.00  0.00    +0.188 C 
BRANCH  26  27
ATOM     27  O   LIG    1       17.273 -30.909  11.098  0.00  0.00    -0.392 OA
ATOM     28  H   LIG    1       17.410 -29.952  11.204  0.00  0.00    +0.209 HD
ENDBRANCH  26  27
ENDBRANCH  23  26
ENDBRANCH  22  23
ENDBRANCH  20  22
ENDBRANCH   1  20
BRANCH   4  29
ATOM     29  C   LIG    1       23.961 -30.292   9.469  0.00  0.00    +0.246 C 
ATOM     30  N   LIG    1       25.178 -30.021   8.952  0.00  0.00    -0.309 N 
ATOM     31  H   LIG    1       25.970 -29.812   9.575  0.00  0.00    +0.149 HD
ATOM     32  O   LIG    1       22.964 -30.568   8.740  0.00  0.00    -0.270 OA
BRANCH  30  33
ATOM     33  C   LIG    1       25.459 -29.880   7.522  0.00  0.00    +0.138 C 
BRANCH  33  34
ATOM     34  C   LIG    1       24.979 -28.530   6.962  0.00  0.00    +0.157 C 
BRANCH  34  35
ATOM     35  O   LIG    1       26.110 -27.651   6.845  0.00  0.00    -0.388 OA
ATOM     36  H   LIG    1       26.831 -28.012   7.391  0.00  0.00    +0.210 HD
ENDBRANCH  34  35
BRANCH  34  37
ATOM     37  C   LIG    1       24.267 -28.685   5.609  0.00  0.00    +0.188 C 
BRANCH  37  38
ATOM     38  O   LIG    1       23.241 -29.677   5.677  0.00  0.00    -0.392 OA
ATOM     39  H   LIG    1       23.280 -30.052   6.578  0.00  0.00    +0.209 HD
ENDBRANCH  37  38
ENDBRANCH  34  37
ENDBRANCH  33  34
ENDBRANCH  30  33
ENDBRANCH   4  29
TORSDOF 16
ENDMDL
MODEL 2
REMARK VINA RESULT:      -5.0      3.514      5.713
REMARK  Name = *****
REMARK                            x       y       z     vdW  Elec       q    Type
REMARK                         _______ _______ _______ _____ _____    ______ ____
ROOT
ATOM      1  C   LIG    1       23.877 -29.265  13.599  0.00  0.00    +0.064 A 
ATOM      2  C   LIG    1       23.859 -29.423  12.203  0.00  0.00    +0.049 A 
ATOM      3  I   LIG    1       21.652 -30.075  11.761  0.00  0.00    -0.041 I 
ATOM      4  C   LIG    1       24.750 -30.294  11.538  0.00  0.00    +0.065 A 
ATOM      5  C   LIG    1       25.521 -31.190  12.307  0.00  0.00    +0.040 A 
ATOM      6  I   LIG    1       24.625 -33.287  11.595  0.00  0.00    -0.042 I 
ATOM      7  C   LIG    1       25.528 -31.108  13.708  0.00  0.00    +0.065 A 
ATOM      8  C   LIG    1       24.578 -30.262  14.311  0.00  0.00    +0.049 A 
ATOM      9  I   LIG    1       23.050 -31.909  15.246  0.00  0.00    -0.041 I 
ENDROOT
BRANCH   7  10
ATOM     10  C   LIG    1       26.701 -31.564  14.528  0.00  0.00    +0.246 C 
ATOM     11  N   LIG    1       27.860 -30.797  14.596  0.00  0.00    -0.309 N 
ATOM     12  H   LIG    1       28.526 -31.181  15.258  0.00  0.00    +0.149 HD
ATOM     13  O   LIG    1       26.660 -32.625  15.125  0.00  0.00    -0.270 OA
BRANCH  11  14
ATOM     14  C   LIG    1       28.193 -29.518  13.960  0.00  0.00    +0.132 C 
BRANCH  14  15
ATOM     15  C   LIG    1       29.392 -29.579  13.036  0.00  0.00    +0.174 C 
BRANCH  15  16
ATOM     16  O   LIG    1       29.023 -29.195  11.724  0.00  0.00    -0.394 OA
ATOM     17  H   LIG    1       28.636 -28.304  11.778  0.00  0.00    +0.209 HD
ENDBRANCH  15  16
ENDBRANCH  14  15
ENDBRANCH  11  14
ENDBRANCH   7  10
BRANCH   1  20
ATOM     18  C   LIG    1       21.352 -27.948  14.585  0.00  0.00    +0.110 C 
ATOM     19  C   LIG    1       22.722 -27.358  14.796  0.00  0.00    +0.217 C 
ATOM     20  N   LIG    1       23.838 -27.908  14.130  0.00  0.00    -0.267 N 
ATOM     21  O   LIG    1       22.771 -26.346  15.500  0.00  0.00    -0.276 OA
BRANCH  20  22
ATOM     22  C   LIG    1       25.160 -27.232  14.303  0.00  0.00    +0.147 C 
BRANCH  22  23
ATOM     23  C   LIG    1       25.429 -26.023  13.354  0.00  0.00    +0.158 C 
BRANCH  23  24
ATOM     24  O   LIG    1       25.087 -24.804  14.032  0.00  0.00    -0.388 OA
ATOM     25  H   LIG    1       24.351 -24.418  13.517  0.00  0.00    +0.210 HD
ENDBRANCH  23  24
BRANCH  23  26
ATOM     26  C   LIG    1       26.888 -25.918  12.908  0.00  0.00    +0.188 C 
BRANCH  26  27
ATOM     27  O   LIG    1       27.137 -26.954  11.962  0.00  0.00    -0.392 OA
ATOM     28  H   LIG    1       27.319 -27.766  12.467  0.00  0.00    +0.209 HD
ENDBRANCH  26  27
ENDBRANCH  23  26
ENDBRANCH  22  23
ENDBRANCH  20  22
ENDBRANCH   1  20
BRANCH   4  29
ATOM     29  C   LIG    1       25.333 -29.898  10.230  0.00  0.00    +0.246 C 
ATOM     30  N   LIG    1       24.715 -30.299   9.100  0.00  0.00    -0.309 N 
ATOM     31  H   LIG    1       23.875 -30.892   9.151  0.00  0.00    +0.149 HD
ATOM     32  O   LIG    1       26.359 -29.158  10.213  0.00  0.00    -0.270 OA
BRANCH  30  33
ATOM     33  C   LIG    1       25.219 -30.052   7.747  0.00  0.00    +0.138 C 
BRANCH  33  34
ATOM     34  C   LIG    1       24.822 -28.663   7.220  0.00  0.00    +0.157 C 
BRANCH  34  35
ATOM     35  O   LIG    1       25.939 -27.773   7.377  0.00  0.00    -0.388 OA
ATOM     36  H   LIG    1       26.405 -28.014   8.198  0.00  0.00    +0.210 HD
ENDBRANCH  34  35
BRANCH  34  37
ATOM     37  C   LIG    1       24.365 -28.709   5.753  0.00  0.00    +0.188 C 
BRANCH  37  38
ATOM     38  O   LIG    1       23.260 -29.599   5.586  0.00  0.00    -0.392 OA
ATOM     39  H   LIG    1       22.740 -29.551   6.412  0.00  0.00    +0.209 HD
ENDBRANCH  37  38
ENDBRANCH  34  37
ENDBRANCH  33  34
ENDBRANCH  30  33
ENDBRANCH   4  29
TORSDOF 16
ENDMDL
MODEL 3
REMARK VINA RESULT:      -5.0      2.716      4.752
REMARK  Name = *****
REMARK                            x       y       z     vdW  Elec       q    Type
REMARK                         _______ _______ _______ _____ _____    ______ ____
ROOT
ATOM      1  C   LIG    1       23.415 -29.603  13.169  0.00  0.00    +0.064 A 
ATOM      2  C   LIG    1       23.522 -29.752  11.776  0.00  0.00    +0.049 A 
ATOM      3  I   LIG    1       21.491 -30.756  11.181  0.00  0.00    -0.041 I 
ATOM      4  C   LIG    1       24.589 -30.461  11.181  0.00  0.00    +0.065 A 
ATOM      5  C   LIG    1       25.441 -31.223  12.008  0.00  0.00    +0.040 A 
ATOM      6  I   LIG    1       24.956 -33.434  11.245  0.00  0.00    -0.042 I 
ATOM      7  C   LIG    1       25.335 -31.150  13.406  0.00  0.00    +0.065 A 
ATOM      8  C   LIG    1       24.219 -30.476  13.934  0.00  0.00    +0.049 A 
ATOM      9  I   LIG    1       22.919 -32.357  14.767  0.00  0.00    -0.041 I 
ENDROOT
BRANCH   7  10
ATOM     10  C   LIG    1       26.505 -31.412  14.309  0.00  0.00    +0.246 C 
ATOM     11  N   LIG    1       27.614 -30.572  14.296  0.00  0.00    -0.309 N 
ATOM     12  H   LIG    1       28.281 -30.817  15.021  0.00  0.00    +0.149 HD
ATOM     13  O   LIG    1       26.507 -32.379  15.050  0.00  0.00    -0.270 OA
BRANCH  11  14
ATOM     14  C   LIG    1       27.892 -29.376  13.493  0.00  0.00    +0.132 C 
BRANCH  14  15
ATOM     15  C   LIG    1       29.040 -29.538  12.517  0.00  0.00    +0.174 C 
BRANCH  15  16
ATOM     16  O   LIG    1       28.547 -29.808  11.217  0.00  0.00    -0.394 OA
ATOM     17  H   LIG    1       29.258 -29.599  10.586  0.00  0.00    +0.209 HD
ENDBRANCH  15  16
ENDBRANCH  14  15
ENDBRANCH  11  14
ENDBRANCH   7  10
BRANCH   1  20
ATOM     18  C   LIG    1       25.292 -27.261  12.897  0.00  0.00    +0.110 C 
ATOM     19  C   LIG    1       23.871 -27.123  13.379  0.00  0.00    +0.217 C 
ATOM     20  N   LIG    1       23.116 -28.274  13.688  0.00  0.00    -0.267 N 
ATOM     21  O   LIG    1       23.471 -25.969  13.557  0.00  0.00    -0.276 OA
BRANCH  20  22
ATOM     22  C   LIG    1       21.742 -28.082  14.247  0.00  0.00    +0.147 C 
BRANCH  22  23
ATOM     23  C   LIG    1       20.613 -27.846  13.196  0.00  0.00    +0.158 C 
BRANCH  23  24
ATOM     24  O   LIG    1       19.475 -28.654  13.536  0.00  0.00    -0.388 OA
ATOM     25  H   LIG    1       19.249 -29.142  12.720  0.00  0.00    +0.210 HD
ENDBRANCH  23  24
BRANCH  23  26
ATOM     26  C   LIG    1       20.150 -26.391  13.121  0.00  0.00    +0.188 C 
BRANCH  26  27
ATOM     27  O   LIG    1       18.754 -26.356  13.403  0.00  0.00    -0.392 OA
ATOM     28  H   LIG    1       18.310 -26.895  12.725  0.00  0.00    +0.209 HD
ENDBRANCH  26  27
ENDBRANCH  23  26
ENDBRANCH  22  23
ENDBRANCH  20  22
ENDBRANCH   1  20
BRANCH   4  29
ATOM     29  C   LIG    1       25.191 -29.966   9.916  0.00  0.00    +0.246 C 
ATOM     30  N   LIG    1       24.656 -30.371   8.745  0.00  0.00    -0.309 N 
ATOM     31  H   LIG    1       23.868 -31.032   8.737  0.00  0.00    +0.149 HD
ATOM     32  O   LIG    1       26.152 -29.145   9.972  0.00  0.00    -0.270 OA
BRANCH  30  33
ATOM     33  C   LIG    1       25.194 -30.029   7.426  0.00  0.00    +0.138 C 
BRANCH  33  34
ATOM     34  C   LIG    1       24.812 -28.604   6.991  0.00  0.00    +0.157 C 
BRANCH  34  35
ATOM     35  O   LIG    1       25.956 -27.751   7.149  0.00  0.00    -0.388 OA
ATOM     36  H   LIG    1       26.094 -27.272   6.312  0.00  0.00    +0.210 HD
ENDBRANCH  34  35
BRANCH  34  37
ATOM     37  C   LIG    1       24.295 -28.560   5.543  0.00  0.00    +0.188 C 
BRANCH  37  38
ATOM     38  O   LIG    1       23.216 -29.478   5.353  0.00  0.00    -0.392 OA
ATOM     39  H   LIG    1       23.191 -29.681   4.398  0.00  0.00    +0.209 HD
ENDBRANCH  37  38
ENDBRANCH  34  37
ENDBRANCH  33  34
ENDBRANCH  30  33
ENDBRANCH   4  29
TORSDOF 16
ENDMDL
MODEL 4
REMARK VINA RESULT:      -4.9      1.663      5.457
REMARK  Name = *****
REMARK                            x       y       z     vdW  Elec       q    Type
REMARK                         _______ _______ _______ _____ _____    ______ ____
ROOT
ATOM      1  C   LIG    1       23.553 -29.560  12.359  0.00  0.00    +0.064 A 
ATOM      2  C   LIG    1       22.890 -30.731  11.957  0.00  0.00    +0.049 A 
ATOM      3  I   LIG    1       23.146 -32.157  13.798  0.00  0.00    -0.041 I 
ATOM      4  C   LIG    1       23.241 -31.421  10.776  0.00  0.00    +0.065 A 
ATOM      5  C   LIG    1       24.426 -31.053  10.104  0.00  0.00    +0.040 A 
ATOM      6  I   LIG    1       25.736 -33.032  10.377  0.00  0.00    -0.042 I 
ATOM      7  C   LIG    1       25.155 -29.922  10.505  0.00  0.00    +0.065 A 
ATOM      8  C   LIG    1       24.787 -29.314  11.720  0.00  0.00    +0.049 A 
ATOM      9  I   LIG    1       26.652 -29.985  13.131  0.00  0.00    -0.041 I 
ENDROOT
BRANCH   7  10
ATOM     10  C   LIG    1       26.011 -29.144   9.547  0.00  0.00    +0.246 C 
ATOM     11  N   LIG    1       25.619 -28.971   8.223  0.00  0.00    -0.309 N 
ATOM     12  H   LIG    1       26.245 -28.349   7.724  0.00  0.00    +0.149 HD
ATOM     13  O   LIG    1       27.073 -28.674   9.914  0.00  0.00    -0.270 OA
BRANCH  11  14
ATOM     14  C   LIG    1       24.428 -29.451   7.514  0.00  0.00    +0.132 C 
BRANCH  14  15
ATOM     15  C   LIG    1       24.196 -28.785   6.173  0.00  0.00    +0.174 C 
BRANCH  15  16
ATOM     16  O   LIG    1       23.234 -29.507   5.425  0.00  0.00    -0.394 OA
ATOM     17  H   LIG    1       23.320 -29.232   4.495  0.00  0.00    +0.209 HD
ENDBRANCH  15  16
ENDBRANCH  14  15
ENDBRANCH  11  14
ENDBRANCH   7  10
BRANCH   1  20
ATOM     18  C   LIG    1       24.710 -27.016  13.488  0.00  0.00    +0.110 C 
ATOM     19  C   LIG    1       23.260 -27.159  13.104  0.00  0.00    +0.217 C 
ATOM     20  N   LIG    1       22.736 -28.430  12.786  0.00  0.00    -0.267 N 
ATOM     21  O   LIG    1       22.580 -26.132  13.174  0.00  0.00    -0.276 OA
BRANCH  20  22
ATOM     22  C   LIG    1       21.273 -28.532  12.498  0.00  0.00    +0.147 C 
BRANCH  22  23
ATOM     23  C   LIG    1       20.326 -28.246  13.706  0.00  0.00    +0.158 C 
BRANCH  23  24
ATOM     24  O   LIG    1       19.484 -27.126  13.391  0.00  0.00    -0.388 OA
ATOM     25  H   LIG    1       20.077 -26.348  13.389  0.00  0.00    +0.210 HD
ENDBRANCH  23  24
BRANCH  23  26
ATOM     26  C   LIG    1       19.422 -29.428  14.058  0.00  0.00    +0.188 C 
BRANCH  26  27
ATOM     27  O   LIG    1       18.958 -30.008  12.842  0.00  0.00    -0.392 OA
ATOM     28  H   LIG    1       18.008 -30.187  12.953  0.00  0.00    +0.209 HD
ENDBRANCH  26  27
ENDBRANCH  23  26
ENDBRANCH  22  23
ENDBRANCH  20  22
ENDBRANCH   1  20
BRANCH   4  29
ATOM     29  C   LIG    1       22.181 -32.026   9.929  0.00  0.00    +0.246 C 
ATOM     30  N   LIG    1       21.008 -32.361  10.505  0.00  0.00    -0.309 N 
ATOM     31  H   LIG    1       20.870 -32.226  11.516  0.00  0.00    +0.149 HD
ATOM     32  O   LIG    1       22.389 -32.163   8.688  0.00  0.00    -0.270 OA
BRANCH  30  33
ATOM     33  C   LIG    1       19.907 -33.037   9.813  0.00  0.00    +0.138 C 
BRANCH  33  34
ATOM     34  C   LIG    1       18.533 -32.651  10.386  0.00  0.00    +0.157 C 
BRANCH  34  35
ATOM     35  O   LIG    1       18.638 -32.557  11.815  0.00  0.00    -0.388 OA
ATOM     36  H   LIG    1       18.587 -33.458  12.182  0.00  0.00    +0.210 HD
ENDBRANCH  34  35
BRANCH  34  37
ATOM     37  C   LIG    1       18.007 -31.334   9.790  0.00  0.00    +0.188 C 
BRANCH  37  38
ATOM     38  O   LIG    1       18.991 -30.302   9.875  0.00  0.00    -0.392 OA
ATOM     39  H   LIG    1       19.466 -30.302   9.021  0.00  0.00    +0.209 HD
ENDBRANCH  37  38
ENDBRANCH  34  37
ENDBRANCH  33  34
ENDBRANCH  30  33
ENDBRANCH   4  29
TORSDOF 16
ENDMDL
MODEL 5
REMARK VINA RESULT:      -4.9      3.167      7.037
REMARK  Name = *****
REMARK                            x       y       z     vdW  Elec       q    Type
REMARK                         _______ _______ _______ _____ _____    ______ ____
ROOT
ATOM      1  C   LIG    1       25.090 -30.720   8.153  0.00  0.00    +0.064 A 
ATOM      2  C   LIG    1       26.202 -30.816   9.007  0.00  0.00    +0.049 A 
ATOM      3  I   LIG    1       27.197 -32.840   8.374  0.00  0.00    -0.041 I 
ATOM      4  C   LIG    1       26.070 -30.776  10.413  0.00  0.00    +0.065 A 
ATOM      5  C   LIG    1       24.778 -30.867  10.974  0.00  0.00    +0.040 A 
ATOM      6  I   LIG    1       24.926 -32.959  12.116  0.00  0.00    -0.042 I 
ATOM      7  C   LIG    1       23.638 -30.831  10.157  0.00  0.00    +0.065 A 
ATOM      8  C   LIG    1       23.837 -30.929   8.767  0.00  0.00    +0.049 A 
ATOM      9  I   LIG    1       23.034 -33.191   8.364  0.00  0.00    -0.041 I 
ENDROOT
BRANCH   7  10
ATOM     10  C   LIG    1       22.314 -30.327  10.656  0.00  0.00    +0.246 C 
ATOM     11  N   LIG    1       22.249 -29.442  11.727  0.00  0.00    -0.309 N 
ATOM     12  H   LIG    1       21.302 -29.117  11.890  0.00  0.00    +0.149 HD
ATOM     13  O   LIG    1       21.277 -30.708  10.142  0.00  0.00    -0.270 OA
BRANCH  11  14
ATOM     14  C   LIG    1       23.319 -28.857  12.543  0.00  0.00    +0.132 C 
BRANCH  14  15
ATOM     15  C   LIG    1       23.243 -29.216  14.013  0.00  0.00    +0.174 C 
BRANCH  15  16
ATOM     16  O   LIG    1       24.405 -29.923  14.407  0.00  0.00    -0.394 OA
ATOM     17  H   LIG    1       24.585 -30.594  13.725  0.00  0.00    +0.209 HD
ENDBRANCH  15  16
ENDBRANCH  14  15
ENDBRANCH  11  14
ENDBRANCH   7  10
BRANCH   1  20
ATOM     18  C   LIG    1       25.236 -31.653   5.291  0.00  0.00    +0.110 C 
ATOM     19  C   LIG    1       25.028 -30.210   5.675  0.00  0.00    +0.217 C 
ATOM     20  N   LIG    1       25.183 -29.808   7.019  0.00  0.00    -0.267 N 
ATOM     21  O   LIG    1       24.807 -29.431   4.744  0.00  0.00    -0.276 OA
BRANCH  20  22
ATOM     22  C   LIG    1       25.053 -28.353   7.334  0.00  0.00    +0.147 C 
BRANCH  22  23
ATOM     23  C   LIG    1       25.147 -27.387   6.112  0.00  0.00    +0.158 C 
BRANCH  23  24
ATOM     24  O   LIG    1       23.897 -26.697   5.958  0.00  0.00    -0.388 OA
ATOM     25  H   LIG    1       23.506 -26.663   6.854  0.00  0.00    +0.210 HD
ENDBRANCH  23  24
BRANCH  23  26
ATOM     26  C   LIG    1       26.248 -26.336   6.254  0.00  0.00    +0.188 C 
BRANCH  26  27
ATOM     27  O   LIG    1       27.389 -26.791   5.532  0.00  0.00    -0.392 OA
ATOM     28  H   LIG    1       27.087 -27.493   4.929  0.00  0.00    +0.209 HD
ENDBRANCH  26  27
ENDBRANCH  23  26
ENDBRANCH  22  23
ENDBRANCH  20  22
ENDBRANCH   1  20
BRANCH   4  29
ATOM     29  C   LIG    1       27.080 -30.057  11.230  0.00  0.00    +0.246 C 
ATOM     30  N   LIG    1       26.743 -29.671  12.479  0.00  0.00    -0.309 N 
ATOM     31  H   LIG    1       25.795 -29.847  12.838  0.00  0.00    +0.149 HD
ATOM     32  O   LIG    1       28.238 -29.872  10.755  0.00  0.00    -0.270 OA
BRANCH  30  33
ATOM     33  C   LIG    1       27.607 -28.887  13.366  0.00  0.00    +0.138 C 
BRANCH  33  34
ATOM     34  C   LIG    1       28.392 -29.773  14.348  0.00  0.00    +0.157 C 
BRANCH  34  35
ATOM     35  O   LIG    1       27.861 -31.106  14.294  0.00  0.00    -0.388 OA
ATOM     36  H   LIG    1       28.469 -31.693  14.778  0.00  0.00    +0.210 HD
ENDBRANCH  34  35
BRANCH  34  37
ATOM     37  C   LIG    1       29.900 -29.774  14.047  0.00  0.00    +0.188 C 
BRANCH  37  38
ATOM     38  O   LIG    1       30.155 -29.407  12.690  0.00  0.00    -0.392 OA
ATOM     39  H   LIG    1       30.594 -28.535  12.718  0.00  0.00    +0.209 HD
ENDBRANCH  37  38
ENDBRANCH  34  37
ENDBRANCH  33  34
ENDBRANCH  30  33
ENDBRANCH   4  29
TORSDOF 16
ENDMDL
MODEL 6
REMARK VINA RESULT:      -4.8      2.627      7.225
REMARK  Name = *****
REMARK                            x       y       z     vdW  Elec       q    Type
REMARK                         _______ _______ _______ _____ _____    ______ ____
ROOT
ATOM      1  C   LIG    1       24.620 -30.592  13.178  0.00  0.00    +0.064 A 
ATOM      2  C   LIG    1       23.544 -29.802  13.616  0.00  0.00    +0.049 A 
ATOM      3  I   LIG    1       22.519 -31.136  15.246  0.00  0.00    -0.041 I 
ATOM      4  C   LIG    1       22.565 -29.314  12.723  0.00  0.00    +0.065 A 
ATOM      5  C   LIG    1       22.541 -29.815  11.404  0.00  0.00    +0.040 A 
ATOM      6  I   LIG    1       20.447 -30.963  11.392  0.00  0.00    -0.042 I 
ATOM      7  C   LIG    1       23.565 -30.654  10.938  0.00  0.00    +0.065 A 
ATOM      8  C   LIG    1       24.477 -31.149  11.890  0.00  0.00    +0.049 A 
ATOM      9  I   LIG    1       23.766 -33.473  12.015  0.00  0.00    -0.041 I 
ENDROOT
BRANCH   7  10
ATOM     10  C   LIG    1       23.938 -30.727   9.486  0.00  0.00    +0.246 C 
ATOM     11  N   LIG    1       25.213 -30.368   9.061  0.00  0.00    -0.309 N 
ATOM     12  H   LIG    1       25.348 -30.558   8.073  0.00  0.00    +0.149 HD
ATOM     13  O   LIG    1       23.118 -31.081   8.657  0.00  0.00    -0.270 OA
BRANCH  11  14
ATOM     14  C   LIG    1       26.367 -29.880   9.824  0.00  0.00    +0.132 C 
BRANCH  14  15
ATOM     15  C   LIG    1       26.610 -28.390   9.695  0.00  0.00    +0.174 C 
BRANCH  15  16
ATOM     16  O   LIG    1       26.922 -28.056   8.354  0.00  0.00    -0.394 OA
ATOM     17  H   LIG    1       27.057 -27.092   8.317  0.00  0.00    +0.209 HD
ENDBRANCH  15  16
ENDBRANCH  14  15
ENDBRANCH  11  14
ENDBRANCH   7  10
BRANCH   1  20
ATOM     18  C   LIG    1       26.346 -32.497  14.754  0.00  0.00    +0.110 C 
ATOM     19  C   LIG    1       26.857 -31.192  14.200  0.00  0.00    +0.217 C 
ATOM     20  N   LIG    1       25.953 -30.251  13.661  0.00  0.00    -0.267 N 
ATOM     21  O   LIG    1       28.066 -30.987  14.332  0.00  0.00    -0.276 OA
BRANCH  20  22
ATOM     22  C   LIG    1       26.500 -28.936  13.207  0.00  0.00    +0.147 C 
BRANCH  22  23
ATOM     23  C   LIG    1       26.965 -27.970  14.341  0.00  0.00    +0.158 C 
BRANCH  23  24
ATOM     24  O   LIG    1       28.382 -27.763  14.234  0.00  0.00    -0.388 OA
ATOM     25  H   LIG    1       28.486 -26.962  13.683  0.00  0.00    +0.210 HD
ENDBRANCH  23  24
BRANCH  23  26
ATOM     26  C   LIG    1       26.284 -26.602  14.287  0.00  0.00    +0.188 C 
BRANCH  26  27
ATOM     27  O   LIG    1       24.950 -26.753  14.764  0.00  0.00    -0.392 OA
ATOM     28  H   LIG    1       24.609 -27.590  14.404  0.00  0.00    +0.209 HD
ENDBRANCH  26  27
ENDBRANCH  23  26
ENDBRANCH  22  23
ENDBRANCH  20  22
ENDBRANCH   1  20
BRANCH   4  29
ATOM     29  C   LIG    1       22.015 -27.946  12.903  0.00  0.00    +0.246 C 
ATOM     30  N   LIG    1       20.676 -27.792  12.972  0.00  0.00    -0.309 N 
ATOM     31  H   LIG    1       20.055 -28.607  12.870  0.00  0.00    +0.149 HD
ATOM     32  O   LIG    1       22.814 -26.974  13.037  0.00  0.00    -0.270 OA
BRANCH  30  33
ATOM     33  C   LIG    1       19.993 -26.500  13.067  0.00  0.00    +0.138 C 
BRANCH  33  34
ATOM     34  C   LIG    1       19.083 -26.409  14.304  0.00  0.00    +0.157 C 
BRANCH  34  35
ATOM     35  O   LIG    1       17.912 -25.653  13.961  0.00  0.00    -0.388 OA
ATOM     36  H   LIG    1       17.750 -25.007  14.671  0.00  0.00    +0.210 HD
ENDBRANCH  34  35
BRANCH  34  37
ATOM     37  C   LIG    1       18.698 -27.798  14.841  0.00  0.00    +0.188 C 
BRANCH  37  38
ATOM     38  O   LIG    1       17.934 -28.528  13.879  0.00  0.00    -0.392 OA
ATOM     39  H   LIG    1       18.021 -29.471  14.116  0.00  0.00    +0.209 HD
ENDBRANCH  37  38
ENDBRANCH  34  37
ENDBRANCH  33  34
ENDBRANCH  30  33
ENDBRANCH   4  29
TORSDOF 16
ENDMDL
MODEL 7
REMARK VINA RESULT:      -4.8      3.061      6.297
REMARK  Name = *****
REMARK                            x       y       z     vdW  Elec       q    Type
REMARK                         _______ _______ _______ _____ _____    ______ ____
ROOT
ATOM      1  C   LIG    1       24.648 -30.388  10.771  0.00  0.00    +0.064 A 
ATOM      2  C   LIG    1       25.362 -31.123  11.733  0.00  0.00    +0.049 A 
ATOM      3  I   LIG    1       24.999 -33.347  11.094  0.00  0.00    -0.041 I 
ATOM      4  C   LIG    1       25.111 -30.983  13.116  0.00  0.00    +0.065 A 
ATOM      5  C   LIG    1       23.971 -30.261  13.528  0.00  0.00    +0.040 A 
ATOM      6  I   LIG    1       22.685 -31.991  14.556  0.00  0.00    -0.042 I 
ATOM      7  C   LIG    1       23.194 -29.557  12.596  0.00  0.00    +0.065 A 
ATOM      8  C   LIG    1       23.459 -29.783  11.232  0.00  0.00    +0.049 A 
ATOM      9  I   LIG    1       21.509 -31.101  10.614  0.00  0.00    -0.041 I 
ENDROOT
BRANCH   7  10
ATOM     10  C   LIG    1       22.395 -28.344  12.977  0.00  0.00    +0.246 C 
ATOM     11  N   LIG    1       23.026 -27.197  13.447  0.00  0.00    -0.309 N 
ATOM     12  H   LIG    1       22.372 -26.432  13.573  0.00  0.00    +0.149 HD
ATOM     13  O   LIG    1       21.179 -28.359  12.902  0.00  0.00    -0.270 OA
BRANCH  11  14
ATOM     14  C   LIG    1       24.449 -26.918  13.669  0.00  0.00    +0.132 C 
BRANCH  14  15
ATOM     15  C   LIG    1       24.784 -25.443  13.769  0.00  0.00    +0.174 C 
BRANCH  15  16
ATOM     16  O   LIG    1       25.582 -25.195  14.912  0.00  0.00    -0.394 OA
ATOM     17  H   LIG    1       26.136 -24.418  14.719  0.00  0.00    +0.209 HD
ENDBRANCH  15  16
ENDBRANCH  14  15
ENDBRANCH  11  14
ENDBRANCH   7  10
BRANCH   1  20
ATOM     18  C   LIG    1       26.510 -28.066  11.248  0.00  0.00    +0.110 C 
ATOM     19  C   LIG    1       26.444 -28.811   9.939  0.00  0.00    +0.217 C 
ATOM     20  N   LIG    1       25.409 -29.742   9.708  0.00  0.00    -0.267 N 
ATOM     21  O   LIG    1       27.281 -28.489   9.092  0.00  0.00    -0.276 OA
BRANCH  20  22
ATOM     22  C   LIG    1       25.336 -30.388   8.362  0.00  0.00    +0.147 C 
BRANCH  22  23
ATOM     23  C   LIG    1       24.667 -29.536   7.239  0.00  0.00    +0.158 C 
BRANCH  23  24
ATOM     24  O   LIG    1       25.662 -28.703   6.623  0.00  0.00    -0.388 OA
ATOM     25  H   LIG    1       26.429 -28.722   7.229  0.00  0.00    +0.210 HD
ENDBRANCH  23  24
BRANCH  23  26
ATOM     26  C   LIG    1       24.018 -30.381   6.143  0.00  0.00    +0.188 C 
BRANCH  26  27
ATOM     27  O   LIG    1       23.144 -29.540   5.396  0.00  0.00    -0.392 OA
ATOM     28  H   LIG    1       23.660 -28.763   5.119  0.00  0.00    +0.209 HD
ENDBRANCH  26  27
ENDBRANCH  23  26
ENDBRANCH  22  23
ENDBRANCH  20  22
ENDBRANCH   1  20
BRANCH   4  29
ATOM     29  C   LIG    1       26.242 -31.009  14.079  0.00  0.00    +0.246 C 
ATOM     30  N   LIG    1       26.672 -29.841  14.601  0.00  0.00    -0.309 N 
ATOM     31  H   LIG    1       26.241 -28.954  14.309  0.00  0.00    +0.149 HD
ATOM     32  O   LIG    1       26.735 -32.124  14.419  0.00  0.00    -0.270 OA
BRANCH  30  33
ATOM     33  C   LIG    1       27.824 -29.707  15.496  0.00  0.00    +0.138 C 
BRANCH  33  34
ATOM     34  C   LIG    1       28.932 -28.827  14.895  0.00  0.00    +0.157 C 
BRANCH  34  35
ATOM     35  O   LIG    1       28.991 -29.061  13.479  0.00  0.00    -0.388 OA
ATOM     36  H   LIG    1       29.855 -29.460  13.275  0.00  0.00    +0.210 HD
ENDBRANCH  34  35
BRANCH  34  37
ATOM     37  C   LIG    1       28.710 -27.334  15.192  0.00  0.00    +0.188 C 
BRANCH  37  38
ATOM     38  O   LIG    1       27.933 -26.715  14.165  0.00  0.00    -0.392 OA
ATOM     39  H   LIG    1       27.186 -27.318  13.983  0.00  0.00    +0.209 HD
ENDBRANCH  37  38
ENDBRANCH  34  37
ENDBRANCH  33  34
ENDBRANCH  30  33
ENDBRANCH   4  29
TORSDOF 16
ENDMDL
MODEL 8
REMARK VINA RESULT:      -4.6      3.519      7.146
REMARK  Name = *****
REMARK                            x       y       z     vdW  Elec       q    Type
REMARK                         _______ _______ _______ _____ _____    ______ ____
ROOT
ATOM      1  C   LIG    1       24.963 -31.180  13.613  0.00  0.00    +0.064 A 
ATOM      2  C   LIG    1       24.117 -30.111  13.950  0.00  0.00    +0.049 A 
ATOM      3  I   LIG    1       22.534 -31.099  15.367  0.00  0.00    -0.041 I 
ATOM      4  C   LIG    1       23.454 -29.344  12.966  0.00  0.00    +0.065 A 
ATOM      5  C   LIG    1       23.465 -29.802  11.631  0.00  0.00    +0.040 A 
ATOM      6  I   LIG    1       21.148 -30.276  11.295  0.00  0.00    -0.042 I 
ATOM      7  C   LIG    1       24.252 -30.902  11.257  0.00  0.00    +0.065 A 
ATOM      8  C   LIG    1       24.840 -31.655  12.290  0.00  0.00    +0.049 A 
ATOM      9  I   LIG    1       23.471 -33.665  12.206  0.00  0.00    -0.041 I 
ENDROOT
BRANCH   7  10
ATOM     10  C   LIG    1       24.781 -31.067   9.862  0.00  0.00    +0.246 C 
ATOM     11  N   LIG    1       26.009 -30.522   9.499  0.00  0.00    -0.309 N 
ATOM     12  H   LIG    1       26.278 -30.793   8.559  0.00  0.00    +0.149 HD
ATOM     13  O   LIG    1       24.129 -31.661   9.022  0.00  0.00    -0.270 OA
BRANCH  11  14
ATOM     14  C   LIG    1       26.972 -29.741  10.283  0.00  0.00    +0.132 C 
BRANCH  14  15
ATOM     15  C   LIG    1       26.751 -28.243  10.222  0.00  0.00    +0.174 C 
BRANCH  15  16
ATOM     16  O   LIG    1       26.490 -27.730  11.516  0.00  0.00    -0.394 OA
ATOM     17  H   LIG    1       27.014 -26.916  11.619  0.00  0.00    +0.209 HD
ENDBRANCH  15  16
ENDBRANCH  14  15
ENDBRANCH  11  14
ENDBRANCH   7  10
BRANCH   1  20
ATOM     18  C   LIG    1       25.807 -33.509  15.331  0.00  0.00    +0.110 C 
ATOM     19  C   LIG    1       26.757 -32.422  14.897  0.00  0.00    +0.217 C 
ATOM     20  N   LIG    1       26.259 -31.255  14.278  0.00  0.00    -0.267 N 
ATOM     21  O   LIG    1       27.943 -32.591  15.193  0.00  0.00    -0.276 OA
BRANCH  20  22
ATOM     22  C   LIG    1       27.231 -30.169  13.946  0.00  0.00    +0.147 C 
BRANCH  22  23
ATOM     23  C   LIG    1       27.863 -29.433  15.169  0.00  0.00    +0.158 C 
BRANCH  23  24
ATOM     24  O   LIG    1       29.207 -29.901  15.359  0.00  0.00    -0.388 OA
ATOM     25  H   LIG    1       29.780 -29.222  14.952  0.00  0.00    +0.210 HD
ENDBRANCH  23  24
BRANCH  23  26
ATOM     26  C   LIG    1       27.915 -27.914  14.999  0.00  0.00    +0.188 C 
BRANCH  26  27
ATOM     27  O   LIG    1       28.178 -27.632  13.627  0.00  0.00    -0.392 OA
ATOM     28  H   LIG    1       28.018 -26.681  13.493  0.00  0.00    +0.209 HD
ENDBRANCH  26  27
ENDBRANCH  23  26
ENDBRANCH  22  23
ENDBRANCH  20  22
ENDBRANCH   1  20
BRANCH   4  29
ATOM     29  C   LIG    1       23.309 -27.877  13.144  0.00  0.00    +0.246 C 
ATOM     30  N   LIG    1       24.399 -27.157  13.483  0.00  0.00    -0.309 N 
ATOM     31  H   LIG    1       25.301 -27.627  13.642  0.00  0.00    +0.149 HD
ATOM     32  O   LIG    1       22.185 -27.339  12.926  0.00  0.00    -0.270 OA
BRANCH  30  33
ATOM     33  C   LIG    1       24.388 -25.721  13.769  0.00  0.00    +0.138 C 
BRANCH  33  34
ATOM     34  C   LIG    1       25.769 -25.200  14.203  0.00  0.00    +0.157 C 
BRANCH  34  35
ATOM     35  O   LIG    1       26.586 -25.029  13.035  0.00  0.00    -0.388 OA
ATOM     36  H   LIG    1       26.216 -24.295  12.512  0.00  0.00    +0.210 HD
ENDBRANCH  34  35
BRANCH  34  37
ATOM     37  C   LIG    1       25.668 -23.886  14.996  0.00  0.00    +0.188 C 
BRANCH  37  38
ATOM     38  O   LIG    1       25.383 -22.785  14.132  0.00  0.00    -0.392 OA
ATOM     39  H   LIG    1       25.110 -23.168  13.276  0.00  0.00    +0.209 HD
ENDBRANCH  37  38
ENDBRANCH  34  37
ENDBRANCH  33  34
ENDBRANCH  30  33
ENDBRANCH   4  29
TORSDOF 16
ENDMDL
MODEL 9
REMARK VINA RESULT:      -4.4      1.539      2.565
REMARK  Name = *****
REMARK                            x       y       z     vdW  Elec       q    Type
REMARK                         _______ _______ _______ _____ _____    ______ ____
ROOT
ATOM      1  C   LIG    1       23.206 -31.542  12.094  0.00  0.00    +0.064 A 
ATOM      2  C   LIG    1       23.657 -31.636  10.767  0.00  0.00    +0.049 A 
ATOM      3  I   LIG    1       25.049 -33.520  10.800  0.00  0.00    -0.041 I 
ATOM      4  C   LIG    1       24.325 -30.568  10.128  0.00  0.00    +0.065 A 
ATOM      5  C   LIG    1       24.746 -29.470  10.907  0.00  0.00    +0.040 A 
ATOM      6  I   LIG    1       27.120 -29.662  10.718  0.00  0.00    -0.042 I 
ATOM      7  C   LIG    1       24.367 -29.361  12.254  0.00  0.00    +0.065 A 
ATOM      8  C   LIG    1       23.754 -30.481  12.845  0.00  0.00    +0.049 A 
ATOM      9  I   LIG    1       25.556 -31.265  14.281  0.00  0.00    -0.041 I 
ENDROOT
BRANCH   7  10
ATOM     10  C   LIG    1       24.243 -28.032  12.943  0.00  0.00    +0.246 C 
ATOM     11  N   LIG    1       22.993 -27.473  13.188  0.00  0.00    -0.309 N 
ATOM     12  H   LIG    1       23.061 -26.625  13.740  0.00  0.00    +0.149 HD
ATOM     13  O   LIG    1       25.240 -27.415  13.275  0.00  0.00    -0.270 OA
BRANCH  11  14
ATOM     14  C   LIG    1       21.650 -27.970  12.869  0.00  0.00    +0.132 C 
BRANCH  14  15
ATOM     15  C   LIG    1       20.528 -27.175  13.505  0.00  0.00    +0.174 C 
BRANCH  15  16
ATOM     16  O   LIG    1       19.788 -26.487  12.513  0.00  0.00    -0.394 OA
ATOM     17  H   LIG    1       18.850 -26.720  12.634  0.00  0.00    +0.209 HD
ENDBRANCH  15  16
ENDBRANCH  14  15
ENDBRANCH  11  14
ENDBRANCH   7  10
BRANCH   1  20
ATOM     18  C   LIG    1       20.782 -30.542  10.607  0.00  0.00    +0.110 C 
ATOM     19  C   LIG    1       20.737 -31.708  11.559  0.00  0.00    +0.217 C 
ATOM     20  N   LIG    1       21.849 -31.991  12.382  0.00  0.00    -0.267 N 
ATOM     21  O   LIG    1       19.664 -32.314  11.620  0.00  0.00    -0.276 OA
BRANCH  20  22
ATOM     22  C   LIG    1       21.722 -33.104  13.373  0.00  0.00    +0.147 C 
BRANCH  22  23
ATOM     23  C   LIG    1       21.193 -32.695  14.783  0.00  0.00    +0.158 C 
BRANCH  23  24
ATOM     24  O   LIG    1       21.052 -31.267  14.839  0.00  0.00    -0.388 OA
ATOM     25  H   LIG    1       20.779 -30.996  13.940  0.00  0.00    +0.210 HD
ENDBRANCH  23  24
BRANCH  23  26
ATOM     26  C   LIG    1       19.836 -33.314  15.123  0.00  0.00    +0.188 C 
BRANCH  26  27
ATOM     27  O   LIG    1       18.830 -32.582  14.428  0.00  0.00    -0.392 OA
ATOM     28  H   LIG    1       17.969 -32.904  14.747  0.00  0.00    +0.209 HD
ENDBRANCH  26  27
ENDBRANCH  23  26
ENDBRANCH  22  23
ENDBRANCH  20  22
ENDBRANCH   1  20
BRANCH   4  29
ATOM     29  C   LIG    1       24.057 -30.278   8.696  0.00  0.00    +0.246 C 
ATOM     30  N   LIG    1       24.684 -29.230   8.121  0.00  0.00    -0.309 N 
ATOM     31  H   LIG    1       25.309 -28.632   8.678  0.00  0.00    +0.149 HD
ATOM     32  O   LIG    1       23.291 -31.047   8.046  0.00  0.00    -0.270 OA
BRANCH  30  33
ATOM     33  C   LIG    1       24.456 -28.780   6.746  0.00  0.00    +0.138 C 
BRANCH  33  34
ATOM     34  C   LIG    1       25.253 -27.509   6.407  0.00  0.00    +0.157 C 
BRANCH  34  35
ATOM     35  O   LIG    1       26.297 -27.345   7.380  0.00  0.00    -0.388 OA
ATOM     36  H   LIG    1       25.921 -27.523   8.260  0.00  0.00    +0.210 HD
ENDBRANCH  34  35
BRANCH  34  37
ATOM     37  C   LIG    1       25.835 -27.553   4.985  0.00  0.00    +0.188 C 
BRANCH  37  38
ATOM     38  O   LIG    1       27.209 -27.163   4.979  0.00  0.00    -0.392 OA
ATOM     39  H   LIG    1       27.225 -26.209   4.770  0.00  0.00    +0.209 HD
ENDBRANCH  37  38
ENDBRANCH  34  37
ENDBRANCH  33  34
ENDBRANCH  30  33
ENDBRANCH   4  29
TORSDOF 16
ENDMDL
