MODEL 1
REMARK VINA RESULT:      -4.1      0.000      0.000
REMARK  Name = *****
REMARK                            x       y       z     vdW  Elec       q    Type
REMARK                         _______ _______ _______ _____ _____    ______ ____
ROOT
ATOM      1  C   LIG    1       26.440 -16.862   3.991  0.00  0.00    +0.170 C 
ENDROOT
BRANCH   1   2
ATOM      2  C   LIG    1       25.997 -15.480   3.514  0.00  0.00    +0.001 A 
ATOM      3  C   LIG    1       24.728 -14.939   3.798  0.00  0.00    +0.048 A 
ATOM      4 CL   LIG    1       23.584 -15.755   4.805  0.00  0.00    -0.083 Cl
ATOM      5  C   LIG    1       24.332 -13.699   3.275  0.00  0.00    +0.040 A 
ATOM      6  C   LIG    1       25.210 -12.971   2.479  0.00  0.00    +0.042 A 
ATOM      7 CL   LIG    1       24.727 -11.447   1.842  0.00  0.00    -0.084 Cl
ATOM      8  C   LIG    1       26.477 -13.469   2.200  0.00  0.00    +0.020 A 
ATOM      9  C   LIG    1       26.863 -14.716   2.705  0.00  0.00    +0.009 A 
ENDBRANCH   1   2
BRANCH   1  10
ATOM     10  O   LIG    1       26.052 -17.817   2.989  0.00  0.00    -0.365 OA
BRANCH  10  11
ATOM     11  C   LIG    1       24.641 -18.039   2.959  0.00  0.00    +0.198 C 
BRANCH  11  14
ATOM     12 CL   LIG    1       21.716 -18.427   4.440  0.00  0.00    -0.075 Cl
ATOM     13  C   LIG    1       23.087 -19.469   4.404  0.00  0.00    +0.083 A 
ATOM     14  C   LIG    1       24.286 -19.249   3.763  0.00  0.00    +0.004 A 
ATOM     15  C   LIG    1       25.167 -20.367   3.978  0.00  0.00    +0.015 A 
ATOM     16  C   LIG    1       24.600 -21.350   4.762  0.00  0.00    +0.047 A 
ATOM     17  S   LIG    1       23.010 -20.941   5.241  0.00  0.00    -0.085 S 
ENDBRANCH  11  14
ENDBRANCH  10  11
ENDBRANCH   1  10
BRANCH   1  18
ATOM     18  C   LIG    1       27.967 -16.964   4.178  0.00  0.00    +0.159 C 
BRANCH  18  19
ATOM     19  N   LIG    1       28.347 -18.105   5.005  0.00  0.00    -0.334 N 
ATOM     20  C   LIG    1       27.629 -19.250   5.184  0.00  0.00    +0.199 A 
ATOM     21  N   LIG    1       28.247 -20.083   5.997  0.00  0.00    -0.244 NA
ATOM     22  C   LIG    1       29.394 -19.437   6.375  0.00  0.00    +0.130 A 
ATOM     23  C   LIG    1       29.475 -18.200   5.774  0.00  0.00    +0.107 A 
ENDBRANCH  18  19
ENDBRANCH   1  18
TORSDOF 6
ENDMDL
MODEL 2
REMARK VINA RESULT:      -2.6      2.945      4.511
REMARK  Name = *****
REMARK                            x       y       z     vdW  Elec       q    Type
REMARK                         _______ _______ _______ _____ _____    ______ ____
ROOT
ATOM      1  C   LIG    1       24.371 -18.408   3.620  0.00  0.00    +0.170 C 
ENDROOT
BRANCH   1   2
ATOM      2  C   LIG    1       24.937 -16.991   3.697  0.00  0.00    +0.001 A 
ATOM      3  C   LIG    1       24.169 -15.877   4.087  0.00  0.00    +0.048 A 
ATOM      4 CL   LIG    1       22.530 -16.029   4.616  0.00  0.00    -0.083 Cl
ATOM      5  C   LIG    1       24.706 -14.581   4.068  0.00  0.00    +0.040 A 
ATOM      6  C   LIG    1       26.027 -14.384   3.681  0.00  0.00    +0.042 A 
ATOM      7 CL   LIG    1       26.688 -12.795   3.664  0.00  0.00    -0.084 Cl
ATOM      8  C   LIG    1       26.816 -15.467   3.312  0.00  0.00    +0.020 A 
ATOM      9  C   LIG    1       26.273 -16.757   3.310  0.00  0.00    +0.009 A 
ENDBRANCH   1   2
BRANCH   1  10
ATOM     10  O   LIG    1       25.115 -19.227   4.539  0.00  0.00    -0.365 OA
BRANCH  10  11
ATOM     11  C   LIG    1       26.494 -19.343   4.181  0.00  0.00    +0.198 C 
BRANCH  11  14
ATOM     12 CL   LIG    1       29.398 -18.138   5.186  0.00  0.00    -0.075 Cl
ATOM     13  C   LIG    1       28.492 -19.479   5.773  0.00  0.00    +0.083 A 
ATOM     14  C   LIG    1       27.278 -19.934   5.308  0.00  0.00    +0.004 A 
ATOM     15  C   LIG    1       26.859 -21.079   6.074  0.00  0.00    +0.015 A 
ATOM     16  C   LIG    1       27.767 -21.427   7.053  0.00  0.00    +0.047 A 
ATOM     17  S   LIG    1       29.122 -20.382   7.062  0.00  0.00    -0.085 S 
ENDBRANCH  11  14
ENDBRANCH  10  11
ENDBRANCH   1  10
BRANCH   1  18
ATOM     18  C   LIG    1       22.884 -18.476   4.021  0.00  0.00    +0.159 C 
BRANCH  18  19
ATOM     19  N   LIG    1       22.568 -19.690   4.767  0.00  0.00    -0.334 N 
ATOM     20  C   LIG    1       23.205 -20.142   5.885  0.00  0.00    +0.199 A 
ATOM     21  N   LIG    1       22.680 -21.272   6.313  0.00  0.00    -0.244 NA
ATOM     22  C   LIG    1       21.685 -21.571   5.421  0.00  0.00    +0.130 A 
ATOM     23  C   LIG    1       21.601 -20.603   4.446  0.00  0.00    +0.107 A 
ENDBRANCH  18  19
ENDBRANCH   1  18
TORSDOF 6
ENDMDL
MODEL 3
REMARK VINA RESULT:      -2.4      2.343      5.221
REMARK  Name = *****
REMARK                            x       y       z     vdW  Elec       q    Type
REMARK                         _______ _______ _______ _____ _____    ______ ____
ROOT
ATOM      1  C   LIG    1       25.792 -19.466   4.108  0.00  0.00    +0.170 C 
ENDROOT
BRANCH   1   2
ATOM      2  C   LIG    1       24.266 -19.479   4.149  0.00  0.00    +0.001 A 
ATOM      3  C   LIG    1       23.524 -20.411   4.901  0.00  0.00    +0.048 A 
ATOM      4 CL   LIG    1       24.283 -21.572   5.933  0.00  0.00    -0.083 Cl
ATOM      5  C   LIG    1       22.123 -20.437   4.848  0.00  0.00    +0.040 A 
ATOM      6  C   LIG    1       21.441 -19.516   4.060  0.00  0.00    +0.042 A 
ATOM      7 CL   LIG    1       19.722 -19.543   4.002  0.00  0.00    -0.084 Cl
ATOM      8  C   LIG    1       22.145 -18.570   3.325  0.00  0.00    +0.020 A 
ATOM      9  C   LIG    1       23.544 -18.558   3.361  0.00  0.00    +0.009 A 
ENDBRANCH   1   2
BRANCH   1  10
ATOM     10  O   LIG    1       26.226 -18.113   4.332  0.00  0.00    -0.365 OA
BRANCH  10  11
ATOM     11  C   LIG    1       25.863 -17.236   3.264  0.00  0.00    +0.198 C 
BRANCH  11  14
ATOM     12 CL   LIG    1       23.497 -15.081   4.079  0.00  0.00    -0.075 Cl
ATOM     13  C   LIG    1       25.204 -14.871   3.985  0.00  0.00    +0.083 A 
ATOM     14  C   LIG    1       26.144 -15.816   3.638  0.00  0.00    +0.004 A 
ATOM     15  C   LIG    1       27.461 -15.236   3.685  0.00  0.00    +0.015 A 
ATOM     16  C   LIG    1       27.445 -13.905   4.052  0.00  0.00    +0.047 A 
ATOM     17  S   LIG    1       25.854 -13.347   4.344  0.00  0.00    -0.085 S 
ENDBRANCH  11  14
ENDBRANCH  10  11
ENDBRANCH   1  10
BRANCH   1  18
ATOM     18  C   LIG    1       26.423 -20.353   5.200  0.00  0.00    +0.159 C 
BRANCH  18  19
ATOM     19  N   LIG    1       27.665 -19.791   5.720  0.00  0.00    -0.334 N 
ATOM     20  C   LIG    1       28.405 -18.797   5.149  0.00  0.00    +0.199 A 
ATOM     21  N   LIG    1       29.475 -18.521   5.867  0.00  0.00    -0.244 NA
ATOM     22  C   LIG    1       29.435 -19.389   6.925  0.00  0.00    +0.130 A 
ATOM     23  C   LIG    1       28.319 -20.194   6.852  0.00  0.00    +0.107 A 
ENDBRANCH  18  19
ENDBRANCH   1  18
TORSDOF 6
ENDMDL
MODEL 4
REMARK VINA RESULT:      -1.9      2.767      4.226
REMARK  Name = *****
REMARK                            x       y       z     vdW  Elec       q    Type
REMARK                         _______ _______ _______ _____ _____    ______ ____
ROOT
ATOM      1  C   LIG    1       24.550 -17.782   3.638  0.00  0.00    +0.170 C 
ENDROOT
BRANCH   1   2
ATOM      2  C   LIG    1       24.650 -16.264   3.779  0.00  0.00    +0.001 A 
ATOM      3  C   LIG    1       23.645 -15.480   4.379  0.00  0.00    +0.048 A 
ATOM      4 CL   LIG    1       22.243 -16.182   5.107  0.00  0.00    -0.083 Cl
ATOM      5  C   LIG    1       23.741 -14.081   4.418  0.00  0.00    +0.040 A 
ATOM      6  C   LIG    1       24.854 -13.448   3.878  0.00  0.00    +0.042 A 
ATOM      7 CL   LIG    1       24.975 -11.732   3.932  0.00  0.00    -0.084 Cl
ATOM      8  C   LIG    1       25.872 -14.196   3.299  0.00  0.00    +0.020 A 
ATOM      9  C   LIG    1       25.766 -15.590   3.241  0.00  0.00    +0.009 A 
ENDBRANCH   1   2
BRANCH   1  10
ATOM     10  O   LIG    1       25.263 -18.373   4.739  0.00  0.00    -0.365 OA
BRANCH  10  11
ATOM     11  C   LIG    1       26.169 -19.396   4.321  0.00  0.00    +0.198 C 
BRANCH  11  14
ATOM     12 CL   LIG    1       26.599 -21.558   6.779  0.00  0.00    -0.075 Cl
ATOM     13  C   LIG    1       27.619 -20.280   6.235  0.00  0.00    +0.083 A 
ATOM     14  C   LIG    1       27.381 -19.408   5.196  0.00  0.00    +0.004 A 
ATOM     15  C   LIG    1       28.484 -18.492   5.066  0.00  0.00    +0.015 A 
ATOM     16  C   LIG    1       29.474 -18.712   6.002  0.00  0.00    +0.047 A 
ATOM     17  S   LIG    1       29.088 -20.018   7.037  0.00  0.00    -0.085 S 
ENDBRANCH  11  14
ENDBRANCH  10  11
ENDBRANCH   1  10
BRANCH   1  18
ATOM     18  C   LIG    1       23.095 -18.289   3.688  0.00  0.00    +0.159 C 
BRANCH  18  19
ATOM     19  N   LIG    1       22.958 -19.496   4.497  0.00  0.00    -0.334 N 
ATOM     20  C   LIG    1       22.798 -19.551   5.850  0.00  0.00    +0.199 A 
ATOM     21  N   LIG    1       22.710 -20.796   6.274  0.00  0.00    -0.244 NA
ATOM     22  C   LIG    1       22.845 -21.570   5.153  0.00  0.00    +0.130 A 
ATOM     23  C   LIG    1       23.007 -20.783   4.035  0.00  0.00    +0.107 A 
ENDBRANCH  18  19
ENDBRANCH   1  18
TORSDOF 6
ENDMDL
MODEL 5
REMARK VINA RESULT:      -1.7      2.863      4.301
REMARK  Name = *****
REMARK                            x       y       z     vdW  Elec       q    Type
REMARK                         _______ _______ _______ _____ _____    ______ ____
ROOT
ATOM      1  C   LIG    1       24.684 -17.388   3.500  0.00  0.00    +0.170 C 
ENDROOT
BRANCH   1   2
ATOM      2  C   LIG    1       25.543 -16.144   3.719  0.00  0.00    +0.001 A 
ATOM      3  C   LIG    1       25.002 -14.879   4.022  0.00  0.00    +0.048 A 
ATOM      4 CL   LIG    1       23.309 -14.639   4.274  0.00  0.00    -0.083 Cl
ATOM      5  C   LIG    1       25.822 -13.747   4.138  0.00  0.00    +0.040 A 
ATOM      6  C   LIG    1       27.198 -13.867   3.976  0.00  0.00    +0.042 A 
ATOM      7 CL   LIG    1       28.204 -12.480   4.126  0.00  0.00    -0.084 Cl
ATOM      8  C   LIG    1       27.762 -15.107   3.699  0.00  0.00    +0.020 A 
ATOM      9  C   LIG    1       26.942 -16.232   3.562  0.00  0.00    +0.009 A 
ENDBRANCH   1   2
BRANCH   1  10
ATOM     10  O   LIG    1       25.565 -18.478   3.178  0.00  0.00    -0.365 OA
BRANCH  10  11
ATOM     11  C   LIG    1       25.268 -19.662   3.922  0.00  0.00    +0.198 C 
BRANCH  11  14
ATOM     12 CL   LIG    1       24.785 -21.572   6.571  0.00  0.00    -0.075 Cl
ATOM     13  C   LIG    1       26.179 -20.686   6.083  0.00  0.00    +0.083 A 
ATOM     14  C   LIG    1       26.319 -19.903   4.958  0.00  0.00    +0.004 A 
ATOM     15  C   LIG    1       27.643 -19.340   4.916  0.00  0.00    +0.015 A 
ATOM     16  C   LIG    1       28.416 -19.713   5.996  0.00  0.00    +0.047 A 
ATOM     17  S   LIG    1       27.561 -20.743   7.062  0.00  0.00    -0.085 S 
ENDBRANCH  11  14
ENDBRANCH  10  11
ENDBRANCH   1  10
BRANCH   1  18
ATOM     18  C   LIG    1       23.879 -17.783   4.754  0.00  0.00    +0.159 C 
BRANCH  18  19
ATOM     19  N   LIG    1       22.648 -18.491   4.420  0.00  0.00    -0.334 N 
ATOM     20  C   LIG    1       22.317 -19.760   4.796  0.00  0.00    +0.199 A 
ATOM     21  N   LIG    1       21.136 -20.107   4.326  0.00  0.00    -0.244 NA
ATOM     22  C   LIG    1       20.704 -19.030   3.599  0.00  0.00    +0.130 A 
ATOM     23  C   LIG    1       21.632 -18.013   3.639  0.00  0.00    +0.107 A 
ENDBRANCH  18  19
ENDBRANCH   1  18
TORSDOF 6
ENDMDL
MODEL 6
REMARK VINA RESULT:      -1.5      3.615      6.650
REMARK  Name = *****
REMARK                            x       y       z     vdW  Elec       q    Type
REMARK                         _______ _______ _______ _____ _____    ______ ____
ROOT
ATOM      1  C   LIG    1       25.040 -18.525   4.084  0.00  0.00    +0.170 C 
ENDROOT
BRANCH   1   2
ATOM      2  C   LIG    1       26.129 -19.311   4.811  0.00  0.00    +0.001 A 
ATOM      3  C   LIG    1       25.851 -20.310   5.765  0.00  0.00    +0.048 A 
ATOM      4 CL   LIG    1       24.237 -20.809   6.128  0.00  0.00    -0.083 Cl
ATOM      5  C   LIG    1       26.881 -20.953   6.466  0.00  0.00    +0.040 A 
ATOM      6  C   LIG    1       28.207 -20.623   6.206  0.00  0.00    +0.042 A 
ATOM      7 CL   LIG    1       29.472 -21.417   7.061  0.00  0.00    -0.084 Cl
ATOM      8  C   LIG    1       28.513 -19.658   5.255  0.00  0.00    +0.020 A 
ATOM      9  C   LIG    1       27.484 -19.001   4.571  0.00  0.00    +0.009 A 
ENDBRANCH   1   2
BRANCH   1  10
ATOM     10  O   LIG    1       25.685 -17.524   3.277  0.00  0.00    -0.365 OA
BRANCH  10  11
ATOM     11  C   LIG    1       24.979 -16.282   3.274  0.00  0.00    +0.198 C 
BRANCH  11  14
ATOM     12 CL   LIG    1       24.055 -13.118   3.087  0.00  0.00    -0.075 Cl
ATOM     13  C   LIG    1       25.609 -13.803   3.369  0.00  0.00    +0.083 A 
ATOM     14  C   LIG    1       25.932 -15.141   3.437  0.00  0.00    +0.004 A 
ATOM     15  C   LIG    1       27.341 -15.291   3.693  0.00  0.00    +0.015 A 
ATOM     16  C   LIG    1       27.997 -14.081   3.794  0.00  0.00    +0.047 A 
ATOM     17  S   LIG    1       26.928 -12.762   3.588  0.00  0.00    -0.085 S 
ENDBRANCH  11  14
ENDBRANCH  10  11
ENDBRANCH   1  10
BRANCH   1  18
ATOM     18  C   LIG    1       24.189 -19.411   3.152  0.00  0.00    +0.159 C 
BRANCH  18  19
ATOM     19  N   LIG    1       22.848 -19.639   3.679  0.00  0.00    -0.334 N 
ATOM     20  C   LIG    1       22.298 -20.847   3.995  0.00  0.00    +0.199 A 
ATOM     21  N   LIG    1       21.066 -20.710   4.444  0.00  0.00    -0.244 NA
ATOM     22  C   LIG    1       20.806 -19.367   4.388  0.00  0.00    +0.130 A 
ATOM     23  C   LIG    1       21.900 -18.680   3.909  0.00  0.00    +0.107 A 
ENDBRANCH  18  19
ENDBRANCH   1  18
TORSDOF 6
ENDMDL
MODEL 7
REMARK VINA RESULT:      -1.3      3.756      6.783
REMARK  Name = *****
REMARK                            x       y       z     vdW  Elec       q    Type
REMARK                         _______ _______ _______ _____ _____    ______ ____
ROOT
ATOM      1  C   LIG    1       24.913 -15.939   3.762  0.00  0.00    +0.170 C 
ENDROOT
BRANCH   1   2
ATOM      2  C   LIG    1       24.164 -17.255   3.964  0.00  0.00    +0.001 A 
ATOM      3  C   LIG    1       22.913 -17.337   4.607  0.00  0.00    +0.048 A 
ATOM      4 CL   LIG    1       22.060 -15.932   5.142  0.00  0.00    -0.083 Cl
ATOM      5  C   LIG    1       22.296 -18.574   4.841  0.00  0.00    +0.040 A 
ATOM      6  C   LIG    1       22.910 -19.747   4.414  0.00  0.00    +0.042 A 
ATOM      7 CL   LIG    1       22.150 -21.265   4.695  0.00  0.00    -0.084 Cl
ATOM      8  C   LIG    1       24.133 -19.695   3.757  0.00  0.00    +0.020 A 
ATOM      9  C   LIG    1       24.759 -18.462   3.543  0.00  0.00    +0.009 A 
ENDBRANCH   1   2
BRANCH   1  10
ATOM     10  O   LIG    1       26.194 -16.247   3.186  0.00  0.00    -0.365 OA
BRANCH  10  11
ATOM     11  C   LIG    1       27.274 -16.023   4.095  0.00  0.00    +0.198 C 
BRANCH  11  14
ATOM     12 CL   LIG    1       26.936 -14.020   6.698  0.00  0.00    -0.075 Cl
ATOM     13  C   LIG    1       27.564 -13.699   5.127  0.00  0.00    +0.083 A 
ATOM     14  C   LIG    1       27.680 -14.584   4.078  0.00  0.00    +0.004 A 
ATOM     15  C   LIG    1       28.258 -13.919   2.939  0.00  0.00    +0.015 A 
ATOM     16  C   LIG    1       28.535 -12.589   3.182  0.00  0.00    +0.047 A 
ATOM     17  S   LIG    1       28.109 -12.133   4.775  0.00  0.00    -0.085 S 
ENDBRANCH  11  14
ENDBRANCH  10  11
ENDBRANCH   1  10
BRANCH   1  18
ATOM     18  C   LIG    1       24.181 -14.979   2.803  0.00  0.00    +0.159 C 
BRANCH  18  19
ATOM     19  N   LIG    1       24.115 -13.618   3.327  0.00  0.00    -0.334 N 
ATOM     20  C   LIG    1       24.065 -13.259   4.641  0.00  0.00    +0.199 A 
ATOM     21  N   LIG    1       24.007 -11.949   4.779  0.00  0.00    -0.244 NA
ATOM     22  C   LIG    1       23.993 -11.451   3.504  0.00  0.00    +0.130 A 
ATOM     23  C   LIG    1       24.053 -12.473   2.582  0.00  0.00    +0.107 A 
ENDBRANCH  18  19
ENDBRANCH   1  18
TORSDOF 6
ENDMDL
MODEL 8
REMARK VINA RESULT:      -1.3      2.562      5.169
REMARK  Name = *****
REMARK                            x       y       z     vdW  Elec       q    Type
REMARK                         _______ _______ _______ _____ _____    ______ ____
ROOT
ATOM      1  C   LIG    1       25.645 -16.934   4.008  0.00  0.00    +0.170 C 
ENDROOT
BRANCH   1   2
ATOM      2  C   LIG    1       24.296 -17.648   3.949  0.00  0.00    +0.001 A 
ATOM      3  C   LIG    1       23.086 -17.039   4.337  0.00  0.00    +0.048 A 
ATOM      4 CL   LIG    1       23.004 -15.383   4.824  0.00  0.00    -0.083 Cl
ATOM      5  C   LIG    1       21.881 -17.757   4.341  0.00  0.00    +0.040 A 
ATOM      6  C   LIG    1       21.864 -19.086   3.935  0.00  0.00    +0.042 A 
ATOM      7 CL   LIG    1       20.383 -19.964   3.933  0.00  0.00    -0.084 Cl
ATOM      8  C   LIG    1       23.038 -19.707   3.525  0.00  0.00    +0.020 A 
ATOM      9  C   LIG    1       24.244 -18.997   3.541  0.00  0.00    +0.009 A 
ENDBRANCH   1   2
BRANCH   1  10
ATOM     10  O   LIG    1       26.669 -17.906   3.733  0.00  0.00    -0.365 OA
BRANCH  10  11
ATOM     11  C   LIG    1       27.900 -17.609   4.395  0.00  0.00    +0.198 C 
BRANCH  11  14
ATOM     12 CL   LIG    1       26.087 -20.343   4.767  0.00  0.00    -0.075 Cl
ATOM     13  C   LIG    1       27.526 -19.849   5.574  0.00  0.00    +0.083 A 
ATOM     14  C   LIG    1       28.241 -18.689   5.371  0.00  0.00    +0.004 A 
ATOM     15  C   LIG    1       29.384 -18.660   6.245  0.00  0.00    +0.015 A 
ATOM     16  C   LIG    1       29.466 -19.776   7.053  0.00  0.00    +0.047 A 
ATOM     17  S   LIG    1       28.178 -20.864   6.765  0.00  0.00    -0.085 S 
ENDBRANCH  11  14
ENDBRANCH  10  11
ENDBRANCH   1  10
BRANCH   1  18
ATOM     18  C   LIG    1       25.767 -15.807   2.962  0.00  0.00    +0.159 C 
BRANCH  18  19
ATOM     19  N   LIG    1       26.534 -14.671   3.461  0.00  0.00    -0.334 N 
ATOM     20  C   LIG    1       26.271 -13.949   4.588  0.00  0.00    +0.199 A 
ATOM     21  N   LIG    1       27.151 -12.983   4.756  0.00  0.00    -0.244 NA
ATOM     22  C   LIG    1       27.996 -13.071   3.683  0.00  0.00    +0.130 A 
ATOM     23  C   LIG    1       27.628 -14.112   2.859  0.00  0.00    +0.107 A 
ENDBRANCH  18  19
ENDBRANCH   1  18
TORSDOF 6
ENDMDL
