MODEL 1
REMARK VINA RESULT:      -8.0      0.000      0.000
REMARK  Name = *****
REMARK                            x       y       z     vdW  Elec       q    Type
REMARK                         _______ _______ _______ _____ _____    ______ ____
ROOT
ATOM      1  C   LIG    1       23.916 -22.246   6.819  0.00  0.00    +0.144 C 
ATOM      2  C   LIG    1       25.226 -22.646   6.626  0.00  0.00    +0.014 C 
ENDROOT
BRANCH   2   3
ATOM      3  C   LIG    1       25.431 -24.117   6.280  0.00  0.00    -0.016 A 
ATOM      4  C   LIG    1       25.922 -25.058   7.199  0.00  0.00    +0.012 A 
ATOM      5  C   LIG    1       26.048 -26.416   6.840  0.00  0.00    +0.046 A 
ATOM      6  C   LIG    1       25.713 -26.853   5.555  0.00  0.00    +0.120 A 
ATOM      7  C   LIG    1       25.273 -25.912   4.627  0.00  0.00    +0.046 A 
ATOM      8  C   LIG    1       25.130 -24.562   4.985  0.00  0.00    +0.012 A 
BRANCH   6   9
ATOM      9  O   LIG    1       25.853 -28.196   5.317  0.00  0.00    -0.495 OA
ATOM     10  C   LIG    1       24.645 -28.943   5.168  0.00  0.00    +0.277 C 
ENDBRANCH   6   9
ENDBRANCH   2   3
BRANCH   2  11
ATOM     11  C   LIG    1       26.481 -21.767   6.690  0.00  0.00    -0.016 A 
ATOM     12  C   LIG    1       27.485 -21.876   7.664  0.00  0.00    +0.008 A 
ATOM     13  C   LIG    1       28.642 -21.074   7.644  0.00  0.00    +0.001 A 
ATOM     14  C   LIG    1       28.787 -20.064   6.701  0.00  0.00    +0.000 A 
ATOM     15  C   LIG    1       27.771 -19.863   5.778  0.00  0.00    +0.001 A 
ATOM     16  C   LIG    1       26.646 -20.708   5.766  0.00  0.00    +0.008 A 
ENDBRANCH   2  11
BRANCH   1  17
ATOM     17  C   LIG    1       23.474 -20.855   7.094  0.00  0.00    +0.350 C 
ATOM     18  O   LIG    1       23.794 -20.215   8.064  0.00  0.00    -0.244 OA
BRANCH  17  19
ATOM     19  O   LIG    1       22.593 -20.428   6.134  0.00  0.00    -0.460 OA
BRANCH  19  20
ATOM     20  C   LIG    1       23.028 -20.243   4.780  0.00  0.00    +0.236 C 
BRANCH  20  21
ATOM     21  C   LIG    1       23.476 -18.810   4.449  0.00  0.00    +0.026 C 
BRANCH  21  22
ATOM     22  C   LIG    1       22.278 -17.864   4.207  0.00  0.00    +0.003 C 
ATOM     23  C   LIG    1       22.292 -16.481   4.835  0.00  0.00    +0.004 C 
ENDBRANCH  21  22
BRANCH  21  24
ATOM     24  C   LIG    1       24.486 -18.758   3.263  0.00  0.00    +0.007 C 
BRANCH  24  25
ATOM     25  C   LIG    1       25.808 -17.972   3.436  0.00  0.00    +0.000 C 
BRANCH  25  27
ATOM     26  C   LIG    1       26.844 -15.608   3.539  0.00  0.00    +0.004 C 
ATOM     27  C   LIG    1       25.643 -16.468   3.226  0.00  0.00    -0.003 C 
ENDBRANCH  25  27
ENDBRANCH  24  25
ENDBRANCH  21  24
ENDBRANCH  20  21
ENDBRANCH  19  20
ENDBRANCH  17  19
ENDBRANCH   1  17
BRANCH   1  28
ATOM     28  C   LIG    1       22.868 -23.184   6.816  0.00  0.00    +0.107 C 
ATOM     29  N   LIG    1       22.010 -23.951   6.813  0.00  0.00    -0.191 NA
ENDBRANCH   1  28
TORSDOF 12
ENDMDL
MODEL 2
REMARK VINA RESULT:      -7.6      0.674      1.513
REMARK  Name = *****
REMARK                            x       y       z     vdW  Elec       q    Type
REMARK                         _______ _______ _______ _____ _____    ______ ____
ROOT
ATOM      1  C   LIG    1       23.896 -22.273   6.796  0.00  0.00    +0.144 C 
ATOM      2  C   LIG    1       25.204 -22.678   6.607  0.00  0.00    +0.014 C 
ENDROOT
BRANCH   2   3
ATOM      3  C   LIG    1       25.405 -24.150   6.265  0.00  0.00    -0.016 A 
ATOM      4  C   LIG    1       25.856 -25.098   7.197  0.00  0.00    +0.012 A 
ATOM      5  C   LIG    1       25.979 -26.457   6.840  0.00  0.00    +0.046 A 
ATOM      6  C   LIG    1       25.683 -26.888   5.544  0.00  0.00    +0.120 A 
ATOM      7  C   LIG    1       25.283 -25.941   4.603  0.00  0.00    +0.046 A 
ATOM      8  C   LIG    1       25.143 -24.590   4.959  0.00  0.00    +0.012 A 
BRANCH   6   9
ATOM      9  O   LIG    1       25.816 -28.232   5.308  0.00  0.00    -0.495 OA
ATOM     10  C   LIG    1       24.633 -29.021   5.448  0.00  0.00    +0.277 C 
ENDBRANCH   6   9
ENDBRANCH   2   3
BRANCH   2  11
ATOM     11  C   LIG    1       26.462 -21.803   6.671  0.00  0.00    -0.016 A 
ATOM     12  C   LIG    1       27.473 -21.925   7.636  0.00  0.00    +0.008 A 
ATOM     13  C   LIG    1       28.632 -21.125   7.617  0.00  0.00    +0.001 A 
ATOM     14  C   LIG    1       28.773 -20.106   6.684  0.00  0.00    +0.000 A 
ATOM     15  C   LIG    1       27.751 -19.893   5.770  0.00  0.00    +0.001 A 
ATOM     16  C   LIG    1       26.624 -20.735   5.757  0.00  0.00    +0.008 A 
ENDBRANCH   2  11
BRANCH   1  17
ATOM     17  C   LIG    1       23.458 -20.880   7.067  0.00  0.00    +0.350 C 
ATOM     18  O   LIG    1       23.751 -20.251   8.052  0.00  0.00    -0.244 OA
BRANCH  17  19
ATOM     19  O   LIG    1       22.614 -20.437   6.082  0.00  0.00    -0.460 OA
BRANCH  19  20
ATOM     20  C   LIG    1       22.962 -20.599   4.700  0.00  0.00    +0.236 C 
BRANCH  20  21
ATOM     21  C   LIG    1       23.166 -19.278   3.940  0.00  0.00    +0.026 C 
BRANCH  21  22
ATOM     22  C   LIG    1       24.520 -19.234   3.195  0.00  0.00    +0.003 C 
ATOM     23  C   LIG    1       25.463 -18.071   3.448  0.00  0.00    +0.004 C 
ENDBRANCH  21  22
BRANCH  21  24
ATOM     24  C   LIG    1       22.985 -18.028   4.854  0.00  0.00    +0.007 C 
BRANCH  24  25
ATOM     25  C   LIG    1       22.235 -16.793   4.299  0.00  0.00    +0.000 C 
BRANCH  25  27
ATOM     26  C   LIG    1       23.771 -14.724   4.110  0.00  0.00    +0.004 C 
ATOM     27  C   LIG    1       22.725 -15.477   4.899  0.00  0.00    -0.003 C 
ENDBRANCH  25  27
ENDBRANCH  24  25
ENDBRANCH  21  24
ENDBRANCH  20  21
ENDBRANCH  19  20
ENDBRANCH  17  19
ENDBRANCH   1  17
BRANCH   1  28
ATOM     28  C   LIG    1       22.845 -23.207   6.793  0.00  0.00    +0.107 C 
ATOM     29  N   LIG    1       21.984 -23.971   6.791  0.00  0.00    -0.191 NA
ENDBRANCH   1  28
TORSDOF 12
ENDMDL
MODEL 3
REMARK VINA RESULT:      -7.5      0.796      2.237
REMARK  Name = *****
REMARK                            x       y       z     vdW  Elec       q    Type
REMARK                         _______ _______ _______ _____ _____    ______ ____
ROOT
ATOM      1  C   LIG    1       23.952 -22.224   6.822  0.00  0.00    +0.144 C 
ATOM      2  C   LIG    1       25.253 -22.658   6.642  0.00  0.00    +0.014 C 
ENDROOT
BRANCH   2   3
ATOM      3  C   LIG    1       25.422 -24.131   6.287  0.00  0.00    -0.016 A 
ATOM      4  C   LIG    1       25.859 -25.096   7.209  0.00  0.00    +0.012 A 
ATOM      5  C   LIG    1       25.953 -26.453   6.841  0.00  0.00    +0.046 A 
ATOM      6  C   LIG    1       25.641 -26.868   5.542  0.00  0.00    +0.120 A 
ATOM      7  C   LIG    1       25.257 -25.905   4.611  0.00  0.00    +0.046 A 
ATOM      8  C   LIG    1       25.146 -24.554   4.979  0.00  0.00    +0.012 A 
BRANCH   6   9
ATOM      9  O   LIG    1       25.746 -28.212   5.295  0.00  0.00    -0.495 OA
ATOM     10  C   LIG    1       24.584 -28.999   5.558  0.00  0.00    +0.277 C 
ENDBRANCH   6   9
ENDBRANCH   2   3
BRANCH   2  11
ATOM     11  C   LIG    1       26.530 -21.814   6.728  0.00  0.00    -0.016 A 
ATOM     12  C   LIG    1       27.525 -21.967   7.706  0.00  0.00    +0.008 A 
ATOM     13  C   LIG    1       28.704 -21.195   7.707  0.00  0.00    +0.001 A 
ATOM     14  C   LIG    1       28.880 -20.173   6.783  0.00  0.00    +0.000 A 
ATOM     15  C   LIG    1       27.875 -19.929   5.858  0.00  0.00    +0.001 A 
ATOM     16  C   LIG    1       26.729 -20.744   5.825  0.00  0.00    +0.008 A 
ENDBRANCH   2  11
BRANCH   1  17
ATOM     17  C   LIG    1       23.544 -20.824   7.102  0.00  0.00    +0.350 C 
ATOM     18  O   LIG    1       23.746 -20.248   8.142  0.00  0.00    -0.244 OA
BRANCH  17  19
ATOM     19  O   LIG    1       22.841 -20.303   6.047  0.00  0.00    -0.460 OA
BRANCH  19  20
ATOM     20  C   LIG    1       23.170 -20.675   4.701  0.00  0.00    +0.236 C 
BRANCH  20  21
ATOM     21  C   LIG    1       23.472 -19.487   3.773  0.00  0.00    +0.026 C 
BRANCH  21  22
ATOM     22  C   LIG    1       24.969 -19.401   3.401  0.00  0.00    +0.003 C 
ATOM     23  C   LIG    1       25.632 -18.036   3.322  0.00  0.00    +0.004 C 
ENDBRANCH  21  22
BRANCH  21  24
ATOM     24  C   LIG    1       22.953 -18.133   4.346  0.00  0.00    +0.007 C 
BRANCH  24  25
ATOM     25  C   LIG    1       21.448 -17.791   4.222  0.00  0.00    +0.000 C 
BRANCH  25  27
ATOM     26  C   LIG    1       19.325 -18.292   2.839  0.00  0.00    +0.004 C 
ATOM     27  C   LIG    1       20.693 -18.741   3.296  0.00  0.00    -0.003 C 
ENDBRANCH  25  27
ENDBRANCH  24  25
ENDBRANCH  21  24
ENDBRANCH  20  21
ENDBRANCH  19  20
ENDBRANCH  17  19
ENDBRANCH   1  17
BRANCH   1  28
ATOM     28  C   LIG    1       22.879 -23.133   6.798  0.00  0.00    +0.107 C 
ATOM     29  N   LIG    1       22.001 -23.876   6.779  0.00  0.00    -0.191 NA
ENDBRANCH   1  28
TORSDOF 12
ENDMDL
MODEL 4
REMARK VINA RESULT:      -6.8      2.367      7.560
REMARK  Name = *****
REMARK                            x       y       z     vdW  Elec       q    Type
REMARK                         _______ _______ _______ _____ _____    ______ ____
ROOT
ATOM      1  C   LIG    1       24.976 -22.478   6.738  0.00  0.00    +0.144 C 
ATOM      2  C   LIG    1       25.210 -21.185   6.311  0.00  0.00    +0.014 C 
ENDROOT
BRANCH   2   3
ATOM      3  C   LIG    1       26.555 -20.583   6.705  0.00  0.00    -0.016 A 
ATOM      4  C   LIG    1       26.913 -20.314   8.036  0.00  0.00    +0.012 A 
ATOM      5  C   LIG    1       28.188 -19.801   8.349  0.00  0.00    +0.046 A 
ATOM      6  C   LIG    1       29.117 -19.522   7.342  0.00  0.00    +0.120 A 
ATOM      7  C   LIG    1       28.745 -19.741   6.017  0.00  0.00    +0.046 A 
ATOM      8  C   LIG    1       27.482 -20.267   5.702  0.00  0.00    +0.012 A 
BRANCH   6   9
ATOM      9  O   LIG    1       30.334 -19.047   7.755  0.00  0.00    -0.495 OA
ATOM     10  C   LIG    1       31.053 -19.862   8.682  0.00  0.00    +0.277 C 
ENDBRANCH   6   9
ENDBRANCH   2   3
BRANCH   2  11
ATOM     11  C   LIG    1       24.282 -20.309   5.461  0.00  0.00    -0.016 A 
ATOM     12  C   LIG    1       22.995 -19.901   5.844  0.00  0.00    +0.008 A 
ATOM     13  C   LIG    1       22.205 -19.054   5.042  0.00  0.00    +0.001 A 
ATOM     14  C   LIG    1       22.640 -18.665   3.782  0.00  0.00    +0.000 A 
ATOM     15  C   LIG    1       23.868 -19.125   3.328  0.00  0.00    +0.001 A 
ATOM     16  C   LIG    1       24.677 -19.921   4.159  0.00  0.00    +0.008 A 
ENDBRANCH   2  11
BRANCH   1  17
ATOM     17  C   LIG    1       23.773 -23.286   6.415  0.00  0.00    +0.350 C 
ATOM     18  O   LIG    1       22.662 -23.050   6.819  0.00  0.00    -0.244 OA
BRANCH  17  19
ATOM     19  O   LIG    1       24.111 -24.379   5.659  0.00  0.00    -0.460 OA
BRANCH  19  20
ATOM     20  C   LIG    1       23.795 -25.702   6.113  0.00  0.00    +0.236 C 
BRANCH  20  21
ATOM     21  C   LIG    1       25.019 -26.545   6.509  0.00  0.00    +0.026 C 
BRANCH  21  22
ATOM     22  C   LIG    1       26.238 -26.268   5.600  0.00  0.00    +0.003 C 
ATOM     23  C   LIG    1       26.700 -27.349   4.638  0.00  0.00    +0.004 C 
ENDBRANCH  21  22
BRANCH  21  24
ATOM     24  C   LIG    1       24.699 -28.069   6.577  0.00  0.00    +0.007 C 
BRANCH  24  25
ATOM     25  C   LIG    1       25.214 -28.892   7.782  0.00  0.00    +0.000 C 
BRANCH  25  27
ATOM     26  C   LIG    1       26.668 -28.760   9.913  0.00  0.00    +0.004 C 
ATOM     27  C   LIG    1       26.323 -28.186   8.559  0.00  0.00    -0.003 C 
ENDBRANCH  25  27
ENDBRANCH  24  25
ENDBRANCH  21  24
ENDBRANCH  20  21
ENDBRANCH  19  20
ENDBRANCH  17  19
ENDBRANCH   1  17
BRANCH   1  28
ATOM     28  C   LIG    1       25.885 -23.132   7.590  0.00  0.00    +0.107 C 
ATOM     29  N   LIG    1       26.628 -23.666   8.288  0.00  0.00    -0.191 NA
ENDBRANCH   1  28
TORSDOF 12
ENDMDL
MODEL 5
REMARK VINA RESULT:      -6.1      2.355      4.962
REMARK  Name = *****
REMARK                            x       y       z     vdW  Elec       q    Type
REMARK                         _______ _______ _______ _____ _____    ______ ____
ROOT
ATOM      1  C   LIG    1       25.674 -21.772   7.667  0.00  0.00    +0.144 C 
ATOM      2  C   LIG    1       24.982 -21.973   6.487  0.00  0.00    +0.014 C 
ENDROOT
BRANCH   2   3
ATOM      3  C   LIG    1       24.706 -23.425   6.114  0.00  0.00    -0.016 A 
ATOM      4  C   LIG    1       25.484 -24.140   5.189  0.00  0.00    +0.012 A 
ATOM      5  C   LIG    1       25.212 -25.496   4.916  0.00  0.00    +0.046 A 
ATOM      6  C   LIG    1       24.146 -26.154   5.537  0.00  0.00    +0.120 A 
ATOM      7  C   LIG    1       23.342 -25.433   6.417  0.00  0.00    +0.046 A 
ATOM      8  C   LIG    1       23.619 -24.087   6.704  0.00  0.00    +0.012 A 
BRANCH   6   9
ATOM      9  O   LIG    1       23.983 -27.477   5.217  0.00  0.00    -0.495 OA
ATOM     10  C   LIG    1       24.472 -28.425   6.166  0.00  0.00    +0.277 C 
ENDBRANCH   6   9
ENDBRANCH   2   3
BRANCH   2  11
ATOM     11  C   LIG    1       24.439 -20.898   5.538  0.00  0.00    -0.016 A 
ATOM     12  C   LIG    1       25.175 -20.297   4.505  0.00  0.00    +0.008 A 
ATOM     13  C   LIG    1       24.608 -19.349   3.631  0.00  0.00    +0.001 A 
ATOM     14  C   LIG    1       23.309 -18.897   3.824  0.00  0.00    +0.000 A 
ATOM     15  C   LIG    1       22.580 -19.398   4.892  0.00  0.00    +0.001 A 
ATOM     16  C   LIG    1       23.132 -20.390   5.724  0.00  0.00    +0.008 A 
ENDBRANCH   2  11
BRANCH   1  17
ATOM     17  C   LIG    1       25.993 -20.449   8.262  0.00  0.00    +0.350 C 
ATOM     18  O   LIG    1       25.403 -19.957   9.191  0.00  0.00    -0.244 OA
BRANCH  17  19
ATOM     19  O   LIG    1       26.998 -19.833   7.562  0.00  0.00    -0.460 OA
BRANCH  19  20
ATOM     20  C   LIG    1       28.357 -20.269   7.706  0.00  0.00    +0.236 C 
BRANCH  20  21
ATOM     21  C   LIG    1       29.393 -19.133   7.666  0.00  0.00    +0.026 C 
BRANCH  21  22
ATOM     22  C   LIG    1       29.952 -18.902   6.244  0.00  0.00    +0.003 C 
ATOM     23  C   LIG    1       29.080 -18.205   5.213  0.00  0.00    +0.004 C 
ENDBRANCH  21  22
BRANCH  21  24
ATOM     24  C   LIG    1       30.542 -19.336   8.699  0.00  0.00    +0.007 C 
BRANCH  24  25
ATOM     25  C   LIG    1       31.687 -18.295   8.764  0.00  0.00    +0.000 C 
BRANCH  25  27
ATOM     26  C   LIG    1       30.460 -17.187  10.749  0.00  0.00    +0.004 C 
ATOM     27  C   LIG    1       31.292 -17.017   9.500  0.00  0.00    -0.003 C 
ENDBRANCH  25  27
ENDBRANCH  24  25
ENDBRANCH  21  24
ENDBRANCH  20  21
ENDBRANCH  19  20
ENDBRANCH  17  19
ENDBRANCH   1  17
BRANCH   1  28
ATOM     28  C   LIG    1       26.190 -22.860   8.395  0.00  0.00    +0.107 C 
ATOM     29  N   LIG    1       26.612 -23.750   8.990  0.00  0.00    -0.191 NA
ENDBRANCH   1  28
TORSDOF 12
ENDMDL
MODEL 6
REMARK VINA RESULT:      -6.0      6.129     10.202
REMARK  Name = *****
REMARK                            x       y       z     vdW  Elec       q    Type
REMARK                         _______ _______ _______ _____ _____    ______ ____
ROOT
ATOM      1  C   LIG    1       25.630 -29.395  11.229  0.00  0.00    +0.144 C 
ATOM      2  C   LIG    1       25.065 -28.586  12.197  0.00  0.00    +0.014 C 
ENDROOT
BRANCH   2   3
ATOM      3  C   LIG    1       26.040 -27.781  13.048  0.00  0.00    -0.016 A 
ATOM      4  C   LIG    1       26.521 -26.516  12.672  0.00  0.00    +0.012 A 
ATOM      5  C   LIG    1       27.386 -25.794  13.519  0.00  0.00    +0.046 A 
ATOM      6  C   LIG    1       27.807 -26.329  14.741  0.00  0.00    +0.120 A 
ATOM      7  C   LIG    1       27.371 -27.605  15.092  0.00  0.00    +0.046 A 
ATOM      8  C   LIG    1       26.497 -28.321  14.259  0.00  0.00    +0.012 A 
BRANCH   6   9
ATOM      9  O   LIG    1       28.630 -25.536  15.497  0.00  0.00    -0.495 OA
ATOM     10  C   LIG    1       28.338 -24.138  15.500  0.00  0.00    +0.277 C 
ENDBRANCH   6   9
ENDBRANCH   2   3
BRANCH   2  11
ATOM     11  C   LIG    1       23.571 -28.390  12.482  0.00  0.00    -0.016 A 
ATOM     12  C   LIG    1       22.560 -29.288  12.106  0.00  0.00    +0.008 A 
ATOM     13  C   LIG    1       21.207 -29.080  12.439  0.00  0.00    +0.001 A 
ATOM     14  C   LIG    1       20.807 -27.913  13.077  0.00  0.00    +0.000 A 
ATOM     15  C   LIG    1       21.766 -26.958  13.382  0.00  0.00    +0.001 A 
ATOM     16  C   LIG    1       23.123 -27.200  13.101  0.00  0.00    +0.008 A 
ENDBRANCH   2  11
BRANCH   1  17
ATOM     17  C   LIG    1       24.877 -30.212  10.244  0.00  0.00    +0.350 C 
ATOM     18  O   LIG    1       24.750 -31.409  10.303  0.00  0.00    -0.244 OA
BRANCH  17  19
ATOM     19  O   LIG    1       24.412 -29.429   9.220  0.00  0.00    -0.460 OA
BRANCH  19  20
ATOM     20  C   LIG    1       24.503 -29.880   7.861  0.00  0.00    +0.236 C 
BRANCH  20  21
ATOM     21  C   LIG    1       24.648 -28.750   6.828  0.00  0.00    +0.026 C 
BRANCH  21  22
ATOM     22  C   LIG    1       24.997 -29.285   5.421  0.00  0.00    +0.003 C 
ATOM     23  C   LIG    1       25.610 -30.668   5.290  0.00  0.00    +0.004 C 
ENDBRANCH  21  22
BRANCH  21  24
ATOM     24  C   LIG    1       25.657 -27.652   7.281  0.00  0.00    +0.007 C 
BRANCH  24  25
ATOM     25  C   LIG    1       26.131 -26.595   6.253  0.00  0.00    +0.000 C 
BRANCH  25  27
ATOM     26  C   LIG    1       24.005 -25.129   6.317  0.00  0.00    +0.004 C 
ATOM     27  C   LIG    1       25.505 -25.221   6.476  0.00  0.00    -0.003 C 
ENDBRANCH  25  27
ENDBRANCH  24  25
ENDBRANCH  21  24
ENDBRANCH  20  21
ENDBRANCH  19  20
ENDBRANCH  17  19
ENDBRANCH   1  17
BRANCH   1  28
ATOM     28  C   LIG    1       27.026 -29.544  11.139  0.00  0.00    +0.107 C 
ATOM     29  N   LIG    1       28.168 -29.666  11.065  0.00  0.00    -0.191 NA
ENDBRANCH   1  28
TORSDOF 12
ENDMDL
MODEL 7
REMARK VINA RESULT:      -6.0      6.956     10.470
REMARK  Name = *****
REMARK                            x       y       z     vdW  Elec       q    Type
REMARK                         _______ _______ _______ _____ _____    ______ ____
ROOT
ATOM      1  C   LIG    1       22.483 -29.398  12.055  0.00  0.00    +0.144 C 
ATOM      2  C   LIG    1       22.562 -28.242  12.810  0.00  0.00    +0.014 C 
ENDROOT
BRANCH   2   3
ATOM      3  C   LIG    1       21.268 -27.789  13.476  0.00  0.00    -0.016 A 
ATOM      4  C   LIG    1       20.416 -26.823  12.918  0.00  0.00    +0.012 A 
ATOM      5  C   LIG    1       19.207 -26.475  13.554  0.00  0.00    +0.046 A 
ATOM      6  C   LIG    1       18.839 -27.063  14.768  0.00  0.00    +0.120 A 
ATOM      7  C   LIG    1       19.707 -27.985  15.349  0.00  0.00    +0.046 A 
ATOM      8  C   LIG    1       20.904 -28.347  14.711  0.00  0.00    +0.012 A 
BRANCH   6   9
ATOM      9  O   LIG    1       17.635 -26.670  15.291  0.00  0.00    -0.495 OA
ATOM     10  C   LIG    1       16.585 -26.427  14.353  0.00  0.00    +0.277 C 
ENDBRANCH   6   9
ENDBRANCH   2   3
BRANCH   2  11
ATOM     11  C   LIG    1       23.811 -27.392  13.072  0.00  0.00    -0.016 A 
ATOM     12  C   LIG    1       25.130 -27.826  12.872  0.00  0.00    +0.008 A 
ATOM     13  C   LIG    1       26.240 -26.984  13.082  0.00  0.00    +0.001 A 
ATOM     14  C   LIG    1       26.069 -25.704  13.596  0.00  0.00    +0.000 A 
ATOM     15  C   LIG    1       24.785 -25.272  13.895  0.00  0.00    +0.001 A 
ATOM     16  C   LIG    1       23.678 -26.097  13.625  0.00  0.00    +0.008 A 
ENDBRANCH   2  11
BRANCH   1  17
ATOM     17  C   LIG    1       23.625 -30.061  11.375  0.00  0.00    +0.350 C 
ATOM     18  O   LIG    1       24.408 -30.799  11.918  0.00  0.00    -0.244 OA
BRANCH  17  19
ATOM     19  O   LIG    1       23.710 -29.659  10.068  0.00  0.00    -0.460 OA
BRANCH  19  20
ATOM     20  C   LIG    1       24.509 -30.396   9.132  0.00  0.00    +0.236 C 
BRANCH  20  21
ATOM     21  C   LIG    1       25.576 -29.556   8.411  0.00  0.00    +0.026 C 
BRANCH  21  22
ATOM     22  C   LIG    1       26.388 -28.678   9.389  0.00  0.00    +0.003 C 
ATOM     23  C   LIG    1       27.332 -29.349  10.373  0.00  0.00    +0.004 C 
ENDBRANCH  21  22
BRANCH  21  24
ATOM     24  C   LIG    1       24.982 -28.705   7.248  0.00  0.00    +0.007 C 
BRANCH  24  25
ATOM     25  C   LIG    1       25.632 -27.343   6.905  0.00  0.00    +0.000 C 
BRANCH  25  27
ATOM     26  C   LIG    1       25.240 -25.040   5.802  0.00  0.00    +0.004 C 
ATOM     27  C   LIG    1       24.674 -26.381   6.207  0.00  0.00    -0.003 C 
ENDBRANCH  25  27
ENDBRANCH  24  25
ENDBRANCH  21  24
ENDBRANCH  20  21
ENDBRANCH  19  20
ENDBRANCH  17  19
ENDBRANCH   1  17
BRANCH   1  28
ATOM     28  C   LIG    1       21.246 -30.028  11.828  0.00  0.00    +0.107 C 
ATOM     29  N   LIG    1       20.234 -30.544  11.643  0.00  0.00    -0.191 NA
ENDBRANCH   1  28
TORSDOF 12
ENDMDL
MODEL 8
REMARK VINA RESULT:      -6.0      2.025      7.402
REMARK  Name = *****
REMARK                            x       y       z     vdW  Elec       q    Type
REMARK                         _______ _______ _______ _____ _____    ______ ____
ROOT
ATOM      1  C   LIG    1       25.053 -22.343   6.879  0.00  0.00    +0.144 C 
ATOM      2  C   LIG    1       25.456 -21.115   6.389  0.00  0.00    +0.014 C 
ENDROOT
BRANCH   2   3
ATOM      3  C   LIG    1       24.404 -20.326   5.618  0.00  0.00    -0.016 A 
ATOM      4  C   LIG    1       23.167 -19.954   6.170  0.00  0.00    +0.012 A 
ATOM      5  C   LIG    1       22.250 -19.184   5.428  0.00  0.00    +0.046 A 
ATOM      6  C   LIG    1       22.535 -18.795   4.115  0.00  0.00    +0.120 A 
ATOM      7  C   LIG    1       23.739 -19.205   3.548  0.00  0.00    +0.046 A 
ATOM      8  C   LIG    1       24.663 -19.959   4.289  0.00  0.00    +0.012 A 
BRANCH   6   9
ATOM      9  O   LIG    1       21.584 -18.030   3.491  0.00  0.00    -0.495 OA
ATOM     10  C   LIG    1       20.301 -18.632   3.313  0.00  0.00    +0.277 C 
ENDBRANCH   6   9
ENDBRANCH   2   3
BRANCH   2  11
ATOM     11  C   LIG    1       26.828 -20.453   6.564  0.00  0.00    -0.016 A 
ATOM     12  C   LIG    1       27.469 -20.255   7.797  0.00  0.00    +0.008 A 
ATOM     13  C   LIG    1       28.754 -19.686   7.894  0.00  0.00    +0.001 A 
ATOM     14  C   LIG    1       29.401 -19.204   6.763  0.00  0.00    +0.000 A 
ATOM     15  C   LIG    1       28.759 -19.297   5.537  0.00  0.00    +0.001 A 
ATOM     16  C   LIG    1       27.502 -19.922   5.440  0.00  0.00    +0.008 A 
ENDBRANCH   2  11
BRANCH   1  17
ATOM     17  C   LIG    1       25.882 -23.250   7.714  0.00  0.00    +0.350 C 
ATOM     18  O   LIG    1       26.218 -23.018   8.848  0.00  0.00    -0.244 OA
BRANCH  17  19
ATOM     19  O   LIG    1       26.277 -24.347   6.994  0.00  0.00    -0.460 OA
BRANCH  19  20
ATOM     20  C   LIG    1       25.468 -25.531   6.973  0.00  0.00    +0.236 C 
BRANCH  20  21
ATOM     21  C   LIG    1       26.248 -26.825   6.687  0.00  0.00    +0.026 C 
BRANCH  21  22
ATOM     22  C   LIG    1       26.438 -27.071   5.173  0.00  0.00    +0.003 C 
ATOM     23  C   LIG    1       25.479 -26.417   4.194  0.00  0.00    +0.004 C 
ENDBRANCH  21  22
BRANCH  21  24
ATOM     24  C   LIG    1       25.621 -28.069   7.387  0.00  0.00    +0.007 C 
BRANCH  24  25
ATOM     25  C   LIG    1       24.424 -28.786   6.716  0.00  0.00    +0.000 C 
BRANCH  25  27
ATOM     26  C   LIG    1       25.511 -30.657   5.306  0.00  0.00    +0.004 C 
ATOM     27  C   LIG    1       24.665 -30.277   6.499  0.00  0.00    -0.003 C 
ENDBRANCH  25  27
ENDBRANCH  24  25
ENDBRANCH  21  24
ENDBRANCH  20  21
ENDBRANCH  19  20
ENDBRANCH  17  19
ENDBRANCH   1  17
BRANCH   1  28
ATOM     28  C   LIG    1       23.786 -22.865   6.564  0.00  0.00    +0.107 C 
ATOM     29  N   LIG    1       22.749 -23.293   6.306  0.00  0.00    -0.191 NA
ENDBRANCH   1  28
TORSDOF 12
ENDMDL
MODEL 9
REMARK VINA RESULT:      -5.9      3.476      6.981
REMARK  Name = *****
REMARK                            x       y       z     vdW  Elec       q    Type
REMARK                         _______ _______ _______ _____ _____    ______ ____
ROOT
ATOM      1  C   LIG    1       27.896 -19.272   5.693  0.00  0.00    +0.144 C 
ATOM      2  C   LIG    1       28.040 -19.836   6.947  0.00  0.00    +0.014 C 
ENDROOT
BRANCH   2   3
ATOM      3  C   LIG    1       29.250 -19.375   7.752  0.00  0.00    -0.016 A 
ATOM      4  C   LIG    1       29.372 -18.078   8.277  0.00  0.00    +0.012 A 
ATOM      5  C   LIG    1       30.492 -17.719   9.054  0.00  0.00    +0.046 A 
ATOM      6  C   LIG    1       31.519 -18.635   9.300  0.00  0.00    +0.120 A 
ATOM      7  C   LIG    1       31.424 -19.906   8.738  0.00  0.00    +0.046 A 
ATOM      8  C   LIG    1       30.303 -20.274   7.977  0.00  0.00    +0.012 A 
BRANCH   6   9
ATOM      9  O   LIG    1       32.551 -18.191  10.085  0.00  0.00    -0.495 OA
ATOM     10  C   LIG    1       32.622 -16.781  10.303  0.00  0.00    +0.277 C 
ENDBRANCH   6   9
ENDBRANCH   2   3
BRANCH   2  11
ATOM     11  C   LIG    1       27.101 -20.843   7.621  0.00  0.00    -0.016 A 
ATOM     12  C   LIG    1       26.248 -20.548   8.695  0.00  0.00    +0.008 A 
ATOM     13  C   LIG    1       25.369 -21.503   9.243  0.00  0.00    +0.001 A 
ATOM     14  C   LIG    1       25.386 -22.817   8.796  0.00  0.00    +0.000 A 
ATOM     15  C   LIG    1       26.282 -23.171   7.798  0.00  0.00    +0.001 A 
ATOM     16  C   LIG    1       27.114 -22.198   7.214  0.00  0.00    +0.008 A 
ENDBRANCH   2  11
BRANCH   1  17
ATOM     17  C   LIG    1       26.763 -19.516   4.764  0.00  0.00    +0.350 C 
ATOM     18  O   LIG    1       26.522 -18.850   3.789  0.00  0.00    -0.244 OA
BRANCH  17  19
ATOM     19  O   LIG    1       25.987 -20.555   5.210  0.00  0.00    -0.460 OA
BRANCH  19  20
ATOM     20  C   LIG    1       24.934 -21.079   4.389  0.00  0.00    +0.236 C 
BRANCH  20  21
ATOM     21  C   LIG    1       23.533 -20.558   4.748  0.00  0.00    +0.026 C 
BRANCH  21  22
ATOM     22  C   LIG    1       23.170 -19.273   3.971  0.00  0.00    +0.003 C 
ATOM     23  C   LIG    1       22.191 -18.289   4.589  0.00  0.00    +0.004 C 
ENDBRANCH  21  22
BRANCH  21  24
ATOM     24  C   LIG    1       23.343 -20.363   6.283  0.00  0.00    +0.007 C 
BRANCH  24  25
ATOM     25  C   LIG    1       22.967 -21.585   7.155  0.00  0.00    +0.000 C 
BRANCH  25  27
ATOM     26  C   LIG    1       23.074 -24.108   6.611  0.00  0.00    +0.004 C 
ATOM     27  C   LIG    1       22.441 -22.764   6.340  0.00  0.00    -0.003 C 
ENDBRANCH  25  27
ENDBRANCH  24  25
ENDBRANCH  21  24
ENDBRANCH  20  21
ENDBRANCH  19  20
ENDBRANCH  17  19
ENDBRANCH   1  17
BRANCH   1  28
ATOM     28  C   LIG    1       28.887 -18.424   5.166  0.00  0.00    +0.107 C 
ATOM     29  N   LIG    1       29.698 -17.729   4.734  0.00  0.00    -0.191 NA
ENDBRANCH   1  28
TORSDOF 12
ENDMDL
