MODEL 1
REMARK VINA RESULT:      -2.7      0.000      0.000
REMARK  Name = *****
REMARK                            x       y       z     vdW  Elec       q    Type
REMARK                         _______ _______ _______ _____ _____    ______ ____
ROOT
ATOM      1  C   LIG    1       19.246 -31.545  11.540  0.00  0.00    +0.163 C 
ATOM      2  C   LIG    1       20.664 -32.010  11.861  0.00  0.00    +0.209 C 
ATOM      3  N   LIG    1       21.417 -31.752  10.634  0.00  0.00    -0.281 N 
ATOM      4  C   LIG    1       22.312 -32.733  10.199  0.00  0.00    +0.269 C 
ATOM      5  O   LIG    1       22.710 -33.606  10.970  0.00  0.00    -0.268 OA
ATOM      6  C   LIG    1       22.727 -32.722   8.797  0.00  0.00    +0.164 A 
ATOM      7  N   LIG    1       22.790 -31.612   7.971  0.00  0.00    -0.208 NA
ATOM      8  C   LIG    1       23.319 -32.071   6.853  0.00  0.00    +0.203 A 
ATOM      9  C   LIG    1       23.823 -31.300   5.693  0.00  0.00    +0.170 C 
ATOM     10  C   LIG    1       25.331 -31.440   5.623  0.00  0.00    +0.145 C 
ATOM     11  O   LIG    1       25.841 -32.275   4.865  0.00  0.00    -0.297 OA
ATOM     12  C   LIG    1       26.239 -30.497   6.409  0.00  0.00    +0.110 C 
ATOM     13  C   LIG    1       25.707 -30.100   7.780  0.00  0.00    +0.145 C 
ATOM     14  C   LIG    1       26.768 -29.842   8.812  0.00  0.00    +0.007 C 
ATOM     15  C   LIG    1       26.856 -30.490   9.991  0.00  0.00    -0.052 C 
ATOM     16  C   LIG    1       25.924 -31.592  10.436  0.00  0.00    +0.043 C 
ATOM     17  C   LIG    1       27.856 -30.162  10.986  0.00  0.00    +0.000 C 
ATOM     18  C   LIG    1       27.834 -29.016  11.684  0.00  0.00    -0.008 C 
ATOM     19  C   LIG    1       28.630 -28.814  12.937  0.00  0.00    +0.132 C 
ATOM     20  N   LIG    1       27.742 -29.220  14.002  0.00  0.00    -0.308 N 
ATOM     21  H   LIG    1       27.421 -30.177  13.988  0.00  0.00    +0.149 HD
ATOM     22  C   LIG    1       27.004 -28.299  14.691  0.00  0.00    +0.237 C 
ATOM     23  O   LIG    1       27.291 -27.114  14.809  0.00  0.00    -0.271 OA
ATOM     24  C   LIG    1       25.745 -28.815  15.286  0.00  0.00    +0.063 C 
ATOM     25  C   LIG    1       24.904 -29.627  14.615  0.00  0.00    -0.015 C 
ATOM     26  C   LIG    1       23.493 -29.903  15.083  0.00  0.00    +0.050 C 
ATOM     27  C   LIG    1       23.403 -31.374  15.500  0.00  0.00    +0.015 C 
ATOM     28  C   LIG    1       22.351 -29.487  14.091  0.00  0.00    +0.186 C 
ATOM     29  O   LIG    1       22.159 -30.427  12.993  0.00  0.00    -0.459 OA
ATOM     30  O   LIG    1       23.545 -33.419   6.851  0.00  0.00    -0.447 OA
ATOM     31  C   LIG    1       23.174 -33.822   8.097  0.00  0.00    +0.230 A 
ATOM     32  C   LIG    1       20.690 -30.854   9.745  0.00  0.00    +0.111 C 
ATOM     33  C   LIG    1       21.113 -31.295  13.140  0.00  0.00    +0.330 C 
ATOM     34  O   LIG    1       20.484 -31.452  14.185  0.00  0.00    -0.249 OA
ATOM     35  C   LIG    1       19.465 -30.413  10.535  0.00  0.00    +0.047 C 
ENDROOT
BRANCH   1  36
ATOM     36  S   LIG    1       18.264 -32.843  10.801  0.00  0.00    -0.025 S 
ATOM     37  O   LIG    1       17.199 -32.185  10.053  0.00  0.00    -0.174 OA
ATOM     38  O   LIG    1       19.146 -33.762  10.122  0.00  0.00    -0.174 OA
BRANCH  36  39
ATOM     39  C   LIG    1       17.488 -33.747  12.120  0.00  0.00    +0.181 C 
BRANCH  39  40
ATOM     40  C   LIG    1       16.058 -33.310  12.408  0.00  0.00    +0.107 C 
BRANCH  40  41
ATOM     41  N   LIG    1       15.786 -32.804  13.773  0.00  0.00    -0.301 NA
BRANCH  41  43
ATOM     42  C   LIG    1       17.635 -33.270  15.500  0.00  0.00    +0.020 C 
ATOM     43  C   LIG    1       16.361 -33.726  14.795  0.00  0.00    +0.081 C 
ENDBRANCH  41  43
BRANCH  41  44
ATOM     44  C   LIG    1       16.324 -31.457  14.088  0.00  0.00    +0.081 C 
ATOM     45  C   LIG    1       15.871 -30.265  13.251  0.00  0.00    +0.020 C 
ENDBRANCH  41  44
ENDBRANCH  40  41
ENDBRANCH  39  40
ENDBRANCH  36  39
ENDBRANCH   1  36
BRANCH  28  46
ATOM     46  C   LIG    1       22.389 -28.026  13.535  0.00  0.00    +0.024 C 
ATOM     47  C   LIG    1       21.157 -27.550  12.760  0.00  0.00    +0.011 C 
ATOM     48  C   LIG    1       22.616 -27.025  14.674  0.00  0.00    +0.011 C 
ENDBRANCH  28  46
BRANCH  13  49
ATOM     49  O   LIG    1       24.939 -28.909   7.640  0.00  0.00    -0.387 OA
ATOM     50  H   LIG    1       24.095 -29.069   8.101  0.00  0.00    +0.210 HD
ENDBRANCH  13  49
TORSDOF 8
ENDMDL
MODEL 2
REMARK VINA RESULT:      -2.1      2.700      8.643
REMARK  Name = *****
REMARK                            x       y       z     vdW  Elec       q    Type
REMARK                         _______ _______ _______ _____ _____    ______ ____
ROOT
ATOM      1  C   LIG    1       24.604 -32.036   9.323  0.00  0.00    +0.163 C 
ATOM      2  C   LIG    1       23.994 -32.089  10.721  0.00  0.00    +0.209 C 
ATOM      3  N   LIG    1       24.187 -30.741  11.253  0.00  0.00    -0.281 N 
ATOM      4  C   LIG    1       24.614 -30.617  12.578  0.00  0.00    +0.269 C 
ATOM      5  O   LIG    1       24.501 -31.557  13.364  0.00  0.00    -0.268 OA
ATOM      6  C   LIG    1       25.235 -29.361  12.994  0.00  0.00    +0.164 A 
ATOM      7  N   LIG    1       25.001 -28.111  12.443  0.00  0.00    -0.208 NA
ATOM      8  C   LIG    1       25.690 -27.287  13.209  0.00  0.00    +0.203 A 
ATOM      9  C   LIG    1       25.647 -25.807  13.235  0.00  0.00    +0.170 C 
ATOM     10  C   LIG    1       25.021 -25.353  14.539  0.00  0.00    +0.145 C 
ATOM     11  O   LIG    1       25.741 -25.016  15.488  0.00  0.00    -0.297 OA
ATOM     12  C   LIG    1       23.506 -25.216  14.672  0.00  0.00    +0.110 C 
ATOM     13  C   LIG    1       22.706 -26.274  13.925  0.00  0.00    +0.145 C 
ATOM     14  C   LIG    1       21.397 -26.638  14.566  0.00  0.00    +0.007 C 
ATOM     15  C   LIG    1       21.056 -27.886  14.946  0.00  0.00    -0.052 C 
ATOM     16  C   LIG    1       21.947 -29.097  14.812  0.00  0.00    +0.043 C 
ATOM     17  C   LIG    1       19.756 -28.203  15.499  0.00  0.00    +0.000 C 
ATOM     18  C   LIG    1       18.631 -28.181  14.767  0.00  0.00    -0.008 C 
ATOM     19  C   LIG    1       17.358 -28.832  15.213  0.00  0.00    +0.132 C 
ATOM     20  N   LIG    1       17.422 -30.169  14.669  0.00  0.00    -0.308 N 
ATOM     21  H   LIG    1       18.192 -30.748  14.972  0.00  0.00    +0.149 HD
ATOM     22  C   LIG    1       16.803 -30.477  13.491  0.00  0.00    +0.237 C 
ATOM     23  O   LIG    1       15.846 -29.875  13.020  0.00  0.00    -0.271 OA
ATOM     24  C   LIG    1       17.402 -31.610  12.740  0.00  0.00    +0.063 C 
ATOM     25  C   LIG    1       18.733 -31.751  12.579  0.00  0.00    -0.015 C 
ATOM     26  C   LIG    1       19.333 -32.706  11.572  0.00  0.00    +0.050 C 
ATOM     27  C   LIG    1       20.052 -33.822  12.336  0.00  0.00    +0.015 C 
ATOM     28  C   LIG    1       20.236 -32.056  10.466  0.00  0.00    +0.186 C 
ATOM     29  O   LIG    1       21.577 -31.719  10.930  0.00  0.00    -0.459 OA
ATOM     30  O   LIG    1       26.423 -27.907  14.183  0.00  0.00    -0.447 OA
ATOM     31  C   LIG    1       26.119 -29.225  14.042  0.00  0.00    +0.230 A 
ATOM     32  C   LIG    1       24.518 -29.796  10.194  0.00  0.00    +0.111 C 
ATOM     33  C   LIG    1       22.557 -32.606  10.586  0.00  0.00    +0.330 C 
ATOM     34  O   LIG    1       22.348 -33.719  10.105  0.00  0.00    -0.249 OA
ATOM     35  C   LIG    1       24.384 -30.583   8.898  0.00  0.00    +0.047 C 
ENDROOT
BRANCH   1  36
ATOM     36  S   LIG    1       26.351 -32.416   9.336  0.00  0.00    -0.025 S 
ATOM     37  O   LIG    1       27.036 -31.210   9.787  0.00  0.00    -0.174 OA
ATOM     38  O   LIG    1       26.550 -33.655  10.050  0.00  0.00    -0.174 OA
BRANCH  36  39
ATOM     39  C   LIG    1       26.852 -32.698   7.654  0.00  0.00    +0.181 C 
BRANCH  39  40
ATOM     40  C   LIG    1       25.698 -32.709   6.662  0.00  0.00    +0.107 C 
BRANCH  40  41
ATOM     41  N   LIG    1       25.842 -31.838   5.473  0.00  0.00    -0.301 NA
BRANCH  41  43
ATOM     42  C   LIG    1       26.189 -32.515   3.017  0.00  0.00    +0.020 C 
ATOM     43  C   LIG    1       25.305 -32.519   4.260  0.00  0.00    +0.081 C 
ENDBRANCH  41  43
BRANCH  41  44
ATOM     44  C   LIG    1       25.157 -30.523   5.542  0.00  0.00    +0.081 C 
ATOM     45  C   LIG    1       25.822 -29.308   4.903  0.00  0.00    +0.020 C 
ENDBRANCH  41  44
ENDBRANCH  40  41
ENDBRANCH  39  40
ENDBRANCH  36  39
ENDBRANCH   1  36
BRANCH  28  46
ATOM     46  C   LIG    1       19.633 -30.849   9.675  0.00  0.00    +0.024 C 
ATOM     47  C   LIG    1       18.165 -30.965   9.255  0.00  0.00    +0.011 C 
ATOM     48  C   LIG    1       19.765 -29.556  10.488  0.00  0.00    +0.011 C 
ENDBRANCH  28  46
BRANCH  13  49
ATOM     49  O   LIG    1       22.427 -25.791  12.615  0.00  0.00    -0.387 OA
ATOM     50  H   LIG    1       23.020 -25.031  12.469  0.00  0.00    +0.210 HD
ENDBRANCH  13  49
TORSDOF 8
ENDMDL
