MODEL 1
REMARK VINA RESULT:      -5.4      0.000      0.000
REMARK  Name = *****
REMARK                            x       y       z     vdW  Elec       q    Type
REMARK                         _______ _______ _______ _____ _____    ______ ____
ROOT
ATOM      1  C   LIG    1       27.570 -20.266   6.960  0.00  0.00    +0.092 A 
ATOM      2  C   LIG    1       26.404 -21.102   6.967  0.00  0.00    +0.044 A 
ATOM      3  I   LIG    1       26.099 -22.535   8.659  0.00  0.00    -0.041 I 
ATOM      4  C   LIG    1       25.431 -21.092   5.919  0.00  0.00    -0.018 A 
ATOM      5  C   LIG    1       25.659 -20.184   4.863  0.00  0.00    +0.019 A 
ATOM      6  I   LIG    1       24.180 -19.582   3.476  0.00  0.00    -0.043 I 
ATOM      7  C   LIG    1       26.870 -19.496   4.742  0.00  0.00    +0.031 A 
ATOM      8  C   LIG    1       27.816 -19.544   5.772  0.00  0.00    +0.041 A 
ATOM      9  I   LIG    1       29.588 -18.453   5.417  0.00  0.00    -0.042 I 
ENDROOT
BRANCH   1  11
ATOM     10  C   LIG    1       29.640 -20.712   7.929  0.00  0.00    +0.184 C 
ATOM     11  N   LIG    1       28.484 -20.147   8.053  0.00  0.00    -0.238 NA
BRANCH  10  13
ATOM     12  C   LIG    1       31.487 -19.552   9.080  0.00  0.00    +0.130 C 
ATOM     13  N   LIG    1       30.711 -20.744   8.796  0.00  0.00    -0.327 N 
ATOM     14  C   LIG    1       31.314 -22.022   9.152  0.00  0.00    +0.130 C 
ENDBRANCH  10  13
ENDBRANCH   1  11
BRANCH   4  15
ATOM     15  C   LIG    1       24.199 -21.985   5.955  0.00  0.00    +0.048 C 
BRANCH  15  16
ATOM     16  C   LIG    1       24.359 -23.464   5.578  0.00  0.00    +0.125 C 
BRANCH  16  17
ATOM     17  C   LIG    1       23.456 -24.425   6.329  0.00  0.00    +0.305 C 
ATOM     18  O   LIG    1       23.713 -25.582   6.513  0.00  0.00    -0.251 OA
BRANCH  17  19
ATOM     19  O   LIG    1       22.278 -23.871   6.731  0.00  0.00    -0.481 OA
ATOM     20  H   LIG    1       21.708 -24.421   7.292  0.00  0.00    +0.295 HD
ENDBRANCH  17  19
ENDBRANCH  16  17
ENDBRANCH  15  16
ENDBRANCH   4  15
TORSDOF 6
ENDMDL
MODEL 2
REMARK VINA RESULT:      -5.0      9.142     11.018
REMARK  Name = *****
REMARK                            x       y       z     vdW  Elec       q    Type
REMARK                         _______ _______ _______ _____ _____    ______ ____
ROOT
ATOM      1  C   LIG    1       24.282 -29.841  10.906  0.00  0.00    +0.092 A 
ATOM      2  C   LIG    1       25.263 -29.089  11.635  0.00  0.00    +0.044 A 
ATOM      3  I   LIG    1       27.424 -29.299  11.091  0.00  0.00    -0.041 I 
ATOM      4  C   LIG    1       24.932 -28.230  12.729  0.00  0.00    -0.018 A 
ATOM      5  C   LIG    1       23.562 -28.128  13.052  0.00  0.00    +0.019 A 
ATOM      6  I   LIG    1       22.733 -26.586  14.238  0.00  0.00    -0.043 I 
ATOM      7  C   LIG    1       22.613 -28.983  12.481  0.00  0.00    +0.031 A 
ATOM      8  C   LIG    1       22.971 -29.833  11.429  0.00  0.00    +0.041 A 
ATOM      9  I   LIG    1       21.416 -31.057  10.694  0.00  0.00    -0.042 I 
ENDROOT
BRANCH   1  11
ATOM     10  C   LIG    1       24.484 -29.977   8.590  0.00  0.00    +0.184 C 
ATOM     11  N   LIG    1       24.559 -30.595   9.723  0.00  0.00    -0.238 NA
BRANCH  10  13
ATOM     12  C   LIG    1       25.711 -31.455   7.044  0.00  0.00    +0.130 C 
ATOM     13  N   LIG    1       24.715 -30.434   7.311  0.00  0.00    -0.327 N 
ATOM     14  C   LIG    1       24.246 -29.658   6.170  0.00  0.00    +0.130 C 
ENDBRANCH  10  13
ENDBRANCH   1  11
BRANCH   4  15
ATOM     15  C   LIG    1       25.992 -27.439  13.482  0.00  0.00    +0.048 C 
BRANCH  15  16
ATOM     16  C   LIG    1       26.366 -26.043  12.964  0.00  0.00    +0.125 C 
BRANCH  16  17
ATOM     17  C   LIG    1       27.323 -25.262  13.845  0.00  0.00    +0.305 C 
ATOM     18  O   LIG    1       27.204 -24.094  14.094  0.00  0.00    -0.251 OA
BRANCH  17  19
ATOM     19  O   LIG    1       28.384 -25.993  14.287  0.00  0.00    -0.481 OA
ATOM     20  H   LIG    1       28.187 -26.718  14.901  0.00  0.00    +0.295 HD
ENDBRANCH  17  19
ENDBRANCH  16  17
ENDBRANCH  15  16
ENDBRANCH   4  15
TORSDOF 6
ENDMDL
MODEL 3
REMARK VINA RESULT:      -4.9     10.122     11.151
REMARK  Name = *****
REMARK                            x       y       z     vdW  Elec       q    Type
REMARK                         _______ _______ _______ _____ _____    ______ ____
ROOT
ATOM      1  C   LIG    1       24.034 -29.520  11.721  0.00  0.00    +0.092 A 
ATOM      2  C   LIG    1       22.694 -29.254  12.162  0.00  0.00    +0.044 A 
ATOM      3  I   LIG    1       21.006 -30.449  11.304  0.00  0.00    -0.041 I 
ATOM      4  C   LIG    1       22.372 -28.229  13.105  0.00  0.00    -0.018 A 
ATOM      5  C   LIG    1       23.458 -27.488  13.618  0.00  0.00    +0.019 A 
ATOM      6  I   LIG    1       23.364 -26.298  15.364  0.00  0.00    -0.043 I 
ATOM      7  C   LIG    1       24.741 -27.604  13.073  0.00  0.00    +0.031 A 
ATOM      8  C   LIG    1       25.021 -28.600  12.132  0.00  0.00    +0.041 A 
ATOM      9  I   LIG    1       27.006 -28.623  11.413  0.00  0.00    -0.042 I 
ENDROOT
BRANCH   1  11
ATOM     10  C   LIG    1       24.345 -30.457   9.612  0.00  0.00    +0.184 C 
ATOM     11  N   LIG    1       24.406 -30.624  10.893  0.00  0.00    -0.238 NA
BRANCH  10  13
ATOM     12  C   LIG    1       23.672 -32.237   8.044  0.00  0.00    +0.130 C 
ATOM     13  N   LIG    1       24.658 -31.323   8.587  0.00  0.00    -0.327 N 
ATOM     14  C   LIG    1       26.055 -31.605   8.283  0.00  0.00    +0.130 C 
ENDBRANCH  10  13
ENDBRANCH   1  11
BRANCH   4  15
ATOM     15  C   LIG    1       20.942 -27.971  13.559  0.00  0.00    +0.048 C 
BRANCH  15  16
ATOM     16  C   LIG    1       20.246 -26.688  13.086  0.00  0.00    +0.125 C 
BRANCH  16  17
ATOM     17  C   LIG    1       19.139 -26.182  13.992  0.00  0.00    +0.305 C 
ATOM     18  O   LIG    1       18.078 -25.783  13.595  0.00  0.00    -0.251 OA
BRANCH  17  19
ATOM     19  O   LIG    1       19.476 -26.156  15.311  0.00  0.00    -0.481 OA
ATOM     20  H   LIG    1       20.357 -26.491  15.541  0.00  0.00    +0.295 HD
ENDBRANCH  17  19
ENDBRANCH  16  17
ENDBRANCH  15  16
ENDBRANCH   4  15
TORSDOF 6
ENDMDL
MODEL 4
REMARK VINA RESULT:      -4.8      9.481     11.936
REMARK  Name = *****
REMARK                            x       y       z     vdW  Elec       q    Type
REMARK                         _______ _______ _______ _____ _____    ______ ____
ROOT
ATOM      1  C   LIG    1       22.093 -28.599  12.502  0.00  0.00    +0.092 A 
ATOM      2  C   LIG    1       23.478 -28.934  12.330  0.00  0.00    +0.044 A 
ATOM      3  I   LIG    1       24.019 -30.805  11.227  0.00  0.00    -0.041 I 
ATOM      4  C   LIG    1       24.543 -28.143  12.864  0.00  0.00    -0.018 A 
ATOM      5  C   LIG    1       24.166 -26.976  13.562  0.00  0.00    +0.019 A 
ATOM      6  I   LIG    1       25.482 -25.379  14.000  0.00  0.00    -0.043 I 
ATOM      7  C   LIG    1       22.832 -26.727  13.898  0.00  0.00    +0.031 A 
ATOM      8  C   LIG    1       21.811 -27.533  13.382  0.00  0.00    +0.041 A 
ATOM      9  I   LIG    1       19.860 -27.016  14.000  0.00  0.00    -0.042 I 
ENDROOT
BRANCH   1  11
ATOM     10  C   LIG    1       20.565 -30.356  12.435  0.00  0.00    +0.184 C 
ATOM     11  N   LIG    1       21.012 -29.285  11.864  0.00  0.00    -0.238 NA
BRANCH  10  13
ATOM     12  C   LIG    1       19.276 -31.502  10.673  0.00  0.00    +0.130 C 
ATOM     13  N   LIG    1       19.536 -31.195  12.066  0.00  0.00    -0.327 N 
ATOM     14  C   LIG    1       18.471 -31.490  13.015  0.00  0.00    +0.130 C 
ENDBRANCH  10  13
ENDBRANCH   1  11
BRANCH   4  15
ATOM     15  C   LIG    1       26.004 -28.518  12.662  0.00  0.00    +0.048 C 
BRANCH  15  16
ATOM     16  C   LIG    1       26.725 -27.995  11.412  0.00  0.00    +0.125 C 
BRANCH  16  17
ATOM     17  C   LIG    1       27.400 -29.057  10.563  0.00  0.00    +0.305 C 
ATOM     18  O   LIG    1       28.150 -29.886  10.998  0.00  0.00    -0.251 OA
BRANCH  17  19
ATOM     19  O   LIG    1       27.130 -28.950   9.233  0.00  0.00    -0.481 OA
ATOM     20  H   LIG    1       26.250 -28.619   8.993  0.00  0.00    +0.295 HD
ENDBRANCH  17  19
ENDBRANCH  16  17
ENDBRANCH  15  16
ENDBRANCH   4  15
TORSDOF 6
ENDMDL
MODEL 5
REMARK VINA RESULT:      -4.8      4.205      7.244
REMARK  Name = *****
REMARK                            x       y       z     vdW  Elec       q    Type
REMARK                         _______ _______ _______ _____ _____    ______ ____
ROOT
ATOM      1  C   LIG    1       27.379 -20.456   6.498  0.00  0.00    +0.092 A 
ATOM      2  C   LIG    1       28.626 -19.748   6.426  0.00  0.00    +0.044 A 
ATOM      3  I   LIG    1       28.781 -17.945   5.109  0.00  0.00    -0.041 I 
ATOM      4  C   LIG    1       29.799 -20.161   7.133  0.00  0.00    -0.018 A 
ATOM      5  C   LIG    1       29.668 -21.307   7.946  0.00  0.00    +0.019 A 
ATOM      6  I   LIG    1       31.032 -21.841   9.471  0.00  0.00    -0.043 I 
ATOM      7  C   LIG    1       28.527 -22.113   7.891  0.00  0.00    +0.031 A 
ATOM      8  C   LIG    1       27.402 -21.697   7.170  0.00  0.00    +0.041 A 
ATOM      9  I   LIG    1       25.774 -23.041   7.192  0.00  0.00    -0.042 I 
ENDROOT
BRANCH   1  11
ATOM     10  C   LIG    1       25.913 -20.319   4.694  0.00  0.00    +0.184 C 
ATOM     11  N   LIG    1       26.155 -19.994   5.922  0.00  0.00    -0.238 NA
BRANCH  10  13
ATOM     12  C   LIG    1       24.488 -18.677   3.532  0.00  0.00    +0.130 C 
ATOM     13  N   LIG    1       24.823 -20.039   3.900  0.00  0.00    -0.327 N 
ATOM     14  C   LIG    1       23.782 -21.043   3.721  0.00  0.00    +0.130 C 
ENDBRANCH  10  13
ENDBRANCH   1  11
BRANCH   4  15
ATOM     15  C   LIG    1       31.107 -19.388   7.043  0.00  0.00    +0.048 C 
BRANCH  15  16
ATOM     16  C   LIG    1       31.238 -18.081   7.836  0.00  0.00    +0.125 C 
BRANCH  16  17
ATOM     17  C   LIG    1       31.010 -18.206   9.331  0.00  0.00    +0.305 C 
ATOM     18  O   LIG    1       29.929 -18.172   9.850  0.00  0.00    -0.251 OA
BRANCH  17  19
ATOM     19  O   LIG    1       32.159 -18.299  10.056  0.00  0.00    -0.481 OA
ATOM     20  H   LIG    1       32.991 -18.185   9.569  0.00  0.00    +0.295 HD
ENDBRANCH  17  19
ENDBRANCH  16  17
ENDBRANCH  15  16
ENDBRANCH   4  15
TORSDOF 6
ENDMDL
MODEL 6
REMARK VINA RESULT:      -4.7      1.693      1.977
REMARK  Name = *****
REMARK                            x       y       z     vdW  Elec       q    Type
REMARK                         _______ _______ _______ _____ _____    ______ ____
ROOT
ATOM      1  C   LIG    1       27.576 -20.544   6.824  0.00  0.00    +0.092 A 
ATOM      2  C   LIG    1       26.446 -21.399   6.597  0.00  0.00    +0.044 A 
ATOM      3  I   LIG    1       26.041 -23.074   8.026  0.00  0.00    -0.041 I 
ATOM      4  C   LIG    1       25.574 -21.258   5.472  0.00  0.00    -0.018 A 
ATOM      5  C   LIG    1       25.863 -20.199   4.586  0.00  0.00    +0.019 A 
ATOM      6  I   LIG    1       24.497 -19.434   3.165  0.00  0.00    -0.043 I 
ATOM      7  C   LIG    1       27.054 -19.472   4.684  0.00  0.00    +0.031 A 
ATOM      8  C   LIG    1       27.902 -19.649   5.783  0.00  0.00    +0.041 A 
ATOM      9  I   LIG    1       29.656 -18.475   5.762  0.00  0.00    -0.042 I 
ENDROOT
BRANCH   1  11
ATOM     10  C   LIG    1       29.635 -20.846   7.869  0.00  0.00    +0.184 C 
ATOM     11  N   LIG    1       28.379 -20.566   8.006  0.00  0.00    -0.238 NA
BRANCH  10  13
ATOM     12  C   LIG    1       31.434 -19.754   9.155  0.00  0.00    +0.130 C 
ATOM     13  N   LIG    1       30.636 -20.917   8.812  0.00  0.00    -0.327 N 
ATOM     14  C   LIG    1       31.163 -22.216   9.209  0.00  0.00    +0.130 C 
ENDBRANCH  10  13
ENDBRANCH   1  11
BRANCH   4  15
ATOM     15  C   LIG    1       24.379 -22.176   5.259  0.00  0.00    +0.048 C 
BRANCH  15  16
ATOM     16  C   LIG    1       23.119 -21.942   6.104  0.00  0.00    +0.125 C 
BRANCH  16  17
ATOM     17  C   LIG    1       22.962 -20.537   6.654  0.00  0.00    +0.305 C 
ATOM     18  O   LIG    1       22.574 -19.603   6.008  0.00  0.00    -0.251 OA
BRANCH  17  19
ATOM     19  O   LIG    1       23.364 -20.405   7.949  0.00  0.00    -0.481 OA
ATOM     20  H   LIG    1       24.296 -20.177   8.093  0.00  0.00    +0.295 HD
ENDBRANCH  17  19
ENDBRANCH  16  17
ENDBRANCH  15  16
ENDBRANCH   4  15
TORSDOF 6
ENDMDL
MODEL 7
REMARK VINA RESULT:      -4.6      9.265     10.962
REMARK  Name = *****
REMARK                            x       y       z     vdW  Elec       q    Type
REMARK                         _______ _______ _______ _____ _____    ______ ____
ROOT
ATOM      1  C   LIG    1       23.784 -30.091  10.849  0.00  0.00    +0.092 A 
ATOM      2  C   LIG    1       24.749 -30.203   9.793  0.00  0.00    +0.044 A 
ATOM      3  I   LIG    1       26.556 -28.882   9.822  0.00  0.00    -0.041 I 
ATOM      4  C   LIG    1       24.598 -31.100   8.689  0.00  0.00    -0.018 A 
ATOM      5  C   LIG    1       23.443 -31.910   8.697  0.00  0.00    +0.019 A 
ATOM      6  I   LIG    1       23.206 -33.649   7.517  0.00  0.00    -0.043 I 
ATOM      7  C   LIG    1       22.406 -31.693   9.610  0.00  0.00    +0.031 A 
ATOM      8  C   LIG    1       22.572 -30.790  10.666  0.00  0.00    +0.041 A 
ATOM      9  I   LIG    1       20.903 -30.584  11.942  0.00  0.00    -0.042 I 
ENDROOT
BRANCH   1  11
ATOM     10  C   LIG    1       24.595 -29.870  13.021  0.00  0.00    +0.184 C 
ATOM     11  N   LIG    1       23.972 -29.313  12.034  0.00  0.00    -0.238 NA
BRANCH  10  13
ATOM     12  C   LIG    1       26.319 -29.183  14.645  0.00  0.00    +0.130 C 
ATOM     13  N   LIG    1       24.933 -29.364  14.257  0.00  0.00    -0.327 N 
ATOM     14  C   LIG    1       23.943 -29.350  15.327  0.00  0.00    +0.130 C 
ENDBRANCH  10  13
ENDBRANCH   1  11
BRANCH   4  15
ATOM     15  C   LIG    1       25.640 -31.202   7.585  0.00  0.00    +0.048 C 
BRANCH  15  16
ATOM     16  C   LIG    1       25.241 -30.780   6.164  0.00  0.00    +0.125 C 
BRANCH  16  17
ATOM     17  C   LIG    1       24.452 -29.487   6.071  0.00  0.00    +0.305 C 
ATOM     18  O   LIG    1       24.856 -28.426   6.459  0.00  0.00    -0.251 OA
BRANCH  17  19
ATOM     19  O   LIG    1       23.199 -29.643   5.560  0.00  0.00    -0.481 OA
ATOM     20  H   LIG    1       22.822 -28.881   5.093  0.00  0.00    +0.295 HD
ENDBRANCH  17  19
ENDBRANCH  16  17
ENDBRANCH  15  16
ENDBRANCH   4  15
TORSDOF 6
ENDMDL
MODEL 8
REMARK VINA RESULT:      -4.6      8.505      9.824
REMARK  Name = *****
REMARK                            x       y       z     vdW  Elec       q    Type
REMARK                         _______ _______ _______ _____ _____    ______ ____
ROOT
ATOM      1  C   LIG    1       24.460 -28.066  12.909  0.00  0.00    +0.092 A 
ATOM      2  C   LIG    1       24.892 -28.855  11.791  0.00  0.00    +0.044 A 
ATOM      3  I   LIG    1       27.019 -28.708  11.108  0.00  0.00    -0.041 I 
ATOM      4  C   LIG    1       24.015 -29.714  11.057  0.00  0.00    -0.018 A 
ATOM      5  C   LIG    1       22.679 -29.776  11.508  0.00  0.00    +0.019 A 
ATOM      6  I   LIG    1       21.316 -31.302  10.975  0.00  0.00    -0.043 I 
ATOM      7  C   LIG    1       22.194 -28.886  12.472  0.00  0.00    +0.031 A 
ATOM      8  C   LIG    1       23.071 -28.038  13.156  0.00  0.00    +0.041 A 
ATOM      9  I   LIG    1       22.165 -26.759  14.570  0.00  0.00    -0.042 I 
ENDROOT
BRANCH   1  11
ATOM     10  C   LIG    1       25.533 -26.069  13.444  0.00  0.00    +0.184 C 
ATOM     11  N   LIG    1       25.336 -27.310  13.749  0.00  0.00    -0.238 NA
BRANCH  10  13
ATOM     12  C   LIG    1       27.697 -25.336  14.371  0.00  0.00    +0.130 C 
ATOM     13  N   LIG    1       26.295 -25.110  14.073  0.00  0.00    -0.327 N 
ATOM     14  C   LIG    1       25.641 -24.016  14.779  0.00  0.00    +0.130 C 
ENDBRANCH  10  13
ENDBRANCH   1  11
BRANCH   4  15
ATOM     15  C   LIG    1       24.501 -30.544   9.878  0.00  0.00    +0.048 C 
BRANCH  15  16
ATOM     16  C   LIG    1       24.088 -30.114   8.464  0.00  0.00    +0.125 C 
BRANCH  16  17
ATOM     17  C   LIG    1       25.207 -29.547   7.608  0.00  0.00    +0.305 C 
ATOM     18  O   LIG    1       25.403 -28.373   7.453  0.00  0.00    -0.251 OA
BRANCH  17  19
ATOM     19  O   LIG    1       25.944 -30.496   6.968  0.00  0.00    -0.481 OA
ATOM     20  H   LIG    1       25.538 -30.909   6.189  0.00  0.00    +0.295 HD
ENDBRANCH  17  19
ENDBRANCH  16  17
ENDBRANCH  15  16
ENDBRANCH   4  15
TORSDOF 6
ENDMDL
MODEL 9
REMARK VINA RESULT:      -4.5      3.740      6.281
REMARK  Name = *****
REMARK                            x       y       z     vdW  Elec       q    Type
REMARK                         _______ _______ _______ _____ _____    ______ ____
ROOT
ATOM      1  C   LIG    1       25.730 -20.959   5.983  0.00  0.00    +0.092 A 
ATOM      2  C   LIG    1       26.656 -21.003   7.079  0.00  0.00    +0.044 A 
ATOM      3  I   LIG    1       26.142 -22.212   8.892  0.00  0.00    -0.041 I 
ATOM      4  C   LIG    1       27.888 -20.278   7.089  0.00  0.00    -0.018 A 
ATOM      5  C   LIG    1       28.176 -19.519   5.935  0.00  0.00    +0.019 A 
ATOM      6  I   LIG    1       30.097 -18.782   5.448  0.00  0.00    -0.043 I 
ATOM      7  C   LIG    1       27.216 -19.315   4.939  0.00  0.00    +0.031 A 
ATOM      8  C   LIG    1       26.007 -20.018   4.968  0.00  0.00    +0.041 A 
ATOM      9  I   LIG    1       24.674 -19.581   3.391  0.00  0.00    -0.042 I 
ENDROOT
BRANCH   1  11
ATOM     10  C   LIG    1       24.686 -23.031   6.176  0.00  0.00    +0.184 C 
ATOM     11  N   LIG    1       24.564 -21.779   5.879  0.00  0.00    -0.238 NA
BRANCH  10  13
ATOM     12  C   LIG    1       22.415 -23.819   6.724  0.00  0.00    +0.130 C 
ATOM     13  N   LIG    1       23.745 -24.037   6.188  0.00  0.00    -0.327 N 
ATOM     14  C   LIG    1       24.165 -25.422   6.014  0.00  0.00    +0.130 C 
ENDBRANCH  10  13
ENDBRANCH   1  11
BRANCH   4  15
ATOM     15  C   LIG    1       28.854 -20.347   8.263  0.00  0.00    +0.048 C 
BRANCH  15  16
ATOM     16  C   LIG    1       29.990 -21.378   8.213  0.00  0.00    +0.125 C 
BRANCH  16  17
ATOM     17  C   LIG    1       31.203 -21.045   9.061  0.00  0.00    +0.305 C 
ATOM     18  O   LIG    1       31.772 -19.989   9.033  0.00  0.00    -0.251 OA
BRANCH  17  19
ATOM     19  O   LIG    1       31.642 -22.084   9.825  0.00  0.00    -0.481 OA
ATOM     20  H   LIG    1       30.966 -22.579  10.315  0.00  0.00    +0.295 HD
ENDBRANCH  17  19
ENDBRANCH  16  17
ENDBRANCH  15  16
ENDBRANCH   4  15
TORSDOF 6
ENDMDL
