MODEL 1
REMARK VINA RESULT:      -8.1      0.000      0.000
REMARK  Name = *****
REMARK                            x       y       z     vdW  Elec       q    Type
REMARK                         _______ _______ _______ _____ _____    ______ ____
ROOT
ATOM      1  C   LIG    1       26.153 -30.249   9.716  0.00  0.00    +0.133 C 
ATOM      2  C   LIG    1       24.690 -29.750  10.010  0.00  0.00    +0.012 C 
ATOM      3  C   LIG    1       23.645 -30.276   8.984  0.00  0.00    +0.011 C 
ATOM      4  C   LIG    1       23.018 -31.641   9.463  0.00  0.00    +0.089 C 
ATOM      5  N   LIG    1       22.504 -31.599  10.859  0.00  0.00    -0.293 NA
ATOM      6  C   LIG    1       22.651 -30.253  11.434  0.00  0.00    +0.104 C 
ATOM      7  C   LIG    1       21.808 -30.001  12.638  0.00  0.00    +0.038 C 
ATOM      8  C   LIG    1       20.675 -30.723  12.957  0.00  0.00    -0.016 C 
ATOM      9  C   LIG    1       19.751 -29.798  13.542  0.00  0.00    +0.003 C 
ATOM     10  C   LIG    1       20.430 -28.585  13.706  0.00  0.00    +0.051 C 
ATOM     11  C   LIG    1       19.793 -27.407  14.155  0.00  0.00    +0.072 C 
ATOM     12  C   LIG    1       18.412 -27.450  14.404  0.00  0.00    +0.122 C 
ATOM     13  C   LIG    1       17.731 -28.660  14.297  0.00  0.00    +0.046 C 
ATOM     14  C   LIG    1       18.382 -29.832  13.874  0.00  0.00    +0.014 C 
ATOM     15  C   LIG    1       20.526 -32.114  12.444  0.00  0.00    +0.053 C 
ATOM     16  N   LIG    1       21.739 -28.806  13.311  0.00  0.00    -0.356 NA
ATOM     17  H   LIG    1       22.461 -28.099  13.311  0.00  0.00    +0.166 HD
ATOM     18  C   LIG    1       21.199 -32.270  11.046  0.00  0.00    +0.090 C 
ATOM     19  C   LIG    1       24.065 -30.106   7.506  0.00  0.00    +0.052 C 
ATOM     20  C   LIG    1       25.460 -29.499   7.305  0.00  0.00    +0.206 C 
ATOM     21  C   LIG    1       24.165 -29.988  11.473  0.00  0.00    +0.030 C 
ATOM     22  C   LIG    1       26.506 -30.217   8.179  0.00  0.00    +0.172 C 
ENDROOT
BRANCH   1  23
ATOM     23  C   LIG    1       27.177 -29.395  10.480  0.00  0.00    +0.313 C 
ATOM     24  O   LIG    1       28.217 -29.818  10.967  0.00  0.00    -0.250 OA
BRANCH  23  26
ATOM     25  C   LIG    1       26.967 -27.491  11.846  0.00  0.00    +0.280 C 
ATOM     26  O   LIG    1       26.781 -28.093  10.564  0.00  0.00    -0.468 OA
ENDBRANCH  23  26
ENDBRANCH   1  23
BRANCH  12  27
ATOM     27  O   LIG    1       17.812 -26.264  14.765  0.00  0.00    -0.495 OA
ATOM     28  C   LIG    1       16.388 -26.314  14.905  0.00  0.00    +0.277 C 
ENDBRANCH  12  27
BRANCH  22  29
ATOM     29  O   LIG    1       26.919 -31.506   7.679  0.00  0.00    -0.375 OA
ATOM     30  C   LIG    1       26.898 -32.593   8.582  0.00  0.00    +0.194 C 
ENDBRANCH  22  29
BRANCH  20  31
ATOM     31  O   LIG    1       25.399 -28.075   7.677  0.00  0.00    -0.456 OA
BRANCH  31  32
ATOM     32  C   LIG    1       25.621 -27.102   6.779  0.00  0.00    +0.332 C 
ATOM     33  O   LIG    1       26.734 -26.642   6.423  0.00  0.00    -0.246 OA
BRANCH  32  34
ATOM     34  C   LIG    1       24.279 -26.622   6.349  0.00  0.00    +0.092 C 
ATOM     35  C   LIG    1       23.830 -25.365   6.085  0.00  0.00    +0.015 C 
BRANCH  35  36
ATOM     36  C   LIG    1       24.540 -24.088   6.128  0.00  0.00    -0.018 A 
ATOM     37  C   LIG    1       24.478 -23.163   5.085  0.00  0.00    +0.057 A 
ATOM     38  C   LIG    1       25.123 -21.911   5.180  0.00  0.00    +0.166 A 
ATOM     39  C   LIG    1       25.824 -21.557   6.354  0.00  0.00    +0.203 A 
ATOM     40  C   LIG    1       25.781 -22.451   7.439  0.00  0.00    +0.166 A 
ATOM     41  C   LIG    1       25.179 -23.713   7.308  0.00  0.00    +0.057 A 
BRANCH  38  42
ATOM     42  O   LIG    1       24.937 -21.141   4.056  0.00  0.00    -0.491 OA
ATOM     43  C   LIG    1       23.863 -20.210   4.081  0.00  0.00    +0.277 C 
ENDBRANCH  38  42
BRANCH  39  44
ATOM     44  O   LIG    1       26.409 -20.313   6.425  0.00  0.00    -0.488 OA
ATOM     45  C   LIG    1       27.771 -20.201   5.999  0.00  0.00    +0.277 C 
ENDBRANCH  39  44
BRANCH  40  46
ATOM     46  O   LIG    1       26.337 -22.067   8.632  0.00  0.00    -0.491 OA
ATOM     47  C   LIG    1       25.841 -20.846   9.165  0.00  0.00    +0.277 C 
ENDBRANCH  40  46
ENDBRANCH  35  36
ENDBRANCH  32  34
ENDBRANCH  31  32
ENDBRANCH  20  31
TORSDOF 11
ENDMDL
MODEL 2
REMARK VINA RESULT:      -8.0      0.913      1.627
REMARK  Name = *****
REMARK                            x       y       z     vdW  Elec       q    Type
REMARK                         _______ _______ _______ _____ _____    ______ ____
ROOT
ATOM      1  C   LIG    1       26.089 -30.333   9.865  0.00  0.00    +0.133 C 
ATOM      2  C   LIG    1       24.617 -29.852  10.144  0.00  0.00    +0.012 C 
ATOM      3  C   LIG    1       23.579 -30.446   9.149  0.00  0.00    +0.011 C 
ATOM      4  C   LIG    1       22.983 -31.801   9.695  0.00  0.00    +0.089 C 
ATOM      5  N   LIG    1       22.475 -31.705  11.090  0.00  0.00    -0.293 NA
ATOM      6  C   LIG    1       22.596 -30.330  11.601  0.00  0.00    +0.104 C 
ATOM      7  C   LIG    1       21.753 -30.040  12.797  0.00  0.00    +0.038 C 
ATOM      8  C   LIG    1       20.638 -30.771  13.156  0.00  0.00    -0.016 C 
ATOM      9  C   LIG    1       19.697 -29.839  13.702  0.00  0.00    +0.003 C 
ATOM     10  C   LIG    1       20.351 -28.605  13.806  0.00  0.00    +0.051 C 
ATOM     11  C   LIG    1       19.691 -27.422  14.203  0.00  0.00    +0.072 C 
ATOM     12  C   LIG    1       18.312 -27.482  14.462  0.00  0.00    +0.122 C 
ATOM     13  C   LIG    1       17.656 -28.710  14.415  0.00  0.00    +0.046 C 
ATOM     14  C   LIG    1       18.330 -29.887  14.043  0.00  0.00    +0.014 C 
ATOM     15  C   LIG    1       20.516 -32.187  12.709  0.00  0.00    +0.053 C 
ATOM     16  N   LIG    1       21.661 -28.817  13.415  0.00  0.00    -0.356 NA
ATOM     17  H   LIG    1       22.368 -28.096  13.378  0.00  0.00    +0.166 HD
ATOM     18  C   LIG    1       21.186 -32.393  11.315  0.00  0.00    +0.090 C 
ATOM     19  C   LIG    1       23.988 -30.337   7.663  0.00  0.00    +0.052 C 
ATOM     20  C   LIG    1       25.369 -29.711   7.426  0.00  0.00    +0.206 C 
ATOM     21  C   LIG    1       24.104 -30.032  11.619  0.00  0.00    +0.030 C 
ATOM     22  C   LIG    1       26.434 -30.365   8.327  0.00  0.00    +0.172 C 
ENDROOT
BRANCH   1  23
ATOM     23  C   LIG    1       27.098 -29.423  10.583  0.00  0.00    +0.313 C 
ATOM     24  O   LIG    1       28.167 -29.793  11.049  0.00  0.00    -0.250 OA
BRANCH  23  26
ATOM     25  C   LIG    1       26.923 -27.473  11.888  0.00  0.00    +0.280 C 
ATOM     26  O   LIG    1       26.652 -28.136  10.653  0.00  0.00    -0.468 OA
ENDBRANCH  23  26
ENDBRANCH   1  23
BRANCH  12  27
ATOM     27  O   LIG    1       17.688 -26.294  14.771  0.00  0.00    -0.495 OA
ATOM     28  C   LIG    1       16.257 -26.334  14.776  0.00  0.00    +0.277 C 
ENDBRANCH  12  27
BRANCH  22  29
ATOM     29  O   LIG    1       26.872 -31.667   7.884  0.00  0.00    -0.375 OA
ATOM     30  C   LIG    1       26.731 -32.744   8.789  0.00  0.00    +0.194 C 
ENDBRANCH  22  29
BRANCH  20  31
ATOM     31  O   LIG    1       25.279 -28.273   7.732  0.00  0.00    -0.456 OA
BRANCH  31  32
ATOM     32  C   LIG    1       25.700 -27.340   6.863  0.00  0.00    +0.332 C 
ATOM     33  O   LIG    1       26.862 -26.878   6.754  0.00  0.00    -0.246 OA
BRANCH  32  34
ATOM     34  C   LIG    1       24.493 -26.904   6.107  0.00  0.00    +0.092 C 
ATOM     35  C   LIG    1       23.941 -25.670   5.952  0.00  0.00    +0.015 C 
BRANCH  35  36
ATOM     36  C   LIG    1       24.379 -24.376   6.473  0.00  0.00    -0.018 A 
ATOM     37  C   LIG    1       25.722 -24.086   6.717  0.00  0.00    +0.057 A 
ATOM     38  C   LIG    1       26.123 -22.807   7.161  0.00  0.00    +0.166 A 
ATOM     39  C   LIG    1       25.168 -21.781   7.339  0.00  0.00    +0.203 A 
ATOM     40  C   LIG    1       23.836 -22.055   6.979  0.00  0.00    +0.166 A 
ATOM     41  C   LIG    1       23.448 -23.347   6.589  0.00  0.00    +0.057 A 
BRANCH  38  42
ATOM     42  O   LIG    1       27.485 -22.717   7.335  0.00  0.00    -0.491 OA
ATOM     43  C   LIG    1       28.125 -21.554   6.830  0.00  0.00    +0.277 C 
ENDBRANCH  38  42
BRANCH  39  44
ATOM     44  O   LIG    1       25.601 -20.537   7.737  0.00  0.00    -0.488 OA
ATOM     45  C   LIG    1       25.882 -20.352   9.129  0.00  0.00    +0.277 C 
ENDBRANCH  39  44
BRANCH  40  46
ATOM     46  O   LIG    1       22.922 -21.035   7.014  0.00  0.00    -0.491 OA
ATOM     47  C   LIG    1       22.743 -20.339   5.787  0.00  0.00    +0.277 C 
ENDBRANCH  40  46
ENDBRANCH  35  36
ENDBRANCH  32  34
ENDBRANCH  31  32
ENDBRANCH  20  31
TORSDOF 11
ENDMDL
MODEL 3
REMARK VINA RESULT:      -7.9      1.333      1.721
REMARK  Name = *****
REMARK                            x       y       z     vdW  Elec       q    Type
REMARK                         _______ _______ _______ _____ _____    ______ ____
ROOT
ATOM      1  C   LIG    1       26.110 -30.422   9.863  0.00  0.00    +0.133 C 
ATOM      2  C   LIG    1       24.621 -29.987  10.132  0.00  0.00    +0.012 C 
ATOM      3  C   LIG    1       23.589 -30.764   9.265  0.00  0.00    +0.011 C 
ATOM      4  C   LIG    1       23.090 -32.063  10.008  0.00  0.00    +0.089 C 
ATOM      5  N   LIG    1       22.620 -31.807  11.396  0.00  0.00    -0.293 NA
ATOM      6  C   LIG    1       22.677 -30.372  11.717  0.00  0.00    +0.104 C 
ATOM      7  C   LIG    1       21.857 -29.969  12.895  0.00  0.00    +0.038 C 
ATOM      8  C   LIG    1       20.797 -30.703  13.390  0.00  0.00    -0.016 C 
ATOM      9  C   LIG    1       19.821 -29.758  13.844  0.00  0.00    +0.003 C 
ATOM     10  C   LIG    1       20.406 -28.488  13.758  0.00  0.00    +0.051 C 
ATOM     11  C   LIG    1       19.692 -27.299  14.020  0.00  0.00    +0.072 C 
ATOM     12  C   LIG    1       18.327 -27.397  14.338  0.00  0.00    +0.122 C 
ATOM     13  C   LIG    1       17.742 -28.653  14.479  0.00  0.00    +0.046 C 
ATOM     14  C   LIG    1       18.471 -29.831  14.240  0.00  0.00    +0.014 C 
ATOM     15  C   LIG    1       20.743 -32.170  13.139  0.00  0.00    +0.053 C 
ATOM     16  N   LIG    1       21.714 -28.681  13.348  0.00  0.00    -0.356 NA
ATOM     17  H   LIG    1       22.377 -27.935  13.189  0.00  0.00    +0.166 HD
ATOM     18  C   LIG    1       21.380 -32.526  11.760  0.00  0.00    +0.090 C 
ATOM     19  C   LIG    1       23.945 -30.834   7.763  0.00  0.00    +0.052 C 
ATOM     20  C   LIG    1       25.279 -30.172   7.392  0.00  0.00    +0.206 C 
ATOM     21  C   LIG    1       24.166 -29.995  11.637  0.00  0.00    +0.030 C 
ATOM     22  C   LIG    1       26.408 -30.642   8.331  0.00  0.00    +0.172 C 
ENDROOT
BRANCH   1  23
ATOM     23  C   LIG    1       27.086 -29.372  10.415  0.00  0.00    +0.313 C 
ATOM     24  O   LIG    1       26.875 -28.167  10.443  0.00  0.00    -0.250 OA
BRANCH  23  26
ATOM     25  C   LIG    1       28.773 -29.358  12.054  0.00  0.00    +0.280 C 
ATOM     26  O   LIG    1       28.236 -29.945  10.868  0.00  0.00    -0.468 OA
ENDBRANCH  23  26
ENDBRANCH   1  23
BRANCH  12  27
ATOM     27  O   LIG    1       17.646 -26.213  14.510  0.00  0.00    -0.495 OA
ATOM     28  C   LIG    1       16.220 -26.327  14.568  0.00  0.00    +0.277 C 
ENDBRANCH  12  27
BRANCH  22  29
ATOM     29  O   LIG    1       26.906 -31.967   8.047  0.00  0.00    -0.375 OA
ATOM     30  C   LIG    1       26.736 -32.954   9.045  0.00  0.00    +0.194 C 
ENDBRANCH  22  29
BRANCH  20  31
ATOM     31  O   LIG    1       25.116 -28.713   7.508  0.00  0.00    -0.456 OA
BRANCH  31  32
ATOM     32  C   LIG    1       24.789 -27.954   6.451  0.00  0.00    +0.332 C 
ATOM     33  O   LIG    1       23.663 -27.868   5.901  0.00  0.00    -0.246 OA
BRANCH  32  34
ATOM     34  C   LIG    1       26.049 -27.293   6.010  0.00  0.00    +0.092 C 
ATOM     35  C   LIG    1       26.410 -25.982   6.013  0.00  0.00    +0.015 C 
BRANCH  35  36
ATOM     36  C   LIG    1       25.669 -24.807   6.470  0.00  0.00    -0.018 A 
ATOM     37  C   LIG    1       24.285 -24.696   6.328  0.00  0.00    +0.057 A 
ATOM     38  C   LIG    1       23.587 -23.579   6.835  0.00  0.00    +0.166 A 
ATOM     39  C   LIG    1       24.278 -22.559   7.527  0.00  0.00    +0.203 A 
ATOM     40  C   LIG    1       25.653 -22.742   7.763  0.00  0.00    +0.166 A 
ATOM     41  C   LIG    1       26.339 -23.833   7.207  0.00  0.00    +0.057 A 
BRANCH  38  42
ATOM     42  O   LIG    1       22.234 -23.658   6.603  0.00  0.00    -0.491 OA
ATOM     43  C   LIG    1       21.666 -22.676   5.747  0.00  0.00    +0.277 C 
ENDBRANCH  38  42
BRANCH  39  44
ATOM     44  O   LIG    1       23.559 -21.503   8.040  0.00  0.00    -0.488 OA
ATOM     45  C   LIG    1       23.429 -20.336   7.222  0.00  0.00    +0.277 C 
ENDBRANCH  39  44
BRANCH  40  46
ATOM     46  O   LIG    1       26.312 -21.834   8.551  0.00  0.00    -0.491 OA
ATOM     47  C   LIG    1       27.044 -20.840   7.846  0.00  0.00    +0.277 C 
ENDBRANCH  40  46
ENDBRANCH  35  36
ENDBRANCH  32  34
ENDBRANCH  31  32
ENDBRANCH  20  31
TORSDOF 11
ENDMDL
MODEL 4
REMARK VINA RESULT:      -5.4      4.671      7.303
REMARK  Name = *****
REMARK                            x       y       z     vdW  Elec       q    Type
REMARK                         _______ _______ _______ _____ _____    ______ ____
ROOT
ATOM      1  C   LIG    1       25.671 -27.890  14.490  0.00  0.00    +0.133 C 
ATOM      2  C   LIG    1       24.830 -28.914  13.641  0.00  0.00    +0.012 C 
ATOM      3  C   LIG    1       25.450 -30.341  13.611  0.00  0.00    +0.011 C 
ATOM      4  C   LIG    1       24.890 -31.227  14.789  0.00  0.00    +0.089 C 
ATOM      5  N   LIG    1       23.405 -31.232  14.872  0.00  0.00    -0.293 NA
ATOM      6  C   LIG    1       22.813 -30.448  13.777  0.00  0.00    +0.104 C 
ATOM      7  C   LIG    1       21.370 -30.728  13.527  0.00  0.00    +0.038 C 
ATOM      8  C   LIG    1       20.724 -31.883  13.921  0.00  0.00    -0.016 C 
ATOM      9  C   LIG    1       19.772 -32.190  12.896  0.00  0.00    +0.003 C 
ATOM     10  C   LIG    1       19.765 -31.111  12.003  0.00  0.00    +0.051 C 
ATOM     11  C   LIG    1       19.023 -31.118  10.802  0.00  0.00    +0.072 C 
ATOM     12  C   LIG    1       18.296 -32.274  10.473  0.00  0.00    +0.122 C 
ATOM     13  C   LIG    1       18.249 -33.336  11.374  0.00  0.00    +0.046 C 
ATOM     14  C   LIG    1       18.973 -33.307  12.579  0.00  0.00    +0.014 C 
ATOM     15  C   LIG    1       21.261 -32.665  15.070  0.00  0.00    +0.053 C 
ATOM     16  N   LIG    1       20.621 -30.158  12.526  0.00  0.00    -0.356 NA
ATOM     17  H   LIG    1       20.824 -29.271  12.086  0.00  0.00    +0.166 HD
ATOM     18  C   LIG    1       22.815 -32.561  15.140  0.00  0.00    +0.090 C 
ATOM     19  C   LIG    1       26.961 -30.370  13.285  0.00  0.00    +0.052 C 
ATOM     20  C   LIG    1       27.600 -28.988  13.101  0.00  0.00    +0.206 C 
ATOM     21  C   LIG    1       23.301 -29.006  13.996  0.00  0.00    +0.030 C 
ATOM     22  C   LIG    1       27.223 -28.046  14.261  0.00  0.00    +0.172 C 
ENDROOT
BRANCH   1  23
ATOM     23  C   LIG    1       25.260 -26.448  14.157  0.00  0.00    +0.313 C 
ATOM     24  O   LIG    1       25.399 -25.916  13.063  0.00  0.00    -0.250 OA
BRANCH  23  26
ATOM     25  C   LIG    1       25.189 -24.483  15.447  0.00  0.00    +0.280 C 
ATOM     26  O   LIG    1       24.723 -25.816  15.238  0.00  0.00    -0.468 OA
ENDBRANCH  23  26
ENDBRANCH   1  23
BRANCH  12  27
ATOM     27  O   LIG    1       17.648 -32.273   9.258  0.00  0.00    -0.495 OA
ATOM     28  C   LIG    1       17.906 -33.408   8.424  0.00  0.00    +0.277 C 
ENDBRANCH  12  27
BRANCH  22  29
ATOM     29  O   LIG    1       27.943 -28.293  15.488  0.00  0.00    -0.375 OA
ATOM     30  C   LIG    1       29.250 -28.821  15.381  0.00  0.00    +0.194 C 
ENDBRANCH  22  29
BRANCH  20  31
ATOM     31  O   LIG    1       27.117 -28.423  11.830  0.00  0.00    -0.456 OA
BRANCH  31  32
ATOM     32  C   LIG    1       27.361 -29.023  10.654  0.00  0.00    +0.332 C 
ATOM     33  O   LIG    1       28.115 -30.005  10.448  0.00  0.00    -0.246 OA
BRANCH  32  34
ATOM     34  C   LIG    1       26.620 -28.238   9.627  0.00  0.00    +0.092 C 
ATOM     35  C   LIG    1       25.800 -28.645   8.622  0.00  0.00    +0.015 C 
BRANCH  35  36
ATOM     36  C   LIG    1       25.376 -29.993   8.247  0.00  0.00    -0.018 A 
ATOM     37  C   LIG    1       24.756 -30.859   9.148  0.00  0.00    +0.057 A 
ATOM     38  C   LIG    1       24.301 -32.132   8.742  0.00  0.00    +0.166 A 
ATOM     39  C   LIG    1       24.439 -32.544   7.398  0.00  0.00    +0.203 A 
ATOM     40  C   LIG    1       24.959 -31.616   6.478  0.00  0.00    +0.166 A 
ATOM     41  C   LIG    1       25.454 -30.376   6.909  0.00  0.00    +0.057 A 
BRANCH  38  42
ATOM     42  O   LIG    1       23.712 -32.829   9.772  0.00  0.00    -0.491 OA
ATOM     43  C   LIG    1       22.348 -32.544  10.048  0.00  0.00    +0.277 C 
ENDBRANCH  38  42
BRANCH  39  44
ATOM     44  O   LIG    1       23.949 -33.777   7.032  0.00  0.00    -0.488 OA
ATOM     45  C   LIG    1       22.627 -33.824   6.484  0.00  0.00    +0.277 C 
ENDBRANCH  39  44
BRANCH  40  46
ATOM     46  O   LIG    1       24.973 -31.946   5.148  0.00  0.00    -0.491 OA
ATOM     47  C   LIG    1       26.105 -32.692   4.720  0.00  0.00    +0.277 C 
ENDBRANCH  40  46
ENDBRANCH  35  36
ENDBRANCH  32  34
ENDBRANCH  31  32
ENDBRANCH  20  31
TORSDOF 11
ENDMDL
