@<TRIPOS>MOLECULE
MOL
   45    47     1     0     0
SMALL
resp


@<TRIPOS>ATOM
      1 O1           0.5670     3.4520     1.9460 oh         1 MOL      -0.748499
      2 C1           0.8160     2.8670     0.6670 c3         1 MOL       0.348168
      3 C2           1.7690     1.6680     0.8280 c3         1 MOL       0.223453
      4 O2           2.0190     1.0820    -0.4520 os         1 MOL      -0.706916
      5 C3           2.9060    -0.0300    -0.3030 c3         1 MOL       0.492458
      6 C4           3.2110    -0.7240    -1.5830 c3         1 MOL      -0.073382
      7 C5           4.3970    -1.6730    -1.2580 c3         1 MOL      -0.213726
      8 C6           4.2580    -2.2030     0.2040 c3         1 MOL       0.444371
      9 N1           2.8730    -2.4490     0.4350 n3         1 MOL      -0.957740
     10 C7           2.2220    -1.1080     0.6050 c3         1 MOL       0.068539
     11 C8          -0.5130     2.3870     0.0530 ca         1 MOL       0.090977
     12 C9          -1.2660     3.2530    -0.7510 ca         1 MOL      -0.190262
     13 C10         -2.4760     2.8170    -1.3080 ca         1 MOL      -0.125998
     14 C11         -2.9330     1.5160    -1.0610 ca         1 MOL      -0.170588
     15 C12         -2.1800     0.6490    -0.2570 cp         1 MOL       0.001330
     16 C13         -2.6820    -0.7800     0.0140 cp         1 MOL       0.068496
     17 C14         -1.9290    -1.6470     0.8190 ca         1 MOL      -0.137875
     18 C15         -2.3860    -2.9490     1.0660 ca         1 MOL      -0.140334
     19 C16         -3.5970    -3.3840     0.5080 ca         1 MOL      -0.130257
     20 C17         -4.3490    -2.5170    -0.2950 ca         1 MOL      -0.140334
     21 C18         -3.8920    -1.2160    -0.5430 ca         1 MOL      -0.137875
     22 C19         -0.9700     1.0860     0.3000 ca         1 MOL      -0.110106
     23 H1           1.3940     3.7520     2.3280 ho         1 MOL       0.442811
     24 H2           1.2640     3.5930     0.0220 h1         1 MOL       0.023532
     25 H3           2.6930     2.0020     1.2540 h1         1 MOL      -0.023155
     26 H4           1.3220     0.9410     1.4720 h1         1 MOL      -0.023155
     27 H5           3.8320     0.3180     0.1070 h1         1 MOL       0.003838
     28 H6           3.4940    -0.0720    -2.3830 hc         1 MOL       0.046769
     29 H7           2.3290    -1.2600    -1.8670 hc         1 MOL       0.046769
     30 H8           5.3390    -1.1680    -1.3020 hc         1 MOL       0.038846
     31 H9           4.3760    -2.4580    -1.9850 hc         1 MOL       0.038846
     32 H10          4.5680    -1.4660     0.9150 h1         1 MOL      -0.039681
     33 H11          4.8630    -3.0780     0.3150 h1         1 MOL      -0.039681
     34 H12          2.5280    -2.9440    -0.3630 hn         1 MOL       0.424171
     35 H13          2.2990    -0.7580     1.6140 h1         1 MOL       0.080629
     36 H14          1.1930    -1.2370     0.3450 h1         1 MOL       0.080629
     37 H15         -0.9170     4.2470    -0.9410 ha         1 MOL       0.132102
     38 H16         -3.0510     3.4790    -1.9230 ha         1 MOL       0.132559
     39 H17         -3.8570     1.1830    -1.4860 ha         1 MOL       0.140259
     40 H18         -1.0050    -1.3150     1.2440 ha         1 MOL       0.122496
     41 H19         -1.8110    -3.6100     1.6790 ha         1 MOL       0.129782
     42 H20         -3.9460    -4.3770     0.6970 ha         1 MOL       0.127767
     43 H21         -5.2730    -2.8490    -0.7210 ha         1 MOL       0.129782
     44 H22         -4.4670    -0.5540    -1.1570 ha         1 MOL       0.122496
     45 H23         -0.3950     0.4240     0.9140 ha         1 MOL       0.107687
@<TRIPOS>BOND
     1     1     2 1   
     2     1    23 1   
     3     2     3 1   
     4     2    11 1   
     5     2    24 1   
     6     3     4 1   
     7     3    25 1   
     8     3    26 1   
     9     4     5 1   
    10     5     6 1   
    11     5    10 1   
    12     5    27 1   
    13     6     7 1   
    14     6    28 1   
    15     6    29 1   
    16     7     8 1   
    17     7    30 1   
    18     7    31 1   
    19     8     9 1   
    20     8    32 1   
    21     8    33 1   
    22     9    10 1   
    23     9    34 1   
    24    10    35 1   
    25    10    36 1   
    26    11    12 ar  
    27    11    22 ar  
    28    12    13 ar  
    29    12    37 1   
    30    13    14 ar  
    31    13    38 1   
    32    14    15 ar  
    33    14    39 1   
    34    15    16 1   
    35    15    22 ar  
    36    16    17 ar  
    37    16    21 ar  
    38    17    18 ar  
    39    17    40 1   
    40    18    19 ar  
    41    18    41 1   
    42    19    20 ar  
    43    19    42 1   
    44    20    21 ar  
    45    20    43 1   
    46    21    44 1   
    47    22    45 1   
@<TRIPOS>SUBSTRUCTURE
     1 MOL         1 TEMP              0 ****  ****    0 ROOT
