MODEL 1
REMARK VINA RESULT:      -5.6      0.000      0.000
REMARK  Name = *****
REMARK                            x       y       z     vdW  Elec       q    Type
REMARK                         _______ _______ _______ _____ _____    ______ ____
ROOT
ATOM      1  C   LIG    1       21.626 -21.472   4.830  0.00  0.00    +0.027 C 
ATOM      2  C   LIG    1       22.842 -20.787   5.473  0.00  0.00    +0.084 C 
ATOM      3  C   LIG    1       24.124 -21.007   4.603  0.00  0.00    +0.165 C 
ATOM      4  O   LIG    1       24.032 -20.237   3.382  0.00  0.00    -0.369 OA
ATOM      5  C   LIG    1       23.817 -18.843   3.637  0.00  0.00    +0.176 C 
ATOM      6  C   LIG    1       22.547 -18.603   4.462  0.00  0.00    +0.109 C 
ATOM      7  N   LIG    1       22.541 -19.355   5.731  0.00  0.00    -0.309 NA
ATOM      8  H   LIG    1       23.295 -18.978   6.308  0.00  0.00    +0.122 HD
ENDROOT
BRANCH   3   9
ATOM      9  C   LIG    1       25.488 -20.794   5.258  0.00  0.00    -0.017 A 
ATOM     10  C   LIG    1       25.806 -21.548   6.404  0.00  0.00    +0.006 A 
ATOM     11  C   LIG    1       27.026 -21.389   7.062  0.00  0.00    +0.000 A 
ATOM     12  C   LIG    1       27.951 -20.463   6.593  0.00  0.00    +0.000 A 
ATOM     13  C   LIG    1       27.653 -19.697   5.469  0.00  0.00    +0.000 A 
ATOM     14  C   LIG    1       26.429 -19.857   4.810  0.00  0.00    +0.006 A 
ENDBRANCH   3   9
TORSDOF 1
ENDMDL
MODEL 2
REMARK VINA RESULT:      -5.6      0.094      1.336
REMARK  Name = *****
REMARK                            x       y       z     vdW  Elec       q    Type
REMARK                         _______ _______ _______ _____ _____    ______ ____
ROOT
ATOM      1  C   LIG    1       21.599 -21.468   4.817  0.00  0.00    +0.027 C 
ATOM      2  C   LIG    1       22.805 -20.780   5.476  0.00  0.00    +0.084 C 
ATOM      3  C   LIG    1       24.110 -21.047   4.653  0.00  0.00    +0.165 C 
ATOM      4  O   LIG    1       24.067 -20.314   3.406  0.00  0.00    -0.369 OA
ATOM      5  C   LIG    1       23.866 -18.910   3.613  0.00  0.00    +0.176 C 
ATOM      6  C   LIG    1       22.576 -18.625   4.390  0.00  0.00    +0.109 C 
ATOM      7  N   LIG    1       22.519 -19.337   5.681  0.00  0.00    -0.309 NA
ATOM      8  H   LIG    1       23.261 -18.954   6.269  0.00  0.00    +0.122 HD
ENDROOT
BRANCH   3   9
ATOM      9  C   LIG    1       25.457 -20.834   5.343  0.00  0.00    -0.017 A 
ATOM     10  C   LIG    1       26.364 -19.921   4.772  0.00  0.00    +0.006 A 
ATOM     11  C   LIG    1       27.619 -19.694   5.341  0.00  0.00    +0.000 A 
ATOM     12  C   LIG    1       27.995 -20.384   6.487  0.00  0.00    +0.000 A 
ATOM     13  C   LIG    1       27.119 -21.301   7.061  0.00  0.00    +0.000 A 
ATOM     14  C   LIG    1       25.861 -21.529   6.491  0.00  0.00    +0.006 A 
ENDBRANCH   3   9
TORSDOF 1
ENDMDL
MODEL 3
REMARK VINA RESULT:      -3.8      4.833      6.754
REMARK  Name = *****
REMARK                            x       y       z     vdW  Elec       q    Type
REMARK                         _______ _______ _______ _____ _____    ______ ____
ROOT
ATOM      1  C   LIG    1       27.487 -13.341   3.719  0.00  0.00    +0.027 C 
ATOM      2  C   LIG    1       26.439 -14.358   3.240  0.00  0.00    +0.084 C 
ATOM      3  C   LIG    1       25.251 -14.447   4.256  0.00  0.00    +0.165 C 
ATOM      4  O   LIG    1       24.458 -13.239   4.198  0.00  0.00    -0.369 OA
ATOM      5  C   LIG    1       23.982 -12.968   2.874  0.00  0.00    +0.176 C 
ATOM      6  C   LIG    1       25.133 -12.844   1.868  0.00  0.00    +0.109 C 
ATOM      7  N   LIG    1       26.009 -14.031   1.856  0.00  0.00    -0.309 NA
ATOM      8  H   LIG    1       25.451 -14.814   1.511  0.00  0.00    +0.122 HD
ENDROOT
BRANCH   3   9
ATOM      9  C   LIG    1       24.344 -15.675   4.202  0.00  0.00    -0.017 A 
ATOM     10  C   LIG    1       23.033 -15.562   4.703  0.00  0.00    +0.006 A 
ATOM     11  C   LIG    1       22.159 -16.650   4.701  0.00  0.00    +0.000 A 
ATOM     12  C   LIG    1       22.583 -17.879   4.207  0.00  0.00    +0.000 A 
ATOM     13  C   LIG    1       23.879 -18.017   3.719  0.00  0.00    +0.000 A 
ATOM     14  C   LIG    1       24.755 -16.926   3.721  0.00  0.00    +0.006 A 
ENDBRANCH   3   9
TORSDOF 1
ENDMDL
MODEL 4
REMARK VINA RESULT:      -3.6      4.864      6.774
REMARK  Name = *****
REMARK                            x       y       z     vdW  Elec       q    Type
REMARK                         _______ _______ _______ _____ _____    ______ ____
ROOT
ATOM      1  C   LIG    1       27.493 -13.312   3.694  0.00  0.00    +0.027 C 
ATOM      2  C   LIG    1       26.423 -14.322   3.250  0.00  0.00    +0.084 C 
ATOM      3  C   LIG    1       25.257 -14.386   4.292  0.00  0.00    +0.165 C 
ATOM      4  O   LIG    1       24.476 -13.169   4.237  0.00  0.00    -0.369 OA
ATOM      5  C   LIG    1       23.975 -12.909   2.920  0.00  0.00    +0.176 C 
ATOM      6  C   LIG    1       25.105 -12.810   1.888  0.00  0.00    +0.109 C 
ATOM      7  N   LIG    1       25.968 -14.007   1.871  0.00  0.00    -0.309 NA
ATOM      8  H   LIG    1       25.394 -14.787   1.548  0.00  0.00    +0.122 HD
ENDROOT
BRANCH   3   9
ATOM      9  C   LIG    1       24.335 -15.604   4.272  0.00  0.00    -0.017 A 
ATOM     10  C   LIG    1       24.835 -16.813   3.752  0.00  0.00    +0.006 A 
ATOM     11  C   LIG    1       24.040 -17.959   3.686  0.00  0.00    +0.000 A 
ATOM     12  C   LIG    1       22.724 -17.915   4.131  0.00  0.00    +0.000 A 
ATOM     13  C   LIG    1       22.204 -16.727   4.637  0.00  0.00    +0.000 A 
ATOM     14  C   LIG    1       23.001 -15.579   4.703  0.00  0.00    +0.006 A 
ENDBRANCH   3   9
TORSDOF 1
ENDMDL
MODEL 5
REMARK VINA RESULT:      -3.3      2.410      4.291
REMARK  Name = *****
REMARK                            x       y       z     vdW  Elec       q    Type
REMARK                         _______ _______ _______ _____ _____    ______ ____
ROOT
ATOM      1  C   LIG    1       24.212 -21.563   3.289  0.00  0.00    +0.027 C 
ATOM      2  C   LIG    1       24.641 -20.215   3.890  0.00  0.00    +0.084 C 
ATOM      3  C   LIG    1       23.516 -19.142   3.700  0.00  0.00    +0.165 C 
ATOM      4  O   LIG    1       22.395 -19.444   4.562  0.00  0.00    -0.369 OA
ATOM      5  C   LIG    1       22.783 -19.544   5.938  0.00  0.00    +0.176 C 
ATOM      6  C   LIG    1       23.862 -20.613   6.151  0.00  0.00    +0.109 C 
ATOM      7  N   LIG    1       25.052 -20.397   5.305  0.00  0.00    -0.309 NA
ATOM      8  H   LIG    1       25.489 -19.528   5.616  0.00  0.00    +0.122 HD
ENDROOT
BRANCH   3   9
ATOM      9  C   LIG    1       23.895 -17.667   3.825  0.00  0.00    -0.017 A 
ATOM     10  C   LIG    1       22.922 -16.763   4.291  0.00  0.00    +0.006 A 
ATOM     11  C   LIG    1       23.196 -15.400   4.410  0.00  0.00    +0.000 A 
ATOM     12  C   LIG    1       24.448 -14.911   4.055  0.00  0.00    +0.000 A 
ATOM     13  C   LIG    1       25.422 -15.785   3.578  0.00  0.00    +0.000 A 
ATOM     14  C   LIG    1       25.147 -17.151   3.459  0.00  0.00    +0.006 A 
ENDBRANCH   3   9
TORSDOF 1
ENDMDL
MODEL 6
REMARK VINA RESULT:      -3.2      2.438      4.299
REMARK  Name = *****
REMARK                            x       y       z     vdW  Elec       q    Type
REMARK                         _______ _______ _______ _____ _____    ______ ____
ROOT
ATOM      1  C   LIG    1       24.234 -21.537   3.340  0.00  0.00    +0.027 C 
ATOM      2  C   LIG    1       24.634 -20.180   3.939  0.00  0.00    +0.084 C 
ATOM      3  C   LIG    1       23.533 -19.104   3.654  0.00  0.00    +0.165 C 
ATOM      4  O   LIG    1       22.355 -19.379   4.448  0.00  0.00    -0.369 OA
ATOM      5  C   LIG    1       22.654 -19.452   5.848  0.00  0.00    +0.176 C 
ATOM      6  C   LIG    1       23.708 -20.524   6.152  0.00  0.00    +0.109 C 
ATOM      7  N   LIG    1       24.951 -20.334   5.382  0.00  0.00    -0.309 NA
ATOM      8  H   LIG    1       25.374 -19.461   5.702  0.00  0.00    +0.122 HD
ENDROOT
BRANCH   3   9
ATOM      9  C   LIG    1       23.915 -17.629   3.772  0.00  0.00    -0.017 A 
ATOM     10  C   LIG    1       25.217 -17.243   3.402  0.00  0.00    +0.006 A 
ATOM     11  C   LIG    1       25.637 -15.916   3.504  0.00  0.00    +0.000 A 
ATOM     12  C   LIG    1       24.765 -14.948   3.989  0.00  0.00    +0.000 A 
ATOM     13  C   LIG    1       23.476 -15.309   4.374  0.00  0.00    +0.000 A 
ATOM     14  C   LIG    1       23.056 -16.640   4.272  0.00  0.00    +0.006 A 
ENDBRANCH   3   9
TORSDOF 1
ENDMDL
MODEL 7
REMARK VINA RESULT:      -3.0      1.503      2.622
REMARK  Name = *****
REMARK                            x       y       z     vdW  Elec       q    Type
REMARK                         _______ _______ _______ _____ _____    ______ ____
ROOT
ATOM      1  C   LIG    1       23.343 -18.699   3.384  0.00  0.00    +0.027 C 
ATOM      2  C   LIG    1       24.463 -19.679   3.767  0.00  0.00    +0.084 C 
ATOM      3  C   LIG    1       24.840 -19.522   5.279  0.00  0.00    +0.165 C 
ATOM      4  O   LIG    1       23.775 -20.038   6.111  0.00  0.00    -0.369 OA
ATOM      5  C   LIG    1       23.457 -21.400   5.798  0.00  0.00    +0.176 C 
ATOM      6  C   LIG    1       23.053 -21.570   4.329  0.00  0.00    +0.109 C 
ATOM      7  N   LIG    1       24.077 -21.064   3.395  0.00  0.00    -0.309 NA
ATOM      8  H   LIG    1       24.902 -21.657   3.503  0.00  0.00    +0.122 HD
ENDROOT
BRANCH   3   9
ATOM      9  C   LIG    1       26.187 -20.070   5.748  0.00  0.00    -0.017 A 
ATOM     10  C   LIG    1       27.361 -19.546   5.173  0.00  0.00    +0.006 A 
ATOM     11  C   LIG    1       28.622 -20.015   5.543  0.00  0.00    +0.000 A 
ATOM     12  C   LIG    1       28.735 -21.027   6.489  0.00  0.00    +0.000 A 
ATOM     13  C   LIG    1       27.588 -21.570   7.062  0.00  0.00    +0.000 A 
ATOM     14  C   LIG    1       26.323 -21.099   6.691  0.00  0.00    +0.006 A 
ENDBRANCH   3   9
TORSDOF 1
ENDMDL
MODEL 8
REMARK VINA RESULT:      -3.0      4.281      5.853
REMARK  Name = *****
REMARK                            x       y       z     vdW  Elec       q    Type
REMARK                         _______ _______ _______ _____ _____    ______ ____
ROOT
ATOM      1  C   LIG    1       24.689 -12.683   3.152  0.00  0.00    +0.027 C 
ATOM      2  C   LIG    1       24.758 -14.026   3.896  0.00  0.00    +0.084 C 
ATOM      3  C   LIG    1       25.329 -15.146   2.964  0.00  0.00    +0.165 C 
ATOM      4  O   LIG    1       26.741 -14.926   2.735  0.00  0.00    -0.369 OA
ATOM      5  C   LIG    1       27.481 -14.849   3.960  0.00  0.00    +0.176 C 
ATOM      6  C   LIG    1       26.957 -13.736   4.875  0.00  0.00    +0.109 C 
ATOM      7  N   LIG    1       25.516 -13.867   5.164  0.00  0.00    -0.309 NA
ATOM      8  H   LIG    1       25.395 -14.723   5.708  0.00  0.00    +0.122 HD
ENDROOT
BRANCH   3   9
ATOM      9  C   LIG    1       25.079 -16.604   3.347  0.00  0.00    -0.017 A 
ATOM     10  C   LIG    1       23.811 -16.956   3.846  0.00  0.00    +0.006 A 
ATOM     11  C   LIG    1       23.521 -18.266   4.232  0.00  0.00    +0.000 A 
ATOM     12  C   LIG    1       24.500 -19.249   4.137  0.00  0.00    +0.000 A 
ATOM     13  C   LIG    1       25.765 -18.920   3.658  0.00  0.00    +0.000 A 
ATOM     14  C   LIG    1       26.055 -17.607   3.271  0.00  0.00    +0.006 A 
ENDBRANCH   3   9
TORSDOF 1
ENDMDL
MODEL 9
REMARK VINA RESULT:      -3.0      4.281      5.903
REMARK  Name = *****
REMARK                            x       y       z     vdW  Elec       q    Type
REMARK                         _______ _______ _______ _____ _____    ______ ____
ROOT
ATOM      1  C   LIG    1       24.843 -12.654   3.108  0.00  0.00    +0.027 C 
ATOM      2  C   LIG    1       24.824 -13.980   3.885  0.00  0.00    +0.084 C 
ATOM      3  C   LIG    1       25.376 -15.147   3.000  0.00  0.00    +0.165 C 
ATOM      4  O   LIG    1       26.803 -14.996   2.817  0.00  0.00    -0.369 OA
ATOM      5  C   LIG    1       27.502 -14.923   4.066  0.00  0.00    +0.176 C 
ATOM      6  C   LIG    1       26.998 -13.765   4.936  0.00  0.00    +0.109 C 
ATOM      7  N   LIG    1       25.543 -13.824   5.175  0.00  0.00    -0.309 NA
ATOM      8  H   LIG    1       25.364 -14.660   5.734  0.00  0.00    +0.122 HD
ENDROOT
BRANCH   3   9
ATOM      9  C   LIG    1       25.045 -16.582   3.406  0.00  0.00    -0.017 A 
ATOM     10  C   LIG    1       26.039 -17.567   3.251  0.00  0.00    +0.006 A 
ATOM     11  C   LIG    1       25.796 -18.901   3.585  0.00  0.00    +0.000 A 
ATOM     12  C   LIG    1       24.550 -19.278   4.072  0.00  0.00    +0.000 A 
ATOM     13  C   LIG    1       23.548 -18.323   4.221  0.00  0.00    +0.000 A 
ATOM     14  C   LIG    1       23.791 -16.986   3.886  0.00  0.00    +0.006 A 
ENDBRANCH   3   9
TORSDOF 1
ENDMDL
