MODEL 1
REMARK VINA RESULT:      -3.9      0.000      0.000
REMARK  Name = *****
REMARK                            x       y       z     vdW  Elec       q    Type
REMARK                         _______ _______ _______ _____ _____    ______ ____
ROOT
ATOM      1  C   LIG    1       25.436 -21.150   6.100  0.00  0.00    +0.127 A 
ATOM      2  C   LIG    1       24.989 -20.431   4.973  0.00  0.00    +0.013 A 
ATOM      3  C   LIG    1       25.952 -19.985   3.906  0.00  0.00    +0.049 C 
ATOM      4  C   LIG    1       23.622 -20.121   4.903  0.00  0.00    +0.060 A 
ATOM      5  N   LIG    1       22.738 -20.538   5.846  0.00  0.00    -0.259 NA
ATOM      6  C   LIG    1       23.197 -21.241   6.894  0.00  0.00    +0.114 A 
ATOM      7  C   LIG    1       24.522 -21.572   7.062  0.00  0.00    +0.065 A 
ENDROOT
BRANCH   1   8
ATOM      8  O   LIG    1       26.784 -21.395   6.171  0.00  0.00    -0.491 OA
BRANCH   8   9
ATOM      9  C   LIG    1       27.560 -20.591   7.062  0.00  0.00    +0.231 C 
BRANCH   9  10
ATOM     10  C   LIG    1       28.972 -20.490   6.506  0.00  0.00    +0.069 C 
BRANCH  10  11
ATOM     11  C   LIG    1       29.453 -19.044   6.405  0.00  0.00    +0.163 C 
BRANCH  11  13
ATOM     12  C   LIG    1       28.586 -17.459   4.847  0.00  0.00    +0.193 C 
ATOM     13  O   LIG    1       29.442 -18.576   5.054  0.00  0.00    -0.383 OA
ENDBRANCH  11  13
ENDBRANCH  10  11
ENDBRANCH   9  10
ENDBRANCH   8   9
ENDBRANCH   1   8
BRANCH   4  14
ATOM     14  C   LIG    1       23.016 -19.264   3.818  0.00  0.00    +0.167 C 
BRANCH  14  15
ATOM     15  S   LIG    1       21.966 -17.916   4.456  0.00  0.00    +0.095 S 
ATOM     16  O   LIG    1       20.850 -17.646   3.487  0.00  0.00    -0.249 OA
BRANCH  15  17
ATOM     17  C   LIG    1       23.109 -16.629   4.243  0.00  0.00    +0.198 A 
ATOM     18  N   LIG    1       22.838 -15.337   4.612  0.00  0.00    -0.331 N 
ATOM     19  H   LIG    1       21.975 -15.036   5.031  0.00  0.00    +0.168 HD
ATOM     20  C   LIG    1       23.911 -14.566   4.251  0.00  0.00    +0.067 A 
ATOM     21  C   LIG    1       24.816 -15.473   3.709  0.00  0.00    +0.090 A 
ATOM     22  C   LIG    1       26.063 -15.009   3.269  0.00  0.00    +0.030 A 
ATOM     23  C   LIG    1       26.351 -13.643   3.388  0.00  0.00    +0.002 A 
ATOM     24  C   LIG    1       25.409 -12.753   3.915  0.00  0.00    +0.002 A 
ATOM     25  C   LIG    1       24.159 -13.197   4.358  0.00  0.00    +0.028 A 
ATOM     26  N   LIG    1       24.301 -16.749   3.708  0.00  0.00    -0.220 NA
ENDBRANCH  15  17
ENDBRANCH  14  15
ENDBRANCH   4  14
TORSDOF 8
ENDMDL
MODEL 2
REMARK VINA RESULT:      -1.6      2.487      4.519
REMARK  Name = *****
REMARK                            x       y       z     vdW  Elec       q    Type
REMARK                         _______ _______ _______ _____ _____    ______ ____
ROOT
ATOM      1  C   LIG    1       26.145 -20.504   5.508  0.00  0.00    +0.127 A 
ATOM      2  C   LIG    1       25.859 -19.425   4.647  0.00  0.00    +0.013 A 
ATOM      3  C   LIG    1       24.512 -19.293   3.989  0.00  0.00    +0.049 C 
ATOM      4  C   LIG    1       26.887 -18.500   4.406  0.00  0.00    +0.060 A 
ATOM      5  N   LIG    1       28.098 -18.592   5.012  0.00  0.00    -0.259 NA
ATOM      6  C   LIG    1       28.327 -19.621   5.844  0.00  0.00    +0.114 A 
ATOM      7  C   LIG    1       27.390 -20.591   6.123  0.00  0.00    +0.065 A 
ENDROOT
BRANCH   1   8
ATOM      8  O   LIG    1       25.142 -21.422   5.687  0.00  0.00    -0.491 OA
BRANCH   8   9
ATOM      9  C   LIG    1       24.511 -21.477   6.967  0.00  0.00    +0.231 C 
BRANCH   9  10
ATOM     10  C   LIG    1       23.022 -21.231   6.777  0.00  0.00    +0.069 C 
BRANCH  10  11
ATOM     11  C   LIG    1       22.565 -21.516   5.348  0.00  0.00    +0.163 C 
BRANCH  11  13
ATOM     12  C   LIG    1       21.946 -19.375   4.496  0.00  0.00    +0.193 C 
ATOM     13  O   LIG    1       21.501 -20.648   4.950  0.00  0.00    -0.383 OA
ENDBRANCH  11  13
ENDBRANCH  10  11
ENDBRANCH   9  10
ENDBRANCH   8   9
ENDBRANCH   1   8
BRANCH   4  14
ATOM     14  C   LIG    1       26.768 -17.358   3.425  0.00  0.00    +0.167 C 
BRANCH  14  15
ATOM     15  S   LIG    1       27.900 -15.972   3.778  0.00  0.00    +0.095 S 
ATOM     16  O   LIG    1       28.234 -15.956   5.243  0.00  0.00    -0.249 OA
BRANCH  15  17
ATOM     17  C   LIG    1       26.758 -14.690   3.532  0.00  0.00    +0.198 A 
ATOM     18  N   LIG    1       26.070 -14.110   4.567  0.00  0.00    -0.331 N 
ATOM     19  H   LIG    1       26.171 -14.372   5.533  0.00  0.00    +0.168 HD
ATOM     20  C   LIG    1       25.210 -13.188   4.032  0.00  0.00    +0.067 A 
ATOM     21  C   LIG    1       25.470 -13.232   2.666  0.00  0.00    +0.090 A 
ATOM     22  C   LIG    1       24.775 -12.364   1.813  0.00  0.00    +0.030 A 
ATOM     23  C   LIG    1       23.838 -11.483   2.370  0.00  0.00    +0.002 A 
ATOM     24  C   LIG    1       23.583 -11.481   3.746  0.00  0.00    +0.002 A 
ATOM     25  C   LIG    1       24.266 -12.341   4.612  0.00  0.00    +0.028 A 
ATOM     26  N   LIG    1       26.431 -14.173   2.372  0.00  0.00    -0.220 NA
ENDBRANCH  15  17
ENDBRANCH  14  15
ENDBRANCH   4  14
TORSDOF 8
ENDMDL
