MODEL 1
REMARK VINA RESULT:      -5.3      0.000      0.000
REMARK  Name = *****
REMARK                            x       y       z     vdW  Elec       q    Type
REMARK                         _______ _______ _______ _____ _____    ______ ____
ROOT
ATOM      1  C   LIG    1       23.537 -20.862   6.258  0.00  0.00    +0.406 C 
ATOM      2  F   LIG    1       24.781 -20.320   6.248  0.00  0.00    -0.170 F 
ATOM      3  F   LIG    1       23.103 -20.831   7.542  0.00  0.00    -0.170 F 
ENDROOT
BRANCH   1   4
ATOM      4  C   LIG    1       22.617 -20.053   5.334  0.00  0.00    +0.355 C 
ATOM      5  F   LIG    1       21.644 -20.855   4.817  0.00  0.00    -0.219 F 
ATOM      6 CL   LIG    1       23.503 -19.307   3.976  0.00  0.00    -0.076 Cl
ENDBRANCH   1   4
BRANCH   1   7
ATOM      7  O   LIG    1       23.640 -22.213   5.856  0.00  0.00    -0.255 OA
BRANCH   7   9
ATOM      8  F   LIG    1       22.111 -23.602   6.653  0.00  0.00    -0.178 F 
ATOM      9  C   LIG    1       23.313 -23.044   6.940  0.00  0.00    +0.487 C 
ATOM     10  F   LIG    1       24.206 -24.060   6.978  0.00  0.00    -0.178 F 
ENDBRANCH   7   9
ENDBRANCH   1   7
TORSDOF 3
ENDMDL
MODEL 2
REMARK VINA RESULT:      -5.3      2.043      3.887
REMARK  Name = *****
REMARK                            x       y       z     vdW  Elec       q    Type
REMARK                         _______ _______ _______ _____ _____    ______ ____
ROOT
ATOM      1  C   LIG    1       23.127 -22.804   6.762  0.00  0.00    +0.406 C 
ATOM      2  F   LIG    1       22.011 -23.576   6.786  0.00  0.00    -0.170 F 
ATOM      3  F   LIG    1       23.205 -22.187   7.967  0.00  0.00    -0.170 F 
ENDROOT
BRANCH   1   4
ATOM      4  C   LIG    1       24.355 -23.686   6.503  0.00  0.00    +0.355 C 
ATOM      5  F   LIG    1       24.057 -24.994   6.744  0.00  0.00    -0.219 F 
ATOM      6 CL   LIG    1       25.746 -23.234   7.527  0.00  0.00    -0.076 Cl
ENDBRANCH   1   4
BRANCH   1   7
ATOM      7  O   LIG    1       22.960 -21.816   5.767  0.00  0.00    -0.255 OA
BRANCH   7   9
ATOM      8  F   LIG    1       24.499 -20.238   5.979  0.00  0.00    -0.178 F 
ATOM      9  C   LIG    1       23.224 -20.552   6.320  0.00  0.00    +0.487 C 
ATOM     10  F   LIG    1       22.431 -19.647   5.702  0.00  0.00    -0.178 F 
ENDBRANCH   7   9
ENDBRANCH   1   7
TORSDOF 3
ENDMDL
MODEL 3
REMARK VINA RESULT:      -5.2      1.055      2.098
REMARK  Name = *****
REMARK                            x       y       z     vdW  Elec       q    Type
REMARK                         _______ _______ _______ _____ _____    ______ ____
ROOT
ATOM      1  C   LIG    1       22.919 -20.749   5.787  0.00  0.00    +0.406 C 
ATOM      2  F   LIG    1       22.537 -19.499   6.153  0.00  0.00    -0.170 F 
ATOM      3  F   LIG    1       21.914 -21.265   5.037  0.00  0.00    -0.170 F 
ENDROOT
BRANCH   1   4
ATOM      4  C   LIG    1       24.230 -20.673   4.994  0.00  0.00    +0.355 C 
ATOM      5  F   LIG    1       25.252 -20.282   5.807  0.00  0.00    -0.219 F 
ATOM      6 CL   LIG    1       24.135 -19.526   3.629  0.00  0.00    -0.076 Cl
ENDBRANCH   1   4
BRANCH   1   7
ATOM      7  O   LIG    1       23.048 -21.532   6.956  0.00  0.00    -0.255 OA
BRANCH   7   9
ATOM      8  F   LIG    1       24.365 -23.264   7.366  0.00  0.00    -0.178 F 
ATOM      9  C   LIG    1       23.325 -22.861   6.595  0.00  0.00    +0.487 C 
ATOM     10  F   LIG    1       22.268 -23.625   6.952  0.00  0.00    -0.178 F 
ENDBRANCH   7   9
ENDBRANCH   1   7
TORSDOF 3
ENDMDL
MODEL 4
REMARK VINA RESULT:      -5.2      2.327      3.478
REMARK  Name = *****
REMARK                            x       y       z     vdW  Elec       q    Type
REMARK                         _______ _______ _______ _____ _____    ______ ____
ROOT
ATOM      1  C   LIG    1       24.486 -20.825   6.367  0.00  0.00    +0.406 C 
ATOM      2  F   LIG    1       25.129 -20.461   7.506  0.00  0.00    -0.170 F 
ATOM      3  F   LIG    1       25.069 -20.145   5.350  0.00  0.00    -0.170 F 
ENDROOT
BRANCH   1   4
ATOM      4  C   LIG    1       24.608 -22.342   6.172  0.00  0.00    +0.355 C 
ATOM      5  F   LIG    1       24.715 -22.640   4.846  0.00  0.00    -0.219 F 
ATOM      6 CL   LIG    1       23.204 -23.228   6.829  0.00  0.00    -0.076 Cl
ENDBRANCH   1   4
BRANCH   1   7
ATOM      7  O   LIG    1       23.140 -20.408   6.467  0.00  0.00    -0.255 OA
BRANCH   7   9
ATOM      8  F   LIG    1       21.637 -20.780   4.884  0.00  0.00    -0.178 F 
ATOM      9  C   LIG    1       22.690 -19.988   5.204  0.00  0.00    +0.487 C 
ATOM     10  F   LIG    1       22.200 -18.733   5.326  0.00  0.00    -0.178 F 
ENDBRANCH   7   9
ENDBRANCH   1   7
TORSDOF 3
ENDMDL
MODEL 5
REMARK VINA RESULT:      -5.2      2.189      3.524
REMARK  Name = *****
REMARK                            x       y       z     vdW  Elec       q    Type
REMARK                         _______ _______ _______ _____ _____    ______ ____
ROOT
ATOM      1  C   LIG    1       24.230 -20.854   6.554  0.00  0.00    +0.406 C 
ATOM      2  F   LIG    1       23.257 -20.604   7.465  0.00  0.00    -0.170 F 
ATOM      3  F   LIG    1       25.376 -20.320   7.043  0.00  0.00    -0.170 F 
ENDROOT
BRANCH   1   4
ATOM      4  C   LIG    1       24.361 -22.368   6.345  0.00  0.00    +0.355 C 
ATOM      5  F   LIG    1       24.624 -22.643   5.036  0.00  0.00    -0.219 F 
ATOM      6 CL   LIG    1       22.881 -23.250   6.812  0.00  0.00    -0.076 Cl
ENDBRANCH   1   4
BRANCH   1   7
ATOM      7  O   LIG    1       23.900 -20.178   5.358  0.00  0.00    -0.255 OA
BRANCH   7   9
ATOM      8  F   LIG    1       22.466 -18.655   4.632  0.00  0.00    -0.178 F 
ATOM      9  C   LIG    1       22.562 -19.754   5.420  0.00  0.00    +0.487 C 
ATOM     10  F   LIG    1       21.791 -20.705   4.845  0.00  0.00    -0.178 F 
ENDBRANCH   7   9
ENDBRANCH   1   7
TORSDOF 3
ENDMDL
MODEL 6
REMARK VINA RESULT:      -5.2      2.035      3.245
REMARK  Name = *****
REMARK                            x       y       z     vdW  Elec       q    Type
REMARK                         _______ _______ _______ _____ _____    ______ ____
ROOT
ATOM      1  C   LIG    1       23.863 -21.826   7.048  0.00  0.00    +0.406 C 
ATOM      2  F   LIG    1       22.772 -22.418   7.600  0.00  0.00    -0.170 F 
ATOM      3  F   LIG    1       24.855 -22.750   7.050  0.00  0.00    -0.170 F 
ENDROOT
BRANCH   1   4
ATOM      4  C   LIG    1       23.530 -21.361   5.625  0.00  0.00    +0.355 C 
ATOM      5  F   LIG    1       24.669 -21.260   4.883  0.00  0.00    -0.219 F 
ATOM      6 CL   LIG    1       22.709 -19.776   5.602  0.00  0.00    -0.076 Cl
ENDBRANCH   1   4
BRANCH   1   7
ATOM      7  O   LIG    1       24.252 -20.754   7.882  0.00  0.00    -0.255 OA
BRANCH   7   9
ATOM      8  F   LIG    1       26.236 -20.079   7.165  0.00  0.00    -0.178 F 
ATOM      9  C   LIG    1       25.635 -20.832   8.120  0.00  0.00    +0.487 C 
ATOM     10  F   LIG    1       25.895 -20.227   9.302  0.00  0.00    -0.178 F 
ENDBRANCH   7   9
ENDBRANCH   1   7
TORSDOF 3
ENDMDL
MODEL 7
REMARK VINA RESULT:      -5.1      2.395      2.891
REMARK  Name = *****
REMARK                            x       y       z     vdW  Elec       q    Type
REMARK                         _______ _______ _______ _____ _____    ______ ____
ROOT
ATOM      1  C   LIG    1       23.644 -20.680   6.540  0.00  0.00    +0.406 C 
ATOM      2  F   LIG    1       24.768 -20.273   5.898  0.00  0.00    -0.170 F 
ATOM      3  F   LIG    1       22.794 -19.623   6.556  0.00  0.00    -0.170 F 
ENDROOT
BRANCH   1   4
ATOM      4  C   LIG    1       23.036 -21.879   5.800  0.00  0.00    +0.355 C 
ATOM      5  F   LIG    1       21.840 -21.534   5.245  0.00  0.00    -0.219 F 
ATOM      6 CL   LIG    1       22.766 -23.277   6.877  0.00  0.00    -0.076 Cl
ENDBRANCH   1   4
BRANCH   1   7
ATOM      7  O   LIG    1       23.987 -20.995   7.874  0.00  0.00    -0.255 OA
BRANCH   7   9
ATOM      8  F   LIG    1       25.755 -20.285   9.002  0.00  0.00    -0.178 F 
ATOM      9  C   LIG    1       25.384 -21.097   7.981  0.00  0.00    +0.487 C 
ATOM     10  F   LIG    1       25.687 -22.358   8.368  0.00  0.00    -0.178 F 
ENDBRANCH   7   9
ENDBRANCH   1   7
TORSDOF 3
ENDMDL
MODEL 8
REMARK VINA RESULT:      -5.0      2.312      3.749
REMARK  Name = *****
REMARK                            x       y       z     vdW  Elec       q    Type
REMARK                         _______ _______ _______ _____ _____    ______ ____
ROOT
ATOM      1  C   LIG    1       22.836 -20.797   5.583  0.00  0.00    +0.406 C 
ATOM      2  F   LIG    1       21.660 -21.313   5.144  0.00  0.00    -0.170 F 
ATOM      3  F   LIG    1       22.686 -19.450   5.619  0.00  0.00    -0.170 F 
ENDROOT
BRANCH   1   4
ATOM      4  C   LIG    1       23.158 -21.363   6.972  0.00  0.00    +0.355 C 
ATOM      5  F   LIG    1       24.063 -20.567   7.609  0.00  0.00    -0.219 F 
ATOM      6 CL   LIG    1       23.831 -23.016   6.893  0.00  0.00    -0.076 Cl
ENDBRANCH   1   4
BRANCH   1   7
ATOM      7  O   LIG    1       23.836 -21.108   4.635  0.00  0.00    -0.255 OA
BRANCH   7   9
ATOM      8  F   LIG    1       25.704 -20.017   5.106  0.00  0.00    -0.178 F 
ATOM      9  C   LIG    1       24.580 -19.951   4.351  0.00  0.00    +0.487 C 
ATOM     10  F   LIG    1       24.983 -20.015   3.061  0.00  0.00    -0.178 F 
ENDBRANCH   7   9
ENDBRANCH   1   7
TORSDOF 3
ENDMDL
MODEL 9
REMARK VINA RESULT:      -5.0      1.881      2.613
REMARK  Name = *****
REMARK                            x       y       z     vdW  Elec       q    Type
REMARK                         _______ _______ _______ _____ _____    ______ ____
ROOT
ATOM      1  C   LIG    1       23.901 -20.407   4.538  0.00  0.00    +0.406 C 
ATOM      2  F   LIG    1       24.149 -21.431   3.682  0.00  0.00    -0.170 F 
ATOM      3  F   LIG    1       25.041 -20.197   5.241  0.00  0.00    -0.170 F 
ENDROOT
BRANCH   1   4
ATOM      4  C   LIG    1       23.493 -19.160   3.743  0.00  0.00    +0.355 C 
ATOM      5  F   LIG    1       24.572 -18.353   3.544  0.00  0.00    -0.219 F 
ATOM      6 CL   LIG    1       22.231 -18.207   4.573  0.00  0.00    -0.076 Cl
ENDBRANCH   1   4
BRANCH   1   7
ATOM      7  O   LIG    1       22.893 -20.819   5.438  0.00  0.00    -0.255 OA
BRANCH   7   9
ATOM      8  F   LIG    1       23.190 -20.300   7.571  0.00  0.00    -0.178 F 
ATOM      9  C   LIG    1       23.489 -21.240   6.639  0.00  0.00    +0.487 C 
ATOM     10  F   LIG    1       22.878 -22.379   7.037  0.00  0.00    -0.178 F 
ENDBRANCH   7   9
ENDBRANCH   1   7
TORSDOF 3
ENDMDL
