MODEL 1
REMARK VINA RESULT:      -9.4      0.000      0.000
REMARK  Name = *****
REMARK                            x       y       z     vdW  Elec       q    Type
REMARK                         _______ _______ _______ _____ _____    ______ ____
ROOT
ATOM      1  C   LIG    1       26.647 -26.942   7.974  0.00  0.00    +0.061 C 
ATOM      2  C   LIG    1       25.842 -28.230   8.044  0.00  0.00    +0.016 C 
ATOM      3  N   LIG    1       26.062 -28.940   9.217  0.00  0.00    -0.321 N 
ATOM      4  H   LIG    1       26.565 -28.421   9.934  0.00  0.00    +0.152 HD
ATOM      5  C   LIG    1       25.189 -29.905   9.701  0.00  0.00    +0.017 C 
ATOM      6  C   LIG    1       25.316 -30.116  11.177  0.00  0.00    +0.061 C 
ATOM      7  C   LIG    1       24.317 -30.531   8.875  0.00  0.00    +0.070 C 
ATOM      8  C   LIG    1       24.436 -30.200   7.362  0.00  0.00    +0.097 C 
ATOM      9  C   LIG    1       24.979 -28.774   7.143  0.00  0.00    +0.065 C 
ENDROOT
BRANCH   7  10
ATOM     10  P   LIG    1       23.010 -31.641   9.323  0.00  0.00    +0.362 P 
ATOM     11  O   LIG    1       23.536 -32.389  10.666  0.00  0.00    -0.304 OA
ATOM     12  C   LIG    1       22.573 -33.057  11.472  0.00  0.00    +0.179 C 
ATOM     13  C   LIG    1       21.522 -32.057  11.977  0.00  0.00    +0.013 C 
ATOM     14  C   LIG    1       20.512 -32.750  12.897  0.00  0.00    +0.015 C 
ATOM     15  C   LIG    1       22.240 -30.945  12.760  0.00  0.00    +0.015 C 
ATOM     16  C   LIG    1       20.829 -31.440  10.752  0.00  0.00    +0.179 C 
ATOM     17  O   LIG    1       21.790 -30.757   9.949  0.00  0.00    -0.304 OA
ATOM     18  O   LIG    1       22.406 -32.642   8.376  0.00  0.00    -0.253 OA
ENDBRANCH   7  10
BRANCH   8  19
ATOM     19  C   LIG    1       25.284 -31.269   6.610  0.00  0.00    -0.029 A 
ATOM     20  C   LIG    1       24.990 -31.735   5.334  0.00  0.00    +0.088 A 
ATOM     21  C   LIG    1       25.865 -32.635   4.692  0.00  0.00    +0.273 A 
ATOM     22  C   LIG    1       27.044 -33.112   5.271  0.00  0.00    +0.084 A 
ATOM     23  C   LIG    1       27.306 -32.725   6.566  0.00  0.00    +0.007 A 
ATOM     24  C   LIG    1       26.406 -31.858   7.206  0.00  0.00    +0.005 A 
BRANCH  21  25
ATOM     25  N   LIG    1       25.519 -33.082   3.362  0.00  0.00    +0.080 N 
ATOM     26  O   LIG    1       24.432 -33.660   3.229  0.00  0.00    -0.576 OA
ATOM     27  O   LIG    1       26.332 -32.846   2.459  0.00  0.00    +0.041 OA
ENDBRANCH  21  25
ENDBRANCH   8  19
BRANCH   9  28
ATOM     28  C   LIG    1       24.425 -28.104   5.938  0.00  0.00    +0.338 C 
ATOM     29  O   LIG    1       24.463 -28.602   4.867  0.00  0.00    -0.245 OA
BRANCH  28  30
ATOM     30  O   LIG    1       23.795 -26.919   6.258  0.00  0.00    -0.460 OA
BRANCH  30  31
ATOM     31  C   LIG    1       24.409 -25.729   5.717  0.00  0.00    +0.251 C 
BRANCH  31  32
ATOM     32  C   LIG    1       24.202 -24.443   6.511  0.00  0.00    +0.146 C 
BRANCH  32  33
ATOM     33  N   LIG    1       24.757 -23.185   6.018  0.00  0.00    -0.322 N 
BRANCH  33  34
ATOM     34  C   LIG    1       25.494 -22.385   6.901  0.00  0.00    +0.030 A 
ATOM     35  C   LIG    1       24.864 -21.580   7.863  0.00  0.00    +0.023 A 
ATOM     36  C   LIG    1       25.569 -20.697   8.696  0.00  0.00    +0.002 A 
ATOM     37  C   LIG    1       26.945 -20.585   8.597  0.00  0.00    +0.000 A 
ATOM     38  C   LIG    1       27.608 -21.398   7.697  0.00  0.00    +0.002 A 
ATOM     39  C   LIG    1       26.890 -22.284   6.864  0.00  0.00    +0.023 A 
ENDBRANCH  33  34
BRANCH  33  40
ATOM     40  C   LIG    1       24.363 -22.666   4.680  0.00  0.00    +0.140 C 
BRANCH  40  41
ATOM     41  C   LIG    1       23.983 -21.177   4.538  0.00  0.00    -0.030 A 
ATOM     42  C   LIG    1       24.714 -20.175   3.861  0.00  0.00    +0.005 A 
ATOM     43  C   LIG    1       24.193 -18.900   3.621  0.00  0.00    +0.000 A 
ATOM     44  C   LIG    1       22.945 -18.566   4.115  0.00  0.00    +0.000 A 
ATOM     45  C   LIG    1       22.220 -19.514   4.831  0.00  0.00    +0.000 A 
ATOM     46  C   LIG    1       22.754 -20.782   5.091  0.00  0.00    +0.005 A 
ENDBRANCH  40  41
ENDBRANCH  33  40
ENDBRANCH  32  33
ENDBRANCH  31  32
ENDBRANCH  30  31
ENDBRANCH  28  30
ENDBRANCH   9  28
TORSDOF 11
ENDMDL
MODEL 2
REMARK VINA RESULT:      -9.2      1.622      2.290
REMARK  Name = *****
REMARK                            x       y       z     vdW  Elec       q    Type
REMARK                         _______ _______ _______ _____ _____    ______ ____
ROOT
ATOM      1  C   LIG    1       27.323 -26.700   6.528  0.00  0.00    +0.061 C 
ATOM      2  C   LIG    1       26.450 -27.734   7.220  0.00  0.00    +0.016 C 
ATOM      3  N   LIG    1       26.995 -28.187   8.414  0.00  0.00    -0.321 N 
ATOM      4  H   LIG    1       27.783 -27.639   8.751  0.00  0.00    +0.152 HD
ATOM      5  C   LIG    1       26.248 -28.806   9.408  0.00  0.00    +0.017 C 
ATOM      6  C   LIG    1       26.878 -28.696  10.761  0.00  0.00    +0.061 C 
ATOM      7  C   LIG    1       25.066 -29.402   9.121  0.00  0.00    +0.070 C 
ATOM      8  C   LIG    1       24.664 -29.458   7.621  0.00  0.00    +0.097 C 
ATOM      9  C   LIG    1       25.259 -28.271   6.839  0.00  0.00    +0.065 C 
ENDROOT
BRANCH   7  10
ATOM     10  P   LIG    1       23.888 -30.073  10.263  0.00  0.00    +0.362 P 
ATOM     11  O   LIG    1       22.664 -30.607   9.338  0.00  0.00    -0.304 OA
ATOM     12  C   LIG    1       21.747 -31.525   9.921  0.00  0.00    +0.179 C 
ATOM     13  C   LIG    1       22.482 -32.801  10.359  0.00  0.00    +0.013 C 
ATOM     14  C   LIG    1       21.497 -33.825  10.932  0.00  0.00    +0.015 C 
ATOM     15  C   LIG    1       23.184 -33.406   9.131  0.00  0.00    +0.015 C 
ATOM     16  C   LIG    1       23.542 -32.404  11.397  0.00  0.00    +0.179 C 
ATOM     17  O   LIG    1       24.472 -31.494  10.812  0.00  0.00    -0.304 OA
ATOM     18  O   LIG    1       23.351 -29.315  11.447  0.00  0.00    -0.253 OA
ENDBRANCH   7  10
BRANCH   8  19
ATOM     19  C   LIG    1       25.044 -30.827   6.982  0.00  0.00    -0.029 A 
ATOM     20  C   LIG    1       26.267 -31.459   7.174  0.00  0.00    +0.088 A 
ATOM     21  C   LIG    1       26.493 -32.741   6.632  0.00  0.00    +0.273 A 
ATOM     22  C   LIG    1       25.543 -33.441   5.884  0.00  0.00    +0.084 A 
ATOM     23  C   LIG    1       24.358 -32.794   5.614  0.00  0.00    +0.007 A 
ATOM     24  C   LIG    1       24.162 -31.502   6.130  0.00  0.00    +0.005 A 
BRANCH  21  25
ATOM     25  N   LIG    1       27.778 -33.358   6.869  0.00  0.00    +0.080 N 
ATOM     26  O   LIG    1       28.547 -33.442   5.903  0.00  0.00    -0.576 OA
ATOM     27  O   LIG    1       28.011 -33.750   8.020  0.00  0.00    +0.041 OA
ENDBRANCH  21  25
ENDBRANCH   8  19
BRANCH   9  28
ATOM     28  C   LIG    1       24.389 -27.791   5.733  0.00  0.00    +0.338 C 
ATOM     29  O   LIG    1       24.342 -28.336   4.687  0.00  0.00    -0.245 OA
BRANCH  28  30
ATOM     30  O   LIG    1       23.603 -26.728   6.129  0.00  0.00    -0.460 OA
BRANCH  30  31
ATOM     31  C   LIG    1       24.190 -25.422   5.936  0.00  0.00    +0.251 C 
BRANCH  31  32
ATOM     32  C   LIG    1       23.897 -24.386   7.018  0.00  0.00    +0.146 C 
BRANCH  32  33
ATOM     33  N   LIG    1       24.005 -22.962   6.710  0.00  0.00    -0.322 N 
BRANCH  33  34
ATOM     34  C   LIG    1       25.116 -22.256   7.188  0.00  0.00    +0.030 A 
ATOM     35  C   LIG    1       24.971 -21.111   7.988  0.00  0.00    +0.023 A 
ATOM     36  C   LIG    1       26.061 -20.329   8.401  0.00  0.00    +0.002 A 
ATOM     37  C   LIG    1       27.350 -20.665   8.027  0.00  0.00    +0.000 A 
ATOM     38  C   LIG    1       27.540 -21.814   7.282  0.00  0.00    +0.002 A 
ATOM     39  C   LIG    1       26.438 -22.595   6.871  0.00  0.00    +0.023 A 
ENDBRANCH  33  34
BRANCH  33  40
ATOM     40  C   LIG    1       22.859 -22.240   6.096  0.00  0.00    +0.140 C 
BRANCH  40  41
ATOM     41  C   LIG    1       23.141 -21.056   5.147  0.00  0.00    -0.030 A 
ATOM     42  C   LIG    1       22.436 -19.833   5.081  0.00  0.00    +0.005 A 
ATOM     43  C   LIG    1       22.888 -18.747   4.324  0.00  0.00    +0.000 A 
ATOM     44  C   LIG    1       24.027 -18.878   3.551  0.00  0.00    +0.000 A 
ATOM     45  C   LIG    1       24.716 -20.087   3.553  0.00  0.00    +0.000 A 
ATOM     46  C   LIG    1       24.249 -21.180   4.292  0.00  0.00    +0.005 A 
ENDBRANCH  40  41
ENDBRANCH  33  40
ENDBRANCH  32  33
ENDBRANCH  31  32
ENDBRANCH  30  31
ENDBRANCH  28  30
ENDBRANCH   9  28
TORSDOF 11
ENDMDL
MODEL 3
REMARK VINA RESULT:      -9.1      0.610      2.539
REMARK  Name = *****
REMARK                            x       y       z     vdW  Elec       q    Type
REMARK                         _______ _______ _______ _____ _____    ______ ____
ROOT
ATOM      1  C   LIG    1       26.665 -26.989   7.768  0.00  0.00    +0.061 C 
ATOM      2  C   LIG    1       25.900 -28.298   7.878  0.00  0.00    +0.016 C 
ATOM      3  N   LIG    1       26.157 -28.974   9.063  0.00  0.00    -0.321 N 
ATOM      4  H   LIG    1       26.654 -28.425   9.761  0.00  0.00    +0.152 HD
ATOM      5  C   LIG    1       25.320 -29.953   9.581  0.00  0.00    +0.017 C 
ATOM      6  C   LIG    1       25.473 -30.127  11.059  0.00  0.00    +0.061 C 
ATOM      7  C   LIG    1       24.456 -30.623   8.781  0.00  0.00    +0.070 C 
ATOM      8  C   LIG    1       24.544 -30.323   7.259  0.00  0.00    +0.097 C 
ATOM      9  C   LIG    1       25.042 -28.887   7.002  0.00  0.00    +0.065 C 
ENDROOT
BRANCH   7  10
ATOM     10  P   LIG    1       23.188 -31.761   9.273  0.00  0.00    +0.362 P 
ATOM     11  O   LIG    1       23.706 -32.383  10.681  0.00  0.00    -0.304 OA
ATOM     12  C   LIG    1       22.750 -33.038  11.506  0.00  0.00    +0.179 C 
ATOM     13  C   LIG    1       21.637 -32.057  11.906  0.00  0.00    +0.013 C 
ATOM     14  C   LIG    1       20.632 -32.731  12.845  0.00  0.00    +0.015 C 
ATOM     15  C   LIG    1       22.277 -30.858  12.625  0.00  0.00    +0.015 C 
ATOM     16  C   LIG    1       20.956 -31.565  10.620  0.00  0.00    +0.179 C 
ATOM     17  O   LIG    1       21.909 -30.895   9.797  0.00  0.00    -0.304 OA
ATOM     18  O   LIG    1       22.663 -32.856   8.385  0.00  0.00    -0.253 OA
ENDBRANCH   7  10
BRANCH   8  19
ATOM     19  C   LIG    1       25.414 -31.383   6.520  0.00  0.00    -0.029 A 
ATOM     20  C   LIG    1       25.139 -31.856   5.242  0.00  0.00    +0.088 A 
ATOM     21  C   LIG    1       26.032 -32.747   4.611  0.00  0.00    +0.273 A 
ATOM     22  C   LIG    1       27.210 -33.207   5.204  0.00  0.00    +0.084 A 
ATOM     23  C   LIG    1       27.454 -32.814   6.501  0.00  0.00    +0.007 A 
ATOM     24  C   LIG    1       26.536 -31.957   7.130  0.00  0.00    +0.005 A 
BRANCH  21  25
ATOM     25  N   LIG    1       25.705 -33.201   3.280  0.00  0.00    +0.080 N 
ATOM     26  O   LIG    1       24.645 -33.825   3.143  0.00  0.00    -0.576 OA
ATOM     27  O   LIG    1       26.507 -32.926   2.378  0.00  0.00    +0.041 OA
ENDBRANCH  21  25
ENDBRANCH   8  19
BRANCH   9  28
ATOM     28  C   LIG    1       24.451 -28.261   5.790  0.00  0.00    +0.338 C 
ATOM     29  O   LIG    1       24.603 -28.715   4.709  0.00  0.00    -0.245 OA
BRANCH  28  30
ATOM     30  O   LIG    1       23.651 -27.184   6.112  0.00  0.00    -0.460 OA
BRANCH  30  31
ATOM     31  C   LIG    1       24.102 -25.908   5.607  0.00  0.00    +0.251 C 
BRANCH  31  32
ATOM     32  C   LIG    1       23.611 -24.675   6.359  0.00  0.00    +0.146 C 
BRANCH  32  33
ATOM     33  N   LIG    1       24.473 -23.500   6.472  0.00  0.00    -0.322 N 
BRANCH  33  34
ATOM     34  C   LIG    1       24.059 -22.306   5.870  0.00  0.00    +0.030 A 
ATOM     35  C   LIG    1       24.625 -21.852   4.668  0.00  0.00    +0.023 A 
ATOM     36  C   LIG    1       24.299 -20.614   4.093  0.00  0.00    +0.002 A 
ATOM     37  C   LIG    1       23.385 -19.773   4.704  0.00  0.00    +0.000 A 
ATOM     38  C   LIG    1       22.767 -20.206   5.862  0.00  0.00    +0.002 A 
ATOM     39  C   LIG    1       23.100 -21.453   6.434  0.00  0.00    +0.023 A 
ENDBRANCH  33  34
BRANCH  33  40
ATOM     40  C   LIG    1       25.851 -23.632   7.018  0.00  0.00    +0.140 C 
BRANCH  40  41
ATOM     41  C   LIG    1       26.592 -22.364   7.493  0.00  0.00    -0.030 A 
ATOM     42  C   LIG    1       27.801 -21.844   6.978  0.00  0.00    +0.005 A 
ATOM     43  C   LIG    1       28.291 -20.586   7.343  0.00  0.00    +0.000 A 
ATOM     44  C   LIG    1       27.619 -19.838   8.291  0.00  0.00    +0.000 A 
ATOM     45  C   LIG    1       26.451 -20.344   8.856  0.00  0.00    +0.000 A 
ATOM     46  C   LIG    1       25.976 -21.614   8.508  0.00  0.00    +0.005 A 
ENDBRANCH  40  41
ENDBRANCH  33  40
ENDBRANCH  32  33
ENDBRANCH  31  32
ENDBRANCH  30  31
ENDBRANCH  28  30
ENDBRANCH   9  28
TORSDOF 11
ENDMDL
MODEL 4
REMARK VINA RESULT:      -8.9      2.260      5.140
REMARK  Name = *****
REMARK                            x       y       z     vdW  Elec       q    Type
REMARK                         _______ _______ _______ _____ _____    ______ ____
ROOT
ATOM      1  C   LIG    1       25.301 -31.611   4.923  0.00  0.00    +0.061 C 
ATOM      2  C   LIG    1       25.368 -31.219   6.390  0.00  0.00    +0.016 C 
ATOM      3  N   LIG    1       26.135 -32.093   7.148  0.00  0.00    -0.321 N 
ATOM      4  H   LIG    1       26.693 -32.745   6.600  0.00  0.00    +0.152 HD
ATOM      5  C   LIG    1       26.674 -31.762   8.384  0.00  0.00    +0.017 C 
ATOM      6  C   LIG    1       27.870 -32.588   8.737  0.00  0.00    +0.061 C 
ATOM      7  C   LIG    1       26.142 -30.763   9.129  0.00  0.00    +0.070 C 
ATOM      8  C   LIG    1       24.843 -30.107   8.584  0.00  0.00    +0.097 C 
ATOM      9  C   LIG    1       24.787 -30.177   7.045  0.00  0.00    +0.065 C 
ENDROOT
BRANCH   7  10
ATOM     10  P   LIG    1       26.788 -30.071  10.628  0.00  0.00    +0.362 P 
ATOM     11  O   LIG    1       25.699 -28.952  11.077  0.00  0.00    -0.304 OA
ATOM     12  C   LIG    1       25.741 -28.491  12.421  0.00  0.00    +0.179 C 
ATOM     13  C   LIG    1       25.509 -29.661  13.389  0.00  0.00    +0.013 C 
ATOM     14  C   LIG    1       25.490 -29.170  14.840  0.00  0.00    +0.015 C 
ATOM     15  C   LIG    1       24.155 -30.311  13.057  0.00  0.00    +0.015 C 
ATOM     16  C   LIG    1       26.627 -30.691  13.163  0.00  0.00    +0.179 C 
ATOM     17  O   LIG    1       26.579 -31.166  11.819  0.00  0.00    -0.304 OA
ATOM     18  O   LIG    1       28.181 -29.519  10.757  0.00  0.00    -0.253 OA
ENDBRANCH   7  10
BRANCH   8  19
ATOM     19  C   LIG    1       23.574 -30.724   9.243  0.00  0.00    -0.029 A 
ATOM     20  C   LIG    1       22.776 -30.056  10.165  0.00  0.00    +0.088 A 
ATOM     21  C   LIG    1       21.593 -30.656  10.641  0.00  0.00    +0.273 A 
ATOM     22  C   LIG    1       21.154 -31.921  10.242  0.00  0.00    +0.084 A 
ATOM     23  C   LIG    1       21.975 -32.630   9.394  0.00  0.00    +0.007 A 
ATOM     24  C   LIG    1       23.170 -32.034   8.957  0.00  0.00    +0.005 A 
BRANCH  21  25
ATOM     25  N   LIG    1       20.795 -29.917  11.591  0.00  0.00    +0.080 N 
ATOM     26  O   LIG    1       19.727 -30.430  11.948  0.00  0.00    -0.576 OA
ATOM     27  O   LIG    1       21.244 -28.830  11.979  0.00  0.00    +0.041 OA
ENDBRANCH  21  25
ENDBRANCH   8  19
BRANCH   9  28
ATOM     28  C   LIG    1       24.115 -29.007   6.420  0.00  0.00    +0.338 C 
ATOM     29  O   LIG    1       23.294 -29.127   5.580  0.00  0.00    -0.245 OA
BRANCH  28  30
ATOM     30  O   LIG    1       24.497 -27.823   7.016  0.00  0.00    -0.460 OA
BRANCH  30  31
ATOM     31  C   LIG    1       24.889 -26.773   6.105  0.00  0.00    +0.251 C 
BRANCH  31  32
ATOM     32  C   LIG    1       24.017 -25.521   6.106  0.00  0.00    +0.146 C 
BRANCH  32  33
ATOM     33  N   LIG    1       24.607 -24.223   6.426  0.00  0.00    -0.322 N 
BRANCH  33  34
ATOM     34  C   LIG    1       24.051 -23.074   5.850  0.00  0.00    +0.030 A 
ATOM     35  C   LIG    1       24.654 -22.434   4.754  0.00  0.00    +0.023 A 
ATOM     36  C   LIG    1       24.173 -21.230   4.218  0.00  0.00    +0.002 A 
ATOM     37  C   LIG    1       23.061 -20.612   4.762  0.00  0.00    +0.000 A 
ATOM     38  C   LIG    1       22.409 -21.236   5.809  0.00  0.00    +0.002 A 
ATOM     39  C   LIG    1       22.899 -22.448   6.342  0.00  0.00    +0.023 A 
ENDBRANCH  33  34
BRANCH  33  40
ATOM     40  C   LIG    1       25.897 -24.149   7.163  0.00  0.00    +0.140 C 
BRANCH  40  41
ATOM     41  C   LIG    1       26.440 -22.766   7.583  0.00  0.00    -0.030 A 
ATOM     42  C   LIG    1       27.614 -22.136   7.111  0.00  0.00    +0.005 A 
ATOM     43  C   LIG    1       27.919 -20.804   7.405  0.00  0.00    +0.000 A 
ATOM     44  C   LIG    1       27.090 -20.080   8.242  0.00  0.00    +0.000 A 
ATOM     45  C   LIG    1       25.952 -20.687   8.766  0.00  0.00    +0.000 A 
ATOM     46  C   LIG    1       25.662 -22.029   8.490  0.00  0.00    +0.005 A 
ENDBRANCH  40  41
ENDBRANCH  33  40
ENDBRANCH  32  33
ENDBRANCH  31  32
ENDBRANCH  30  31
ENDBRANCH  28  30
ENDBRANCH   9  28
TORSDOF 11
ENDMDL
MODEL 5
REMARK VINA RESULT:      -8.7      1.593      3.157
REMARK  Name = *****
REMARK                            x       y       z     vdW  Elec       q    Type
REMARK                         _______ _______ _______ _____ _____    ______ ____
ROOT
ATOM      1  C   LIG    1       27.032 -26.844   7.002  0.00  0.00    +0.061 C 
ATOM      2  C   LIG    1       26.142 -27.960   7.526  0.00  0.00    +0.016 C 
ATOM      3  N   LIG    1       26.583 -28.479   8.736  0.00  0.00    -0.321 N 
ATOM      4  H   LIG    1       27.307 -27.927   9.191  0.00  0.00    +0.152 HD
ATOM      5  C   LIG    1       25.769 -29.198   9.601  0.00  0.00    +0.017 C 
ATOM      6  C   LIG    1       26.252 -29.164  11.017  0.00  0.00    +0.061 C 
ATOM      7  C   LIG    1       24.651 -29.816   9.151  0.00  0.00    +0.070 C 
ATOM      8  C   LIG    1       24.406 -29.778   7.617  0.00  0.00    +0.097 C 
ATOM      9  C   LIG    1       25.022 -28.513   6.986  0.00  0.00    +0.065 C 
ENDROOT
BRANCH   7  10
ATOM     10  P   LIG    1       23.395 -30.615  10.114  0.00  0.00    +0.362 P 
ATOM     11  O   LIG    1       24.142 -31.879  10.810  0.00  0.00    -0.304 OA
ATOM     12  C   LIG    1       23.505 -32.490  11.926  0.00  0.00    +0.179 C 
ATOM     13  C   LIG    1       23.337 -31.470  13.063  0.00  0.00    +0.013 C 
ATOM     14  C   LIG    1       22.708 -32.129  14.295  0.00  0.00    +0.015 C 
ATOM     15  C   LIG    1       24.724 -30.919  13.435  0.00  0.00    +0.015 C 
ATOM     16  C   LIG    1       22.464 -30.319  12.540  0.00  0.00    +0.179 C 
ATOM     17  O   LIG    1       23.107 -29.695  11.429  0.00  0.00    -0.304 OA
ATOM     18  O   LIG    1       22.064 -31.042   9.557  0.00  0.00    -0.253 OA
ENDBRANCH   7  10
BRANCH   8  19
ATOM     19  C   LIG    1       24.912 -31.079   6.927  0.00  0.00    -0.029 A 
ATOM     20  C   LIG    1       26.166 -31.638   7.150  0.00  0.00    +0.088 A 
ATOM     21  C   LIG    1       26.507 -32.869   6.554  0.00  0.00    +0.273 A 
ATOM     22  C   LIG    1       25.647 -33.588   5.721  0.00  0.00    +0.084 A 
ATOM     23  C   LIG    1       24.433 -33.008   5.424  0.00  0.00    +0.007 A 
ATOM     24  C   LIG    1       24.123 -31.763   5.995  0.00  0.00    +0.005 A 
BRANCH  21  25
ATOM     25  N   LIG    1       27.818 -33.411   6.825  0.00  0.00    +0.080 N 
ATOM     26  O   LIG    1       28.057 -33.746   7.992  0.00  0.00    -0.576 OA
ATOM     27  O   LIG    1       28.599 -33.503   5.869  0.00  0.00    +0.041 OA
ENDBRANCH  21  25
ENDBRANCH   8  19
BRANCH   9  28
ATOM     28  C   LIG    1       24.247 -27.987   5.831  0.00  0.00    +0.338 C 
ATOM     29  O   LIG    1       24.202 -28.550   4.794  0.00  0.00    -0.245 OA
BRANCH  28  30
ATOM     30  O   LIG    1       23.537 -26.853   6.169  0.00  0.00    -0.460 OA
BRANCH  30  31
ATOM     31  C   LIG    1       24.146 -25.604   5.775  0.00  0.00    +0.251 C 
BRANCH  31  32
ATOM     32  C   LIG    1       23.506 -24.337   6.334  0.00  0.00    +0.146 C 
BRANCH  32  33
ATOM     33  N   LIG    1       24.331 -23.159   6.596  0.00  0.00    -0.322 N 
BRANCH  33  34
ATOM     34  C   LIG    1       24.039 -21.972   5.913  0.00  0.00    +0.030 A 
ATOM     35  C   LIG    1       23.137 -21.028   6.430  0.00  0.00    +0.023 A 
ATOM     36  C   LIG    1       22.752 -19.878   5.724  0.00  0.00    +0.002 A 
ATOM     37  C   LIG    1       23.261 -19.623   4.463  0.00  0.00    +0.000 A 
ATOM     38  C   LIG    1       24.191 -20.501   3.940  0.00  0.00    +0.002 A 
ATOM     39  C   LIG    1       24.573 -21.657   4.656  0.00  0.00    +0.023 A 
ENDBRANCH  33  34
BRANCH  33  40
ATOM     40  C   LIG    1       25.579 -23.282   7.395  0.00  0.00    +0.140 C 
BRANCH  40  41
ATOM     41  C   LIG    1       26.495 -22.049   7.549  0.00  0.00    -0.030 A 
ATOM     42  C   LIG    1       26.293 -20.943   8.406  0.00  0.00    +0.005 A 
ATOM     43  C   LIG    1       27.274 -19.969   8.616  0.00  0.00    +0.000 A 
ATOM     44  C   LIG    1       28.466 -20.036   7.918  0.00  0.00    +0.000 A 
ATOM     45  C   LIG    1       28.675 -21.084   7.026  0.00  0.00    +0.000 A 
ATOM     46  C   LIG    1       27.682 -22.044   6.799  0.00  0.00    +0.005 A 
ENDBRANCH  40  41
ENDBRANCH  33  40
ENDBRANCH  32  33
ENDBRANCH  31  32
ENDBRANCH  30  31
ENDBRANCH  28  30
ENDBRANCH   9  28
TORSDOF 11
ENDMDL
MODEL 6
REMARK VINA RESULT:      -8.6      2.228      4.142
REMARK  Name = *****
REMARK                            x       y       z     vdW  Elec       q    Type
REMARK                         _______ _______ _______ _____ _____    ______ ____
ROOT
ATOM      1  C   LIG    1       25.465 -31.241   4.958  0.00  0.00    +0.061 C 
ATOM      2  C   LIG    1       25.538 -30.958   6.450  0.00  0.00    +0.016 C 
ATOM      3  N   LIG    1       26.172 -31.970   7.160  0.00  0.00    -0.321 N 
ATOM      4  H   LIG    1       26.661 -32.648   6.580  0.00  0.00    +0.152 HD
ATOM      5  C   LIG    1       26.712 -31.791   8.427  0.00  0.00    +0.017 C 
ATOM      6  C   LIG    1       27.788 -32.781   8.745  0.00  0.00    +0.061 C 
ATOM      7  C   LIG    1       26.286 -30.786   9.229  0.00  0.00    +0.070 C 
ATOM      8  C   LIG    1       25.093 -29.939   8.706  0.00  0.00    +0.097 C 
ATOM      9  C   LIG    1       25.071 -29.898   7.165  0.00  0.00    +0.065 C 
ENDROOT
BRANCH   7  10
ATOM     10  P   LIG    1       26.970 -30.280  10.785  0.00  0.00    +0.362 P 
ATOM     11  O   LIG    1       26.165 -28.925  11.177  0.00  0.00    -0.304 OA
ATOM     12  C   LIG    1       26.219 -28.492  12.530  0.00  0.00    +0.179 C 
ATOM     13  C   LIG    1       25.631 -29.569  13.455  0.00  0.00    +0.013 C 
ATOM     14  C   LIG    1       25.626 -29.092  14.910  0.00  0.00    +0.015 C 
ATOM     15  C   LIG    1       24.186 -29.858  13.012  0.00  0.00    +0.015 C 
ATOM     16  C   LIG    1       26.470 -30.845  13.289  0.00  0.00    +0.179 C 
ATOM     17  O   LIG    1       26.406 -31.290  11.935  0.00  0.00    -0.304 OA
ATOM     18  O   LIG    1       28.443 -30.095  11.025  0.00  0.00    -0.253 OA
ENDBRANCH   7  10
BRANCH   8  19
ATOM     19  C   LIG    1       23.740 -30.436   9.296  0.00  0.00    -0.029 A 
ATOM     20  C   LIG    1       23.144 -31.645   8.954  0.00  0.00    +0.088 A 
ATOM     21  C   LIG    1       21.964 -32.059   9.605  0.00  0.00    +0.273 A 
ATOM     22  C   LIG    1       21.328 -31.312  10.600  0.00  0.00    +0.084 A 
ATOM     23  C   LIG    1       21.860 -30.076  10.891  0.00  0.00    +0.007 A 
ATOM     24  C   LIG    1       23.014 -29.660  10.206  0.00  0.00    +0.005 A 
BRANCH  21  25
ATOM     25  N   LIG    1       21.389 -33.327   9.220  0.00  0.00    +0.080 N 
ATOM     26  O   LIG    1       20.551 -33.820   9.986  0.00  0.00    -0.576 OA
ATOM     27  O   LIG    1       21.774 -33.820   8.152  0.00  0.00    +0.041 OA
ENDBRANCH  21  25
ENDBRANCH   8  19
BRANCH   9  28
ATOM     28  C   LIG    1       24.565 -28.615   6.611  0.00  0.00    +0.338 C 
ATOM     29  O   LIG    1       23.571 -28.552   5.976  0.00  0.00    -0.245 OA
BRANCH  28  30
ATOM     30  O   LIG    1       25.335 -27.546   7.019  0.00  0.00    -0.460 OA
BRANCH  30  31
ATOM     31  C   LIG    1       25.014 -26.282   6.397  0.00  0.00    +0.251 C 
BRANCH  31  32
ATOM     32  C   LIG    1       25.835 -25.079   6.853  0.00  0.00    +0.146 C 
BRANCH  32  33
ATOM     33  N   LIG    1       25.322 -23.727   6.645  0.00  0.00    -0.322 N 
BRANCH  33  34
ATOM     34  C   LIG    1       25.991 -22.656   7.249  0.00  0.00    +0.030 A 
ATOM     35  C   LIG    1       25.375 -21.861   8.229  0.00  0.00    +0.023 A 
ATOM     36  C   LIG    1       25.986 -20.725   8.781  0.00  0.00    +0.002 A 
ATOM     37  C   LIG    1       27.250 -20.336   8.372  0.00  0.00    +0.000 A 
ATOM     38  C   LIG    1       27.911 -21.121   7.446  0.00  0.00    +0.002 A 
ATOM     39  C   LIG    1       27.289 -22.263   6.896  0.00  0.00    +0.023 A 
ENDBRANCH  33  34
BRANCH  33  40
ATOM     40  C   LIG    1       24.000 -23.520   5.994  0.00  0.00    +0.140 C 
BRANCH  40  41
ATOM     41  C   LIG    1       23.669 -22.136   5.395  0.00  0.00    -0.030 A 
ATOM     42  C   LIG    1       22.696 -21.222   5.858  0.00  0.00    +0.005 A 
ATOM     43  C   LIG    1       22.604 -19.914   5.369  0.00  0.00    +0.000 A 
ATOM     44  C   LIG    1       23.443 -19.504   4.349  0.00  0.00    +0.000 A 
ATOM     45  C   LIG    1       24.379 -20.397   3.835  0.00  0.00    +0.000 A 
ATOM     46  C   LIG    1       24.452 -21.713   4.309  0.00  0.00    +0.005 A 
ENDBRANCH  40  41
ENDBRANCH  33  40
ENDBRANCH  32  33
ENDBRANCH  31  32
ENDBRANCH  30  31
ENDBRANCH  28  30
ENDBRANCH   9  28
TORSDOF 11
ENDMDL
MODEL 7
REMARK VINA RESULT:      -7.3      2.342      5.029
REMARK  Name = *****
REMARK                            x       y       z     vdW  Elec       q    Type
REMARK                         _______ _______ _______ _____ _____    ______ ____
ROOT
ATOM      1  C   LIG    1       25.140 -31.191   4.944  0.00  0.00    +0.061 C 
ATOM      2  C   LIG    1       25.347 -30.821   6.403  0.00  0.00    +0.016 C 
ATOM      3  N   LIG    1       26.054 -31.786   7.109  0.00  0.00    -0.321 N 
ATOM      4  H   LIG    1       26.494 -32.495   6.526  0.00  0.00    +0.152 HD
ATOM      5  C   LIG    1       26.707 -31.530   8.308  0.00  0.00    +0.017 C 
ATOM      6  C   LIG    1       27.817 -32.494   8.582  0.00  0.00    +0.061 C 
ATOM      7  C   LIG    1       26.345 -30.482   9.086  0.00  0.00    +0.070 C 
ATOM      8  C   LIG    1       25.101 -29.673   8.628  0.00  0.00    +0.097 C 
ATOM      9  C   LIG    1       24.937 -29.723   7.095  0.00  0.00    +0.065 C 
ENDROOT
BRANCH   7  10
ATOM     10  P   LIG    1       27.164 -29.883  10.540  0.00  0.00    +0.362 P 
ATOM     11  O   LIG    1       26.807 -28.299  10.601  0.00  0.00    -0.304 OA
ATOM     12  C   LIG    1       27.001 -27.625  11.838  0.00  0.00    +0.179 C 
ATOM     13  C   LIG    1       26.125 -28.257  12.929  0.00  0.00    +0.013 C 
ATOM     14  C   LIG    1       26.278 -27.502  14.254  0.00  0.00    +0.015 C 
ATOM     15  C   LIG    1       24.657 -28.194  12.476  0.00  0.00    +0.015 C 
ATOM     16  C   LIG    1       26.541 -29.729  13.075  0.00  0.00    +0.179 C 
ATOM     17  O   LIG    1       26.334 -30.413  11.841  0.00  0.00    -0.304 OA
ATOM     18  O   LIG    1       28.627 -30.095  10.819  0.00  0.00    -0.253 OA
ENDBRANCH   7  10
BRANCH   8  19
ATOM     19  C   LIG    1       23.813 -30.142   9.367  0.00  0.00    -0.029 A 
ATOM     20  C   LIG    1       23.119 -31.305   9.054  0.00  0.00    +0.088 A 
ATOM     21  C   LIG    1       22.015 -31.702   9.836  0.00  0.00    +0.273 A 
ATOM     22  C   LIG    1       21.551 -30.980  10.938  0.00  0.00    +0.084 A 
ATOM     23  C   LIG    1       22.175 -29.784  11.211  0.00  0.00    +0.007 A 
ATOM     24  C   LIG    1       23.250 -29.383  10.400  0.00  0.00    +0.005 A 
BRANCH  21  25
ATOM     25  N   LIG    1       21.334 -32.923   9.473  0.00  0.00    +0.080 N 
ATOM     26  O   LIG    1       22.021 -33.822   8.972  0.00  0.00    -0.576 OA
ATOM     27  O   LIG    1       20.117 -32.978   9.698  0.00  0.00    +0.041 OA
ENDBRANCH  21  25
ENDBRANCH   8  19
BRANCH   9  28
ATOM     28  C   LIG    1       24.369 -28.478   6.517  0.00  0.00    +0.338 C 
ATOM     29  O   LIG    1       23.363 -28.473   5.897  0.00  0.00    -0.245 OA
BRANCH  28  30
ATOM     30  O   LIG    1       25.099 -27.367   6.884  0.00  0.00    -0.460 OA
BRANCH  30  31
ATOM     31  C   LIG    1       24.980 -26.230   6.000  0.00  0.00    +0.251 C 
BRANCH  31  32
ATOM     32  C   LIG    1       24.262 -25.009   6.567  0.00  0.00    +0.146 C 
BRANCH  32  33
ATOM     33  N   LIG    1       24.913 -23.701   6.530  0.00  0.00    -0.322 N 
BRANCH  33  34
ATOM     34  C   LIG    1       24.245 -22.638   5.908  0.00  0.00    +0.030 A 
ATOM     35  C   LIG    1       24.634 -22.164   4.645  0.00  0.00    +0.023 A 
ATOM     36  C   LIG    1       24.048 -21.041   4.040  0.00  0.00    +0.002 A 
ATOM     37  C   LIG    1       23.039 -20.343   4.682  0.00  0.00    +0.000 A 
ATOM     38  C   LIG    1       22.593 -20.809   5.904  0.00  0.00    +0.002 A 
ATOM     39  C   LIG    1       23.188 -21.940   6.505  0.00  0.00    +0.023 A 
ENDBRANCH  33  34
BRANCH  33  40
ATOM     40  C   LIG    1       26.335 -23.560   6.944  0.00  0.00    +0.140 C 
BRANCH  40  41
ATOM     41  C   LIG    1       26.878 -22.157   7.290  0.00  0.00    -0.030 A 
ATOM     42  C   LIG    1       26.757 -21.480   8.525  0.00  0.00    +0.005 A 
ATOM     43  C   LIG    1       27.448 -20.297   8.802  0.00  0.00    +0.000 A 
ATOM     44  C   LIG    1       28.230 -19.715   7.821  0.00  0.00    +0.000 A 
ATOM     45  C   LIG    1       28.329 -20.329   6.576  0.00  0.00    +0.000 A 
ATOM     46  C   LIG    1       27.616 -21.500   6.293  0.00  0.00    +0.005 A 
ENDBRANCH  40  41
ENDBRANCH  33  40
ENDBRANCH  32  33
ENDBRANCH  31  32
ENDBRANCH  30  31
ENDBRANCH  28  30
ENDBRANCH   9  28
TORSDOF 11
ENDMDL
MODEL 8
REMARK VINA RESULT:      -7.2      3.431      6.542
REMARK  Name = *****
REMARK                            x       y       z     vdW  Elec       q    Type
REMARK                         _______ _______ _______ _____ _____    ______ ____
ROOT
ATOM      1  C   LIG    1       27.268 -29.408  13.993  0.00  0.00    +0.061 C 
ATOM      2  C   LIG    1       25.866 -29.493  13.413  0.00  0.00    +0.016 C 
ATOM      3  N   LIG    1       24.915 -29.867  14.353  0.00  0.00    -0.321 N 
ATOM      4  H   LIG    1       25.243 -29.841  15.316  0.00  0.00    +0.152 HD
ATOM      5  C   LIG    1       23.554 -29.638  14.195  0.00  0.00    +0.017 C 
ATOM      6  C   LIG    1       22.818 -29.596  15.497  0.00  0.00    +0.061 C 
ATOM      7  C   LIG    1       23.018 -29.450  12.965  0.00  0.00    +0.070 C 
ATOM      8  C   LIG    1       23.978 -29.626  11.756  0.00  0.00    +0.097 C 
ATOM      9  C   LIG    1       25.430 -29.279  12.141  0.00  0.00    +0.065 C 
ENDROOT
BRANCH   7  10
ATOM     10  P   LIG    1       21.359 -28.965  12.572  0.00  0.00    +0.362 P 
ATOM     11  O   LIG    1       20.486 -29.354  13.884  0.00  0.00    -0.304 OA
ATOM     12  C   LIG    1       19.204 -28.755  14.026  0.00  0.00    +0.179 C 
ATOM     13  C   LIG    1       19.338 -27.226  14.095  0.00  0.00    +0.013 C 
ATOM     14  C   LIG    1       17.971 -26.569  14.309  0.00  0.00    +0.015 C 
ATOM     15  C   LIG    1       20.262 -26.868  15.271  0.00  0.00    +0.015 C 
ATOM     16  C   LIG    1       19.987 -26.750  12.786  0.00  0.00    +0.179 C 
ATOM     17  O   LIG    1       21.279 -27.337  12.647  0.00  0.00    -0.304 OA
ATOM     18  O   LIG    1       20.640 -29.398  11.323  0.00  0.00    -0.253 OA
ENDBRANCH   7  10
BRANCH   8  19
ATOM     19  C   LIG    1       23.863 -31.053  11.142  0.00  0.00    -0.029 A 
ATOM     20  C   LIG    1       22.725 -31.533  10.505  0.00  0.00    +0.088 A 
ATOM     21  C   LIG    1       22.739 -32.805   9.896  0.00  0.00    +0.273 A 
ATOM     22  C   LIG    1       23.854 -33.646   9.892  0.00  0.00    +0.084 A 
ATOM     23  C   LIG    1       24.962 -33.221  10.590  0.00  0.00    +0.007 A 
ATOM     24  C   LIG    1       24.920 -31.968  11.224  0.00  0.00    +0.005 A 
BRANCH  21  25
ATOM     25  N   LIG    1       21.533 -33.253   9.239  0.00  0.00    +0.080 N 
ATOM     26  O   LIG    1       20.462 -33.037   9.821  0.00  0.00    -0.576 OA
ATOM     27  O   LIG    1       21.663 -33.813   8.143  0.00  0.00    +0.041 OA
ENDBRANCH  21  25
ENDBRANCH   8  19
BRANCH   9  28
ATOM     28  C   LIG    1       26.210 -28.668  11.033  0.00  0.00    +0.338 C 
ATOM     29  O   LIG    1       26.681 -27.588  11.116  0.00  0.00    -0.245 OA
BRANCH  28  30
ATOM     30  O   LIG    1       26.381 -29.549   9.985  0.00  0.00    -0.460 OA
BRANCH  30  31
ATOM     31  C   LIG    1       26.553 -28.938   8.688  0.00  0.00    +0.251 C 
BRANCH  31  32
ATOM     32  C   LIG    1       25.276 -28.664   7.899  0.00  0.00    +0.146 C 
BRANCH  32  33
ATOM     33  N   LIG    1       25.217 -28.987   6.475  0.00  0.00    -0.322 N 
BRANCH  33  34
ATOM     34  C   LIG    1       25.165 -30.334   6.095  0.00  0.00    +0.030 A 
ATOM     35  C   LIG    1       24.718 -31.331   6.978  0.00  0.00    +0.023 A 
ATOM     36  C   LIG    1       24.745 -32.697   6.660  0.00  0.00    +0.002 A 
ATOM     37  C   LIG    1       25.224 -33.125   5.434  0.00  0.00    +0.000 A 
ATOM     38  C   LIG    1       25.625 -32.171   4.517  0.00  0.00    +0.002 A 
ATOM     39  C   LIG    1       25.594 -30.798   4.845  0.00  0.00    +0.023 A 
ENDBRANCH  33  34
BRANCH  33  40
ATOM     40  C   LIG    1       25.432 -27.924   5.456  0.00  0.00    +0.140 C 
BRANCH  40  41
ATOM     41  C   LIG    1       25.115 -26.459   5.825  0.00  0.00    -0.030 A 
ATOM     42  C   LIG    1       23.841 -25.849   5.862  0.00  0.00    +0.005 A 
ATOM     43  C   LIG    1       23.637 -24.573   6.396  0.00  0.00    +0.000 A 
ATOM     44  C   LIG    1       24.718 -23.837   6.846  0.00  0.00    +0.000 A 
ATOM     45  C   LIG    1       25.994 -24.389   6.775  0.00  0.00    +0.000 A 
ATOM     46  C   LIG    1       26.199 -25.657   6.218  0.00  0.00    +0.005 A 
ENDBRANCH  40  41
ENDBRANCH  33  40
ENDBRANCH  32  33
ENDBRANCH  31  32
ENDBRANCH  30  31
ENDBRANCH  28  30
ENDBRANCH   9  28
TORSDOF 11
ENDMDL
MODEL 9
REMARK VINA RESULT:      -6.7      2.540      4.534
REMARK  Name = *****
REMARK                            x       y       z     vdW  Elec       q    Type
REMARK                         _______ _______ _______ _____ _____    ______ ____
ROOT
ATOM      1  C   LIG    1       24.128 -29.635   5.662  0.00  0.00    +0.061 C 
ATOM      2  C   LIG    1       24.383 -30.184   7.056  0.00  0.00    +0.016 C 
ATOM      3  N   LIG    1       23.989 -31.508   7.195  0.00  0.00    -0.321 N 
ATOM      4  H   LIG    1       23.772 -31.976   6.318  0.00  0.00    +0.152 HD
ATOM      5  C   LIG    1       24.458 -32.343   8.200  0.00  0.00    +0.017 C 
ATOM      6  C   LIG    1       24.361 -33.793   7.844  0.00  0.00    +0.061 C 
ATOM      7  C   LIG    1       24.967 -31.833   9.348  0.00  0.00    +0.070 C 
ATOM      8  C   LIG    1       24.881 -30.291   9.519  0.00  0.00    +0.097 C 
ATOM      9  C   LIG    1       24.909 -29.575   8.154  0.00  0.00    +0.065 C 
ENDROOT
BRANCH   7  10
ATOM     10  P   LIG    1       25.778 -32.712  10.656  0.00  0.00    +0.362 P 
ATOM     11  O   LIG    1       26.287 -31.561  11.683  0.00  0.00    -0.304 OA
ATOM     12  C   LIG    1       26.638 -31.960  13.002  0.00  0.00    +0.179 C 
ATOM     13  C   LIG    1       25.427 -32.593  13.704  0.00  0.00    +0.013 C 
ATOM     14  C   LIG    1       25.772 -32.973  15.147  0.00  0.00    +0.015 C 
ATOM     15  C   LIG    1       24.277 -31.571  13.711  0.00  0.00    +0.015 C 
ATOM     16  C   LIG    1       24.999 -33.824  12.890  0.00  0.00    +0.179 C 
ATOM     17  O   LIG    1       24.632 -33.425  11.571  0.00  0.00    -0.304 OA
ATOM     18  O   LIG    1       26.870 -33.721  10.428  0.00  0.00    -0.253 OA
ENDBRANCH   7  10
BRANCH   8  19
ATOM     19  C   LIG    1       23.639 -29.881  10.366  0.00  0.00    -0.029 A 
ATOM     20  C   LIG    1       22.381 -30.455  10.225  0.00  0.00    +0.088 A 
ATOM     21  C   LIG    1       21.335 -30.089  11.097  0.00  0.00    +0.273 A 
ATOM     22  C   LIG    1       21.479 -29.153  12.124  0.00  0.00    +0.084 A 
ATOM     23  C   LIG    1       22.695 -28.515  12.224  0.00  0.00    +0.007 A 
ATOM     24  C   LIG    1       23.716 -28.863  11.324  0.00  0.00    +0.005 A 
BRANCH  21  25
ATOM     25  N   LIG    1       20.050 -30.721  10.914  0.00  0.00    +0.080 N 
ATOM     26  O   LIG    1       19.445 -30.472   9.863  0.00  0.00    -0.576 OA
ATOM     27  O   LIG    1       19.655 -31.468  11.819  0.00  0.00    +0.041 OA
ENDBRANCH  21  25
ENDBRANCH   8  19
BRANCH   9  28
ATOM     28  C   LIG    1       25.594 -28.256   8.188  0.00  0.00    +0.338 C 
ATOM     29  O   LIG    1       26.344 -27.958   9.050  0.00  0.00    -0.245 OA
BRANCH  28  30
ATOM     30  O   LIG    1       25.317 -27.510   7.061  0.00  0.00    -0.460 OA
BRANCH  30  31
ATOM     31  C   LIG    1       26.034 -26.261   6.957  0.00  0.00    +0.251 C 
BRANCH  31  32
ATOM     32  C   LIG    1       25.282 -25.013   7.410  0.00  0.00    +0.146 C 
BRANCH  32  33
ATOM     33  N   LIG    1       25.444 -23.760   6.675  0.00  0.00    -0.322 N 
BRANCH  33  34
ATOM     34  C   LIG    1       26.131 -22.706   7.291  0.00  0.00    +0.030 A 
ATOM     35  C   LIG    1       25.513 -21.883   8.246  0.00  0.00    +0.023 A 
ATOM     36  C   LIG    1       26.145 -20.763   8.807  0.00  0.00    +0.002 A 
ATOM     37  C   LIG    1       27.432 -20.419   8.432  0.00  0.00    +0.000 A 
ATOM     38  C   LIG    1       28.094 -21.234   7.533  0.00  0.00    +0.002 A 
ATOM     39  C   LIG    1       27.451 -22.360   6.973  0.00  0.00    +0.023 A 
ENDBRANCH  33  34
BRANCH  33  40
ATOM     40  C   LIG    1       24.706 -23.538   5.402  0.00  0.00    +0.140 C 
BRANCH  40  41
ATOM     41  C   LIG    1       24.192 -22.120   5.073  0.00  0.00    -0.030 A 
ATOM     42  C   LIG    1       24.704 -21.237   4.096  0.00  0.00    +0.005 A 
ATOM     43  C   LIG    1       24.050 -20.054   3.739  0.00  0.00    +0.000 A 
ATOM     44  C   LIG    1       22.895 -19.683   4.402  0.00  0.00    +0.000 A 
ATOM     45  C   LIG    1       22.392 -20.505   5.406  0.00  0.00    +0.000 A 
ATOM     46  C   LIG    1       23.062 -21.677   5.778  0.00  0.00    +0.005 A 
ENDBRANCH  40  41
ENDBRANCH  33  40
ENDBRANCH  32  33
ENDBRANCH  31  32
ENDBRANCH  30  31
ENDBRANCH  28  30
ENDBRANCH   9  28
TORSDOF 11
ENDMDL
