MODEL 1
REMARK VINA RESULT:       6.4      0.000      0.000
REMARK  Name = *****
REMARK                            x       y       z     vdW  Elec       q    Type
REMARK                         _______ _______ _______ _____ _____    ______ ____
ROOT
ATOM      1  C   LIG    1       25.483 -18.928   5.866  0.00  0.00    +0.015 C 
ATOM      2  C   LIG    1       24.647 -19.026   4.583  0.00  0.00    +0.009 C 
ATOM      3  C   LIG    1       24.176 -20.502   4.333  0.00  0.00    +0.130 C 
ATOM      4  C   LIG    1       23.752 -20.487   2.853  0.00  0.00    +0.043 C 
ATOM      5  C   LIG    1       24.598 -19.382   2.191  0.00  0.00    +0.007 C 
ATOM      6  C   LIG    1       25.487 -18.788   3.307  0.00  0.00    +0.002 C 
ATOM      7  C   LIG    1       25.946 -17.338   3.044  0.00  0.00    -0.001 C 
ATOM      8  C   LIG    1       27.268 -17.021   3.791  0.00  0.00    +0.008 C 
ATOM      9  C   LIG    1       27.347 -15.752   4.646  0.00  0.00    +0.032 C 
ATOM     10  C   LIG    1       26.363 -14.647   4.354  0.00  0.00    -0.060 C 
ATOM     11  C   LIG    1       25.457 -14.802   3.143  0.00  0.00    -0.005 C 
ATOM     12  C   LIG    1       26.319 -14.621   1.856  0.00  0.00    +0.016 C 
ATOM     13  C   LIG    1       24.377 -13.673   3.041  0.00  0.00    +0.019 C 
ATOM     14  C   LIG    1       23.986 -12.981   4.340  0.00  0.00    +0.080 C 
ATOM     15  C   LIG    1       25.198 -12.628   5.151  0.00  0.00    +0.156 C 
ATOM     16  O   LIG    1       25.270 -11.602   5.832  0.00  0.00    -0.293 OA
ATOM     17  C   LIG    1       26.275 -13.633   5.234  0.00  0.00    +0.046 C 
ATOM     18  C   LIG    1       24.837 -16.262   3.190  0.00  0.00    +0.031 C 
ATOM     19  C   LIG    1       23.931 -16.530   4.420  0.00  0.00    +0.119 C 
ATOM     20  C   LIG    1       23.496 -17.992   4.614  0.00  0.00    +0.042 C 
ENDROOT
BRANCH   3  21
ATOM     21  C   LIG    1       23.044 -20.997   5.272  0.00  0.00    +0.175 C 
ATOM     22  O   LIG    1       21.978 -21.442   4.836  0.00  0.00    -0.293 OA
BRANCH  21  23
ATOM     23  C   LIG    1       23.316 -21.013   6.770  0.00  0.00    +0.142 C 
BRANCH  23  24
ATOM     24  S   LIG    1       25.020 -21.572   7.062  0.00  0.00    -0.171 S 
ATOM     25  H   LIG    1       24.951 -21.577   8.404  0.00  0.00    +0.102 HD
ENDBRANCH  23  24
ENDBRANCH  21  23
ENDBRANCH   3  21
BRANCH   3  26
ATOM     26  O   LIG    1       25.317 -21.367   4.437  0.00  0.00    -0.381 OA
ATOM     27  H   LIG    1       26.111 -20.868   4.166  0.00  0.00    +0.211 HD
ENDBRANCH   3  26
BRANCH  19  28
ATOM     28  O   LIG    1       22.726 -15.770   4.298  0.00  0.00    -0.392 OA
ATOM     29  H   LIG    1       22.964 -14.832   4.183  0.00  0.00    +0.210 HD
ENDBRANCH  19  28
TORSDOF 5
ENDMDL
MODEL 2
REMARK VINA RESULT:       8.2      2.819      6.799
REMARK  Name = *****
REMARK                            x       y       z     vdW  Elec       q    Type
REMARK                         _______ _______ _______ _____ _____    ______ ____
ROOT
ATOM      1  C   LIG    1       25.282 -14.434   5.737  0.00  0.00    +0.015 C 
ATOM      2  C   LIG    1       25.233 -14.419   4.203  0.00  0.00    +0.009 C 
ATOM      3  C   LIG    1       25.820 -13.078   3.637  0.00  0.00    +0.130 C 
ATOM      4  C   LIG    1       25.307 -13.058   2.186  0.00  0.00    +0.043 C 
ATOM      5  C   LIG    1       23.998 -13.870   2.197  0.00  0.00    +0.007 C 
ATOM      6  C   LIG    1       23.789 -14.337   3.655  0.00  0.00    +0.002 C 
ATOM      7  C   LIG    1       22.926 -15.610   3.793  0.00  0.00    -0.001 C 
ATOM      8  C   LIG    1       22.235 -15.675   5.181  0.00  0.00    +0.008 C 
ATOM      9  C   LIG    1       22.351 -16.961   6.004  0.00  0.00    +0.032 C 
ATOM     10  C   LIG    1       22.689 -18.235   5.271  0.00  0.00    -0.060 C 
ATOM     11  C   LIG    1       22.750 -18.188   3.752  0.00  0.00    -0.005 C 
ATOM     12  C   LIG    1       21.297 -18.045   3.204  0.00  0.00    +0.016 C 
ATOM     13  C   LIG    1       23.267 -19.525   3.121  0.00  0.00    +0.019 C 
ATOM     14  C   LIG    1       24.144 -20.403   4.003  0.00  0.00    +0.080 C 
ATOM     15  C   LIG    1       23.567 -20.534   5.381  0.00  0.00    +0.156 C 
ATOM     16  O   LIG    1       23.648 -21.572   6.044  0.00  0.00    -0.293 OA
ATOM     17  C   LIG    1       23.012 -19.317   6.003  0.00  0.00    +0.046 C 
ATOM     18  C   LIG    1       23.619 -16.925   3.345  0.00  0.00    +0.031 C 
ATOM     19  C   LIG    1       25.096 -16.988   3.815  0.00  0.00    +0.119 C 
ATOM     20  C   LIG    1       25.904 -15.692   3.634  0.00  0.00    +0.042 C 
ENDROOT
BRANCH   3  21
ATOM     21  C   LIG    1       27.364 -12.948   3.727  0.00  0.00    +0.175 C 
ATOM     22  O   LIG    1       28.076 -12.899   2.719  0.00  0.00    -0.293 OA
BRANCH  21  23
ATOM     23  C   LIG    1       27.986 -12.784   5.106  0.00  0.00    +0.142 C 
BRANCH  23  24
ATOM     24  S   LIG    1       29.470 -11.745   4.973  0.00  0.00    -0.171 S 
ATOM     25  H   LIG    1       30.342 -12.749   4.774  0.00  0.00    +0.102 HD
ENDBRANCH  23  24
ENDBRANCH  21  23
ENDBRANCH   3  21
BRANCH   3  26
ATOM     26  O   LIG    1       25.192 -11.983   4.322  0.00  0.00    -0.381 OA
ATOM     27  H   LIG    1       24.238 -12.172   4.400  0.00  0.00    +0.211 HD
ENDBRANCH   3  26
BRANCH  19  28
ATOM     28  O   LIG    1       25.789 -17.995   3.074  0.00  0.00    -0.392 OA
ATOM     29  H   LIG    1       25.324 -18.842   3.196  0.00  0.00    +0.210 HD
ENDBRANCH  19  28
TORSDOF 5
ENDMDL
