MODEL 1
REMARK VINA RESULT:      -4.7      0.000      0.000
REMARK  Name = *****
REMARK                            x       y       z     vdW  Elec       q    Type
REMARK                         _______ _______ _______ _____ _____    ______ ____
ROOT
ATOM      1  C   LIG    1       26.342 -17.216   3.610  0.00  0.00    +0.341 C 
ATOM      2  O   LIG    1       27.435 -17.574   4.048  0.00  0.00    -0.247 OA
ENDROOT
BRANCH   1   3
ATOM      3  O   LIG    1       25.860 -15.942   3.632  0.00  0.00    -0.459 OA
BRANCH   3  11
ATOM      4  C   LIG    1       23.906 -13.330   4.168  0.00  0.00    +0.007 C 
ATOM      5  C   LIG    1       24.979 -12.909   3.163  0.00  0.00    -0.010 C 
ATOM      6  C   LIG    1       26.232 -12.293   3.809  0.00  0.00    +0.010 C 
ATOM      7  C   LIG    1       27.309 -13.280   4.312  0.00  0.00    -0.031 C 
ATOM      8  C   LIG    1       28.612 -12.489   4.573  0.00  0.00    +0.011 C 
ATOM      9  C   LIG    1       26.910 -13.917   5.655  0.00  0.00    +0.011 C 
ATOM     10  C   LIG    1       27.606 -14.342   3.227  0.00  0.00    +0.051 C 
ATOM     11  C   LIG    1       26.371 -15.037   2.641  0.00  0.00    +0.177 C 
ATOM     12  C   LIG    1       25.323 -14.024   2.165  0.00  0.00    +0.048 C 
ENDBRANCH   3  11
ENDBRANCH   1   3
BRANCH   1  13
ATOM     13  C   LIG    1       25.325 -18.178   2.980  0.00  0.00    +0.253 C 
BRANCH  13  14
ATOM     14  C   LIG    1       24.543 -18.957   4.022  0.00  0.00    -0.008 A 
ATOM     15  C   LIG    1       25.154 -19.967   4.784  0.00  0.00    +0.007 A 
ATOM     16  C   LIG    1       24.421 -20.698   5.723  0.00  0.00    +0.000 A 
ATOM     17  C   LIG    1       23.068 -20.427   5.914  0.00  0.00    +0.000 A 
ATOM     18  C   LIG    1       22.448 -19.426   5.171  0.00  0.00    +0.000 A 
ATOM     19  C   LIG    1       23.180 -18.695   4.230  0.00  0.00    +0.007 A 
ENDBRANCH  13  14
BRANCH  13  20
ATOM     20  O   LIG    1       25.963 -19.115   2.111  0.00  0.00    -0.376 OA
ATOM     21  H   LIG    1       26.058 -19.938   2.625  0.00  0.00    +0.211 HD
ENDBRANCH  13  20
ENDBRANCH   1  13
TORSDOF 5
ENDMDL
MODEL 2
REMARK VINA RESULT:      -4.3      1.435      6.746
REMARK  Name = *****
REMARK                            x       y       z     vdW  Elec       q    Type
REMARK                         _______ _______ _______ _____ _____    ______ ____
ROOT
ATOM      1  C   LIG    1       25.597 -17.051   3.507  0.00  0.00    +0.341 C 
ATOM      2  O   LIG    1       26.758 -17.406   3.304  0.00  0.00    -0.247 OA
ENDROOT
BRANCH   1   3
ATOM      3  O   LIG    1       24.569 -17.873   3.861  0.00  0.00    -0.459 OA
BRANCH   3  11
ATOM      4  C   LIG    1       26.003 -20.126   5.809  0.00  0.00    +0.007 C 
ATOM      5  C   LIG    1       25.330 -20.870   4.656  0.00  0.00    -0.010 C 
ATOM      6  C   LIG    1       23.887 -21.312   4.955  0.00  0.00    +0.010 C 
ATOM      7  C   LIG    1       22.779 -20.261   4.721  0.00  0.00    -0.031 C 
ATOM      8  C   LIG    1       21.413 -20.986   4.713  0.00  0.00    +0.011 C 
ATOM      9  C   LIG    1       22.719 -19.235   5.866  0.00  0.00    +0.011 C 
ATOM     10  C   LIG    1       22.968 -19.587   3.342  0.00  0.00    +0.051 C 
ATOM     11  C   LIG    1       24.378 -19.053   3.065  0.00  0.00    +0.177 C 
ATOM     12  C   LIG    1       25.448 -20.122   3.321  0.00  0.00    +0.048 C 
ENDBRANCH   3  11
ENDBRANCH   1   3
BRANCH   1  13
ATOM     13  C   LIG    1       25.116 -15.600   3.367  0.00  0.00    +0.253 C 
BRANCH  13  14
ATOM     14  C   LIG    1       26.191 -14.596   3.741  0.00  0.00    -0.008 A 
ATOM     15  C   LIG    1       27.170 -14.199   2.815  0.00  0.00    +0.007 A 
ATOM     16  C   LIG    1       28.171 -13.294   3.175  0.00  0.00    +0.000 A 
ATOM     17  C   LIG    1       28.207 -12.772   4.465  0.00  0.00    +0.000 A 
ATOM     18  C   LIG    1       27.242 -13.151   5.395  0.00  0.00    +0.000 A 
ATOM     19  C   LIG    1       26.240 -14.058   5.037  0.00  0.00    +0.007 A 
ENDBRANCH  13  14
BRANCH  13  20
ATOM     20  O   LIG    1       23.971 -15.350   4.184  0.00  0.00    -0.376 OA
ATOM     21  H   LIG    1       23.413 -14.726   3.683  0.00  0.00    +0.211 HD
ENDBRANCH  13  20
ENDBRANCH   1  13
TORSDOF 5
ENDMDL
MODEL 3
REMARK VINA RESULT:      -4.3      0.912      1.626
REMARK  Name = *****
REMARK                            x       y       z     vdW  Elec       q    Type
REMARK                         _______ _______ _______ _____ _____    ______ ____
ROOT
ATOM      1  C   LIG    1       24.507 -16.548   3.837  0.00  0.00    +0.341 C 
ATOM      2  O   LIG    1       23.330 -16.254   4.044  0.00  0.00    -0.247 OA
ENDROOT
BRANCH   1   3
ATOM      3  O   LIG    1       25.571 -15.711   3.994  0.00  0.00    -0.459 OA
BRANCH   3  11
ATOM      4  C   LIG    1       24.106 -12.748   4.017  0.00  0.00    +0.007 C 
ATOM      5  C   LIG    1       25.142 -12.745   2.893  0.00  0.00    -0.010 C 
ATOM      6  C   LIG    1       26.526 -12.230   3.321  0.00  0.00    +0.010 C 
ATOM      7  C   LIG    1       27.473 -13.256   3.983  0.00  0.00    -0.031 C 
ATOM      8  C   LIG    1       28.902 -12.664   3.995  0.00  0.00    +0.011 C 
ATOM      9  C   LIG    1       27.095 -13.510   5.453  0.00  0.00    +0.011 C 
ATOM     10  C   LIG    1       27.506 -14.562   3.154  0.00  0.00    +0.051 C 
ATOM     11  C   LIG    1       26.132 -15.143   2.801  0.00  0.00    +0.177 C 
ATOM     12  C   LIG    1       25.220 -14.091   2.158  0.00  0.00    +0.048 C 
ENDBRANCH   3  11
ENDBRANCH   1   3
BRANCH   1  13
ATOM     13  C   LIG    1       24.962 -17.926   3.338  0.00  0.00    +0.253 C 
BRANCH  13  14
ATOM     14  C   LIG    1       24.290 -19.063   4.086  0.00  0.00    -0.008 A 
ATOM     15  C   LIG    1       22.898 -19.085   4.280  0.00  0.00    +0.007 A 
ATOM     16  C   LIG    1       22.291 -20.121   4.992  0.00  0.00    +0.000 A 
ATOM     17  C   LIG    1       23.065 -21.152   5.519  0.00  0.00    +0.000 A 
ATOM     18  C   LIG    1       24.445 -21.149   5.333  0.00  0.00    +0.000 A 
ATOM     19  C   LIG    1       25.055 -20.111   4.621  0.00  0.00    +0.007 A 
ENDBRANCH  13  14
BRANCH  13  20
ATOM     20  O   LIG    1       26.376 -18.086   3.465  0.00  0.00    -0.376 OA
ATOM     21  H   LIG    1       26.525 -19.031   3.654  0.00  0.00    +0.211 HD
ENDBRANCH  13  20
ENDBRANCH   1  13
TORSDOF 5
ENDMDL
MODEL 4
REMARK VINA RESULT:      -4.0      1.481      6.448
REMARK  Name = *****
REMARK                            x       y       z     vdW  Elec       q    Type
REMARK                         _______ _______ _______ _____ _____    ______ ____
ROOT
ATOM      1  C   LIG    1       25.885 -18.152   3.393  0.00  0.00    +0.341 C 
ATOM      2  O   LIG    1       25.741 -18.209   2.172  0.00  0.00    -0.247 OA
ENDROOT
BRANCH   1   3
ATOM      3  O   LIG    1       25.462 -19.093   4.284  0.00  0.00    -0.459 OA
BRANCH   3  11
ATOM      4  C   LIG    1       24.235 -20.397   7.061  0.00  0.00    +0.007 C 
ATOM      5  C   LIG    1       23.649 -21.177   5.884  0.00  0.00    -0.010 C 
ATOM      6  C   LIG    1       22.307 -20.623   5.375  0.00  0.00    +0.010 C 
ATOM      7  C   LIG    1       22.378 -19.454   4.367  0.00  0.00    -0.031 C 
ATOM      8  C   LIG    1       20.989 -19.294   3.706  0.00  0.00    +0.011 C 
ATOM      9  C   LIG    1       22.681 -18.118   5.068  0.00  0.00    +0.011 C 
ATOM     10  C   LIG    1       23.402 -19.774   3.252  0.00  0.00    +0.051 C 
ATOM     11  C   LIG    1       24.778 -20.235   3.745  0.00  0.00    +0.177 C 
ATOM     12  C   LIG    1       24.663 -21.387   4.751  0.00  0.00    +0.048 C 
ENDBRANCH   3  11
ENDBRANCH   1   3
BRANCH   1  13
ATOM     13  C   LIG    1       26.556 -16.975   4.114  0.00  0.00    +0.253 C 
BRANCH  13  14
ATOM     14  C   LIG    1       26.047 -15.631   3.627  0.00  0.00    -0.008 A 
ATOM     15  C   LIG    1       26.872 -14.765   2.890  0.00  0.00    +0.007 A 
ATOM     16  C   LIG    1       26.404 -13.518   2.467  0.00  0.00    +0.000 A 
ATOM     17  C   LIG    1       25.105 -13.121   2.773  0.00  0.00    +0.000 A 
ATOM     18  C   LIG    1       24.272 -13.969   3.499  0.00  0.00    +0.000 A 
ATOM     19  C   LIG    1       24.739 -15.217   3.924  0.00  0.00    +0.007 A 
ENDBRANCH  13  14
BRANCH  13  20
ATOM     20  O   LIG    1       27.975 -17.001   3.945  0.00  0.00    -0.376 OA
ATOM     21  H   LIG    1       28.318 -17.598   4.635  0.00  0.00    +0.211 HD
ENDBRANCH  13  20
ENDBRANCH   1  13
TORSDOF 5
ENDMDL
MODEL 5
REMARK VINA RESULT:      -4.0      0.719      2.280
REMARK  Name = *****
REMARK                            x       y       z     vdW  Elec       q    Type
REMARK                         _______ _______ _______ _____ _____    ______ ____
ROOT
ATOM      1  C   LIG    1       26.218 -17.164   3.488  0.00  0.00    +0.341 C 
ATOM      2  O   LIG    1       27.271 -17.439   4.061  0.00  0.00    -0.247 OA
ENDROOT
BRANCH   1   3
ATOM      3  O   LIG    1       25.722 -15.907   3.305  0.00  0.00    -0.459 OA
BRANCH   3  11
ATOM      4  C   LIG    1       28.180 -13.697   3.296  0.00  0.00    +0.007 C 
ATOM      5  C   LIG    1       27.203 -13.300   4.402  0.00  0.00    -0.010 C 
ATOM      6  C   LIG    1       26.114 -12.313   3.948  0.00  0.00    +0.010 C 
ATOM      7  C   LIG    1       24.864 -12.922   3.275  0.00  0.00    -0.031 C 
ATOM      8  C   LIG    1       23.756 -11.844   3.236  0.00  0.00    +0.011 C 
ATOM      9  C   LIG    1       25.142 -13.312   1.812  0.00  0.00    +0.011 C 
ATOM     10  C   LIG    1       24.338 -14.115   4.108  0.00  0.00    +0.051 C 
ATOM     11  C   LIG    1       25.394 -15.160   4.487  0.00  0.00    +0.177 C 
ATOM     12  C   LIG    1       26.622 -14.514   5.140  0.00  0.00    +0.048 C 
ENDBRANCH   3  11
ENDBRANCH   1   3
BRANCH   1  13
ATOM     13  C   LIG    1       25.271 -18.218   2.899  0.00  0.00    +0.253 C 
BRANCH  13  14
ATOM     14  C   LIG    1       24.482 -18.949   3.969  0.00  0.00    -0.008 A 
ATOM     15  C   LIG    1       25.071 -19.963   4.744  0.00  0.00    +0.007 A 
ATOM     16  C   LIG    1       24.330 -20.648   5.709  0.00  0.00    +0.000 A 
ATOM     17  C   LIG    1       22.991 -20.329   5.916  0.00  0.00    +0.000 A 
ATOM     18  C   LIG    1       22.392 -19.324   5.160  0.00  0.00    +0.000 A 
ATOM     19  C   LIG    1       23.131 -18.637   4.192  0.00  0.00    +0.007 A 
ENDBRANCH  13  14
BRANCH  13  20
ATOM     20  O   LIG    1       25.986 -19.190   2.133  0.00  0.00    -0.376 OA
ATOM     21  H   LIG    1       25.670 -20.060   2.439  0.00  0.00    +0.211 HD
ENDBRANCH  13  20
ENDBRANCH   1  13
TORSDOF 5
ENDMDL
MODEL 6
REMARK VINA RESULT:      -3.8      2.032      6.879
REMARK  Name = *****
REMARK                            x       y       z     vdW  Elec       q    Type
REMARK                         _______ _______ _______ _____ _____    ______ ____
ROOT
ATOM      1  C   LIG    1       23.877 -16.342   4.155  0.00  0.00    +0.341 C 
ATOM      2  O   LIG    1       22.724 -15.912   4.124  0.00  0.00    -0.247 OA
ENDROOT
BRANCH   1   3
ATOM      3  O   LIG    1       24.232 -17.635   4.397  0.00  0.00    -0.459 OA
BRANCH   3  11
ATOM      4  C   LIG    1       26.242 -20.086   5.333  0.00  0.00    +0.007 C 
ATOM      5  C   LIG    1       25.402 -20.596   4.162  0.00  0.00    -0.010 C 
ATOM      6  C   LIG    1       24.102 -21.300   4.587  0.00  0.00    +0.010 C 
ATOM      7  C   LIG    1       22.883 -20.393   4.867  0.00  0.00    -0.031 C 
ATOM      8  C   LIG    1       21.615 -21.279   4.909  0.00  0.00    +0.011 C 
ATOM      9  C   LIG    1       22.985 -19.716   6.245  0.00  0.00    +0.011 C 
ATOM     10  C   LIG    1       22.709 -19.367   3.723  0.00  0.00    +0.051 C 
ATOM     11  C   LIG    1       23.975 -18.585   3.351  0.00  0.00    +0.177 C 
ATOM     12  C   LIG    1       25.163 -19.520   3.094  0.00  0.00    +0.048 C 
ENDBRANCH   3  11
ENDBRANCH   1   3
BRANCH   1  13
ATOM     13  C   LIG    1       25.117 -15.462   3.943  0.00  0.00    +0.253 C 
BRANCH  13  14
ATOM     14  C   LIG    1       24.758 -14.049   3.524  0.00  0.00    -0.008 A 
ATOM     15  C   LIG    1       24.157 -13.153   4.424  0.00  0.00    +0.007 A 
ATOM     16  C   LIG    1       23.806 -11.862   4.022  0.00  0.00    +0.000 A 
ATOM     17  C   LIG    1       24.053 -11.447   2.716  0.00  0.00    +0.000 A 
ATOM     18  C   LIG    1       24.653 -12.320   1.812  0.00  0.00    +0.000 A 
ATOM     19  C   LIG    1       25.003 -13.614   2.212  0.00  0.00    +0.007 A 
ENDBRANCH  13  14
BRANCH  13  20
ATOM     20  O   LIG    1       25.984 -16.014   2.950  0.00  0.00    -0.376 OA
ATOM     21  H   LIG    1       26.737 -16.400   3.434  0.00  0.00    +0.211 HD
ENDBRANCH  13  20
ENDBRANCH   1  13
TORSDOF 5
ENDMDL
MODEL 7
REMARK VINA RESULT:      -3.8      1.275      2.864
REMARK  Name = *****
REMARK                            x       y       z     vdW  Elec       q    Type
REMARK                         _______ _______ _______ _____ _____    ______ ____
ROOT
ATOM      1  C   LIG    1       24.096 -16.810   3.856  0.00  0.00    +0.341 C 
ATOM      2  O   LIG    1       22.992 -16.720   4.392  0.00  0.00    -0.247 OA
ENDROOT
BRANCH   1   3
ATOM      3  O   LIG    1       24.953 -15.774   3.631  0.00  0.00    -0.459 OA
BRANCH   3  11
ATOM      4  C   LIG    1       27.643 -14.157   2.595  0.00  0.00    +0.007 C 
ATOM      5  C   LIG    1       27.075 -13.394   3.792  0.00  0.00    -0.010 C 
ATOM      6  C   LIG    1       26.079 -12.285   3.410  0.00  0.00    +0.010 C 
ATOM      7  C   LIG    1       24.613 -12.718   3.186  0.00  0.00    -0.031 C 
ATOM      8  C   LIG    1       23.725 -11.452   3.184  0.00  0.00    +0.011 C 
ATOM      9  C   LIG    1       24.422 -13.385   1.812  0.00  0.00    +0.011 C 
ATOM     10  C   LIG    1       24.143 -13.627   4.346  0.00  0.00    +0.051 C 
ATOM     11  C   LIG    1       25.079 -14.797   4.677  0.00  0.00    +0.177 C 
ATOM     12  C   LIG    1       26.524 -14.327   4.879  0.00  0.00    +0.048 C 
ENDBRANCH   3  11
ENDBRANCH   1   3
BRANCH   1  13
ATOM     13  C   LIG    1       24.678 -18.128   3.328  0.00  0.00    +0.253 C 
BRANCH  13  14
ATOM     14  C   LIG    1       24.259 -19.322   4.165  0.00  0.00    -0.008 A 
ATOM     15  C   LIG    1       22.904 -19.654   4.331  0.00  0.00    +0.007 A 
ATOM     16  C   LIG    1       22.525 -20.740   5.125  0.00  0.00    +0.000 A 
ATOM     17  C   LIG    1       23.495 -21.509   5.763  0.00  0.00    +0.000 A 
ATOM     18  C   LIG    1       24.843 -21.196   5.605  0.00  0.00    +0.000 A 
ATOM     19  C   LIG    1       25.224 -20.109   4.812  0.00  0.00    +0.007 A 
ENDBRANCH  13  14
BRANCH  13  20
ATOM     20  O   LIG    1       26.106 -18.090   3.292  0.00  0.00    -0.376 OA
ATOM     21  H   LIG    1       26.376 -18.725   2.603  0.00  0.00    +0.211 HD
ENDBRANCH  13  20
ENDBRANCH   1  13
TORSDOF 5
ENDMDL
MODEL 8
REMARK VINA RESULT:      -3.7      1.880      6.638
REMARK  Name = *****
REMARK                            x       y       z     vdW  Elec       q    Type
REMARK                         _______ _______ _______ _____ _____    ______ ____
ROOT
ATOM      1  C   LIG    1       23.021 -16.165   4.669  0.00  0.00    +0.341 C 
ATOM      2  O   LIG    1       22.163 -15.749   5.446  0.00  0.00    -0.247 OA
ENDROOT
BRANCH   1   3
ATOM      3  O   LIG    1       23.542 -17.425   4.668  0.00  0.00    -0.459 OA
BRANCH   3  11
ATOM      4  C   LIG    1       26.041 -19.584   4.792  0.00  0.00    +0.007 C 
ATOM      5  C   LIG    1       25.050 -20.082   3.740  0.00  0.00    -0.010 C 
ATOM      6  C   LIG    1       23.989 -21.050   4.290  0.00  0.00    +0.010 C 
ATOM      7  C   LIG    1       22.742 -20.414   4.942  0.00  0.00    -0.031 C 
ATOM      8  C   LIG    1       21.656 -21.505   5.087  0.00  0.00    +0.011 C 
ATOM      9  C   LIG    1       23.041 -19.908   6.365  0.00  0.00    +0.011 C 
ATOM     10  C   LIG    1       22.177 -19.297   4.033  0.00  0.00    +0.051 C 
ATOM     11  C   LIG    1       23.205 -18.266   3.553  0.00  0.00    +0.177 C 
ATOM     12  C   LIG    1       24.431 -18.938   2.924  0.00  0.00    +0.048 C 
ENDBRANCH   3  11
ENDBRANCH   1   3
BRANCH   1  13
ATOM     13  C   LIG    1       23.666 -15.303   3.575  0.00  0.00    +0.253 C 
BRANCH  13  14
ATOM     14  C   LIG    1       25.060 -14.836   3.954  0.00  0.00    -0.008 A 
ATOM     15  C   LIG    1       25.251 -13.762   4.840  0.00  0.00    +0.007 A 
ATOM     16  C   LIG    1       26.537 -13.321   5.162  0.00  0.00    +0.000 A 
ATOM     17  C   LIG    1       27.649 -13.949   4.607  0.00  0.00    +0.000 A 
ATOM     18  C   LIG    1       27.478 -15.018   3.731  0.00  0.00    +0.000 A 
ATOM     19  C   LIG    1       26.192 -15.460   3.405  0.00  0.00    +0.007 A 
ENDBRANCH  13  14
BRANCH  13  20
ATOM     20  O   LIG    1       22.874 -14.150   3.286  0.00  0.00    -0.376 OA
ATOM     21  H   LIG    1       22.878 -13.609   4.098  0.00  0.00    +0.211 HD
ENDBRANCH  13  20
ENDBRANCH   1  13
TORSDOF 5
ENDMDL
MODEL 9
REMARK VINA RESULT:      -3.7      0.943      1.686
REMARK  Name = *****
REMARK                            x       y       z     vdW  Elec       q    Type
REMARK                         _______ _______ _______ _____ _____    ______ ____
ROOT
ATOM      1  C   LIG    1       26.242 -17.425   3.445  0.00  0.00    +0.341 C 
ATOM      2  O   LIG    1       27.228 -17.784   4.088  0.00  0.00    -0.247 OA
ENDROOT
BRANCH   1   3
ATOM      3  O   LIG    1       25.904 -16.134   3.170  0.00  0.00    -0.459 OA
BRANCH   3  11
ATOM      4  C   LIG    1       24.389 -13.529   1.812  0.00  0.00    +0.007 C 
ATOM      5  C   LIG    1       25.726 -13.046   2.377  0.00  0.00    -0.010 C 
ATOM      6  C   LIG    1       25.642 -12.529   3.823  0.00  0.00    +0.010 C 
ATOM      7  C   LIG    1       25.727 -13.590   4.943  0.00  0.00    -0.031 C 
ATOM      8  C   LIG    1       25.998 -12.864   6.282  0.00  0.00    +0.011 C 
ATOM      9  C   LIG    1       24.393 -14.338   5.117  0.00  0.00    +0.011 C 
ATOM     10  C   LIG    1       26.907 -14.553   4.676  0.00  0.00    +0.051 C 
ATOM     11  C   LIG    1       26.951 -15.154   3.267  0.00  0.00    +0.177 C 
ATOM     12  C   LIG    1       26.852 -14.072   2.186  0.00  0.00    +0.048 C 
ENDBRANCH   3  11
ENDBRANCH   1   3
BRANCH   1  13
ATOM     13  C   LIG    1       25.208 -18.399   2.863  0.00  0.00    +0.253 C 
BRANCH  13  14
ATOM     14  C   LIG    1       24.412 -19.110   3.942  0.00  0.00    -0.008 A 
ATOM     15  C   LIG    1       23.070 -18.779   4.193  0.00  0.00    +0.007 A 
ATOM     16  C   LIG    1       22.352 -19.420   5.205  0.00  0.00    +0.000 A 
ATOM     17  C   LIG    1       22.964 -20.402   5.979  0.00  0.00    +0.000 A 
ATOM     18  C   LIG    1       24.293 -20.746   5.741  0.00  0.00    +0.000 A 
ATOM     19  C   LIG    1       25.014 -20.105   4.729  0.00  0.00    +0.007 A 
ENDBRANCH  13  14
BRANCH  13  20
ATOM     20  O   LIG    1       25.830 -19.391   2.043  0.00  0.00    -0.376 OA
ATOM     21  H   LIG    1       25.440 -19.290   1.155  0.00  0.00    +0.211 HD
ENDBRANCH  13  20
ENDBRANCH   1  13
TORSDOF 5
ENDMDL
