MODEL 1
REMARK VINA RESULT:      -8.4      0.000      0.000
REMARK  Name = *****
REMARK                            x       y       z     vdW  Elec       q    Type
REMARK                         _______ _______ _______ _____ _____    ______ ____
ROOT
ATOM      1  C   LIG    1       25.956 -20.753   8.397  0.00  0.00    +0.341 C 
ATOM      2  O   LIG    1       25.837 -21.127   9.564  0.00  0.00    -0.247 OA
ENDROOT
BRANCH   1   3
ATOM      3  O   LIG    1       27.024 -20.079   7.888  0.00  0.00    -0.459 OA
BRANCH   3  11
ATOM      4  C   LIG    1       29.160 -17.941   4.793  0.00  0.00    +0.007 C 
ATOM      5  C   LIG    1       28.934 -18.729   6.081  0.00  0.00    -0.010 C 
ATOM      6  C   LIG    1       30.264 -18.986   6.804  0.00  0.00    +0.010 C 
ATOM      7  C   LIG    1       30.119 -19.820   8.101  0.00  0.00    -0.031 C 
ATOM      8  C   LIG    1       31.525 -20.282   8.543  0.00  0.00    +0.011 C 
ATOM      9  C   LIG    1       29.546 -18.952   9.237  0.00  0.00    +0.011 C 
ATOM     10  C   LIG    1       29.239 -21.076   7.858  0.00  0.00    +0.051 C 
ATOM     11  C   LIG    1       27.941 -20.832   7.071  0.00  0.00    +0.177 C 
ATOM     12  C   LIG    1       28.232 -20.059   5.782  0.00  0.00    +0.048 C 
ENDBRANCH   3  11
ENDBRANCH   1   3
BRANCH   1  13
ATOM     13  C   LIG    1       24.900 -21.007   7.312  0.00  0.00    +0.253 C 
BRANCH  13  14
ATOM     14  C   LIG    1       24.724 -22.483   7.013  0.00  0.00    -0.008 A 
ATOM     15  C   LIG    1       25.827 -23.345   6.884  0.00  0.00    +0.007 A 
ATOM     16  C   LIG    1       25.643 -24.704   6.615  0.00  0.00    +0.000 A 
ATOM     17  C   LIG    1       24.358 -25.219   6.469  0.00  0.00    +0.000 A 
ATOM     18  C   LIG    1       23.255 -24.378   6.591  0.00  0.00    +0.000 A 
ATOM     19  C   LIG    1       23.436 -23.019   6.861  0.00  0.00    +0.007 A 
ENDBRANCH  13  14
BRANCH  13  20
ATOM     20  O   LIG    1       23.629 -20.461   7.672  0.00  0.00    -0.376 OA
ATOM     21  H   LIG    1       23.807 -19.776   8.342  0.00  0.00    +0.211 HD
ENDBRANCH  13  20
ENDBRANCH   1  13
TORSDOF 5
ENDMDL
MODEL 2
REMARK VINA RESULT:      -8.2      2.005      2.613
REMARK  Name = *****
REMARK                            x       y       z     vdW  Elec       q    Type
REMARK                         _______ _______ _______ _____ _____    ______ ____
ROOT
ATOM      1  C   LIG    1       27.335 -21.548   7.947  0.00  0.00    +0.341 C 
ATOM      2  O   LIG    1       27.225 -22.637   7.385  0.00  0.00    -0.247 OA
ENDROOT
BRANCH   1   3
ATOM      3  O   LIG    1       28.485 -21.039   8.470  0.00  0.00    -0.459 OA
BRANCH   3  11
ATOM      4  C   LIG    1       28.737 -18.368   5.078  0.00  0.00    +0.007 C 
ATOM      5  C   LIG    1       29.076 -18.980   6.435  0.00  0.00    -0.010 C 
ATOM      6  C   LIG    1       30.268 -18.256   7.077  0.00  0.00    +0.010 C 
ATOM      7  C   LIG    1       30.700 -18.851   8.440  0.00  0.00    -0.031 C 
ATOM      8  C   LIG    1       32.079 -18.265   8.813  0.00  0.00    +0.011 C 
ATOM      9  C   LIG    1       29.712 -18.433   9.546  0.00  0.00    +0.011 C 
ATOM     10  C   LIG    1       30.825 -20.397   8.357  0.00  0.00    +0.051 C 
ATOM     11  C   LIG    1       29.665 -21.117   7.649  0.00  0.00    +0.177 C 
ATOM     12  C   LIG    1       29.386 -20.475   6.288  0.00  0.00    +0.048 C 
ENDBRANCH   3  11
ENDBRANCH   1   3
BRANCH   1  13
ATOM     13  C   LIG    1       26.167 -20.569   8.136  0.00  0.00    +0.253 C 
BRANCH  13  14
ATOM     14  C   LIG    1       25.195 -20.598   6.972  0.00  0.00    -0.008 A 
ATOM     15  C   LIG    1       23.818 -20.805   7.168  0.00  0.00    +0.007 A 
ATOM     16  C   LIG    1       22.938 -20.822   6.084  0.00  0.00    +0.000 A 
ATOM     17  C   LIG    1       23.418 -20.634   4.791  0.00  0.00    +0.000 A 
ATOM     18  C   LIG    1       24.780 -20.430   4.579  0.00  0.00    +0.000 A 
ATOM     19  C   LIG    1       25.663 -20.412   5.662  0.00  0.00    +0.007 A 
ENDBRANCH  13  14
BRANCH  13  20
ATOM     20  O   LIG    1       25.443 -20.833   9.339  0.00  0.00    -0.376 OA
ATOM     21  H   LIG    1       26.105 -21.116   9.998  0.00  0.00    +0.211 HD
ENDBRANCH  13  20
ENDBRANCH   1  13
TORSDOF 5
ENDMDL
MODEL 3
REMARK VINA RESULT:      -8.0      3.309      5.574
REMARK  Name = *****
REMARK                            x       y       z     vdW  Elec       q    Type
REMARK                         _______ _______ _______ _____ _____    ______ ____
ROOT
ATOM      1  C   LIG    1       24.727 -25.204   6.166  0.00  0.00    +0.341 C 
ATOM      2  O   LIG    1       23.522 -25.426   6.287  0.00  0.00    -0.247 OA
ENDROOT
BRANCH   1   3
ATOM      3  O   LIG    1       25.324 -23.987   6.296  0.00  0.00    -0.459 OA
BRANCH   3  11
ATOM      4  C   LIG    1       27.775 -20.575   7.327  0.00  0.00    +0.007 C 
ATOM      5  C   LIG    1       26.564 -21.357   6.822  0.00  0.00    -0.010 C 
ATOM      6  C   LIG    1       25.437 -20.403   6.398  0.00  0.00    +0.010 C 
ATOM      7  C   LIG    1       24.156 -21.126   5.914  0.00  0.00    -0.031 C 
ATOM      8  C   LIG    1       23.012 -20.091   5.835  0.00  0.00    +0.011 C 
ATOM      9  C   LIG    1       24.360 -21.689   4.495  0.00  0.00    +0.011 C 
ATOM     10  C   LIG    1       23.742 -22.247   6.906  0.00  0.00    +0.051 C 
ATOM     11  C   LIG    1       24.884 -23.158   7.389  0.00  0.00    +0.177 C 
ATOM     12  C   LIG    1       26.058 -22.321   7.902  0.00  0.00    +0.048 C 
ENDBRANCH   3  11
ENDBRANCH   1   3
BRANCH   1  13
ATOM     13  C   LIG    1       25.764 -26.292   5.856  0.00  0.00    +0.253 C 
BRANCH  13  14
ATOM     14  C   LIG    1       25.357 -27.649   6.398  0.00  0.00    -0.008 A 
ATOM     15  C   LIG    1       25.694 -28.051   7.703  0.00  0.00    +0.007 A 
ATOM     16  C   LIG    1       25.304 -29.303   8.187  0.00  0.00    +0.000 A 
ATOM     17  C   LIG    1       24.574 -30.168   7.376  0.00  0.00    +0.000 A 
ATOM     18  C   LIG    1       24.234 -29.786   6.081  0.00  0.00    +0.000 A 
ATOM     19  C   LIG    1       24.622 -28.534   5.595  0.00  0.00    +0.007 A 
ENDBRANCH  13  14
BRANCH  13  20
ATOM     20  O   LIG    1       25.997 -26.417   4.451  0.00  0.00    -0.376 OA
ATOM     21  H   LIG    1       26.187 -25.517   4.127  0.00  0.00    +0.211 HD
ENDBRANCH  13  20
ENDBRANCH   1  13
TORSDOF 5
ENDMDL
MODEL 4
REMARK VINA RESULT:      -7.8      1.350      6.417
REMARK  Name = *****
REMARK                            x       y       z     vdW  Elec       q    Type
REMARK                         _______ _______ _______ _____ _____    ______ ____
ROOT
ATOM      1  C   LIG    1       26.861 -21.467   8.336  0.00  0.00    +0.341 C 
ATOM      2  O   LIG    1       26.482 -20.551   9.065  0.00  0.00    -0.247 OA
ENDROOT
BRANCH   1   3
ATOM      3  O   LIG    1       26.083 -22.482   7.870  0.00  0.00    -0.459 OA
BRANCH   3  11
ATOM      4  C   LIG    1       23.959 -25.926   6.341  0.00  0.00    +0.007 C 
ATOM      5  C   LIG    1       24.258 -24.461   6.651  0.00  0.00    -0.010 C 
ATOM      6  C   LIG    1       23.161 -23.548   6.083  0.00  0.00    +0.010 C 
ATOM      7  C   LIG    1       23.419 -22.040   6.321  0.00  0.00    -0.031 C 
ATOM      8  C   LIG    1       22.443 -21.233   5.436  0.00  0.00    +0.011 C 
ATOM      9  C   LIG    1       23.120 -21.668   7.786  0.00  0.00    +0.011 C 
ATOM     10  C   LIG    1       24.873 -21.656   5.932  0.00  0.00    +0.051 C 
ATOM     11  C   LIG    1       25.967 -22.610   6.440  0.00  0.00    +0.177 C 
ATOM     12  C   LIG    1       25.624 -24.059   6.082  0.00  0.00    +0.048 C 
ENDBRANCH   3  11
ENDBRANCH   1   3
BRANCH   1  13
ATOM     13  C   LIG    1       28.301 -21.599   7.819  0.00  0.00    +0.253 C 
BRANCH  13  14
ATOM     14  C   LIG    1       28.741 -20.387   7.020  0.00  0.00    -0.008 A 
ATOM     15  C   LIG    1       28.026 -19.951   5.891  0.00  0.00    +0.007 A 
ATOM     16  C   LIG    1       28.444 -18.827   5.172  0.00  0.00    +0.000 A 
ATOM     17  C   LIG    1       29.580 -18.127   5.569  0.00  0.00    +0.000 A 
ATOM     18  C   LIG    1       30.301 -18.548   6.683  0.00  0.00    +0.000 A 
ATOM     19  C   LIG    1       29.885 -19.671   7.405  0.00  0.00    +0.007 A 
ENDBRANCH  13  14
BRANCH  13  20
ATOM     20  O   LIG    1       29.231 -21.801   8.885  0.00  0.00    -0.376 OA
ATOM     21  H   LIG    1       29.961 -22.330   8.512  0.00  0.00    +0.211 HD
ENDBRANCH  13  20
ENDBRANCH   1  13
TORSDOF 5
ENDMDL
MODEL 5
REMARK VINA RESULT:      -7.8      2.746      5.015
REMARK  Name = *****
REMARK                            x       y       z     vdW  Elec       q    Type
REMARK                         _______ _______ _______ _____ _____    ______ ____
ROOT
ATOM      1  C   LIG    1       23.906 -23.804   6.583  0.00  0.00    +0.341 C 
ATOM      2  O   LIG    1       22.732 -24.103   6.800  0.00  0.00    -0.247 OA
ENDROOT
BRANCH   1   3
ATOM      3  O   LIG    1       24.331 -22.697   5.913  0.00  0.00    -0.459 OA
BRANCH   3  11
ATOM      4  C   LIG    1       27.641 -19.918   5.771  0.00  0.00    +0.007 C 
ATOM      5  C   LIG    1       26.250 -20.487   5.506  0.00  0.00    -0.010 C 
ATOM      6  C   LIG    1       25.410 -19.510   4.671  0.00  0.00    +0.010 C 
ATOM      7  C   LIG    1       23.967 -20.002   4.397  0.00  0.00    -0.031 C 
ATOM      8  C   LIG    1       23.144 -18.816   3.849  0.00  0.00    +0.011 C 
ATOM      9  C   LIG    1       23.969 -21.097   3.313  0.00  0.00    +0.011 C 
ATOM     10  C   LIG    1       23.297 -20.509   5.703  0.00  0.00    +0.051 C 
ATOM     11  C   LIG    1       24.164 -21.430   6.578  0.00  0.00    +0.177 C 
ATOM     12  C   LIG    1       25.535 -20.798   6.827  0.00  0.00    +0.048 C 
ENDBRANCH   3  11
ENDBRANCH   1   3
BRANCH   1  13
ATOM     13  C   LIG    1       25.097 -24.649   7.056  0.00  0.00    +0.253 C 
BRANCH  13  14
ATOM     14  C   LIG    1       25.194 -25.973   6.323  0.00  0.00    -0.008 A 
ATOM     15  C   LIG    1       26.211 -26.223   5.384  0.00  0.00    +0.007 A 
ATOM     16  C   LIG    1       26.287 -27.452   4.725  0.00  0.00    +0.000 A 
ATOM     17  C   LIG    1       25.349 -28.447   4.991  0.00  0.00    +0.000 A 
ATOM     18  C   LIG    1       24.334 -28.215   5.916  0.00  0.00    +0.000 A 
ATOM     19  C   LIG    1       24.257 -26.987   6.578  0.00  0.00    +0.007 A 
ENDBRANCH  13  14
BRANCH  13  20
ATOM     20  O   LIG    1       26.336 -23.953   6.900  0.00  0.00    -0.376 OA
ATOM     21  H   LIG    1       26.117 -23.003   6.914  0.00  0.00    +0.211 HD
ENDBRANCH  13  20
ENDBRANCH   1  13
TORSDOF 5
ENDMDL
MODEL 6
REMARK VINA RESULT:      -7.7      1.679      6.678
REMARK  Name = *****
REMARK                            x       y       z     vdW  Elec       q    Type
REMARK                         _______ _______ _______ _____ _____    ______ ____
ROOT
ATOM      1  C   LIG    1       27.477 -21.121   7.565  0.00  0.00    +0.341 C 
ATOM      2  O   LIG    1       28.124 -21.797   8.364  0.00  0.00    -0.247 OA
ENDROOT
BRANCH   1   3
ATOM      3  O   LIG    1       26.158 -21.291   7.270  0.00  0.00    -0.459 OA
BRANCH   3  11
ATOM      4  C   LIG    1       23.543 -24.675   6.629  0.00  0.00    +0.007 C 
ATOM      5  C   LIG    1       24.012 -23.222   6.643  0.00  0.00    -0.010 C 
ATOM      6  C   LIG    1       22.934 -22.295   6.063  0.00  0.00    +0.010 C 
ATOM      7  C   LIG    1       23.355 -20.806   6.004  0.00  0.00    -0.031 C 
ATOM      8  C   LIG    1       22.343 -20.047   5.119  0.00  0.00    +0.011 C 
ATOM      9  C   LIG    1       23.297 -20.175   7.408  0.00  0.00    +0.011 C 
ATOM     10  C   LIG    1       24.770 -20.654   5.381  0.00  0.00    +0.051 C 
ATOM     11  C   LIG    1       25.834 -21.631   5.909  0.00  0.00    +0.177 C 
ATOM     12  C   LIG    1       25.316 -23.071   5.850  0.00  0.00    +0.048 C 
ENDBRANCH   3  11
ENDBRANCH   1   3
BRANCH   1  13
ATOM     13  C   LIG    1       28.069 -19.948   6.771  0.00  0.00    +0.253 C 
BRANCH  13  14
ATOM     14  C   LIG    1       29.317 -19.383   7.420  0.00  0.00    -0.008 A 
ATOM     15  C   LIG    1       29.260 -18.678   8.636  0.00  0.00    +0.007 A 
ATOM     16  C   LIG    1       30.423 -18.171   9.222  0.00  0.00    +0.000 A 
ATOM     17  C   LIG    1       31.656 -18.359   8.603  0.00  0.00    +0.000 A 
ATOM     18  C   LIG    1       31.730 -19.052   7.397  0.00  0.00    +0.000 A 
ATOM     19  C   LIG    1       30.568 -19.561   6.810  0.00  0.00    +0.007 A 
ENDBRANCH  13  14
BRANCH  13  20
ATOM     20  O   LIG    1       28.386 -20.323   5.428  0.00  0.00    -0.376 OA
ATOM     21  H   LIG    1       27.598 -20.110   4.894  0.00  0.00    +0.211 HD
ENDBRANCH  13  20
ENDBRANCH   1  13
TORSDOF 5
ENDMDL
MODEL 7
REMARK VINA RESULT:      -7.7      1.771      6.441
REMARK  Name = *****
REMARK                            x       y       z     vdW  Elec       q    Type
REMARK                         _______ _______ _______ _____ _____    ______ ____
ROOT
ATOM      1  C   LIG    1       27.913 -21.204   7.500  0.00  0.00    +0.341 C 
ATOM      2  O   LIG    1       28.518 -21.690   8.455  0.00  0.00    -0.247 OA
ENDROOT
BRANCH   1   3
ATOM      3  O   LIG    1       26.783 -21.713   6.936  0.00  0.00    -0.459 OA
BRANCH   3  11
ATOM      4  C   LIG    1       24.485 -20.269   3.568  0.00  0.00    +0.007 C 
ATOM      5  C   LIG    1       24.839 -21.108   4.794  0.00  0.00    -0.010 C 
ATOM      6  C   LIG    1       23.706 -22.089   5.130  0.00  0.00    +0.010 C 
ATOM      7  C   LIG    1       23.976 -22.946   6.390  0.00  0.00    -0.031 C 
ATOM      8  C   LIG    1       22.656 -23.634   6.804  0.00  0.00    +0.011 C 
ATOM      9  C   LIG    1       24.992 -24.061   6.076  0.00  0.00    +0.011 C 
ATOM     10  C   LIG    1       24.464 -22.062   7.570  0.00  0.00    +0.051 C 
ATOM     11  C   LIG    1       25.548 -21.029   7.218  0.00  0.00    +0.177 C 
ATOM     12  C   LIG    1       25.127 -20.205   5.999  0.00  0.00    +0.048 C 
ENDBRANCH   3  11
ENDBRANCH   1   3
BRANCH   1  13
ATOM     13  C   LIG    1       28.343 -19.912   6.791  0.00  0.00    +0.253 C 
BRANCH  13  14
ATOM     14  C   LIG    1       29.537 -19.257   7.459  0.00  0.00    -0.008 A 
ATOM     15  C   LIG    1       30.844 -19.436   6.971  0.00  0.00    +0.007 A 
ATOM     16  C   LIG    1       31.930 -18.819   7.596  0.00  0.00    +0.000 A 
ATOM     17  C   LIG    1       31.728 -18.017   8.717  0.00  0.00    +0.000 A 
ATOM     18  C   LIG    1       30.440 -17.832   9.215  0.00  0.00    +0.000 A 
ATOM     19  C   LIG    1       29.352 -18.448   8.590  0.00  0.00    +0.007 A 
ENDBRANCH  13  14
BRANCH  13  20
ATOM     20  O   LIG    1       28.662 -20.141   5.417  0.00  0.00    -0.376 OA
ATOM     21  H   LIG    1       29.632 -20.067   5.347  0.00  0.00    +0.211 HD
ENDBRANCH  13  20
ENDBRANCH   1  13
TORSDOF 5
ENDMDL
MODEL 8
REMARK VINA RESULT:      -7.5      2.930      6.124
REMARK  Name = *****
REMARK                            x       y       z     vdW  Elec       q    Type
REMARK                         _______ _______ _______ _____ _____    ______ ____
ROOT
ATOM      1  C   LIG    1       26.417 -21.185   6.183  0.00  0.00    +0.341 C 
ATOM      2  O   LIG    1       26.863 -20.637   7.190  0.00  0.00    -0.247 OA
ENDROOT
BRANCH   1   3
ATOM      3  O   LIG    1       26.043 -22.491   6.092  0.00  0.00    -0.459 OA
BRANCH   3  11
ATOM      4  C   LIG    1       21.826 -23.086   6.845  0.00  0.00    +0.007 C 
ATOM      5  C   LIG    1       23.282 -23.439   6.552  0.00  0.00    -0.010 C 
ATOM      6  C   LIG    1       23.468 -24.960   6.461  0.00  0.00    +0.010 C 
ATOM      7  C   LIG    1       24.932 -25.397   6.207  0.00  0.00    -0.031 C 
ATOM      8  C   LIG    1       25.039 -26.917   6.463  0.00  0.00    +0.011 C 
ATOM      9  C   LIG    1       25.319 -25.154   4.736  0.00  0.00    +0.011 C 
ATOM     10  C   LIG    1       25.905 -24.663   7.170  0.00  0.00    +0.051 C 
ATOM     11  C   LIG    1       25.673 -23.150   7.318  0.00  0.00    +0.177 C 
ATOM     12  C   LIG    1       24.204 -22.860   7.633  0.00  0.00    +0.048 C 
ENDBRANCH   3  11
ENDBRANCH   1   3
BRANCH   1  13
ATOM     13  C   LIG    1       26.197 -20.458   4.849  0.00  0.00    +0.253 C 
BRANCH  13  14
ATOM     14  C   LIG    1       24.797 -19.887   4.726  0.00  0.00    -0.008 A 
ATOM     15  C   LIG    1       23.775 -20.244   5.624  0.00  0.00    +0.007 A 
ATOM     16  C   LIG    1       22.493 -19.702   5.498  0.00  0.00    +0.000 A 
ATOM     17  C   LIG    1       22.214 -18.799   4.476  0.00  0.00    +0.000 A 
ATOM     18  C   LIG    1       23.214 -18.436   3.577  0.00  0.00    +0.000 A 
ATOM     19  C   LIG    1       24.497 -18.976   3.701  0.00  0.00    +0.007 A 
ENDBRANCH  13  14
BRANCH  13  20
ATOM     20  O   LIG    1       27.137 -19.398   4.661  0.00  0.00    -0.376 OA
ATOM     21  H   LIG    1       27.893 -19.787   4.183  0.00  0.00    +0.211 HD
ENDBRANCH  13  20
ENDBRANCH   1  13
TORSDOF 5
ENDMDL
MODEL 9
REMARK VINA RESULT:      -7.3      3.116      5.010
REMARK  Name = *****
REMARK                            x       y       z     vdW  Elec       q    Type
REMARK                         _______ _______ _______ _____ _____    ______ ____
ROOT
ATOM      1  C   LIG    1       24.463 -25.026   6.475  0.00  0.00    +0.341 C 
ATOM      2  O   LIG    1       23.248 -25.211   6.405  0.00  0.00    -0.247 OA
ENDROOT
BRANCH   1   3
ATOM      3  O   LIG    1       25.067 -23.921   6.992  0.00  0.00    -0.459 OA
BRANCH   3  11
ATOM      4  C   LIG    1       22.893 -20.357   5.863  0.00  0.00    +0.007 C 
ATOM      5  C   LIG    1       23.988 -21.217   6.491  0.00  0.00    -0.010 C 
ATOM      6  C   LIG    1       25.050 -20.339   7.168  0.00  0.00    +0.010 C 
ATOM      7  C   LIG    1       26.219 -21.141   7.791  0.00  0.00    -0.031 C 
ATOM      8  C   LIG    1       27.357 -20.156   8.138  0.00  0.00    +0.011 C 
ATOM      9  C   LIG    1       25.773 -21.805   9.108  0.00  0.00    +0.011 C 
ATOM     10  C   LIG    1       26.765 -22.196   6.790  0.00  0.00    +0.051 C 
ATOM     11  C   LIG    1       25.698 -23.026   6.057  0.00  0.00    +0.177 C 
ATOM     12  C   LIG    1       24.643 -22.111   5.431  0.00  0.00    +0.048 C 
ENDBRANCH   3  11
ENDBRANCH   1   3
BRANCH   1  13
ATOM     13  C   LIG    1       25.505 -26.044   5.990  0.00  0.00    +0.253 C 
BRANCH  13  14
ATOM     14  C   LIG    1       25.185 -27.457   6.438  0.00  0.00    -0.008 A 
ATOM     15  C   LIG    1       25.654 -27.964   7.663  0.00  0.00    +0.007 A 
ATOM     16  C   LIG    1       25.342 -29.267   8.062  0.00  0.00    +0.000 A 
ATOM     17  C   LIG    1       24.561 -30.079   7.244  0.00  0.00    +0.000 A 
ATOM     18  C   LIG    1       24.091 -29.593   6.027  0.00  0.00    +0.000 A 
ATOM     19  C   LIG    1       24.400 -28.290   5.627  0.00  0.00    +0.007 A 
ENDBRANCH  13  14
BRANCH  13  20
ATOM     20  O   LIG    1       25.630 -26.037   4.566  0.00  0.00    -0.376 OA
ATOM     21  H   LIG    1       26.362 -26.647   4.355  0.00  0.00    +0.211 HD
ENDBRANCH  13  20
ENDBRANCH   1  13
TORSDOF 5
ENDMDL
