MODEL 1
REMARK VINA RESULT:       4.0      0.000      0.000
REMARK  Name = *****
REMARK                            x       y       z     vdW  Elec       q    Type
REMARK                         _______ _______ _______ _____ _____    ______ ____
ROOT
ATOM      1  C   LIG    1       22.216 -16.594   4.636  0.00  0.00    -0.017 C 
ATOM      2  C   LIG    1       22.547 -17.847   4.262  0.00  0.00    -0.013 C 
ATOM      3  C   LIG    1       23.930 -18.386   4.372  0.00  0.00    -0.003 A 
ATOM      4  C   LIG    1       24.134 -19.568   5.110  0.00  0.00    +0.021 A 
ATOM      5  C   LIG    1       25.427 -20.083   5.267  0.00  0.00    +0.017 A 
ATOM      6  C   LIG    1       26.506 -19.473   4.625  0.00  0.00    +0.021 A 
ATOM      7  C   LIG    1       26.287 -18.361   3.814  0.00  0.00    +0.042 A 
ATOM      8 CL   LIG    1       27.604 -17.671   2.948  0.00  0.00    -0.084 Cl
ATOM      9  S   LIG    1       22.762 -20.495   5.801  0.00  0.00    -0.088 S 
ATOM     10  C   LIG    1       21.454 -20.050   4.648  0.00  0.00    +0.021 A 
ATOM     11  C   LIG    1       20.429 -20.973   4.413  0.00  0.00    +0.015 A 
ATOM     12  C   LIG    1       19.382 -20.654   3.546  0.00  0.00    +0.001 A 
ATOM     13  C   LIG    1       19.352 -19.413   2.911  0.00  0.00    +0.001 A 
ATOM     14  C   LIG    1       20.375 -18.489   3.132  0.00  0.00    +0.009 A 
ATOM     15  C   LIG    1       25.010 -17.814   3.685  0.00  0.00    +0.029 A 
ATOM     16  C   LIG    1       21.429 -18.796   4.007  0.00  0.00    -0.004 A 
ENDROOT
BRANCH   1  17
ATOM     17  C   LIG    1       23.101 -15.505   5.198  0.00  0.00    +0.043 C 
BRANCH  17  18
ATOM     18  C   LIG    1       23.485 -14.484   4.105  0.00  0.00    +0.088 C 
BRANCH  18  22
ATOM     19  N   LIG    1       26.867 -13.449   2.676  0.00  0.00    -0.298 NA
ATOM     20  C   LIG    1       26.611 -14.521   3.661  0.00  0.00    +0.100 C 
ATOM     21  C   LIG    1       25.757 -14.083   4.879  0.00  0.00    +0.100 C 
ATOM     22  N   LIG    1       24.455 -13.456   4.534  0.00  0.00    -0.300 NA
ATOM     23  C   LIG    1       24.695 -12.412   3.513  0.00  0.00    +0.100 C 
ATOM     24  C   LIG    1       25.556 -12.861   2.303  0.00  0.00    +0.100 C 
BRANCH  19  25
ATOM     25  C   LIG    1       27.774 -12.395   3.179  0.00  0.00    +0.112 C 
BRANCH  25  26
ATOM     26  C   LIG    1       28.906 -12.878   4.097  0.00  0.00    +0.171 C 
BRANCH  26  27
ATOM     27  O   LIG    1       29.210 -11.859   5.048  0.00  0.00    -0.394 OA
ATOM     28  H   LIG    1       30.098 -11.527   4.831  0.00  0.00    +0.209 HD
ENDBRANCH  26  27
ENDBRANCH  25  26
ENDBRANCH  19  25
ENDBRANCH  18  22
ENDBRANCH  17  18
ENDBRANCH   1  17
TORSDOF 6
ENDMDL
MODEL 2
REMARK VINA RESULT:       4.7      2.111      4.728
REMARK  Name = *****
REMARK                            x       y       z     vdW  Elec       q    Type
REMARK                         _______ _______ _______ _____ _____    ______ ____
ROOT
ATOM      1  C   LIG    1       26.719 -17.940   3.466  0.00  0.00    -0.017 C 
ATOM      2  C   LIG    1       26.105 -18.613   4.461  0.00  0.00    -0.013 C 
ATOM      3  C   LIG    1       24.630 -18.799   4.524  0.00  0.00    -0.003 A 
ATOM      4  C   LIG    1       24.119 -20.110   4.601  0.00  0.00    +0.021 A 
ATOM      5  C   LIG    1       22.736 -20.324   4.623  0.00  0.00    +0.017 A 
ATOM      6  C   LIG    1       21.860 -19.238   4.650  0.00  0.00    +0.021 A 
ATOM      7  C   LIG    1       22.369 -17.941   4.674  0.00  0.00    +0.042 A 
ATOM      8 CL   LIG    1       21.289 -16.608   4.804  0.00  0.00    -0.084 Cl
ATOM      9  S   LIG    1       25.202 -21.532   4.756  0.00  0.00    -0.088 S 
ATOM     10  C   LIG    1       26.616 -20.780   5.575  0.00  0.00    +0.021 A 
ATOM     11  C   LIG    1       27.392 -21.571   6.429  0.00  0.00    +0.015 A 
ATOM     12  C   LIG    1       28.514 -21.032   7.061  0.00  0.00    +0.001 A 
ATOM     13  C   LIG    1       28.866 -19.700   6.845  0.00  0.00    +0.001 A 
ATOM     14  C   LIG    1       28.092 -18.899   6.004  0.00  0.00    +0.009 A 
ATOM     15  C   LIG    1       23.744 -17.715   4.609  0.00  0.00    +0.029 A 
ATOM     16  C   LIG    1       26.966 -19.433   5.357  0.00  0.00    -0.004 A 
ENDROOT
BRANCH   1  17
ATOM     17  C   LIG    1       26.107 -17.244   2.272  0.00  0.00    +0.043 C 
BRANCH  17  18
ATOM     18  C   LIG    1       25.453 -15.908   2.683  0.00  0.00    +0.088 C 
BRANCH  18  22
ATOM     19  N   LIG    1       26.815 -13.116   4.897  0.00  0.00    -0.298 NA
ATOM     20  C   LIG    1       25.482 -13.173   4.261  0.00  0.00    +0.100 C 
ATOM     21  C   LIG    1       25.507 -13.475   2.741  0.00  0.00    +0.100 C 
ATOM     22  N   LIG    1       26.250 -14.706   2.363  0.00  0.00    -0.300 NA
ATOM     23  C   LIG    1       27.569 -14.680   3.032  0.00  0.00    +0.100 C 
ATOM     24  C   LIG    1       27.530 -14.370   4.551  0.00  0.00    +0.100 C 
BRANCH  19  25
ATOM     25  C   LIG    1       27.614 -11.943   4.480  0.00  0.00    +0.112 C 
BRANCH  25  26
ATOM     26  C   LIG    1       29.109 -12.003   4.827  0.00  0.00    +0.171 C 
BRANCH  26  27
ATOM     27  O   LIG    1       29.275 -11.816   6.232  0.00  0.00    -0.394 OA
ATOM     28  H   LIG    1       28.385 -11.720   6.610  0.00  0.00    +0.209 HD
ENDBRANCH  26  27
ENDBRANCH  25  26
ENDBRANCH  19  25
ENDBRANCH  18  22
ENDBRANCH  17  18
ENDBRANCH   1  17
TORSDOF 6
ENDMDL
MODEL 3
REMARK VINA RESULT:       5.1      2.385      4.894
REMARK  Name = *****
REMARK                            x       y       z     vdW  Elec       q    Type
REMARK                         _______ _______ _______ _____ _____    ______ ____
ROOT
ATOM      1  C   LIG    1       26.732 -17.711   3.637  0.00  0.00    -0.017 C 
ATOM      2  C   LIG    1       26.073 -18.470   4.536  0.00  0.00    -0.013 C 
ATOM      3  C   LIG    1       24.600 -18.675   4.499  0.00  0.00    -0.003 A 
ATOM      4  C   LIG    1       24.104 -19.992   4.438  0.00  0.00    +0.021 A 
ATOM      5  C   LIG    1       22.725 -20.220   4.363  0.00  0.00    +0.017 A 
ATOM      6  C   LIG    1       21.833 -19.149   4.430  0.00  0.00    +0.021 A 
ATOM      7  C   LIG    1       22.322 -17.854   4.590  0.00  0.00    +0.042 A 
ATOM      8 CL   LIG    1       21.217 -16.547   4.769  0.00  0.00    -0.084 Cl
ATOM      9  S   LIG    1       25.197 -21.412   4.536  0.00  0.00    -0.088 S 
ATOM     10  C   LIG    1       26.552 -20.718   5.494  0.00  0.00    +0.021 A 
ATOM     11  C   LIG    1       27.291 -21.571   6.321  0.00  0.00    +0.015 A 
ATOM     12  C   LIG    1       28.367 -21.075   7.059  0.00  0.00    +0.001 A 
ATOM     13  C   LIG    1       28.712 -19.727   6.975  0.00  0.00    +0.001 A 
ATOM     14  C   LIG    1       27.975 -18.865   6.161  0.00  0.00    +0.009 A 
ATOM     15  C   LIG    1       23.696 -17.611   4.623  0.00  0.00    +0.029 A 
ATOM     16  C   LIG    1       26.895 -19.354   5.408  0.00  0.00    -0.004 A 
ENDROOT
BRANCH   1  17
ATOM     17  C   LIG    1       26.178 -16.923   2.471  0.00  0.00    +0.043 C 
BRANCH  17  18
ATOM     18  C   LIG    1       26.590 -15.438   2.559  0.00  0.00    +0.088 C 
BRANCH  18  22
ATOM     19  N   LIG    1       24.570 -12.203   2.595  0.00  0.00    -0.298 NA
ATOM     20  C   LIG    1       26.040 -12.331   2.676  0.00  0.00    +0.100 C 
ATOM     21  C   LIG    1       26.541 -13.321   3.759  0.00  0.00    +0.100 C 
ATOM     22  N   LIG    1       25.964 -14.688   3.667  0.00  0.00    -0.300 NA
ATOM     23  C   LIG    1       24.495 -14.568   3.539  0.00  0.00    +0.100 C 
ATOM     24  C   LIG    1       24.008 -13.570   2.457  0.00  0.00    +0.100 C 
BRANCH  19  25
ATOM     25  C   LIG    1       23.975 -11.524   3.767  0.00  0.00    +0.112 C 
BRANCH  25  26
ATOM     26  C   LIG    1       24.122 -12.264   5.106  0.00  0.00    +0.171 C 
BRANCH  26  27
ATOM     27  O   LIG    1       23.604 -11.448   6.155  0.00  0.00    -0.394 OA
ATOM     28  H   LIG    1       22.685 -11.234   5.918  0.00  0.00    +0.209 HD
ENDBRANCH  26  27
ENDBRANCH  25  26
ENDBRANCH  19  25
ENDBRANCH  18  22
ENDBRANCH  17  18
ENDBRANCH   1  17
TORSDOF 6
ENDMDL
