MODEL 1
REMARK VINA RESULT:      22.7      0.000      0.000
REMARK  Name = *****
REMARK                            x       y       z     vdW  Elec       q    Type
REMARK                         _______ _______ _______ _____ _____    ______ ____
ROOT
ATOM      1  CA  LIG    1       28.566 -19.359   4.843  0.00  0.00    +0.191 C 
ATOM      2  C   LIG    1       27.617 -20.309   5.635  0.00  0.00    +0.169 C 
ATOM      3  N   LIG    1       26.729 -20.271   4.485  0.00  0.00    -0.248 N 
ATOM      4  CA  LIG    1       25.418 -20.674   4.474  0.00  0.00    +0.133 C 
ATOM      5  C   LIG    1       24.788 -21.046   5.631  0.00  0.00    +0.030 C 
ATOM      6  C   LIG    1       25.451 -20.905   7.000  0.00  0.00    +0.115 C 
ATOM      7  S   LIG    1       26.747 -19.629   7.062  0.00  0.00    -0.130 S 
ATOM      8  C   LIG    1       27.605 -19.677   3.636  0.00  0.00    +0.244 C 
ATOM      9  O   LIG    1       27.569 -19.393   2.481  0.00  0.00    -0.273 OA
ENDROOT
BRANCH   1  11
ATOM     10  C   LIG    1       27.821 -16.961   4.581  0.00  0.00    +0.270 C 
ATOM     11  N   LIG    1       28.595 -17.914   5.222  0.00  0.00    -0.296 N 
ATOM     12  H   LIG    1       29.098 -17.595   6.048  0.00  0.00    +0.150 HD
ATOM     13  O   LIG    1       27.055 -17.240   3.672  0.00  0.00    -0.268 OA
BRANCH  10  15
ATOM     14  N   LIG    1       28.094 -15.403   6.414  0.00  0.00    -0.076 NA
ATOM     15  C   LIG    1       28.007 -15.517   5.108  0.00  0.00    +0.208 C 
BRANCH  15  16
ATOM     16  C   LIG    1       28.133 -14.414   4.138  0.00  0.00    +0.197 A 
ATOM     17  N   LIG    1       26.985 -13.809   3.619  0.00  0.00    -0.202 NA
ATOM     18  C   LIG    1       27.300 -12.888   2.746  0.00  0.00    +0.187 A 
ATOM     19  S   LIG    1       29.009 -12.779   2.565  0.00  0.00    +0.050 S 
ATOM     20  N   LIG    1       29.316 -13.957   3.697  0.00  0.00    -0.185 NA
BRANCH  18  21
ATOM     21  N   LIG    1       26.443 -12.119   2.057  0.00  0.00    -0.230 N 
ATOM     22  H   LIG    1       26.708 -11.855   1.122  0.00  0.00    +0.160 HD
BRANCH  21  23
ATOM     23  P   LIG    1       24.875 -12.306   2.379  0.00  0.00    +0.423 P 
ATOM     24  O   LIG    1       23.791 -11.447   1.814  0.00  0.00    -0.237 OA
BRANCH  23  25
ATOM     25  O   LIG    1       24.769 -12.218   3.979  0.00  0.00    -0.310 OA
ATOM     26  H   LIG    1       23.921 -12.584   4.289  0.00  0.00    +0.221 HD
ENDBRANCH  23  25
BRANCH  23  27
ATOM     27  O   LIG    1       24.498 -13.853   2.224  0.00  0.00    -0.310 OA
ATOM     28  H   LIG    1       23.629 -14.051   2.616  0.00  0.00    +0.221 HD
ENDBRANCH  23  27
ENDBRANCH  21  23
ENDBRANCH  18  21
ENDBRANCH  15  16
BRANCH  14  29
ATOM     29  O   LIG    1       28.323 -14.078   6.824  0.00  0.00    -0.393 OA
BRANCH  29  31
ATOM     30  C   LIG    1       25.997 -13.458   7.026  0.00  0.00    +0.051 C 
ATOM     31  C   LIG    1       27.310 -13.219   6.309  0.00  0.00    +0.259 C 
ENDBRANCH  29  31
ENDBRANCH  14  29
ENDBRANCH  10  15
ENDBRANCH   1  11
BRANCH   4  32
ATOM     32  C   LIG    1       24.755 -20.683   3.132  0.00  0.00    +0.352 C 
ATOM     33  O   LIG    1       23.863 -21.436   2.787  0.00  0.00    -0.244 OA
BRANCH  32  34
ATOM     34  OXT LIG    1       25.202 -19.745   2.283  0.00  0.00    -0.476 OA
ATOM     35  HXT LIG    1       24.389 -19.451   1.822  0.00  0.00    +0.295 HD
ENDBRANCH  32  34
ENDBRANCH   4  32
BRANCH   5  36
ATOM     36  S   LIG    1       23.095 -21.571   5.735  0.00  0.00    -0.064 S 
BRANCH  36  37
ATOM     37  C   LIG    1       22.204 -20.157   5.186  0.00  0.00    +0.140 A 
ATOM     38  S   LIG    1       20.745 -20.203   4.286  0.00  0.00    -0.069 S 
ATOM     39  C   LIG    1       20.678 -18.492   4.305  0.00  0.00    +0.076 A 
ATOM     40  C   LIG    1       21.763 -17.980   4.988  0.00  0.00    +0.080 A 
ATOM     41  N   LIG    1       22.614 -18.943   5.516  0.00  0.00    -0.232 NA
BRANCH  40  42
ATOM     42  C   LIG    1       22.081 -16.552   5.057  0.00  0.00    +0.012 A 
ATOM     43  C   LIG    1       22.951 -15.935   4.154  0.00  0.00    +0.080 A 
ATOM     44  C   LIG    1       23.320 -14.605   4.342  0.00  0.00    +0.309 A 
ATOM     45  N   LIG    1       22.848 -13.901   5.396  0.00  0.00    -0.206 N 
ATOM     46  C   LIG    1       23.319 -12.520   5.608  0.00  0.00    +0.438 C 
ATOM     47  C   LIG    1       21.961 -14.456   6.252  0.00  0.00    +0.309 A 
ATOM     48  C   LIG    1       21.562 -15.781   6.097  0.00  0.00    +0.080 A 
ENDBRANCH  40  42
ENDBRANCH  36  37
ENDBRANCH   5  36
TORSDOF 14
ENDMDL
