MODEL 1
REMARK VINA RESULT:      -3.9      0.000      0.000
REMARK  Name = *****
REMARK                            x       y       z     vdW  Elec       q    Type
REMARK                         _______ _______ _______ _____ _____    ______ ____
ROOT
ATOM      1  C   LIG    1       22.466 -18.275   4.365  0.00  0.00    +0.067 C 
ATOM      2  C   LIG    1       23.929 -18.338   4.079  0.00  0.00    +0.059 C 
ATOM      3  N   LIG    1       24.580 -19.560   4.288  0.00  0.00    -0.282 N 
ATOM      4  C   LIG    1       24.206 -20.698   3.431  0.00  0.00    +0.171 C 
ATOM      5  N   LIG    1       25.969 -19.270   4.282  0.00  0.00    -0.216 N 
ATOM      6  C   LIG    1       26.136 -17.939   3.869  0.00  0.00    +0.293 C 
ATOM      7  O   LIG    1       27.160 -17.275   3.744  0.00  0.00    -0.264 OA
ATOM      8  C   LIG    1       24.752 -17.323   3.752  0.00  0.00    +0.119 C 
ENDROOT
BRANCH   5   9
ATOM      9  C   LIG    1       26.808 -19.920   5.239  0.00  0.00    +0.067 A 
ATOM     10  C   LIG    1       28.186 -19.651   5.303  0.00  0.00    +0.028 A 
ATOM     11  C   LIG    1       29.019 -20.312   6.211  0.00  0.00    +0.002 A 
ATOM     12  C   LIG    1       28.492 -21.276   7.062  0.00  0.00    +0.000 A 
ATOM     13  C   LIG    1       27.134 -21.566   7.012  0.00  0.00    +0.002 A 
ATOM     14  C   LIG    1       26.302 -20.885   6.119  0.00  0.00    +0.028 A 
ENDBRANCH   5   9
BRANCH   8  15
ATOM     15  N   LIG    1       24.587 -15.972   3.453  0.00  0.00    -0.306 N 
ATOM     16  C   LIG    1       23.565 -15.179   4.138  0.00  0.00    +0.131 C 
BRANCH  15  17
ATOM     17  C   LIG    1       25.741 -15.153   2.954  0.00  0.00    +0.305 C 
BRANCH  17  18
ATOM     18  S   LIG    1       26.043 -13.432   3.522  0.00  0.00    +0.096 S 
ATOM     19  O   LIG    1       26.098 -13.392   4.975  0.00  0.00    -0.146 OA
ATOM     20  O   LIG    1       25.189 -12.537   2.789  0.00  0.00    -0.146 OA
BRANCH  18  21
ATOM     21  O   LIG    1       27.556 -13.222   2.988  0.00  0.00    -0.253 OA
ATOM     22  H   LIG    1       27.861 -14.055   2.545  0.00  0.00    +0.244 HD
ENDBRANCH  18  21
ENDBRANCH  17  18
ENDBRANCH  15  17
ENDBRANCH   8  15
TORSDOF 5
ENDMDL
MODEL 2
REMARK VINA RESULT:      -3.6      1.920      2.832
REMARK  Name = *****
REMARK                            x       y       z     vdW  Elec       q    Type
REMARK                         _______ _______ _______ _____ _____    ______ ____
ROOT
ATOM      1  C   LIG    1       21.977 -15.207   5.560  0.00  0.00    +0.067 C 
ATOM      2  C   LIG    1       22.861 -16.047   4.701  0.00  0.00    +0.059 C 
ATOM      3  N   LIG    1       22.628 -17.428   4.684  0.00  0.00    -0.282 N 
ATOM      4  C   LIG    1       21.358 -17.907   4.112  0.00  0.00    +0.171 C 
ATOM      5  N   LIG    1       23.779 -18.013   4.093  0.00  0.00    -0.216 N 
ATOM      6  C   LIG    1       24.581 -16.980   3.583  0.00  0.00    +0.293 C 
ATOM      7  O   LIG    1       25.668 -17.032   3.016  0.00  0.00    -0.264 OA
ATOM      8  C   LIG    1       23.956 -15.664   4.016  0.00  0.00    +0.119 C 
ENDROOT
BRANCH   5   9
ATOM      9  C   LIG    1       24.295 -19.223   4.651  0.00  0.00    +0.067 A 
ATOM     10  C   LIG    1       23.496 -20.058   5.450  0.00  0.00    +0.028 A 
ATOM     11  C   LIG    1       24.007 -21.224   6.029  0.00  0.00    +0.002 A 
ATOM     12  C   LIG    1       25.339 -21.567   5.839  0.00  0.00    +0.000 A 
ATOM     13  C   LIG    1       26.152 -20.754   5.059  0.00  0.00    +0.002 A 
ATOM     14  C   LIG    1       25.631 -19.602   4.462  0.00  0.00    +0.028 A 
ENDBRANCH   5   9
BRANCH   8  15
ATOM     15  N   LIG    1       24.578 -14.446   3.746  0.00  0.00    -0.306 N 
ATOM     16  C   LIG    1       23.794 -13.293   3.307  0.00  0.00    +0.131 C 
BRANCH  15  17
ATOM     17  C   LIG    1       25.853 -14.070   4.442  0.00  0.00    +0.305 C 
BRANCH  17  18
ATOM     18  S   LIG    1       27.480 -14.085   3.588  0.00  0.00    +0.096 S 
ATOM     19  O   LIG    1       28.358 -13.087   4.176  0.00  0.00    -0.146 OA
ATOM     20  O   LIG    1       27.265 -14.138   2.166  0.00  0.00    -0.146 OA
BRANCH  18  21
ATOM     21  O   LIG    1       28.030 -15.532   4.058  0.00  0.00    -0.253 OA
ATOM     22  H   LIG    1       27.460 -15.870   4.797  0.00  0.00    +0.244 HD
ENDBRANCH  18  21
ENDBRANCH  17  18
ENDBRANCH  15  17
ENDBRANCH   8  15
TORSDOF 5
ENDMDL
MODEL 3
REMARK VINA RESULT:      -2.7      3.223      6.056
REMARK  Name = *****
REMARK                            x       y       z     vdW  Elec       q    Type
REMARK                         _______ _______ _______ _____ _____    ______ ____
ROOT
ATOM      1  C   LIG    1       27.874 -19.821   6.764  0.00  0.00    +0.067 C 
ATOM      2  C   LIG    1       27.403 -19.266   5.461  0.00  0.00    +0.059 C 
ATOM      3  N   LIG    1       28.048 -18.124   4.971  0.00  0.00    -0.282 N 
ATOM      4  C   LIG    1       29.464 -18.242   4.585  0.00  0.00    +0.171 C 
ATOM      5  N   LIG    1       27.214 -17.615   3.941  0.00  0.00    -0.216 N 
ATOM      6  C   LIG    1       26.205 -18.558   3.690  0.00  0.00    +0.293 C 
ATOM      7  O   LIG    1       25.265 -18.516   2.902  0.00  0.00    -0.264 OA
ATOM      8  C   LIG    1       26.338 -19.654   4.733  0.00  0.00    +0.119 C 
ENDROOT
BRANCH   5   9
ATOM      9  C   LIG    1       27.028 -16.202   3.846  0.00  0.00    +0.067 A 
ATOM     10  C   LIG    1       27.973 -15.304   4.371  0.00  0.00    +0.028 A 
ATOM     11  C   LIG    1       27.778 -13.920   4.314  0.00  0.00    +0.002 A 
ATOM     12  C   LIG    1       26.618 -13.405   3.750  0.00  0.00    +0.000 A 
ATOM     13  C   LIG    1       25.664 -14.272   3.232  0.00  0.00    +0.002 A 
ATOM     14  C   LIG    1       25.875 -15.654   3.269  0.00  0.00    +0.028 A 
ENDBRANCH   5   9
BRANCH   8  15
ATOM     15  N   LIG    1       25.411 -20.693   4.811  0.00  0.00    -0.306 N 
ATOM     16  C   LIG    1       25.378 -21.571   5.980  0.00  0.00    +0.131 C 
BRANCH  15  17
ATOM     17  C   LIG    1       24.094 -20.595   4.101  0.00  0.00    +0.305 C 
BRANCH  17  18
ATOM     18  S   LIG    1       22.573 -19.983   4.931  0.00  0.00    +0.096 S 
ATOM     19  O   LIG    1       21.971 -18.919   4.142  0.00  0.00    -0.146 OA
ATOM     20  O   LIG    1       22.841 -19.804   6.333  0.00  0.00    -0.146 OA
BRANCH  18  21
ATOM     21  O   LIG    1       21.623 -21.282   4.771  0.00  0.00    -0.253 OA
ATOM     22  H   LIG    1       20.864 -21.056   4.173  0.00  0.00    +0.244 HD
ENDBRANCH  18  21
ENDBRANCH  17  18
ENDBRANCH  15  17
ENDBRANCH   8  15
TORSDOF 5
ENDMDL
MODEL 4
REMARK VINA RESULT:      -2.0      2.075      3.175
REMARK  Name = *****
REMARK                            x       y       z     vdW  Elec       q    Type
REMARK                         _______ _______ _______ _____ _____    ______ ____
ROOT
ATOM      1  C   LIG    1       23.552 -14.419   4.834  0.00  0.00    +0.067 C 
ATOM      2  C   LIG    1       24.014 -15.669   4.162  0.00  0.00    +0.059 C 
ATOM      3  N   LIG    1       23.231 -16.819   4.322  0.00  0.00    -0.282 N 
ATOM      4  C   LIG    1       21.878 -16.821   3.739  0.00  0.00    +0.171 C 
ATOM      5  N   LIG    1       24.039 -17.905   3.897  0.00  0.00    -0.216 N 
ATOM      6  C   LIG    1       25.198 -17.381   3.302  0.00  0.00    +0.293 C 
ATOM      7  O   LIG    1       26.168 -17.959   2.822  0.00  0.00    -0.264 OA
ATOM      8  C   LIG    1       25.171 -15.876   3.504  0.00  0.00    +0.119 C 
ENDROOT
BRANCH   5   9
ATOM      9  C   LIG    1       24.008 -19.119   4.651  0.00  0.00    +0.067 A 
ATOM     10  C   LIG    1       25.153 -19.921   4.791  0.00  0.00    +0.028 A 
ATOM     11  C   LIG    1       25.119 -21.128   5.496  0.00  0.00    +0.002 A 
ATOM     12  C   LIG    1       23.927 -21.571   6.057  0.00  0.00    +0.000 A 
ATOM     13  C   LIG    1       22.779 -20.800   5.925  0.00  0.00    +0.002 A 
ATOM     14  C   LIG    1       22.824 -19.582   5.240  0.00  0.00    +0.028 A 
ENDBRANCH   5   9
BRANCH   8  15
ATOM     15  N   LIG    1       26.241 -15.075   3.110  0.00  0.00    -0.306 N 
ATOM     16  C   LIG    1       26.052 -14.017   2.117  0.00  0.00    +0.131 C 
BRANCH  15  17
ATOM     17  C   LIG    1       27.386 -14.817   4.044  0.00  0.00    +0.305 C 
BRANCH  17  18
ATOM     18  S   LIG    1       27.469 -13.321   5.108  0.00  0.00    +0.096 S 
ATOM     19  O   LIG    1       28.665 -12.555   4.796  0.00  0.00    -0.146 OA
ATOM     20  O   LIG    1       27.159 -13.690   6.464  0.00  0.00    -0.146 OA
BRANCH  18  21
ATOM     21  O   LIG    1       26.211 -12.490   4.522  0.00  0.00    -0.253 OA
ATOM     22  H   LIG    1       26.078 -12.733   3.569  0.00  0.00    +0.244 HD
ENDBRANCH  18  21
ENDBRANCH  17  18
ENDBRANCH  15  17
ENDBRANCH   8  15
TORSDOF 5
ENDMDL
MODEL 5
REMARK VINA RESULT:      -1.8      3.326      6.538
REMARK  Name = *****
REMARK                            x       y       z     vdW  Elec       q    Type
REMARK                         _______ _______ _______ _____ _____    ______ ____
ROOT
ATOM      1  C   LIG    1       21.334 -18.028   3.721  0.00  0.00    +0.067 C 
ATOM      2  C   LIG    1       22.731 -17.549   3.938  0.00  0.00    +0.059 C 
ATOM      3  N   LIG    1       22.911 -16.196   4.250  0.00  0.00    -0.282 N 
ATOM      4  C   LIG    1       22.379 -15.705   5.533  0.00  0.00    +0.171 C 
ATOM      5  N   LIG    1       24.294 -15.932   4.066  0.00  0.00    -0.216 N 
ATOM      6  C   LIG    1       24.947 -17.156   3.853  0.00  0.00    +0.293 C 
ATOM      7  O   LIG    1       26.131 -17.390   3.630  0.00  0.00    -0.264 OA
ATOM      8  C   LIG    1       23.878 -18.230   3.754  0.00  0.00    +0.119 C 
ENDROOT
BRANCH   5   9
ATOM      9  C   LIG    1       24.681 -14.703   3.448  0.00  0.00    +0.067 A 
ATOM     10  C   LIG    1       25.936 -14.558   2.834  0.00  0.00    +0.028 A 
ATOM     11  C   LIG    1       26.334 -13.346   2.261  0.00  0.00    +0.002 A 
ATOM     12  C   LIG    1       25.492 -12.243   2.313  0.00  0.00    +0.000 A 
ATOM     13  C   LIG    1       24.248 -12.358   2.923  0.00  0.00    +0.002 A 
ATOM     14  C   LIG    1       23.844 -13.579   3.472  0.00  0.00    +0.028 A 
ENDBRANCH   5   9
BRANCH   8  15
ATOM     15  N   LIG    1       24.206 -19.550   3.444  0.00  0.00    -0.306 N 
ATOM     16  C   LIG    1       24.911 -19.868   2.203  0.00  0.00    +0.131 C 
BRANCH  15  17
ATOM     17  C   LIG    1       24.433 -20.556   4.533  0.00  0.00    +0.305 C 
BRANCH  17  18
ATOM     18  S   LIG    1       23.295 -20.729   5.965  0.00  0.00    +0.096 S 
ATOM     19  O   LIG    1       22.746 -19.431   6.323  0.00  0.00    -0.146 OA
ATOM     20  O   LIG    1       23.910 -21.571   6.957  0.00  0.00    -0.146 OA
BRANCH  18  21
ATOM     21  O   LIG    1       22.100 -21.571   5.273  0.00  0.00    -0.253 OA
ATOM     22  H   LIG    1       21.463 -20.940   4.848  0.00  0.00    +0.244 HD
ENDBRANCH  18  21
ENDBRANCH  17  18
ENDBRANCH  15  17
ENDBRANCH   8  15
TORSDOF 5
ENDMDL
MODEL 6
REMARK VINA RESULT:      -1.3      1.588      2.087
REMARK  Name = *****
REMARK                            x       y       z     vdW  Elec       q    Type
REMARK                         _______ _______ _______ _____ _____    ______ ____
ROOT
ATOM      1  C   LIG    1       23.886 -16.677   3.397  0.00  0.00    +0.067 C 
ATOM      2  C   LIG    1       25.310 -17.103   3.539  0.00  0.00    +0.059 C 
ATOM      3  N   LIG    1       25.566 -18.473   3.678  0.00  0.00    -0.282 N 
ATOM      4  C   LIG    1       25.254 -19.354   2.540  0.00  0.00    +0.171 C 
ATOM      5  N   LIG    1       26.907 -18.577   4.132  0.00  0.00    -0.216 N 
ATOM      6  C   LIG    1       27.492 -17.303   4.060  0.00  0.00    +0.293 C 
ATOM      7  O   LIG    1       28.620 -16.934   4.372  0.00  0.00    -0.264 OA
ATOM      8  C   LIG    1       26.398 -16.322   3.674  0.00  0.00    +0.119 C 
ENDROOT
BRANCH   5   9
ATOM      9  C   LIG    1       27.217 -19.541   5.140  0.00  0.00    +0.067 A 
ATOM     10  C   LIG    1       28.529 -19.705   5.615  0.00  0.00    +0.028 A 
ATOM     11  C   LIG    1       28.844 -20.673   6.573  0.00  0.00    +0.002 A 
ATOM     12  C   LIG    1       27.854 -21.516   7.061  0.00  0.00    +0.000 A 
ATOM     13  C   LIG    1       26.550 -21.379   6.602  0.00  0.00    +0.002 A 
ATOM     14  C   LIG    1       26.235 -20.394   5.662  0.00  0.00    +0.028 A 
ENDBRANCH   5   9
BRANCH   8  15
ATOM     15  N   LIG    1       26.645 -14.951   3.617  0.00  0.00    -0.306 N 
ATOM     16  C   LIG    1       26.917 -14.297   2.337  0.00  0.00    +0.131 C 
BRANCH  15  17
ATOM     17  C   LIG    1       26.062 -14.027   4.646  0.00  0.00    +0.305 C 
BRANCH  17  18
ATOM     18  S   LIG    1       24.536 -13.052   4.338  0.00  0.00    +0.096 S 
ATOM     19  O   LIG    1       24.293 -12.946   2.908  0.00  0.00    -0.146 OA
ATOM     20  O   LIG    1       24.548 -11.881   5.175  0.00  0.00    -0.146 OA
BRANCH  18  21
ATOM     21  O   LIG    1       23.427 -14.071   4.929  0.00  0.00    -0.253 OA
ATOM     22  H   LIG    1       23.879 -14.745   5.499  0.00  0.00    +0.244 HD
ENDBRANCH  18  21
ENDBRANCH  17  18
ENDBRANCH  15  17
ENDBRANCH   8  15
TORSDOF 5
ENDMDL
MODEL 7
REMARK VINA RESULT:      -1.1      3.532      6.456
REMARK  Name = *****
REMARK                            x       y       z     vdW  Elec       q    Type
REMARK                         _______ _______ _______ _____ _____    ______ ____
ROOT
ATOM      1  C   LIG    1       21.174 -18.239   3.669  0.00  0.00    +0.067 C 
ATOM      2  C   LIG    1       22.586 -17.828   3.924  0.00  0.00    +0.059 C 
ATOM      3  N   LIG    1       22.818 -16.497   4.292  0.00  0.00    -0.282 N 
ATOM      4  C   LIG    1       22.288 -16.035   5.586  0.00  0.00    +0.171 C 
ATOM      5  N   LIG    1       24.213 -16.285   4.136  0.00  0.00    -0.216 N 
ATOM      6  C   LIG    1       24.818 -17.527   3.883  0.00  0.00    +0.293 C 
ATOM      7  O   LIG    1       25.994 -17.802   3.666  0.00  0.00    -0.264 OA
ATOM      8  C   LIG    1       23.706 -18.550   3.728  0.00  0.00    +0.119 C 
ENDROOT
BRANCH   5   9
ATOM      9  C   LIG    1       24.660 -15.050   3.574  0.00  0.00    +0.067 A 
ATOM     10  C   LIG    1       23.807 -13.937   3.486  0.00  0.00    +0.028 A 
ATOM     11  C   LIG    1       24.228 -12.738   2.902  0.00  0.00    +0.002 A 
ATOM     12  C   LIG    1       25.507 -12.635   2.372  0.00  0.00    +0.000 A 
ATOM     13  C   LIG    1       26.367 -13.724   2.439  0.00  0.00    +0.002 A 
ATOM     14  C   LIG    1       25.951 -14.913   3.046  0.00  0.00    +0.028 A 
ENDBRANCH   5   9
BRANCH   8  15
ATOM     15  N   LIG    1       23.983 -19.868   3.369  0.00  0.00    -0.306 N 
ATOM     16  C   LIG    1       24.672 -20.168   2.115  0.00  0.00    +0.131 C 
BRANCH  15  17
ATOM     17  C   LIG    1       24.175 -20.921   4.420  0.00  0.00    +0.305 C 
BRANCH  17  18
ATOM     18  S   LIG    1       23.162 -20.976   5.953  0.00  0.00    +0.096 S 
ATOM     19  O   LIG    1       23.966 -21.464   7.062  0.00  0.00    -0.146 OA
ATOM     20  O   LIG    1       21.883 -21.562   5.652  0.00  0.00    -0.146 OA
BRANCH  18  21
ATOM     21  O   LIG    1       22.936 -19.393   6.197  0.00  0.00    -0.253 OA
ATOM     22  H   LIG    1       21.962 -19.210   6.254  0.00  0.00    +0.244 HD
ENDBRANCH  18  21
ENDBRANCH  17  18
ENDBRANCH  15  17
ENDBRANCH   8  15
TORSDOF 5
ENDMDL
