MODEL 1
REMARK VINA RESULT:      -8.5      0.000      0.000
REMARK  Name = *****
REMARK                            x       y       z     vdW  Elec       q    Type
REMARK                         _______ _______ _______ _____ _____    ______ ____
ROOT
ATOM      1  C   LIG    1       29.719 -20.163   7.204  0.00  0.00    +0.273 A 
ATOM      2  C   LIG    1       28.887 -20.981   7.971  0.00  0.00    +0.085 A 
ATOM      3  C   LIG    1       27.537 -21.110   7.625  0.00  0.00    +0.015 A 
ATOM      4  C   LIG    1       26.990 -20.444   6.510  0.00  0.00    -0.018 A 
ATOM      5  C   LIG    1       27.860 -19.633   5.753  0.00  0.00    +0.015 A 
ATOM      6  C   LIG    1       29.211 -19.484   6.093  0.00  0.00    +0.085 A 
ENDROOT
BRANCH   4   7
ATOM      7  C   LIG    1       25.557 -20.590   6.146  0.00  0.00    -0.018 A 
ATOM      8  C   LIG    1       24.574 -20.852   7.119  0.00  0.00    +0.008 A 
ATOM      9  C   LIG    1       23.223 -20.981   6.780  0.00  0.00    +0.001 A 
ATOM     10  C   LIG    1       22.824 -20.866   5.453  0.00  0.00    +0.000 A 
ATOM     11  C   LIG    1       23.773 -20.615   4.468  0.00  0.00    +0.001 A 
ATOM     12  C   LIG    1       25.121 -20.471   4.813  0.00  0.00    +0.008 A 
ENDBRANCH   4   7
BRANCH   1  14
ATOM     13  O   LIG    1       31.563 -20.689   8.509  0.00  0.00    +0.041 OA
ATOM     14  N   LIG    1       31.134 -20.015   7.563  0.00  0.00    +0.080 N 
ATOM     15  O   LIG    1       31.819 -19.225   6.895  0.00  0.00    -0.576 OA
ENDBRANCH   1  14
TORSDOF 2
ENDMDL
MODEL 2
REMARK VINA RESULT:      -8.5      0.009      1.247
REMARK  Name = *****
REMARK                            x       y       z     vdW  Elec       q    Type
REMARK                         _______ _______ _______ _____ _____    ______ ____
ROOT
ATOM      1  C   LIG    1       29.718 -20.157   7.205  0.00  0.00    +0.273 A 
ATOM      2  C   LIG    1       29.210 -19.484   6.091  0.00  0.00    +0.085 A 
ATOM      3  C   LIG    1       27.861 -19.632   5.751  0.00  0.00    +0.015 A 
ATOM      4  C   LIG    1       26.988 -20.436   6.512  0.00  0.00    -0.018 A 
ATOM      5  C   LIG    1       27.532 -21.093   7.634  0.00  0.00    +0.015 A 
ATOM      6  C   LIG    1       28.882 -20.965   7.980  0.00  0.00    +0.085 A 
ENDROOT
BRANCH   4   7
ATOM      7  C   LIG    1       25.556 -20.584   6.147  0.00  0.00    -0.018 A 
ATOM      8  C   LIG    1       24.571 -20.845   7.119  0.00  0.00    +0.008 A 
ATOM      9  C   LIG    1       23.221 -20.977   6.778  0.00  0.00    +0.001 A 
ATOM     10  C   LIG    1       22.823 -20.864   5.451  0.00  0.00    +0.000 A 
ATOM     11  C   LIG    1       23.773 -20.614   4.467  0.00  0.00    +0.001 A 
ATOM     12  C   LIG    1       25.121 -20.468   4.813  0.00  0.00    +0.008 A 
ENDBRANCH   4   7
BRANCH   1  14
ATOM     13  O   LIG    1       31.558 -20.683   8.515  0.00  0.00    +0.041 OA
ATOM     14  N   LIG    1       31.133 -20.014   7.565  0.00  0.00    +0.080 N 
ATOM     15  O   LIG    1       31.822 -19.230   6.893  0.00  0.00    -0.576 OA
ENDBRANCH   1  14
TORSDOF 2
ENDMDL
MODEL 3
REMARK VINA RESULT:      -8.2      1.546      1.939
REMARK  Name = *****
REMARK                            x       y       z     vdW  Elec       q    Type
REMARK                         _______ _______ _______ _____ _____    ______ ____
ROOT
ATOM      1  C   LIG    1       29.212 -20.124   6.849  0.00  0.00    +0.273 A 
ATOM      2  C   LIG    1       28.962 -21.149   7.765  0.00  0.00    +0.085 A 
ATOM      3  C   LIG    1       27.714 -21.783   7.768  0.00  0.00    +0.015 A 
ATOM      4  C   LIG    1       26.698 -21.425   6.858  0.00  0.00    -0.018 A 
ATOM      5  C   LIG    1       26.988 -20.394   5.943  0.00  0.00    +0.015 A 
ATOM      6  C   LIG    1       28.227 -19.741   5.935  0.00  0.00    +0.085 A 
ENDROOT
BRANCH   4   7
ATOM      7  C   LIG    1       25.378 -22.106   6.864  0.00  0.00    -0.018 A 
ATOM      8  C   LIG    1       25.260 -23.485   6.608  0.00  0.00    +0.008 A 
ATOM      9  C   LIG    1       24.019 -24.129   6.621  0.00  0.00    +0.001 A 
ATOM     10  C   LIG    1       22.860 -23.405   6.878  0.00  0.00    +0.000 A 
ATOM     11  C   LIG    1       22.943 -22.040   7.127  0.00  0.00    +0.001 A 
ATOM     12  C   LIG    1       24.188 -21.402   7.128  0.00  0.00    +0.008 A 
ENDBRANCH   4   7
BRANCH   1  14
ATOM     13  O   LIG    1       31.420 -19.935   7.535  0.00  0.00    +0.041 OA
ATOM     14  N   LIG    1       30.514 -19.449   6.844  0.00  0.00    +0.080 N 
ATOM     15  O   LIG    1       30.632 -18.430   6.146  0.00  0.00    -0.576 OA
ENDBRANCH   1  14
TORSDOF 2
ENDMDL
MODEL 4
REMARK VINA RESULT:      -8.0      4.426      6.041
REMARK  Name = *****
REMARK                            x       y       z     vdW  Elec       q    Type
REMARK                         _______ _______ _______ _____ _____    ______ ____
ROOT
ATOM      1  C   LIG    1       24.429 -23.152   6.683  0.00  0.00    +0.273 A 
ATOM      2  C   LIG    1       25.651 -23.527   7.246  0.00  0.00    +0.085 A 
ATOM      3  C   LIG    1       26.713 -22.614   7.262  0.00  0.00    +0.015 A 
ATOM      4  C   LIG    1       26.581 -21.313   6.736  0.00  0.00    -0.018 A 
ATOM      5  C   LIG    1       25.331 -20.966   6.184  0.00  0.00    +0.015 A 
ATOM      6  C   LIG    1       24.263 -21.871   6.148  0.00  0.00    +0.085 A 
ENDROOT
BRANCH   4   7
ATOM      7  C   LIG    1       27.710 -20.349   6.761  0.00  0.00    -0.018 A 
ATOM      8  C   LIG    1       28.430 -20.089   7.943  0.00  0.00    +0.008 A 
ATOM      9  C   LIG    1       29.499 -19.188   7.967  0.00  0.00    +0.001 A 
ATOM     10  C   LIG    1       29.866 -18.511   6.809  0.00  0.00    +0.000 A 
ATOM     11  C   LIG    1       29.170 -18.741   5.628  0.00  0.00    +0.001 A 
ATOM     12  C   LIG    1       28.110 -19.655   5.604  0.00  0.00    +0.008 A 
ENDBRANCH   4   7
BRANCH   1  14
ATOM     13  O   LIG    1       22.167 -23.655   6.785  0.00  0.00    +0.041 OA
ATOM     14  N   LIG    1       23.313 -24.104   6.655  0.00  0.00    +0.080 N 
ATOM     15  O   LIG    1       23.585 -25.305   6.499  0.00  0.00    -0.576 OA
ENDBRANCH   1  14
TORSDOF 2
ENDMDL
MODEL 5
REMARK VINA RESULT:      -7.7      4.303      6.408
REMARK  Name = *****
REMARK                            x       y       z     vdW  Elec       q    Type
REMARK                         _______ _______ _______ _____ _____    ______ ____
ROOT
ATOM      1  C   LIG    1       24.239 -20.628   5.927  0.00  0.00    +0.273 A 
ATOM      2  C   LIG    1       25.164 -20.320   4.927  0.00  0.00    +0.085 A 
ATOM      3  C   LIG    1       26.513 -20.160   5.260  0.00  0.00    +0.015 A 
ATOM      4  C   LIG    1       26.974 -20.313   6.584  0.00  0.00    -0.018 A 
ATOM      5  C   LIG    1       26.015 -20.632   7.566  0.00  0.00    +0.015 A 
ATOM      6  C   LIG    1       24.659 -20.784   7.251  0.00  0.00    +0.085 A 
ENDROOT
BRANCH   4   7
ATOM      7  C   LIG    1       28.409 -20.145   6.929  0.00  0.00    -0.018 A 
ATOM      8  C   LIG    1       29.201 -19.151   6.323  0.00  0.00    +0.008 A 
ATOM      9  C   LIG    1       30.550 -18.987   6.653  0.00  0.00    +0.001 A 
ATOM     10  C   LIG    1       31.146 -19.825   7.588  0.00  0.00    +0.000 A 
ATOM     11  C   LIG    1       30.392 -20.822   8.198  0.00  0.00    +0.001 A 
ATOM     12  C   LIG    1       29.039 -20.973   7.877  0.00  0.00    +0.008 A 
ENDBRANCH   4   7
BRANCH   1  14
ATOM     13  O   LIG    1       22.241 -19.837   5.054  0.00  0.00    +0.041 OA
ATOM     14  N   LIG    1       22.821 -20.791   5.589  0.00  0.00    +0.080 N 
ATOM     15  O   LIG    1       22.286 -21.879   5.856  0.00  0.00    -0.576 OA
ENDBRANCH   1  14
TORSDOF 2
ENDMDL
MODEL 6
REMARK VINA RESULT:      -7.6      4.362      6.272
REMARK  Name = *****
REMARK                            x       y       z     vdW  Elec       q    Type
REMARK                         _______ _______ _______ _____ _____    ______ ____
ROOT
ATOM      1  C   LIG    1       24.109 -20.621   5.766  0.00  0.00    +0.273 A 
ATOM      2  C   LIG    1       24.507 -20.806   7.092  0.00  0.00    +0.085 A 
ATOM      3  C   LIG    1       25.858 -20.667   7.432  0.00  0.00    +0.015 A 
ATOM      4  C   LIG    1       26.834 -20.331   6.472  0.00  0.00    -0.018 A 
ATOM      5  C   LIG    1       26.395 -20.143   5.146  0.00  0.00    +0.015 A 
ATOM      6  C   LIG    1       25.050 -20.290   4.787  0.00  0.00    +0.085 A 
ENDROOT
BRANCH   4   7
ATOM      7  C   LIG    1       28.265 -20.181   6.842  0.00  0.00    -0.018 A 
ATOM      8  C   LIG    1       29.084 -19.210   6.237  0.00  0.00    +0.008 A 
ATOM      9  C   LIG    1       30.429 -19.062   6.590  0.00  0.00    +0.001 A 
ATOM     10  C   LIG    1       30.993 -19.895   7.551  0.00  0.00    +0.000 A 
ATOM     11  C   LIG    1       30.211 -20.868   8.162  0.00  0.00    +0.001 A 
ATOM     12  C   LIG    1       28.862 -21.003   7.817  0.00  0.00    +0.008 A 
ENDBRANCH   4   7
BRANCH   1  14
ATOM     13  O   LIG    1       22.124 -21.821   5.720  0.00  0.00    +0.041 OA
ATOM     14  N   LIG    1       22.696 -20.771   5.398  0.00  0.00    +0.080 N 
ATOM     15  O   LIG    1       22.157 -19.835   4.788  0.00  0.00    -0.576 OA
ENDBRANCH   1  14
TORSDOF 2
ENDMDL
MODEL 7
REMARK VINA RESULT:      -7.6      4.199      6.150
REMARK  Name = *****
REMARK                            x       y       z     vdW  Elec       q    Type
REMARK                         _______ _______ _______ _____ _____    ______ ____
ROOT
ATOM      1  C   LIG    1       24.447 -20.691   6.228  0.00  0.00    +0.273 A 
ATOM      2  C   LIG    1       24.864 -20.809   7.556  0.00  0.00    +0.085 A 
ATOM      3  C   LIG    1       26.220 -20.656   7.870  0.00  0.00    +0.015 A 
ATOM      4  C   LIG    1       27.183 -20.371   6.881  0.00  0.00    -0.018 A 
ATOM      5  C   LIG    1       26.725 -20.251   5.553  0.00  0.00    +0.015 A 
ATOM      6  C   LIG    1       25.375 -20.414   5.221  0.00  0.00    +0.085 A 
ENDROOT
BRANCH   4   7
ATOM      7  C   LIG    1       28.618 -20.205   7.223  0.00  0.00    -0.018 A 
ATOM      8  C   LIG    1       29.287 -21.121   8.057  0.00  0.00    +0.008 A 
ATOM      9  C   LIG    1       30.641 -20.970   8.373  0.00  0.00    +0.001 A 
ATOM     10  C   LIG    1       31.358 -19.888   7.873  0.00  0.00    +0.000 A 
ATOM     11  C   LIG    1       30.723 -18.963   7.053  0.00  0.00    +0.001 A 
ATOM     12  C   LIG    1       29.372 -19.125   6.726  0.00  0.00    +0.008 A 
ENDBRANCH   4   7
BRANCH   1  14
ATOM     13  O   LIG    1       22.522 -21.974   6.059  0.00  0.00    +0.041 OA
ATOM     14  N   LIG    1       23.029 -20.858   5.889  0.00  0.00    +0.080 N 
ATOM     15  O   LIG    1       22.422 -19.868   5.452  0.00  0.00    -0.576 OA
ENDBRANCH   1  14
TORSDOF 2
ENDMDL
MODEL 8
REMARK VINA RESULT:      -7.5      4.260      6.261
REMARK  Name = *****
REMARK                            x       y       z     vdW  Elec       q    Type
REMARK                         _______ _______ _______ _____ _____    ______ ____
ROOT
ATOM      1  C   LIG    1       24.411 -21.626   6.451  0.00  0.00    +0.273 A 
ATOM      2  C   LIG    1       25.121 -22.016   7.589  0.00  0.00    +0.085 A 
ATOM      3  C   LIG    1       26.446 -21.595   7.754  0.00  0.00    +0.015 A 
ATOM      4  C   LIG    1       27.087 -20.773   6.805  0.00  0.00    -0.018 A 
ATOM      5  C   LIG    1       26.338 -20.392   5.674  0.00  0.00    +0.015 A 
ATOM      6  C   LIG    1       25.016 -20.815   5.487  0.00  0.00    +0.085 A 
ENDROOT
BRANCH   4   7
ATOM      7  C   LIG    1       28.491 -20.327   6.990  0.00  0.00    -0.018 A 
ATOM      8  C   LIG    1       29.036 -19.275   6.230  0.00  0.00    +0.008 A 
ATOM      9  C   LIG    1       30.356 -18.848   6.408  0.00  0.00    +0.001 A 
ATOM     10  C   LIG    1       31.170 -19.475   7.345  0.00  0.00    +0.000 A 
ATOM     11  C   LIG    1       30.663 -20.521   8.107  0.00  0.00    +0.001 A 
ATOM     12  C   LIG    1       29.338 -20.936   7.936  0.00  0.00    +0.008 A 
ENDBRANCH   4   7
BRANCH   1  14
ATOM     13  O   LIG    1       22.289 -21.379   5.547  0.00  0.00    +0.041 OA
ATOM     14  N   LIG    1       23.025 -22.069   6.266  0.00  0.00    +0.080 N 
ATOM     15  O   LIG    1       22.671 -23.110   6.840  0.00  0.00    -0.576 OA
ENDBRANCH   1  14
TORSDOF 2
ENDMDL
MODEL 9
REMARK VINA RESULT:      -7.4      4.622      5.132
REMARK  Name = *****
REMARK                            x       y       z     vdW  Elec       q    Type
REMARK                         _______ _______ _______ _____ _____    ______ ____
ROOT
ATOM      1  C   LIG    1       25.827 -25.126   6.088  0.00  0.00    +0.273 A 
ATOM      2  C   LIG    1       25.959 -24.045   6.963  0.00  0.00    +0.085 A 
ATOM      3  C   LIG    1       25.395 -22.809   6.622  0.00  0.00    +0.015 A 
ATOM      4  C   LIG    1       24.683 -22.625   5.420  0.00  0.00    -0.018 A 
ATOM      5  C   LIG    1       24.562 -23.740   4.566  0.00  0.00    +0.015 A 
ATOM      6  C   LIG    1       25.131 -24.979   4.886  0.00  0.00    +0.085 A 
ENDROOT
BRANCH   4   7
ATOM      7  C   LIG    1       24.084 -21.312   5.069  0.00  0.00    -0.018 A 
ATOM      8  C   LIG    1       23.012 -20.771   5.804  0.00  0.00    +0.008 A 
ATOM      9  C   LIG    1       22.453 -19.531   5.478  0.00  0.00    +0.001 A 
ATOM     10  C   LIG    1       22.944 -18.806   4.398  0.00  0.00    +0.000 A 
ATOM     11  C   LIG    1       23.997 -19.318   3.649  0.00  0.00    +0.001 A 
ATOM     12  C   LIG    1       24.564 -20.551   3.986  0.00  0.00    +0.008 A 
ENDBRANCH   4   7
BRANCH   1  14
ATOM     13  O   LIG    1       25.990 -27.007   7.437  0.00  0.00    +0.041 OA
ATOM     14  N   LIG    1       26.421 -26.423   6.433  0.00  0.00    +0.080 N 
ATOM     15  O   LIG    1       27.319 -26.859   5.697  0.00  0.00    -0.576 OA
ENDBRANCH   1  14
TORSDOF 2
ENDMDL
