MODEL 1
REMARK VINA RESULT:      -9.3      0.000      0.000
REMARK  Name = *****
REMARK                            x       y       z     vdW  Elec       q    Type
REMARK                         _______ _______ _______ _____ _____    ______ ____
ROOT
ATOM      1  C   LIG    1       24.339 -21.960   7.396  0.00  0.00    +0.153 A 
ATOM      2  C   LIG    1       25.479 -22.712   7.092  0.00  0.00    +0.085 A 
ATOM      3  C   LIG    1       26.658 -22.041   7.557  0.00  0.00    +0.228 A 
ATOM      4  N   LIG    1       26.639 -20.905   8.288  0.00  0.00    -0.201 NA
ATOM      5  C   LIG    1       25.461 -20.364   8.562  0.00  0.00    +0.227 A 
ATOM      6  N   LIG    1       24.293 -20.821   8.118  0.00  0.00    -0.219 NA
ENDROOT
BRANCH   2   7
ATOM      7  C   LIG    1       25.371 -24.074   6.421  0.00  0.00    -0.009 A 
ATOM      8  C   LIG    1       25.136 -24.493   5.143  0.00  0.00    +0.010 A 
ATOM      9  C   LIG    1       25.108 -25.877   4.753  0.00  0.00    +0.016 A 
ATOM     10  C   LIG    1       25.315 -26.909   5.661  0.00  0.00    +0.018 A 
ATOM     11 BR   LIG    1       25.394 -28.719   5.182  0.00  0.00    -0.050 Br
ATOM     12  C   LIG    1       25.691 -26.544   6.901  0.00  0.00    +0.016 A 
ATOM     13  C   LIG    1       25.889 -25.173   7.030  0.00  0.00    +0.010 A 
ENDBRANCH   2   7
BRANCH   1  14
ATOM     14  N   LIG    1       23.129 -22.193   6.700  0.00  0.00    -0.189 N 
ATOM     15  H   LIG    1       22.496 -22.885   7.074  0.00  0.00    +0.176 HD
BRANCH  14  16
ATOM     16  S   LIG    1       22.612 -21.132   5.555  0.00  0.00    +0.110 S 
ATOM     17  O   LIG    1       21.481 -21.596   4.879  0.00  0.00    -0.138 OA
ATOM     18  O   LIG    1       22.775 -19.759   6.068  0.00  0.00    -0.138 OA
BRANCH  16  19
ATOM     19  N   LIG    1       23.859 -21.339   4.432  0.00  0.00    -0.177 NA
ATOM     20  H   LIG    1       23.546 -22.181   3.940  0.00  0.00    +0.149 HD
BRANCH  19  21
ATOM     21  C   LIG    1       23.948 -20.294   3.402  0.00  0.00    +0.107 C 
BRANCH  21  23
ATOM     22  C   LIG    1       26.074 -19.911   4.758  0.00  0.00    +0.005 C 
ATOM     23  C   LIG    1       25.207 -19.450   3.596  0.00  0.00    +0.013 C 
ENDBRANCH  21  23
ENDBRANCH  19  21
ENDBRANCH  16  19
ENDBRANCH  14  16
ENDBRANCH   1  14
BRANCH   3  24
ATOM     24  O   LIG    1       27.987 -22.304   7.325  0.00  0.00    -0.472 OA
BRANCH  24  25
ATOM     25  C   LIG    1       28.794 -21.209   7.024  0.00  0.00    +0.271 C 
BRANCH  25  26
ATOM     26  C   LIG    1       29.995 -20.742   7.762  0.00  0.00    +0.273 C 
BRANCH  26  27
ATOM     27  O   LIG    1       30.537 -19.479   7.408  0.00  0.00    -0.459 OA
BRANCH  27  28
ATOM     28  C   LIG    1       30.800 -18.593   8.437  0.00  0.00    +0.318 A 
ATOM     29  N   LIG    1       29.983 -18.512   9.511  0.00  0.00    -0.202 NA
ATOM     30  C   LIG    1       30.458 -17.891  10.610  0.00  0.00    +0.133 A 
ATOM     31  C   LIG    1       31.609 -17.158  10.584  0.00  0.00    +0.054 A 
ATOM     32 BR   LIG    1       32.184 -16.172  12.071  0.00  0.00    -0.047 Br
ATOM     33  C   LIG    1       32.274 -17.159   9.376  0.00  0.00    +0.133 A 
ATOM     34  N   LIG    1       31.922 -17.898   8.301  0.00  0.00    -0.202 NA
ENDBRANCH  27  28
ENDBRANCH  26  27
ENDBRANCH  25  26
ENDBRANCH  24  25
ENDBRANCH   3  24
TORSDOF 11
ENDMDL
MODEL 2
REMARK VINA RESULT:      -8.2      2.813      4.764
REMARK  Name = *****
REMARK                            x       y       z     vdW  Elec       q    Type
REMARK                         _______ _______ _______ _____ _____    ______ ____
ROOT
ATOM      1  C   LIG    1       26.244 -22.016   6.762  0.00  0.00    +0.153 A 
ATOM      2  C   LIG    1       26.362 -20.781   6.113  0.00  0.00    +0.085 A 
ATOM      3  C   LIG    1       27.684 -20.252   6.282  0.00  0.00    +0.228 A 
ATOM      4  N   LIG    1       28.691 -20.921   6.884  0.00  0.00    -0.201 NA
ATOM      5  C   LIG    1       28.430 -22.124   7.375  0.00  0.00    +0.227 A 
ATOM      6  N   LIG    1       27.231 -22.701   7.376  0.00  0.00    -0.219 NA
ENDROOT
BRANCH   2   7
ATOM      7  C   LIG    1       25.209 -20.201   5.305  0.00  0.00    -0.009 A 
ATOM      8  C   LIG    1       25.049 -19.830   4.000  0.00  0.00    +0.010 A 
ATOM      9  C   LIG    1       23.817 -19.318   3.466  0.00  0.00    +0.016 A 
ATOM     10  C   LIG    1       22.679 -19.154   4.247  0.00  0.00    +0.018 A 
ATOM     11 BR   LIG    1       21.023 -18.593   3.573  0.00  0.00    -0.050 Br
ATOM     12  C   LIG    1       22.744 -19.638   5.501  0.00  0.00    +0.016 A 
ATOM     13  C   LIG    1       23.936 -20.304   5.768  0.00  0.00    +0.010 A 
ENDBRANCH   2   7
BRANCH   1  14
ATOM     14  N   LIG    1       24.965 -22.527   7.086  0.00  0.00    -0.189 N 
ATOM     15  H   LIG    1       24.323 -21.919   7.573  0.00  0.00    +0.176 HD
BRANCH  14  16
ATOM     16  S   LIG    1       24.421 -23.910   6.382  0.00  0.00    +0.110 S 
ATOM     17  O   LIG    1       23.164 -24.286   6.861  0.00  0.00    -0.138 OA
ATOM     18  O   LIG    1       24.805 -23.903   4.958  0.00  0.00    -0.138 OA
BRANCH  16  19
ATOM     19  N   LIG    1       25.473 -25.007   7.123  0.00  0.00    -0.177 NA
ATOM     20  H   LIG    1       24.814 -25.600   7.634  0.00  0.00    +0.149 HD
BRANCH  19  21
ATOM     21  C   LIG    1       26.180 -25.909   6.202  0.00  0.00    +0.107 C 
BRANCH  21  23
ATOM     22  C   LIG    1       24.312 -27.560   5.665  0.00  0.00    +0.005 C 
ATOM     23  C   LIG    1       25.657 -27.338   6.339  0.00  0.00    +0.013 C 
ENDBRANCH  21  23
ENDBRANCH  19  21
ENDBRANCH  16  19
ENDBRANCH  14  16
ENDBRANCH   1  14
BRANCH   3  24
ATOM     24  O   LIG    1       28.195 -19.012   5.985  0.00  0.00    -0.472 OA
BRANCH  24  25
ATOM     25  C   LIG    1       29.543 -18.811   6.273  0.00  0.00    +0.271 C 
BRANCH  25  26
ATOM     26  C   LIG    1       30.121 -18.104   7.445  0.00  0.00    +0.273 C 
BRANCH  26  27
ATOM     27  O   LIG    1       31.156 -18.756   8.164  0.00  0.00    -0.459 OA
BRANCH  27  28
ATOM     28  C   LIG    1       31.528 -18.206   9.377  0.00  0.00    +0.318 A 
ATOM     29  N   LIG    1       32.617 -17.412   9.476  0.00  0.00    -0.202 NA
ATOM     30  C   LIG    1       32.735 -16.650  10.583  0.00  0.00    +0.133 A 
ATOM     31  C   LIG    1       31.936 -16.834  11.674  0.00  0.00    +0.054 A 
ATOM     32 BR   LIG    1       32.203 -15.879  13.264  0.00  0.00    -0.047 Br
ATOM     33  C   LIG    1       30.967 -17.804  11.530  0.00  0.00    +0.133 A 
ATOM     34  N   LIG    1       30.708 -18.474  10.385  0.00  0.00    -0.202 NA
ENDBRANCH  27  28
ENDBRANCH  26  27
ENDBRANCH  25  26
ENDBRANCH  24  25
ENDBRANCH   3  24
TORSDOF 11
ENDMDL
MODEL 3
REMARK VINA RESULT:      -7.5      6.391      9.325
REMARK  Name = *****
REMARK                            x       y       z     vdW  Elec       q    Type
REMARK                         _______ _______ _______ _____ _____    ______ ____
ROOT
ATOM      1  C   LIG    1       24.544 -30.316   7.808  0.00  0.00    +0.153 A 
ATOM      2  C   LIG    1       25.302 -29.252   8.309  0.00  0.00    +0.085 A 
ATOM      3  C   LIG    1       25.385 -28.198   7.341  0.00  0.00    +0.228 A 
ATOM      4  N   LIG    1       24.720 -28.201   6.165  0.00  0.00    -0.201 NA
ATOM      5  C   LIG    1       23.972 -29.258   5.880  0.00  0.00    +0.227 A 
ATOM      6  N   LIG    1       23.875 -30.348   6.636  0.00  0.00    -0.219 NA
ENDROOT
BRANCH   2   7
ATOM      7  C   LIG    1       25.858 -29.278   9.727  0.00  0.00    -0.009 A 
ATOM      8  C   LIG    1       25.297 -29.304  10.972  0.00  0.00    +0.010 A 
ATOM      9  C   LIG    1       26.064 -29.352  12.187  0.00  0.00    +0.016 A 
ATOM     10  C   LIG    1       27.454 -29.369  12.188  0.00  0.00    +0.018 A 
ATOM     11 BR   LIG    1       28.494 -29.538  13.739  0.00  0.00    -0.050 Br
ATOM     12  C   LIG    1       28.049 -29.489  10.986  0.00  0.00    +0.016 A 
ATOM     13  C   LIG    1       27.143 -29.660   9.945  0.00  0.00    +0.010 A 
ENDBRANCH   2   7
BRANCH   1  14
ATOM     14  N   LIG    1       24.658 -31.603   8.385  0.00  0.00    -0.189 N 
ATOM     15  H   LIG    1       25.581 -32.005   8.463  0.00  0.00    +0.176 HD
BRANCH  14  16
ATOM     16  S   LIG    1       23.401 -32.252   9.223  0.00  0.00    +0.110 S 
ATOM     17  O   LIG    1       22.588 -33.053   8.418  0.00  0.00    -0.138 OA
ATOM     18  O   LIG    1       23.867 -32.624  10.572  0.00  0.00    -0.138 OA
BRANCH  16  19
ATOM     19  N   LIG    1       22.484 -30.847   9.440  0.00  0.00    -0.177 NA
ATOM     20  H   LIG    1       21.984 -30.797   8.549  0.00  0.00    +0.149 HD
BRANCH  19  21
ATOM     21  C   LIG    1       21.441 -30.938  10.471  0.00  0.00    +0.107 C 
BRANCH  21  23
ATOM     22  C   LIG    1       22.208 -30.581  12.877  0.00  0.00    +0.005 C 
ATOM     23  C   LIG    1       21.703 -29.937  11.595  0.00  0.00    +0.013 C 
ENDBRANCH  21  23
ENDBRANCH  19  21
ENDBRANCH  16  19
ENDBRANCH  14  16
ENDBRANCH   1  14
BRANCH   3  24
ATOM     24  O   LIG    1       26.159 -27.063   7.319  0.00  0.00    -0.472 OA
BRANCH  24  25
ATOM     25  C   LIG    1       25.722 -26.029   6.494  0.00  0.00    +0.271 C 
BRANCH  25  26
ATOM     26  C   LIG    1       25.920 -24.570   6.693  0.00  0.00    +0.273 C 
BRANCH  26  27
ATOM     27  O   LIG    1       24.872 -23.841   7.315  0.00  0.00    -0.459 OA
BRANCH  27  28
ATOM     28  C   LIG    1       24.481 -22.659   6.714  0.00  0.00    +0.318 A 
ATOM     29  N   LIG    1       24.715 -22.434   5.402  0.00  0.00    -0.202 NA
ATOM     30  C   LIG    1       24.030 -21.435   4.809  0.00  0.00    +0.133 A 
ATOM     31  C   LIG    1       23.315 -20.523   5.530  0.00  0.00    +0.054 A 
ATOM     32 BR   LIG    1       22.493 -19.049   4.715  0.00  0.00    -0.047 Br
ATOM     33  C   LIG    1       23.294 -20.743   6.891  0.00  0.00    +0.133 A 
ATOM     34  N   LIG    1       23.826 -21.821   7.508  0.00  0.00    -0.202 NA
ENDBRANCH  27  28
ENDBRANCH  26  27
ENDBRANCH  25  26
ENDBRANCH  24  25
ENDBRANCH   3  24
TORSDOF 11
ENDMDL
MODEL 4
REMARK VINA RESULT:      -7.3      3.598      8.472
REMARK  Name = *****
REMARK                            x       y       z     vdW  Elec       q    Type
REMARK                         _______ _______ _______ _____ _____    ______ ____
ROOT
ATOM      1  C   LIG    1       23.727 -21.900   6.306  0.00  0.00    +0.153 A 
ATOM      2  C   LIG    1       25.003 -22.418   6.554  0.00  0.00    +0.085 A 
ATOM      3  C   LIG    1       24.923 -23.815   6.865  0.00  0.00    +0.228 A 
ATOM      4  N   LIG    1       23.782 -24.536   6.804  0.00  0.00    -0.201 NA
ATOM      5  C   LIG    1       22.667 -23.904   6.468  0.00  0.00    +0.227 A 
ATOM      6  N   LIG    1       22.572 -22.596   6.246  0.00  0.00    -0.219 NA
ENDROOT
BRANCH   2   7
ATOM      7  C   LIG    1       26.247 -21.551   6.417  0.00  0.00    -0.009 A 
ATOM      8  C   LIG    1       26.580 -20.474   5.645  0.00  0.00    +0.010 A 
ATOM      9  C   LIG    1       27.848 -19.802   5.727  0.00  0.00    +0.016 A 
ATOM     10  C   LIG    1       28.849 -20.204   6.604  0.00  0.00    +0.018 A 
ATOM     11 BR   LIG    1       30.473 -19.296   6.821  0.00  0.00    -0.050 Br
ATOM     12  C   LIG    1       28.516 -21.168   7.482  0.00  0.00    +0.016 A 
ATOM     13  C   LIG    1       27.178 -21.537   7.407  0.00  0.00    +0.010 A 
ENDBRANCH   2   7
BRANCH   1  14
ATOM     14  N   LIG    1       23.499 -20.506   6.384  0.00  0.00    -0.189 N 
ATOM     15  H   LIG    1       24.051 -19.974   7.042  0.00  0.00    +0.176 HD
BRANCH  14  16
ATOM     16  S   LIG    1       22.647 -19.736   5.207  0.00  0.00    +0.110 S 
ATOM     17  O   LIG    1       21.703 -20.572   4.607  0.00  0.00    -0.138 OA
ATOM     18  O   LIG    1       22.382 -18.351   5.638  0.00  0.00    -0.138 OA
BRANCH  16  19
ATOM     19  N   LIG    1       23.868 -19.615   4.043  0.00  0.00    -0.177 NA
ATOM     20  H   LIG    1       23.420 -20.063   3.239  0.00  0.00    +0.149 HD
BRANCH  19  21
ATOM     21  C   LIG    1       24.179 -18.246   3.607  0.00  0.00    +0.107 C 
BRANCH  21  23
ATOM     22  C   LIG    1       26.196 -16.709   3.337  0.00  0.00    +0.005 C 
ATOM     23  C   LIG    1       25.651 -18.124   3.220  0.00  0.00    +0.013 C 
ENDBRANCH  21  23
ENDBRANCH  19  21
ENDBRANCH  16  19
ENDBRANCH  14  16
ENDBRANCH   1  14
BRANCH   3  24
ATOM     24  O   LIG    1       25.876 -24.680   7.347  0.00  0.00    -0.472 OA
BRANCH  24  25
ATOM     25  C   LIG    1       26.119 -25.823   6.588  0.00  0.00    +0.271 C 
BRANCH  25  26
ATOM     26  C   LIG    1       25.905 -27.237   6.992  0.00  0.00    +0.273 C 
BRANCH  26  27
ATOM     27  O   LIG    1       24.659 -27.835   6.668  0.00  0.00    -0.459 OA
BRANCH  27  28
ATOM     28  C   LIG    1       24.666 -29.182   6.358  0.00  0.00    +0.318 A 
ATOM     29  N   LIG    1       25.427 -29.660   5.349  0.00  0.00    -0.202 NA
ATOM     30  C   LIG    1       25.648 -30.991   5.311  0.00  0.00    +0.133 A 
ATOM     31  C   LIG    1       24.948 -31.861   6.096  0.00  0.00    +0.054 A 
ATOM     32 BR   LIG    1       25.148 -33.717   5.931  0.00  0.00    -0.047 Br
ATOM     33  C   LIG    1       24.057 -31.272   6.968  0.00  0.00    +0.133 A 
ATOM     34  N   LIG    1       23.924 -29.940   7.155  0.00  0.00    -0.202 NA
ENDBRANCH  27  28
ENDBRANCH  26  27
ENDBRANCH  25  26
ENDBRANCH  24  25
ENDBRANCH   3  24
TORSDOF 11
ENDMDL
MODEL 5
REMARK VINA RESULT:      -7.3      3.740      8.921
REMARK  Name = *****
REMARK                            x       y       z     vdW  Elec       q    Type
REMARK                         _______ _______ _______ _____ _____    ______ ____
ROOT
ATOM      1  C   LIG    1       26.358 -21.168   7.333  0.00  0.00    +0.153 A 
ATOM      2  C   LIG    1       25.350 -21.634   6.481  0.00  0.00    +0.085 A 
ATOM      3  C   LIG    1       25.148 -23.041   6.669  0.00  0.00    +0.228 A 
ATOM      4  N   LIG    1       25.768 -23.770   7.622  0.00  0.00    -0.201 NA
ATOM      5  C   LIG    1       26.639 -23.152   8.407  0.00  0.00    +0.227 A 
ATOM      6  N   LIG    1       26.997 -21.876   8.288  0.00  0.00    -0.219 NA
ENDROOT
BRANCH   2   7
ATOM      7  C   LIG    1       24.586 -20.684   5.570  0.00  0.00    -0.009 A 
ATOM      8  C   LIG    1       24.813 -20.164   4.327  0.00  0.00    +0.010 A 
ATOM      9  C   LIG    1       23.896 -19.282   3.656  0.00  0.00    +0.016 A 
ATOM     10  C   LIG    1       22.695 -18.882   4.230  0.00  0.00    +0.018 A 
ATOM     11 BR   LIG    1       21.422 -17.823   3.353  0.00  0.00    -0.050 Br
ATOM     12  C   LIG    1       22.361 -19.479   5.389  0.00  0.00    +0.016 A 
ATOM     13  C   LIG    1       23.259 -20.471   5.770  0.00  0.00    +0.010 A 
ENDBRANCH   2   7
BRANCH   1  14
ATOM     14  N   LIG    1       27.012 -19.945   7.056  0.00  0.00    -0.189 N 
ATOM     15  H   LIG    1       26.506 -19.089   7.232  0.00  0.00    +0.176 HD
BRANCH  14  16
ATOM     16  S   LIG    1       28.638 -19.908   6.814  0.00  0.00    +0.110 S 
ATOM     17  O   LIG    1       29.162 -21.179   6.563  0.00  0.00    -0.138 OA
ATOM     18  O   LIG    1       28.979 -18.697   6.046  0.00  0.00    -0.138 OA
BRANCH  16  19
ATOM     19  N   LIG    1       29.127 -19.584   8.400  0.00  0.00    -0.177 NA
ATOM     20  H   LIG    1       29.239 -20.531   8.771  0.00  0.00    +0.149 HD
BRANCH  19  21
ATOM     21  C   LIG    1       30.450 -18.954   8.526  0.00  0.00    +0.107 C 
BRANCH  21  23
ATOM     22  C   LIG    1       30.313 -17.490  10.610  0.00  0.00    +0.005 C 
ATOM     23  C   LIG    1       30.323 -17.540   9.090  0.00  0.00    +0.013 C 
ENDBRANCH  21  23
ENDBRANCH  19  21
ENDBRANCH  16  19
ENDBRANCH  14  16
ENDBRANCH   1  14
BRANCH   3  24
ATOM     24  O   LIG    1       24.411 -23.943   5.941  0.00  0.00    -0.472 OA
BRANCH  24  25
ATOM     25  C   LIG    1       25.126 -24.806   5.113  0.00  0.00    +0.271 C 
BRANCH  25  26
ATOM     26  C   LIG    1       24.988 -26.281   5.011  0.00  0.00    +0.273 C 
BRANCH  26  27
ATOM     27  O   LIG    1       24.326 -26.957   6.070  0.00  0.00    -0.459 OA
BRANCH  27  28
ATOM     28  C   LIG    1       24.453 -28.333   6.119  0.00  0.00    +0.318 A 
ATOM     29  N   LIG    1       25.021 -29.016   5.100  0.00  0.00    -0.202 NA
ATOM     30  C   LIG    1       25.414 -30.284   5.343  0.00  0.00    +0.133 A 
ATOM     31  C   LIG    1       25.046 -30.949   6.477  0.00  0.00    +0.054 A 
ATOM     32 BR   LIG    1       25.465 -32.757   6.738  0.00  0.00    -0.047 Br
ATOM     33  C   LIG    1       24.306 -30.208   7.374  0.00  0.00    +0.133 A 
ATOM     34  N   LIG    1       24.032 -28.891   7.247  0.00  0.00    -0.202 NA
ENDBRANCH  27  28
ENDBRANCH  26  27
ENDBRANCH  25  26
ENDBRANCH  24  25
ENDBRANCH   3  24
TORSDOF 11
ENDMDL
MODEL 6
REMARK VINA RESULT:      -7.1      7.027     10.224
REMARK  Name = *****
REMARK                            x       y       z     vdW  Elec       q    Type
REMARK                         _______ _______ _______ _____ _____    ______ ____
ROOT
ATOM      1  C   LIG    1       24.944 -31.769   7.465  0.00  0.00    +0.153 A 
ATOM      2  C   LIG    1       24.410 -30.542   7.876  0.00  0.00    +0.085 A 
ATOM      3  C   LIG    1       24.577 -29.555   6.849  0.00  0.00    +0.228 A 
ATOM      4  N   LIG    1       25.074 -29.822   5.622  0.00  0.00    -0.201 NA
ATOM      5  C   LIG    1       25.459 -31.065   5.366  0.00  0.00    +0.227 A 
ATOM      6  N   LIG    1       25.451 -32.060   6.249  0.00  0.00    -0.219 NA
ENDROOT
BRANCH   2   7
ATOM      7  C   LIG    1       23.705 -30.398   9.218  0.00  0.00    -0.009 A 
ATOM      8  C   LIG    1       22.538 -30.878   9.740  0.00  0.00    +0.010 A 
ATOM      9  C   LIG    1       22.098 -30.607  11.082  0.00  0.00    +0.016 A 
ATOM     10  C   LIG    1       22.833 -29.820  11.961  0.00  0.00    +0.018 A 
ATOM     11 BR   LIG    1       22.355 -29.528  13.749  0.00  0.00    -0.050 Br
ATOM     12  C   LIG    1       24.055 -29.443  11.541  0.00  0.00    +0.016 A 
ATOM     13  C   LIG    1       24.402 -29.990  10.310  0.00  0.00    +0.010 A 
ENDBRANCH   2   7
BRANCH   1  14
ATOM     14  N   LIG    1       25.267 -32.758   8.423  0.00  0.00    -0.189 N 
ATOM     15  H   LIG    1       24.593 -33.493   8.589  0.00  0.00    +0.176 HD
BRANCH  14  16
ATOM     16  S   LIG    1       26.811 -32.915   8.967  0.00  0.00    +0.110 S 
ATOM     17  O   LIG    1       27.549 -33.824   8.205  0.00  0.00    -0.138 OA
ATOM     18  O   LIG    1       27.302 -31.592   9.396  0.00  0.00    -0.138 OA
BRANCH  16  19
ATOM     19  N   LIG    1       26.495 -33.759  10.397  0.00  0.00    -0.177 NA
ATOM     20  H   LIG    1       27.001 -33.189  11.080  0.00  0.00    +0.149 HD
BRANCH  19  21
ATOM     21  C   LIG    1       25.091 -33.740  10.834  0.00  0.00    +0.107 C 
BRANCH  21  23
ATOM     22  C   LIG    1       23.633 -33.406  12.900  0.00  0.00    +0.005 C 
ATOM     23  C   LIG    1       24.968 -33.124  12.227  0.00  0.00    +0.013 C 
ENDBRANCH  21  23
ENDBRANCH  19  21
ENDBRANCH  16  19
ENDBRANCH  14  16
ENDBRANCH   1  14
BRANCH   3  24
ATOM     24  O   LIG    1       24.380 -28.196   6.875  0.00  0.00    -0.472 OA
BRANCH  24  25
ATOM     25  C   LIG    1       24.826 -27.482   5.765  0.00  0.00    +0.271 C 
BRANCH  25  26
ATOM     26  C   LIG    1       24.322 -26.175   5.269  0.00  0.00    +0.273 C 
BRANCH  26  27
ATOM     27  O   LIG    1       23.594 -25.362   6.177  0.00  0.00    -0.459 OA
BRANCH  27  28
ATOM     28  C   LIG    1       24.168 -24.161   6.551  0.00  0.00    +0.318 A 
ATOM     29  N   LIG    1       23.404 -23.105   6.907  0.00  0.00    -0.202 NA
ATOM     30  C   LIG    1       24.005 -22.095   7.570  0.00  0.00    +0.133 A 
ATOM     31  C   LIG    1       25.363 -22.007   7.673  0.00  0.00    +0.054 A 
ATOM     32 BR   LIG    1       26.197 -20.525   8.460  0.00  0.00    -0.047 Br
ATOM     33  C   LIG    1       26.060 -23.055   7.110  0.00  0.00    +0.133 A 
ATOM     34  N   LIG    1       25.495 -24.165   6.584  0.00  0.00    -0.202 NA
ENDBRANCH  27  28
ENDBRANCH  26  27
ENDBRANCH  25  26
ENDBRANCH  24  25
ENDBRANCH   3  24
TORSDOF 11
ENDMDL
MODEL 7
REMARK VINA RESULT:      -7.1      6.914     10.020
REMARK  Name = *****
REMARK                            x       y       z     vdW  Elec       q    Type
REMARK                         _______ _______ _______ _____ _____    ______ ____
ROOT
ATOM      1  C   LIG    1       25.760 -30.591  10.991  0.00  0.00    +0.153 A 
ATOM      2  C   LIG    1       24.611 -30.050  10.403  0.00  0.00    +0.085 A 
ATOM      3  C   LIG    1       24.709 -30.101   8.974  0.00  0.00    +0.228 A 
ATOM      4  N   LIG    1       25.722 -30.698   8.309  0.00  0.00    -0.201 NA
ATOM      5  C   LIG    1       26.698 -31.240   9.024  0.00  0.00    +0.227 A 
ATOM      6  N   LIG    1       26.788 -31.187  10.351  0.00  0.00    -0.219 NA
ENDROOT
BRANCH   2   7
ATOM      7  C   LIG    1       23.443 -29.568  11.253  0.00  0.00    -0.009 A 
ATOM      8  C   LIG    1       22.192 -30.048  11.518  0.00  0.00    +0.010 A 
ATOM      9  C   LIG    1       21.262 -29.397  12.400  0.00  0.00    +0.016 A 
ATOM     10  C   LIG    1       21.565 -28.210  13.055  0.00  0.00    +0.018 A 
ATOM     11 BR   LIG    1       20.429 -27.382  14.294  0.00  0.00    -0.050 Br
ATOM     12  C   LIG    1       22.833 -27.773  12.938  0.00  0.00    +0.016 A 
ATOM     13  C   LIG    1       23.650 -28.653  12.235  0.00  0.00    +0.010 A 
ENDBRANCH   2   7
BRANCH   1  14
ATOM     14  N   LIG    1       26.080 -30.288  12.335  0.00  0.00    -0.189 N 
ATOM     15  H   LIG    1       25.673 -30.865  13.058  0.00  0.00    +0.176 HD
BRANCH  14  16
ATOM     16  S   LIG    1       27.337 -29.288  12.685  0.00  0.00    +0.110 S 
ATOM     17  O   LIG    1       28.487 -29.993  13.048  0.00  0.00    -0.138 OA
ATOM     18  O   LIG    1       27.316 -28.149  11.748  0.00  0.00    -0.138 OA
BRANCH  16  19
ATOM     19  N   LIG    1       26.771 -28.668  14.153  0.00  0.00    -0.177 NA
ATOM     20  H   LIG    1       27.294 -29.237  14.824  0.00  0.00    +0.149 HD
BRANCH  19  21
ATOM     21  C   LIG    1       27.159 -27.277  14.432  0.00  0.00    +0.107 C 
BRANCH  21  23
ATOM     22  C   LIG    1       25.765 -25.399  13.415  0.00  0.00    +0.005 C 
ATOM     23  C   LIG    1       25.924 -26.388  14.560  0.00  0.00    +0.013 C 
ENDBRANCH  21  23
ENDBRANCH  19  21
ENDBRANCH  16  19
ENDBRANCH  14  16
ENDBRANCH   1  14
BRANCH   3  24
ATOM     24  O   LIG    1       23.922 -29.530   8.003  0.00  0.00    -0.472 OA
BRANCH  24  25
ATOM     25  C   LIG    1       24.568 -29.131   6.835  0.00  0.00    +0.271 C 
BRANCH  25  26
ATOM     26  C   LIG    1       25.109 -27.784   6.518  0.00  0.00    +0.273 C 
BRANCH  26  27
ATOM     27  O   LIG    1       24.199 -26.799   6.054  0.00  0.00    -0.459 OA
BRANCH  27  28
ATOM     28  C   LIG    1       24.399 -25.500   6.483  0.00  0.00    +0.318 A 
ATOM     29  N   LIG    1       25.641 -25.043   6.760  0.00  0.00    -0.202 NA
ATOM     30  C   LIG    1       25.808 -23.707   6.846  0.00  0.00    +0.133 A 
ATOM     31  C   LIG    1       24.747 -22.849   6.900  0.00  0.00    +0.054 A 
ATOM     32 BR   LIG    1       24.981 -21.010   7.174  0.00  0.00    -0.047 Br
ATOM     33  C   LIG    1       23.509 -23.445   6.792  0.00  0.00    +0.133 A 
ATOM     34  N   LIG    1       23.302 -24.756   6.539  0.00  0.00    -0.202 NA
ENDBRANCH  27  28
ENDBRANCH  26  27
ENDBRANCH  25  26
ENDBRANCH  24  25
ENDBRANCH   3  24
TORSDOF 11
ENDMDL
MODEL 8
REMARK VINA RESULT:      -7.1      7.446     10.462
REMARK  Name = *****
REMARK                            x       y       z     vdW  Elec       q    Type
REMARK                         _______ _______ _______ _____ _____    ______ ____
ROOT
ATOM      1  C   LIG    1       25.027 -31.673  11.223  0.00  0.00    +0.153 A 
ATOM      2  C   LIG    1       24.488 -30.486  10.712  0.00  0.00    +0.085 A 
ATOM      3  C   LIG    1       25.186 -30.092   9.524  0.00  0.00    +0.228 A 
ATOM      4  N   LIG    1       26.145 -30.837   8.931  0.00  0.00    -0.201 NA
ATOM      5  C   LIG    1       26.480 -31.984   9.504  0.00  0.00    +0.227 A 
ATOM      6  N   LIG    1       25.987 -32.432  10.656  0.00  0.00    -0.219 NA
ENDROOT
BRANCH   2   7
ATOM      7  C   LIG    1       23.282 -29.822  11.362  0.00  0.00    -0.009 A 
ATOM      8  C   LIG    1       21.957 -30.139  11.464  0.00  0.00    +0.010 A 
ATOM      9  C   LIG    1       21.001 -29.334  12.174  0.00  0.00    +0.016 A 
ATOM     10  C   LIG    1       21.354 -28.153  12.816  0.00  0.00    +0.018 A 
ATOM     11 BR   LIG    1       20.167 -27.127  13.841  0.00  0.00    -0.050 Br
ATOM     12  C   LIG    1       22.670 -27.873  12.865  0.00  0.00    +0.016 A 
ATOM     13  C   LIG    1       23.462 -28.881  12.325  0.00  0.00    +0.010 A 
ENDBRANCH   2   7
BRANCH   1  14
ATOM     14  N   LIG    1       24.796 -32.034  12.571  0.00  0.00    -0.189 N 
ATOM     15  H   LIG    1       24.091 -32.731  12.759  0.00  0.00    +0.176 HD
BRANCH  14  16
ATOM     16  S   LIG    1       25.875 -31.614  13.739  0.00  0.00    +0.110 S 
ATOM     17  O   LIG    1       25.320 -30.747  14.683  0.00  0.00    -0.138 OA
ATOM     18  O   LIG    1       26.703 -32.789  14.069  0.00  0.00    -0.138 OA
BRANCH  16  19
ATOM     19  N   LIG    1       26.875 -30.609  12.817  0.00  0.00    -0.177 NA
ATOM     20  H   LIG    1       26.347 -30.553  11.941  0.00  0.00    +0.149 HD
BRANCH  19  21
ATOM     21  C   LIG    1       26.981 -29.224  13.299  0.00  0.00    +0.107 C 
BRANCH  21  23
ATOM     22  C   LIG    1       26.856 -26.789  12.554  0.00  0.00    +0.005 C 
ATOM     23  C   LIG    1       26.982 -28.243  12.129  0.00  0.00    +0.013 C 
ENDBRANCH  21  23
ENDBRANCH  19  21
ENDBRANCH  16  19
ENDBRANCH  14  16
ENDBRANCH   1  14
BRANCH   3  24
ATOM     24  O   LIG    1       25.131 -28.925   8.799  0.00  0.00    -0.472 OA
BRANCH  24  25
ATOM     25  C   LIG    1       24.886 -29.052   7.434  0.00  0.00    +0.271 C 
BRANCH  25  26
ATOM     26  C   LIG    1       25.237 -28.088   6.360  0.00  0.00    +0.273 C 
BRANCH  26  27
ATOM     27  O   LIG    1       24.229 -27.189   5.924  0.00  0.00    -0.459 OA
BRANCH  27  28
ATOM     28  C   LIG    1       24.431 -25.844   6.172  0.00  0.00    +0.318 A 
ATOM     29  N   LIG    1       23.389 -24.985   6.240  0.00  0.00    -0.202 NA
ATOM     30  C   LIG    1       23.611 -23.780   6.804  0.00  0.00    +0.133 A 
ATOM     31  C   LIG    1       24.871 -23.332   7.078  0.00  0.00    +0.054 A 
ATOM     32 BR   LIG    1       25.183 -21.599   7.719  0.00  0.00    -0.047 Br
ATOM     33  C   LIG    1       25.882 -24.227   6.797  0.00  0.00    +0.133 A 
ATOM     34  N   LIG    1       25.694 -25.501   6.387  0.00  0.00    -0.202 NA
ENDBRANCH  27  28
ENDBRANCH  26  27
ENDBRANCH  25  26
ENDBRANCH  24  25
ENDBRANCH   3  24
TORSDOF 11
ENDMDL
MODEL 9
REMARK VINA RESULT:      -7.0      3.599      8.105
REMARK  Name = *****
REMARK                            x       y       z     vdW  Elec       q    Type
REMARK                         _______ _______ _______ _____ _____    ______ ____
ROOT
ATOM      1  C   LIG    1       23.648 -21.052   5.747  0.00  0.00    +0.153 A 
ATOM      2  C   LIG    1       24.786 -21.639   6.312  0.00  0.00    +0.085 A 
ATOM      3  C   LIG    1       24.467 -22.929   6.851  0.00  0.00    +0.228 A 
ATOM      4  N   LIG    1       23.262 -23.525   6.717  0.00  0.00    -0.201 NA
ATOM      5  C   LIG    1       22.311 -22.861   6.075  0.00  0.00    +0.227 A 
ATOM      6  N   LIG    1       22.433 -21.622   5.606  0.00  0.00    -0.219 NA
ENDROOT
BRANCH   2   7
ATOM      7  C   LIG    1       26.143 -20.953   6.248  0.00  0.00    -0.009 A 
ATOM      8  C   LIG    1       26.806 -20.236   5.293  0.00  0.00    +0.010 A 
ATOM      9  C   LIG    1       28.106 -19.655   5.495  0.00  0.00    +0.016 A 
ATOM     10  C   LIG    1       28.800 -19.786   6.692  0.00  0.00    +0.018 A 
ATOM     11 BR   LIG    1       30.446 -18.960   7.039  0.00  0.00    -0.050 Br
ATOM     12  C   LIG    1       28.130 -20.360   7.709  0.00  0.00    +0.016 A 
ATOM     13  C   LIG    1       26.806 -20.651   7.394  0.00  0.00    +0.010 A 
ENDBRANCH   2   7
BRANCH   1  14
ATOM     14  N   LIG    1       23.604 -19.655   5.529  0.00  0.00    -0.189 N 
ATOM     15  H   LIG    1       24.028 -19.056   6.222  0.00  0.00    +0.176 HD
BRANCH  14  16
ATOM     16  S   LIG    1       23.216 -19.058   4.047  0.00  0.00    +0.110 S 
ATOM     17  O   LIG    1       23.665 -19.882   3.012  0.00  0.00    -0.138 OA
ATOM     18  O   LIG    1       21.871 -18.456   4.113  0.00  0.00    -0.138 OA
BRANCH  16  19
ATOM     19  N   LIG    1       24.287 -17.751   4.008  0.00  0.00    -0.177 NA
ATOM     20  H   LIG    1       24.613 -17.731   4.978  0.00  0.00    +0.149 HD
BRANCH  19  21
ATOM     21  C   LIG    1       25.494 -17.960   3.194  0.00  0.00    +0.107 C 
BRANCH  21  23
ATOM     22  C   LIG    1       25.955 -15.460   3.401  0.00  0.00    +0.005 C 
ATOM     23  C   LIG    1       26.526 -16.868   3.469  0.00  0.00    +0.013 C 
ENDBRANCH  21  23
ENDBRANCH  19  21
ENDBRANCH  16  19
ENDBRANCH  14  16
ENDBRANCH   1  14
BRANCH   3  24
ATOM     24  O   LIG    1       25.204 -23.773   7.647  0.00  0.00    -0.472 OA
BRANCH  24  25
ATOM     25  C   LIG    1       25.957 -24.745   6.991  0.00  0.00    +0.271 C 
BRANCH  25  26
ATOM     26  C   LIG    1       25.477 -25.744   6.003  0.00  0.00    +0.273 C 
BRANCH  26  27
ATOM     27  O   LIG    1       24.466 -26.650   6.418  0.00  0.00    -0.459 OA
BRANCH  27  28
ATOM     28  C   LIG    1       24.784 -27.995   6.418  0.00  0.00    +0.318 A 
ATOM     29  N   LIG    1       24.619 -28.749   7.529  0.00  0.00    -0.202 NA
ATOM     30  C   LIG    1       24.624 -30.090   7.378  0.00  0.00    +0.133 A 
ATOM     31  C   LIG    1       25.020 -30.684   6.215  0.00  0.00    +0.054 A 
ATOM     32 BR   LIG    1       25.173 -32.545   6.062  0.00  0.00    -0.047 Br
ATOM     33  C   LIG    1       25.346 -29.813   5.197  0.00  0.00    +0.133 A 
ATOM     34  N   LIG    1       25.197 -28.471   5.250  0.00  0.00    -0.202 NA
ENDBRANCH  27  28
ENDBRANCH  26  27
ENDBRANCH  25  26
ENDBRANCH  24  25
ENDBRANCH   3  24
TORSDOF 11
ENDMDL
