MODEL 1
REMARK VINA RESULT:       4.3      0.000      0.000
REMARK  Name = *****
REMARK                            x       y       z     vdW  Elec       q    Type
REMARK                         _______ _______ _______ _____ _____    ______ ____
ROOT
ATOM      1  CA  LIG    1       25.735 -21.098   4.349  0.00  0.00    +0.191 C 
ATOM      2  C   LIG    1       26.490 -19.977   3.567  0.00  0.00    +0.169 C 
ATOM      3  N   LIG    1       27.382 -19.859   4.707  0.00  0.00    -0.249 N 
ATOM      4  CA  LIG    1       28.045 -18.718   5.114  0.00  0.00    +0.123 C 
ATOM      5  C   LIG    1       27.817 -17.511   4.524  0.00  0.00    -0.021 C 
ATOM      6  C   LIG    1       26.848 -17.318   3.376  0.00  0.00    +0.104 C 
ATOM      7  S   LIG    1       25.496 -18.491   3.301  0.00  0.00    -0.131 S 
ATOM      8  C   LIG    1       26.771 -20.812   5.464  0.00  0.00    +0.244 C 
ATOM      9  O   LIG    1       26.865 -21.141   6.633  0.00  0.00    -0.273 OA
ENDROOT
BRANCH   1  11
ATOM     10  C   LIG    1       23.992 -20.390   5.997  0.00  0.00    +0.218 C 
ATOM     11  N   LIG    1       24.320 -20.806   4.734  0.00  0.00    -0.301 N 
ATOM     12  H   LIG    1       23.673 -20.548   3.987  0.00  0.00    +0.149 HD
ATOM     13  O   LIG    1       24.835 -20.304   6.890  0.00  0.00    -0.275 OA
BRANCH  10  14
ATOM     14  C   LIG    1       22.530 -20.061   6.265  0.00  0.00    +0.131 C 
BRANCH  14  16
ATOM     15  C   LIG    1       21.784 -18.218   4.630  0.00  0.00    -0.030 A 
ATOM     16  C   LIG    1       21.701 -19.550   5.100  0.00  0.00    -0.034 A 
ATOM     17  C   LIG    1       20.810 -20.443   4.471  0.00  0.00    +0.004 A 
ATOM     18  C   LIG    1       19.957 -20.019   3.453  0.00  0.00    +0.000 A 
ATOM     19  C   LIG    1       20.003 -18.701   3.019  0.00  0.00    +0.000 A 
ATOM     20  C   LIG    1       20.920 -17.816   3.589  0.00  0.00    +0.005 A 
BRANCH  15  21
ATOM     21  C   LIG    1       22.728 -17.189   5.220  0.00  0.00    +0.113 C 
BRANCH  21  22
ATOM     22  N   LIG    1       22.762 -15.951   4.449  0.00  0.00    -0.326 NA
ATOM     23  H   LIG    1       22.606 -15.154   5.069  0.00  0.00    +0.118 HD
ATOM     24  H   LIG    1       21.948 -15.919   3.832  0.00  0.00    +0.118 HD
ENDBRANCH  21  22
ENDBRANCH  15  21
ENDBRANCH  14  16
ENDBRANCH  10  14
ENDBRANCH   1  11
BRANCH   4  25
ATOM     25  C   LIG    1       29.050 -18.916   6.227  0.00  0.00    +0.351 C 
ATOM     26  O   LIG    1       29.413 -18.109   7.061  0.00  0.00    -0.244 OA
BRANCH  25  27
ATOM     27  OXT LIG    1       29.467 -20.186   6.373  0.00  0.00    -0.476 OA
ATOM     28  HXT LIG    1       29.024 -20.449   7.208  0.00  0.00    +0.295 HD
ENDBRANCH  25  27
ENDBRANCH   4  25
BRANCH   5  29
ATOM     29  C   LIG    1       28.402 -16.172   5.000  0.00  0.00    +0.111 C 
BRANCH  29  30
ATOM     30  S   LIG    1       28.189 -14.862   3.724  0.00  0.00    -0.080 S 
BRANCH  30  31
ATOM     31  C   LIG    1       27.032 -13.831   4.498  0.00  0.00    +0.210 A 
ATOM     32  N   LIG    1       26.041 -13.085   3.899  0.00  0.00    -0.209 N 
ATOM     33  N   LIG    1       25.309 -12.497   4.872  0.00  0.00    -0.043 NA
ATOM     34  N   LIG    1       25.842 -12.893   6.016  0.00  0.00    -0.022 NA
ATOM     35  N   LIG    1       26.907 -13.726   5.801  0.00  0.00    -0.102 NA
BRANCH  32  36
ATOM     36  C   LIG    1       25.499 -13.099   2.554  0.00  0.00    +0.268 C 
BRANCH  36  37
ATOM     37  C   LIG    1       24.011 -12.853   2.472  0.00  0.00    +0.327 C 
ATOM     38  O   LIG    1       23.092 -13.632   2.647  0.00  0.00    -0.249 OA
BRANCH  37  39
ATOM     39  O   LIG    1       23.742 -11.562   2.152  0.00  0.00    -0.479 OA
ATOM     40  H   LIG    1       23.245 -11.601   1.303  0.00  0.00    +0.295 HD
ENDBRANCH  37  39
ENDBRANCH  36  37
ENDBRANCH  32  36
ENDBRANCH  30  31
ENDBRANCH  29  30
ENDBRANCH   5  29
TORSDOF 13
ENDMDL
MODEL 2
REMARK VINA RESULT:       4.5      2.771      6.409
REMARK  Name = *****
REMARK                            x       y       z     vdW  Elec       q    Type
REMARK                         _______ _______ _______ _____ _____    ______ ____
ROOT
ATOM      1  CA  LIG    1       27.959 -17.197   4.034  0.00  0.00    +0.191 C 
ATOM      2  C   LIG    1       28.113 -18.564   4.772  0.00  0.00    +0.169 C 
ATOM      3  N   LIG    1       26.967 -19.039   4.018  0.00  0.00    -0.249 N 
ATOM      4  CA  LIG    1       26.053 -19.990   4.427  0.00  0.00    +0.123 C 
ATOM      5  C   LIG    1       26.079 -20.508   5.688  0.00  0.00    -0.021 C 
ATOM      6  C   LIG    1       27.104 -20.110   6.729  0.00  0.00    +0.104 C 
ATOM      7  S   LIG    1       27.789 -18.464   6.548  0.00  0.00    -0.131 S 
ATOM      8  C   LIG    1       26.750 -17.875   3.344  0.00  0.00    +0.244 C 
ATOM      9  O   LIG    1       25.835 -17.467   2.650  0.00  0.00    -0.273 OA
ENDROOT
BRANCH   1  11
ATOM     10  C   LIG    1       27.676 -14.739   4.398  0.00  0.00    +0.218 C 
ATOM     11  N   LIG    1       27.601 -16.018   4.882  0.00  0.00    -0.301 N 
ATOM     12  H   LIG    1       26.957 -16.175   5.658  0.00  0.00    +0.149 HD
ATOM     13  O   LIG    1       28.104 -14.496   3.271  0.00  0.00    -0.275 OA
BRANCH  10  14
ATOM     14  C   LIG    1       27.230 -13.617   5.326  0.00  0.00    +0.131 C 
BRANCH  14  16
ATOM     15  C   LIG    1       25.438 -12.786   3.675  0.00  0.00    -0.030 A 
ATOM     16  C   LIG    1       25.927 -12.911   4.997  0.00  0.00    -0.034 A 
ATOM     17  C   LIG    1       25.183 -12.352   6.057  0.00  0.00    +0.004 A 
ATOM     18  C   LIG    1       24.023 -11.616   5.819  0.00  0.00    +0.000 A 
ATOM     19  C   LIG    1       23.564 -11.453   4.519  0.00  0.00    +0.000 A 
ATOM     20  C   LIG    1       24.254 -12.047   3.461  0.00  0.00    +0.005 A 
BRANCH  15  21
ATOM     21  C   LIG    1       26.148 -13.372   2.471  0.00  0.00    +0.113 C 
BRANCH  21  22
ATOM     22  N   LIG    1       25.486 -14.565   1.954  0.00  0.00    -0.326 NA
ATOM     23  H   LIG    1       26.177 -15.299   1.787  0.00  0.00    +0.118 HD
ATOM     24  H   LIG    1       25.132 -14.371   1.015  0.00  0.00    +0.118 HD
ENDBRANCH  21  22
ENDBRANCH  15  21
ENDBRANCH  14  16
ENDBRANCH  10  14
ENDBRANCH   1  11
BRANCH   4  25
ATOM     25  C   LIG    1       25.059 -20.426   3.375  0.00  0.00    +0.351 C 
ATOM     26  O   LIG    1       24.928 -19.997   2.244  0.00  0.00    -0.244 OA
BRANCH  25  27
ATOM     27  OXT LIG    1       24.344 -21.515   3.710  0.00  0.00    -0.476 OA
ATOM     28  HXT LIG    1       24.644 -22.167   3.040  0.00  0.00    +0.295 HD
ENDBRANCH  25  27
ENDBRANCH   4  25
BRANCH   5  29
ATOM     29  C   LIG    1       25.023 -21.461   6.270  0.00  0.00    +0.111 C 
BRANCH  29  30
ATOM     30  S   LIG    1       23.648 -20.528   7.062  0.00  0.00    -0.080 S 
BRANCH  30  31
ATOM     31  C   LIG    1       22.593 -20.283   5.710  0.00  0.00    +0.210 A 
ATOM     32  N   LIG    1       22.508 -19.169   4.903  0.00  0.00    -0.209 N 
ATOM     33  N   LIG    1       21.621 -19.430   3.916  0.00  0.00    -0.043 NA
ATOM     34  N   LIG    1       21.200 -20.667   4.125  0.00  0.00    -0.022 NA
ATOM     35  N   LIG    1       21.799 -21.212   5.228  0.00  0.00    -0.102 NA
BRANCH  32  36
ATOM     36  C   LIG    1       23.374 -18.016   4.753  0.00  0.00    +0.268 C 
BRANCH  36  37
ATOM     37  C   LIG    1       22.657 -16.687   4.757  0.00  0.00    +0.327 C 
ATOM     38  O   LIG    1       22.890 -15.685   4.105  0.00  0.00    -0.249 OA
BRANCH  37  39
ATOM     39  O   LIG    1       21.625 -16.687   5.638  0.00  0.00    -0.479 OA
ATOM     40  H   LIG    1       21.293 -15.761   5.653  0.00  0.00    +0.295 HD
ENDBRANCH  37  39
ENDBRANCH  36  37
ENDBRANCH  32  36
ENDBRANCH  30  31
ENDBRANCH  29  30
ENDBRANCH   5  29
TORSDOF 13
ENDMDL
MODEL 3
REMARK VINA RESULT:       5.8      1.845      2.071
REMARK  Name = *****
REMARK                            x       y       z     vdW  Elec       q    Type
REMARK                         _______ _______ _______ _____ _____    ______ ____
ROOT
ATOM      1  CA  LIG    1       25.979 -20.707   4.377  0.00  0.00    +0.191 C 
ATOM      2  C   LIG    1       26.579 -19.617   3.433  0.00  0.00    +0.169 C 
ATOM      3  N   LIG    1       27.479 -19.255   4.513  0.00  0.00    -0.249 N 
ATOM      4  CA  LIG    1       28.015 -18.005   4.749  0.00  0.00    +0.123 C 
ATOM      5  C   LIG    1       27.633 -16.916   4.023  0.00  0.00    -0.021 C 
ATOM      6  C   LIG    1       26.620 -16.981   2.900  0.00  0.00    +0.104 C 
ATOM      7  S   LIG    1       25.412 -18.298   3.025  0.00  0.00    -0.131 S 
ATOM      8  C   LIG    1       27.003 -20.167   5.406  0.00  0.00    +0.244 C 
ATOM      9  O   LIG    1       27.164 -20.331   6.602  0.00  0.00    -0.273 OA
ENDROOT
BRANCH   1  11
ATOM     10  C   LIG    1       24.169 -20.537   6.095  0.00  0.00    +0.218 C 
ATOM     11  N   LIG    1       24.550 -20.529   4.779  0.00  0.00    -0.301 N 
ATOM     12  H   LIG    1       23.938 -20.032   4.131  0.00  0.00    +0.149 HD
ATOM     13  O   LIG    1       24.972 -20.760   7.000  0.00  0.00    -0.275 OA
BRANCH  10  14
ATOM     14  C   LIG    1       22.698 -20.286   6.395  0.00  0.00    +0.131 C 
BRANCH  14  16
ATOM     15  C   LIG    1       21.796 -18.508   4.768  0.00  0.00    -0.030 A 
ATOM     16  C   LIG    1       21.813 -19.839   5.245  0.00  0.00    -0.034 A 
ATOM     17  C   LIG    1       20.972 -20.794   4.640  0.00  0.00    +0.004 A 
ATOM     18  C   LIG    1       20.071 -20.434   3.637  0.00  0.00    +0.000 A 
ATOM     19  C   LIG    1       20.019 -19.119   3.196  0.00  0.00    +0.000 A 
ATOM     20  C   LIG    1       20.885 -18.171   3.743  0.00  0.00    +0.005 A 
BRANCH  15  21
ATOM     21  C   LIG    1       22.680 -17.413   5.333  0.00  0.00    +0.113 C 
BRANCH  21  22
ATOM     22  N   LIG    1       22.700 -16.218   4.496  0.00  0.00    -0.326 NA
ATOM     23  H   LIG    1       21.904 -15.621   4.728  0.00  0.00    +0.118 HD
ATOM     24  H   LIG    1       22.506 -16.485   3.529  0.00  0.00    +0.118 HD
ENDBRANCH  21  22
ENDBRANCH  15  21
ENDBRANCH  14  16
ENDBRANCH  10  14
ENDBRANCH   1  11
BRANCH   4  25
ATOM     25  C   LIG    1       29.064 -17.945   5.837  0.00  0.00    +0.351 C 
ATOM     26  O   LIG    1       29.470 -16.966   6.433  0.00  0.00    -0.244 OA
BRANCH  25  27
ATOM     27  OXT LIG    1       29.475 -19.149   6.273  0.00  0.00    -0.476 OA
ATOM     28  HXT LIG    1       29.591 -19.639   5.431  0.00  0.00    +0.295 HD
ENDBRANCH  25  27
ENDBRANCH   4  25
BRANCH   5  29
ATOM     29  C   LIG    1       28.070 -15.470   4.307  0.00  0.00    +0.111 C 
BRANCH  29  30
ATOM     30  S   LIG    1       26.836 -14.596   5.356  0.00  0.00    -0.080 S 
BRANCH  30  31
ATOM     31  C   LIG    1       25.827 -13.872   4.149  0.00  0.00    +0.210 A 
ATOM     32  N   LIG    1       26.150 -12.841   3.294  0.00  0.00    -0.209 N 
ATOM     33  N   LIG    1       25.107 -12.646   2.455  0.00  0.00    -0.043 NA
ATOM     34  N   LIG    1       24.197 -13.544   2.794  0.00  0.00    -0.022 NA
ATOM     35  N   LIG    1       24.631 -14.317   3.838  0.00  0.00    -0.102 NA
BRANCH  32  36
ATOM     36  C   LIG    1       27.419 -12.226   2.957  0.00  0.00    +0.268 C 
BRANCH  36  37
ATOM     37  C   LIG    1       28.549 -12.556   3.902  0.00  0.00    +0.327 C 
ATOM     38  O   LIG    1       28.749 -12.151   5.034  0.00  0.00    -0.249 OA
BRANCH  37  39
ATOM     39  O   LIG    1       29.424 -13.428   3.340  0.00  0.00    -0.479 OA
ATOM     40  H   LIG    1       28.908 -13.912   2.656  0.00  0.00    +0.295 HD
ENDBRANCH  37  39
ENDBRANCH  36  37
ENDBRANCH  32  36
ENDBRANCH  30  31
ENDBRANCH  29  30
ENDBRANCH   5  29
TORSDOF 13
ENDMDL
