MODEL 1
REMARK VINA RESULT:      -7.2      0.000      0.000
REMARK  Name = *****
REMARK                            x       y       z     vdW  Elec       q    Type
REMARK                         _______ _______ _______ _____ _____    ______ ____
ROOT
ATOM      1  C   LIG    1       23.898 -20.869   4.510  0.00  0.00    +0.036 C 
ATOM      2  C   LIG    1       25.365 -21.937   4.872  0.00  0.00    +0.004 C 
ATOM      3  C   LIG    1       26.050 -22.227   6.708  0.00  0.00    +0.039 C 
ATOM      4  C   LIG    1       25.197 -22.042   7.900  0.00  0.00    +0.066 C 
ATOM      5  C   LIG    1       26.888 -22.491   8.444  0.00  0.00    +0.035 C 
ATOM      6  C   LIG    1       27.908 -21.511   7.377  0.00  0.00    +0.045 C 
ATOM      7  C   LIG    1       27.369 -20.862   5.854  0.00  0.00    +0.103 C 
ATOM      8  C   LIG    1       25.430 -20.567   6.008  0.00  0.00    +0.081 C 
ATOM      9  N   LIG    1       28.253 -19.690   5.658  0.00  0.00    -0.327 N 
ATOM     10  C   LIG    1       27.883 -18.536   4.881  0.00  0.00    +0.130 C 
ATOM     11  C   LIG    1       29.277 -19.720   6.616  0.00  0.00    +0.034 A 
ATOM     12  C   LIG    1       30.353 -18.850   6.695  0.00  0.00    +0.023 A 
ATOM     13  C   LIG    1       31.297 -19.015   7.716  0.00  0.00    +0.002 A 
ATOM     14  C   LIG    1       31.166 -20.043   8.661  0.00  0.00    +0.000 A 
ATOM     15  C   LIG    1       30.085 -20.920   8.608  0.00  0.00    +0.006 A 
ATOM     16  C   LIG    1       29.156 -20.748   7.594  0.00  0.00    -0.016 A 
ATOM     17  N   LIG    1       24.583 -20.536   7.233  0.00  0.00    -0.269 NA
ATOM     18  C   LIG    1       26.811 -20.685   7.708  0.00  0.00    +0.132 C 
ATOM     19  C   LIG    1       24.419 -22.265   5.802  0.00  0.00    +0.025 C 
ATOM     20  C   LIG    1       23.410 -20.281   6.204  0.00  0.00    +0.189 C 
ENDROOT
BRANCH   1  22
ATOM     21  C   LIG    1       23.206 -18.579   3.678  0.00  0.00    +0.004 C 
ATOM     22  C   LIG    1       24.113 -19.777   3.445  0.00  0.00    +0.004 C 
ENDBRANCH   1  22
BRANCH  18  23
ATOM     23  O   LIG    1       26.642 -20.375   9.125  0.00  0.00    -0.391 OA
ATOM     24  H   LIG    1       26.099 -19.566   9.155  0.00  0.00    +0.210 HD
ENDBRANCH  18  23
BRANCH  20  25
ATOM     25  O   LIG    1       22.206 -20.818   6.690  0.00  0.00    -0.377 OA
ATOM     26  H   LIG    1       22.455 -21.734   6.910  0.00  0.00    +0.211 HD
ENDBRANCH  20  25
TORSDOF 3
ENDMDL
MODEL 2
REMARK VINA RESULT:      -5.9     10.672     13.355
REMARK  Name = *****
REMARK                            x       y       z     vdW  Elec       q    Type
REMARK                         _______ _______ _______ _____ _____    ______ ____
ROOT
ATOM      1  C   LIG    1       24.372 -31.058  12.935  0.00  0.00    +0.036 C 
ATOM      2  C   LIG    1       23.320 -29.859  11.996  0.00  0.00    +0.004 C 
ATOM      3  C   LIG    1       22.897 -28.048  12.674  0.00  0.00    +0.039 C 
ATOM      4  C   LIG    1       23.747 -27.368  13.674  0.00  0.00    +0.066 C 
ATOM      5  C   LIG    1       22.313 -26.295  13.287  0.00  0.00    +0.035 C 
ATOM      6  C   LIG    1       20.968 -27.449  13.253  0.00  0.00    +0.045 C 
ATOM      7  C   LIG    1       21.170 -29.161  13.010  0.00  0.00    +0.103 C 
ATOM      8  C   LIG    1       22.941 -29.638  13.722  0.00  0.00    +0.081 C 
ATOM      9  N   LIG    1       19.967 -29.735  13.654  0.00  0.00    -0.327 N 
ATOM     10  C   LIG    1       19.917 -31.065  14.204  0.00  0.00    +0.130 C 
ATOM     11  C   LIG    1       19.075 -28.699  13.970  0.00  0.00    +0.034 A 
ATOM     12  C   LIG    1       17.800 -28.845  14.493  0.00  0.00    +0.023 A 
ATOM     13  C   LIG    1       17.030 -27.705  14.754  0.00  0.00    +0.002 A 
ATOM     14  C   LIG    1       17.533 -26.420  14.501  0.00  0.00    +0.000 A 
ATOM     15  C   LIG    1       18.817 -26.251  13.989  0.00  0.00    +0.006 A 
ATOM     16  C   LIG    1       19.571 -27.385  13.735  0.00  0.00    -0.016 A 
ATOM     17  N   LIG    1       23.835 -28.849  14.616  0.00  0.00    -0.269 NA
ATOM     18  C   LIG    1       21.794 -27.868  14.321  0.00  0.00    +0.132 C 
ATOM     19  C   LIG    1       24.391 -29.146  12.456  0.00  0.00    +0.025 C 
ATOM     20  C   LIG    1       24.795 -30.096  14.468  0.00  0.00    +0.189 C 
ENDROOT
BRANCH   1  22
ATOM     21  C   LIG    1       24.420 -33.501  12.268  0.00  0.00    +0.004 C 
ATOM     22  C   LIG    1       23.760 -32.455  13.154  0.00  0.00    +0.004 C 
ENDBRANCH   1  22
BRANCH  18  23
ATOM     23  O   LIG    1       21.974 -26.912  15.410  0.00  0.00    -0.391 OA
ATOM     24  H   LIG    1       22.730 -26.354  15.149  0.00  0.00    +0.210 HD
ENDBRANCH  18  23
BRANCH  20  25
ATOM     25  O   LIG    1       26.138 -29.693  14.559  0.00  0.00    -0.377 OA
ATOM     26  H   LIG    1       26.084 -28.898  15.119  0.00  0.00    +0.211 HD
ENDBRANCH  20  25
TORSDOF 3
ENDMDL
MODEL 3
REMARK VINA RESULT:      -5.7      9.623     11.778
REMARK  Name = *****
REMARK                            x       y       z     vdW  Elec       q    Type
REMARK                         _______ _______ _______ _____ _____    ______ ____
ROOT
ATOM      1  C   LIG    1       24.028 -31.569   7.714  0.00  0.00    +0.036 C 
ATOM      2  C   LIG    1       23.792 -30.342   9.080  0.00  0.00    +0.004 C 
ATOM      3  C   LIG    1       25.288 -29.307   9.860  0.00  0.00    +0.039 C 
ATOM      4  C   LIG    1       26.546 -29.070   9.121  0.00  0.00    +0.066 C 
ATOM      5  C   LIG    1       26.689 -28.323  10.788  0.00  0.00    +0.035 C 
ATOM      6  C   LIG    1       25.976 -29.568  11.829  0.00  0.00    +0.045 C 
ATOM      7  C   LIG    1       24.887 -30.800  11.254  0.00  0.00    +0.103 C 
ATOM      8  C   LIG    1       25.352 -31.148   9.374  0.00  0.00    +0.081 C 
ATOM      9  N   LIG    1       25.062 -31.888  12.243  0.00  0.00    -0.327 N 
ATOM     10  C   LIG    1       24.832 -33.278  11.945  0.00  0.00    +0.130 C 
ATOM     11  C   LIG    1       25.817 -31.412  13.325  0.00  0.00    +0.034 A 
ATOM     12  C   LIG    1       26.107 -32.102  14.490  0.00  0.00    +0.023 A 
ATOM     13  C   LIG    1       26.878 -31.483  15.482  0.00  0.00    +0.002 A 
ATOM     14  C   LIG    1       27.364 -30.179  15.309  0.00  0.00    +0.000 A 
ATOM     15  C   LIG    1       27.095 -29.472  14.139  0.00  0.00    +0.006 A 
ATOM     16  C   LIG    1       26.333 -30.094  13.164  0.00  0.00    -0.016 A 
ATOM     17  N   LIG    1       26.579 -30.756   8.626  0.00  0.00    -0.269 NA
ATOM     18  C   LIG    1       26.715 -30.275  10.853  0.00  0.00    +0.132 C 
ATOM     19  C   LIG    1       24.620 -29.744   8.174  0.00  0.00    +0.025 C 
ATOM     20  C   LIG    1       25.861 -31.478   7.417  0.00  0.00    +0.189 C 
ENDROOT
BRANCH   1  22
ATOM     21  C   LIG    1       22.903 -33.595   6.693  0.00  0.00    +0.004 C 
ATOM     22  C   LIG    1       23.447 -32.973   7.970  0.00  0.00    +0.004 C 
ENDBRANCH   1  22
BRANCH  18  23
ATOM     23  O   LIG    1       28.152 -30.015  10.821  0.00  0.00    -0.391 OA
ATOM     24  H   LIG    1       28.439 -30.004  11.752  0.00  0.00    +0.210 HD
ENDBRANCH  18  23
BRANCH  20  25
ATOM     25  O   LIG    1       26.230 -30.879   6.200  0.00  0.00    -0.377 OA
ATOM     26  H   LIG    1       26.633 -31.620   5.712  0.00  0.00    +0.211 HD
ENDBRANCH  20  25
TORSDOF 3
ENDMDL
MODEL 4
REMARK VINA RESULT:      -5.7     10.220     13.051
REMARK  Name = *****
REMARK                            x       y       z     vdW  Elec       q    Type
REMARK                         _______ _______ _______ _____ _____    ______ ____
ROOT
ATOM      1  C   LIG    1       24.943 -30.315  10.650  0.00  0.00    +0.036 C 
ATOM      2  C   LIG    1       23.957 -31.168  11.963  0.00  0.00    +0.004 C 
ATOM      3  C   LIG    1       22.089 -31.763  11.682  0.00  0.00    +0.039 C 
ATOM      4  C   LIG    1       21.543 -32.018  10.333  0.00  0.00    +0.066 C 
ATOM      5  C   LIG    1       20.217 -32.284  11.569  0.00  0.00    +0.035 C 
ATOM      6  C   LIG    1       20.442 -30.916  12.674  0.00  0.00    +0.045 C 
ATOM      7  C   LIG    1       21.931 -30.026  12.819  0.00  0.00    +0.103 C 
ATOM      8  C   LIG    1       22.829 -30.117  11.070  0.00  0.00    +0.081 C 
ATOM      9  N   LIG    1       21.486 -28.706  13.321  0.00  0.00    -0.327 N 
ATOM     10  C   LIG    1       22.209 -27.483  13.092  0.00  0.00    +0.130 C 
ATOM     11  C   LIG    1       20.134 -28.786  13.688  0.00  0.00    +0.034 A 
ATOM     12  C   LIG    1       19.388 -27.786  14.291  0.00  0.00    +0.023 A 
ATOM     13  C   LIG    1       18.042 -28.023  14.598  0.00  0.00    +0.002 A 
ATOM     14  C   LIG    1       17.439 -29.253  14.296  0.00  0.00    +0.000 A 
ATOM     15  C   LIG    1       18.168 -30.266  13.678  0.00  0.00    +0.006 A 
ATOM     16  C   LIG    1       19.498 -30.022  13.378  0.00  0.00    -0.016 A 
ATOM     17  N   LIG    1       22.270 -30.527   9.752  0.00  0.00    -0.269 NA
ATOM     18  C   LIG    1       20.676 -30.395  11.381  0.00  0.00    +0.132 C 
ATOM     19  C   LIG    1       23.736 -31.866  10.810  0.00  0.00    +0.025 C 
ATOM     20  C   LIG    1       23.737 -30.241   9.237  0.00  0.00    +0.189 C 
ENDROOT
BRANCH   1  22
ATOM     21  C   LIG    1       26.755 -28.616  10.151  0.00  0.00    +0.004 C 
ATOM     22  C   LIG    1       25.593 -28.980  11.062  0.00  0.00    +0.004 C 
ENDBRANCH   1  22
BRANCH  18  23
ATOM     23  O   LIG    1       19.557 -30.466  10.445  0.00  0.00    -0.391 OA
ATOM     24  H   LIG    1       18.814 -30.844  10.950  0.00  0.00    +0.210 HD
ENDBRANCH  18  23
BRANCH  20  25
ATOM     25  O   LIG    1       24.048 -31.080   8.153  0.00  0.00    -0.377 OA
ATOM     26  H   LIG    1       23.944 -31.969   8.536  0.00  0.00    +0.211 HD
ENDBRANCH  20  25
TORSDOF 3
ENDMDL
MODEL 5
REMARK VINA RESULT:      -5.6      9.946     12.873
REMARK  Name = *****
REMARK                            x       y       z     vdW  Elec       q    Type
REMARK                         _______ _______ _______ _____ _____    ______ ____
ROOT
ATOM      1  C   LIG    1       25.134 -29.628  12.091  0.00  0.00    +0.036 C 
ATOM      2  C   LIG    1       24.012 -30.093  13.487  0.00  0.00    +0.004 C 
ATOM      3  C   LIG    1       22.197 -30.832  13.201  0.00  0.00    +0.039 C 
ATOM      4  C   LIG    1       21.816 -31.505  11.941  0.00  0.00    +0.066 C 
ATOM      5  C   LIG    1       20.357 -31.450  13.050  0.00  0.00    +0.035 C 
ATOM      6  C   LIG    1       20.435 -29.805  13.705  0.00  0.00    +0.045 C 
ATOM      7  C   LIG    1       21.886 -28.844  13.733  0.00  0.00    +0.103 C 
ATOM      8  C   LIG    1       22.983 -29.413  12.202  0.00  0.00    +0.081 C 
ATOM      9  N   LIG    1       21.369 -27.457  13.760  0.00  0.00    -0.327 N 
ATOM     10  C   LIG    1       22.099 -26.325  13.250  0.00  0.00    +0.130 C 
ATOM     11  C   LIG    1       19.985 -27.486  13.986  0.00  0.00    +0.034 A 
ATOM     12  C   LIG    1       19.161 -26.387  14.174  0.00  0.00    +0.023 A 
ATOM     13  C   LIG    1       17.792 -26.585  14.392  0.00  0.00    +0.002 A 
ATOM     14  C   LIG    1       17.243 -27.875  14.414  0.00  0.00    +0.000 A 
ATOM     15  C   LIG    1       18.051 -28.992  14.214  0.00  0.00    +0.006 A 
ATOM     16  C   LIG    1       19.404 -28.786  14.000  0.00  0.00    -0.016 A 
ATOM     17  N   LIG    1       22.587 -30.224  11.017  0.00  0.00    -0.269 NA
ATOM     18  C   LIG    1       20.812 -29.685  12.348  0.00  0.00    +0.132 C 
ATOM     19  C   LIG    1       23.936 -31.114  12.583  0.00  0.00    +0.025 C 
ATOM     20  C   LIG    1       24.100 -30.037  10.601  0.00  0.00    +0.189 C 
ENDROOT
BRANCH   1  22
ATOM     21  C   LIG    1       27.023 -28.098  11.377  0.00  0.00    +0.004 C 
ATOM     22  C   LIG    1       25.715 -28.202  12.147  0.00  0.00    +0.004 C 
ENDBRANCH   1  22
BRANCH  18  23
ATOM     23  O   LIG    1       19.811 -30.086  11.363  0.00  0.00    -0.391 OA
ATOM     24  H   LIG    1       19.477 -29.257  10.975  0.00  0.00    +0.210 HD
ENDBRANCH  18  23
BRANCH  20  25
ATOM     25  O   LIG    1       24.546 -31.147   9.862  0.00  0.00    -0.377 OA
ATOM     26  H   LIG    1       24.098 -31.890  10.304  0.00  0.00    +0.211 HD
ENDBRANCH  20  25
TORSDOF 3
ENDMDL
MODEL 6
REMARK VINA RESULT:      -5.6     10.351     11.850
REMARK  Name = *****
REMARK                            x       y       z     vdW  Elec       q    Type
REMARK                         _______ _______ _______ _____ _____    ______ ____
ROOT
ATOM      1  C   LIG    1       24.709 -32.525   6.909  0.00  0.00    +0.036 C 
ATOM      2  C   LIG    1       24.795 -30.745   7.409  0.00  0.00    +0.004 C 
ATOM      3  C   LIG    1       25.876 -30.115   8.944  0.00  0.00    +0.039 C 
ATOM      4  C   LIG    1       27.024 -30.887   9.462  0.00  0.00    +0.066 C 
ATOM      5  C   LIG    1       26.799 -29.393  10.498  0.00  0.00    +0.035 C 
ATOM      6  C   LIG    1       25.039 -29.331  10.705  0.00  0.00    +0.045 C 
ATOM      7  C   LIG    1       23.913 -30.122   9.639  0.00  0.00    +0.103 C 
ATOM      8  C   LIG    1       24.826 -31.705   8.909  0.00  0.00    +0.081 C 
ATOM      9  N   LIG    1       22.723 -30.321  10.497  0.00  0.00    -0.327 N 
ATOM     10  C   LIG    1       21.762 -31.373  10.293  0.00  0.00    +0.130 C 
ATOM     11  C   LIG    1       22.893 -29.607  11.693  0.00  0.00    +0.034 A 
ATOM     12  C   LIG    1       21.956 -29.466  12.704  0.00  0.00    +0.023 A 
ATOM     13  C   LIG    1       22.280 -28.715  13.841  0.00  0.00    +0.002 A 
ATOM     14  C   LIG    1       23.539 -28.112  13.973  0.00  0.00    +0.000 A 
ATOM     15  C   LIG    1       24.500 -28.252  12.974  0.00  0.00    +0.006 A 
ATOM     16  C   LIG    1       24.170 -28.997  11.854  0.00  0.00    -0.016 A 
ATOM     17  N   LIG    1       26.076 -32.364   9.379  0.00  0.00    -0.269 NA
ATOM     18  C   LIG    1       25.377 -30.702  10.779  0.00  0.00    +0.132 C 
ATOM     19  C   LIG    1       26.078 -31.211   7.447  0.00  0.00    +0.025 C 
ATOM     20  C   LIG    1       25.812 -33.340   8.164  0.00  0.00    +0.189 C 
ENDROOT
BRANCH   1  22
ATOM     21  C   LIG    1       22.971 -33.450   5.316  0.00  0.00    +0.004 C 
ATOM     22  C   LIG    1       23.292 -33.110   6.764  0.00  0.00    +0.004 C 
ENDBRANCH   1  22
BRANCH  18  23
ATOM     23  O   LIG    1       26.277 -31.086  11.863  0.00  0.00    -0.391 OA
ATOM     24  H   LIG    1       26.957 -30.389  11.901  0.00  0.00    +0.210 HD
ENDBRANCH  18  23
BRANCH  20  25
ATOM     25  O   LIG    1       27.028 -33.825   7.653  0.00  0.00    -0.377 OA
ATOM     26  H   LIG    1       26.858 -33.855   6.694  0.00  0.00    +0.211 HD
ENDBRANCH  20  25
TORSDOF 3
ENDMDL
MODEL 7
REMARK VINA RESULT:      -5.5     10.573     12.292
REMARK  Name = *****
REMARK                            x       y       z     vdW  Elec       q    Type
REMARK                         _______ _______ _______ _____ _____    ______ ____
ROOT
ATOM      1  C   LIG    1       25.288 -32.390   7.816  0.00  0.00    +0.036 C 
ATOM      2  C   LIG    1       24.862 -30.634   8.216  0.00  0.00    +0.004 C 
ATOM      3  C   LIG    1       25.317 -29.791   9.949  0.00  0.00    +0.039 C 
ATOM      4  C   LIG    1       26.409 -30.301  10.805  0.00  0.00    +0.066 C 
ATOM      5  C   LIG    1       25.600 -28.891  11.652  0.00  0.00    +0.035 C 
ATOM      6  C   LIG    1       23.880 -29.207  11.366  0.00  0.00    +0.045 C 
ATOM      7  C   LIG    1       23.284 -30.218  10.080  0.00  0.00    +0.103 C 
ATOM      8  C   LIG    1       24.670 -31.568   9.720  0.00  0.00    +0.081 C 
ATOM      9  N   LIG    1       21.969 -30.669  10.590  0.00  0.00    -0.327 N 
ATOM     10  C   LIG    1       21.341 -31.902  10.192  0.00  0.00    +0.130 C 
ATOM     11  C   LIG    1       21.647 -29.937  11.744  0.00  0.00    +0.034 A 
ATOM     12  C   LIG    1       20.457 -30.002  12.450  0.00  0.00    +0.023 A 
ATOM     13  C   LIG    1       20.289 -29.202  13.588  0.00  0.00    +0.002 A 
ATOM     14  C   LIG    1       21.309 -28.343  14.023  0.00  0.00    +0.000 A 
ATOM     15  C   LIG    1       22.518 -28.273  13.335  0.00  0.00    +0.006 A 
ATOM     16  C   LIG    1       22.674 -29.069  12.212  0.00  0.00    -0.016 A 
ATOM     17  N   LIG    1       25.846 -31.947  10.552  0.00  0.00    -0.269 NA
ATOM     18  C   LIG    1       24.458 -30.474  11.609  0.00  0.00    +0.132 C 
ATOM     19  C   LIG    1       26.151 -30.816   8.631  0.00  0.00    +0.025 C 
ATOM     20  C   LIG    1       26.139 -32.953   9.369  0.00  0.00    +0.189 C 
ENDROOT
BRANCH   1  22
ATOM     21  C   LIG    1       23.948 -33.173   5.814  0.00  0.00    +0.004 C 
ATOM     22  C   LIG    1       24.119 -33.265   7.322  0.00  0.00    +0.004 C 
ENDBRANCH   1  22
BRANCH  18  23
ATOM     23  O   LIG    1       25.078 -30.660  12.918  0.00  0.00    -0.391 OA
ATOM     24  H   LIG    1       24.754 -29.924  13.470  0.00  0.00    +0.210 HD
ENDBRANCH  18  23
BRANCH  20  25
ATOM     25  O   LIG    1       27.522 -33.166   9.238  0.00  0.00    -0.377 OA
ATOM     26  H   LIG    1       27.632 -33.262   8.275  0.00  0.00    +0.211 HD
ENDBRANCH  20  25
TORSDOF 3
ENDMDL
MODEL 8
REMARK VINA RESULT:      -5.5     10.002     11.963
REMARK  Name = *****
REMARK                            x       y       z     vdW  Elec       q    Type
REMARK                         _______ _______ _______ _____ _____    ______ ____
ROOT
ATOM      1  C   LIG    1       25.680 -33.125   6.979  0.00  0.00    +0.036 C 
ATOM      2  C   LIG    1       25.496 -33.385   8.801  0.00  0.00    +0.004 C 
ATOM      3  C   LIG    1       23.865 -32.868   9.798  0.00  0.00    +0.039 C 
ATOM      4  C   LIG    1       22.556 -32.715   9.129  0.00  0.00    +0.066 C 
ATOM      5  C   LIG    1       22.369 -32.295  10.903  0.00  0.00    +0.035 C 
ATOM      6  C   LIG    1       23.818 -31.325  11.223  0.00  0.00    +0.045 C 
ATOM      7  C   LIG    1       25.255 -31.384  10.242  0.00  0.00    +0.103 C 
ATOM      8  C   LIG    1       24.687 -31.847   8.416  0.00  0.00    +0.081 C 
ATOM      9  N   LIG    1       25.877 -30.062  10.479  0.00  0.00    -0.327 N 
ATOM     10  C   LIG    1       26.741 -29.407   9.532  0.00  0.00    +0.130 C 
ATOM     11  C   LIG    1       25.212 -29.423  11.536  0.00  0.00    +0.034 A 
ATOM     12  C   LIG    1       25.563 -28.214  12.116  0.00  0.00    +0.023 A 
ATOM     13  C   LIG    1       24.793 -27.708  13.170  0.00  0.00    +0.002 A 
ATOM     14  C   LIG    1       23.670 -28.402  13.642  0.00  0.00    +0.000 A 
ATOM     15  C   LIG    1       23.292 -29.613  13.065  0.00  0.00    +0.006 A 
ATOM     16  C   LIG    1       24.060 -30.105  12.022  0.00  0.00    -0.016 A 
ATOM     17  N   LIG    1       23.320 -31.818   7.825  0.00  0.00    -0.269 NA
ATOM     18  C   LIG    1       23.388 -30.941   9.932  0.00  0.00    +0.132 C 
ATOM     19  C   LIG    1       24.319 -33.791   8.240  0.00  0.00    +0.025 C 
ATOM     20  C   LIG    1       24.059 -32.337   6.528  0.00  0.00    +0.189 C 
ENDROOT
BRANCH   1  22
ATOM     21  C   LIG    1       28.070 -33.333   6.166  0.00  0.00    +0.004 C 
ATOM     22  C   LIG    1       26.951 -32.373   6.536  0.00  0.00    +0.004 C 
ENDBRANCH   1  22
BRANCH  18  23
ATOM     23  O   LIG    1       22.056 -30.348   9.847  0.00  0.00    -0.391 OA
ATOM     24  H   LIG    1       22.093 -29.538  10.387  0.00  0.00    +0.210 HD
ENDBRANCH  18  23
BRANCH  20  25
ATOM     25  O   LIG    1       23.200 -33.150   5.768  0.00  0.00    -0.377 OA
ATOM     26  H   LIG    1       22.465 -33.318   6.384  0.00  0.00    +0.211 HD
ENDBRANCH  20  25
TORSDOF 3
ENDMDL
MODEL 9
REMARK VINA RESULT:      -5.4      9.538     11.510
REMARK  Name = *****
REMARK                            x       y       z     vdW  Elec       q    Type
REMARK                         _______ _______ _______ _____ _____    ______ ____
ROOT
ATOM      1  C   LIG    1       23.279 -32.548   9.178  0.00  0.00    +0.036 C 
ATOM      2  C   LIG    1       23.348 -30.712   9.404  0.00  0.00    +0.004 C 
ATOM      3  C   LIG    1       25.047 -29.695   9.392  0.00  0.00    +0.039 C 
ATOM      4  C   LIG    1       26.265 -30.214   8.736  0.00  0.00    +0.066 C 
ATOM      5  C   LIG    1       26.654 -28.604   9.521  0.00  0.00    +0.035 C 
ATOM      6  C   LIG    1       25.832 -28.732  11.086  0.00  0.00    +0.045 C 
ATOM      7  C   LIG    1       24.520 -29.831  11.401  0.00  0.00    +0.103 C 
ATOM      8  C   LIG    1       24.777 -31.387  10.225  0.00  0.00    +0.081 C 
ATOM      9  N   LIG    1       24.593 -30.029  12.867  0.00  0.00    -0.327 N 
ATOM     10  C   LIG    1       24.121 -31.214  13.534  0.00  0.00    +0.130 C 
ATOM     11  C   LIG    1       25.496 -29.104  13.412  0.00  0.00    +0.034 A 
ATOM     12  C   LIG    1       25.760 -28.911  14.759  0.00  0.00    +0.023 A 
ATOM     13  C   LIG    1       26.694 -27.941  15.144  0.00  0.00    +0.002 A 
ATOM     14  C   LIG    1       27.369 -27.169  14.187  0.00  0.00    +0.000 A 
ATOM     15  C   LIG    1       27.127 -27.356  12.828  0.00  0.00    +0.006 A 
ATOM     16  C   LIG    1       26.202 -28.319  12.457  0.00  0.00    -0.016 A 
ATOM     17  N   LIG    1       25.989 -31.792   9.460  0.00  0.00    -0.269 NA
ATOM     18  C   LIG    1       26.372 -30.015  10.841  0.00  0.00    +0.132 C 
ATOM     19  C   LIG    1       24.189 -30.998   8.367  0.00  0.00    +0.025 C 
ATOM     20  C   LIG    1       25.074 -32.987   8.979  0.00  0.00    +0.189 C 
ENDROOT
BRANCH   1  22
ATOM     21  C   LIG    1       21.103 -33.692   9.787  0.00  0.00    +0.004 C 
ATOM     22  C   LIG    1       22.502 -33.325  10.258  0.00  0.00    +0.004 C 
ENDBRANCH   1  22
BRANCH  18  23
ATOM     23  O   LIG    1       27.825 -30.089  10.715  0.00  0.00    -0.391 OA
ATOM     24  H   LIG    1       28.139 -29.167  10.732  0.00  0.00    +0.210 HD
ENDBRANCH  18  23
BRANCH  20  25
ATOM     25  O   LIG    1       25.440 -33.395   7.685  0.00  0.00    -0.377 OA
ATOM     26  H   LIG    1       25.483 -34.364   7.771  0.00  0.00    +0.211 HD
ENDBRANCH  20  25
TORSDOF 3
ENDMDL
