MODEL 1
REMARK VINA RESULT:      -4.9      0.000      0.000
REMARK  Name = *****
REMARK                            x       y       z     vdW  Elec       q    Type
REMARK                         _______ _______ _______ _____ _____    ______ ____
ROOT
ATOM      1  C   LIG    1       24.328 -21.440   4.794  0.00  0.00    +0.056 C 
ENDROOT
BRANCH   1   2
ATOM      2  C   LIG    1       25.645 -20.973   5.382  0.00  0.00    -0.046 A 
ATOM      3  C   LIG    1       26.169 -21.571   6.534  0.00  0.00    +0.003 A 
ATOM      4  C   LIG    1       27.392 -21.147   7.062  0.00  0.00    +0.000 A 
ATOM      5  C   LIG    1       28.097 -20.114   6.446  0.00  0.00    +0.000 A 
ATOM      6  C   LIG    1       27.579 -19.503   5.308  0.00  0.00    +0.000 A 
ATOM      7  C   LIG    1       26.360 -19.926   4.779  0.00  0.00    +0.003 A 
ENDBRANCH   1   2
BRANCH   1   8
ATOM      8  C   LIG    1       23.082 -20.533   5.057  0.00  0.00    +0.017 C 
ATOM      9  C   LIG    1       21.761 -21.276   4.781  0.00  0.00    +0.027 C 
ATOM     10  C   LIG    1       23.068 -20.059   6.526  0.00  0.00    +0.027 C 
BRANCH   8  12
ATOM     11  C   LIG    1       22.066 -18.333   4.444  0.00  0.00    +0.101 C 
ATOM     12  N   LIG    1       23.154 -19.282   4.254  0.00  0.00    -0.314 NA
ATOM     13  H   LIG    1       24.033 -18.807   4.459  0.00  0.00    +0.122 HD
ENDBRANCH   8  12
ENDBRANCH   1   8
TORSDOF 3
ENDMDL
MODEL 2
REMARK VINA RESULT:      -4.8      0.667      1.828
REMARK  Name = *****
REMARK                            x       y       z     vdW  Elec       q    Type
REMARK                         _______ _______ _______ _____ _____    ______ ____
ROOT
ATOM      1  C   LIG    1       24.158 -20.515   6.079  0.00  0.00    +0.056 C 
ENDROOT
BRANCH   1   2
ATOM      2  C   LIG    1       25.673 -20.493   6.101  0.00  0.00    -0.046 A 
ATOM      3  C   LIG    1       26.393 -19.698   5.200  0.00  0.00    +0.003 A 
ATOM      4  C   LIG    1       27.790 -19.670   5.236  0.00  0.00    +0.000 A 
ATOM      5  C   LIG    1       28.480 -20.443   6.170  0.00  0.00    +0.000 A 
ATOM      6  C   LIG    1       27.775 -21.246   7.062  0.00  0.00    +0.000 A 
ATOM      7  C   LIG    1       26.381 -21.274   7.027  0.00  0.00    +0.003 A 
ENDBRANCH   1   2
BRANCH   1   8
ATOM      8  C   LIG    1       23.478 -20.549   4.673  0.00  0.00    +0.017 C 
ATOM      9  C   LIG    1       24.174 -21.539   3.720  0.00  0.00    +0.027 C 
ATOM     10  C   LIG    1       21.998 -20.972   4.805  0.00  0.00    +0.027 C 
BRANCH   8  12
ATOM     11  C   LIG    1       22.326 -18.339   4.485  0.00  0.00    +0.101 C 
ATOM     12  N   LIG    1       23.432 -19.190   4.069  0.00  0.00    -0.314 NA
ATOM     13  H   LIG    1       24.305 -18.705   4.278  0.00  0.00    +0.122 HD
ENDBRANCH   8  12
ENDBRANCH   1   8
TORSDOF 3
ENDMDL
MODEL 3
REMARK VINA RESULT:      -4.3      1.260      2.135
REMARK  Name = *****
REMARK                            x       y       z     vdW  Elec       q    Type
REMARK                         _______ _______ _______ _____ _____    ______ ____
ROOT
ATOM      1  C   LIG    1       25.698 -19.533   4.335  0.00  0.00    +0.056 C 
ENDROOT
BRANCH   1   2
ATOM      2  C   LIG    1       26.749 -20.048   5.298  0.00  0.00    -0.046 A 
ATOM      3  C   LIG    1       26.460 -21.091   6.187  0.00  0.00    +0.003 A 
ATOM      4  C   LIG    1       27.439 -21.572   7.061  0.00  0.00    +0.000 A 
ATOM      5  C   LIG    1       28.715 -21.008   7.059  0.00  0.00    +0.000 A 
ATOM      6  C   LIG    1       29.010 -19.963   6.189  0.00  0.00    +0.000 A 
ATOM      7  C   LIG    1       28.034 -19.483   5.316  0.00  0.00    +0.003 A 
ENDBRANCH   1   2
BRANCH   1   8
ATOM      8  C   LIG    1       24.245 -20.074   4.528  0.00  0.00    +0.017 C 
ATOM      9  C   LIG    1       23.187 -19.082   4.010  0.00  0.00    +0.027 C 
ATOM     10  C   LIG    1       24.067 -21.406   3.767  0.00  0.00    +0.027 C 
BRANCH   8  12
ATOM     11  C   LIG    1       23.015 -21.469   6.198  0.00  0.00    +0.101 C 
ATOM     12  N   LIG    1       23.988 -20.414   5.954  0.00  0.00    -0.314 NA
ATOM     13  H   LIG    1       24.868 -20.681   6.396  0.00  0.00    +0.122 HD
ENDBRANCH   8  12
ENDBRANCH   1   8
TORSDOF 3
ENDMDL
MODEL 4
REMARK VINA RESULT:      -4.0      6.106      7.329
REMARK  Name = *****
REMARK                            x       y       z     vdW  Elec       q    Type
REMARK                         _______ _______ _______ _____ _____    ______ ____
ROOT
ATOM      1  C   LIG    1       25.510 -14.784   3.811  0.00  0.00    +0.056 C 
ENDROOT
BRANCH   1   2
ATOM      2  C   LIG    1       26.751 -13.951   4.060  0.00  0.00    -0.046 A 
ATOM      3  C   LIG    1       27.617 -13.620   3.010  0.00  0.00    +0.003 A 
ATOM      4  C   LIG    1       28.752 -12.838   3.244  0.00  0.00    +0.000 A 
ATOM      5  C   LIG    1       29.035 -12.386   4.532  0.00  0.00    +0.000 A 
ATOM      6  C   LIG    1       28.188 -12.719   5.585  0.00  0.00    +0.000 A 
ATOM      7  C   LIG    1       27.055 -13.498   5.353  0.00  0.00    +0.003 A 
ENDBRANCH   1   2
BRANCH   1   8
ATOM      8  C   LIG    1       24.142 -14.029   3.838  0.00  0.00    +0.017 C 
ATOM      9  C   LIG    1       23.007 -14.913   4.388  0.00  0.00    +0.027 C 
ATOM     10  C   LIG    1       24.244 -12.772   4.730  0.00  0.00    +0.027 C 
BRANCH   8  12
ATOM     11  C   LIG    1       24.210 -12.147   2.195  0.00  0.00    +0.101 C 
ATOM     12  N   LIG    1       23.792 -13.511   2.488  0.00  0.00    -0.314 NA
ATOM     13  H   LIG    1       24.193 -14.127   1.781  0.00  0.00    +0.122 HD
ENDBRANCH   8  12
ENDBRANCH   1   8
TORSDOF 3
ENDMDL
MODEL 5
REMARK VINA RESULT:      -3.8      1.910      4.864
REMARK  Name = *****
REMARK                            x       y       z     vdW  Elec       q    Type
REMARK                         _______ _______ _______ _____ _____    ______ ____
ROOT
ATOM      1  C   LIG    1       26.391 -20.866   4.801  0.00  0.00    +0.056 C 
ENDROOT
BRANCH   1   2
ATOM      2  C   LIG    1       25.000 -20.270   4.716  0.00  0.00    -0.046 A 
ATOM      3  C   LIG    1       24.706 -19.257   3.794  0.00  0.00    +0.003 A 
ATOM      4  C   LIG    1       23.417 -18.724   3.711  0.00  0.00    +0.000 A 
ATOM      5  C   LIG    1       22.411 -19.193   4.555  0.00  0.00    +0.000 A 
ATOM      6  C   LIG    1       22.694 -20.189   5.484  0.00  0.00    +0.000 A 
ATOM      7  C   LIG    1       23.980 -20.724   5.568  0.00  0.00    +0.003 A 
ENDBRANCH   1   2
BRANCH   1   8
ATOM      8  C   LIG    1       27.414 -20.129   5.724  0.00  0.00    +0.017 C 
ATOM      9  C   LIG    1       26.780 -19.704   7.062  0.00  0.00    +0.027 C 
ATOM     10  C   LIG    1       28.613 -21.051   6.034  0.00  0.00    +0.027 C 
BRANCH   8  12
ATOM     11  C   LIG    1       29.299 -18.499   5.526  0.00  0.00    +0.101 C 
ATOM     12  N   LIG    1       28.007 -18.953   5.031  0.00  0.00    -0.314 NA
ATOM     13  H   LIG    1       28.102 -19.166   4.038  0.00  0.00    +0.122 HD
ENDBRANCH   8  12
ENDBRANCH   1   8
TORSDOF 3
ENDMDL
MODEL 6
REMARK VINA RESULT:      -3.5      6.050      7.274
REMARK  Name = *****
REMARK                            x       y       z     vdW  Elec       q    Type
REMARK                         _______ _______ _______ _____ _____    ______ ____
ROOT
ATOM      1  C   LIG    1       25.538 -14.811   3.987  0.00  0.00    +0.056 C 
ENDROOT
BRANCH   1   2
ATOM      2  C   LIG    1       26.772 -13.944   4.139  0.00  0.00    -0.046 A 
ATOM      3  C   LIG    1       27.117 -13.398   5.382  0.00  0.00    +0.003 A 
ATOM      4  C   LIG    1       28.265 -12.612   5.519  0.00  0.00    +0.000 A 
ATOM      5  C   LIG    1       29.075 -12.360   4.412  0.00  0.00    +0.000 A 
ATOM      6  C   LIG    1       28.735 -12.887   3.169  0.00  0.00    +0.000 A 
ATOM      7  C   LIG    1       27.590 -13.672   3.031  0.00  0.00    +0.003 A 
ENDBRANCH   1   2
BRANCH   1   8
ATOM      8  C   LIG    1       24.164 -14.070   3.926  0.00  0.00    +0.017 C 
ATOM      9  C   LIG    1       23.899 -13.461   2.536  0.00  0.00    +0.027 C 
ATOM     10  C   LIG    1       23.014 -15.050   4.246  0.00  0.00    +0.027 C 
BRANCH   8  12
ATOM     11  C   LIG    1       23.792 -11.671   4.520  0.00  0.00    +0.101 C 
ATOM     12  N   LIG    1       24.075 -13.023   4.980  0.00  0.00    -0.314 NA
ATOM     13  H   LIG    1       23.356 -13.290   5.653  0.00  0.00    +0.122 HD
ENDBRANCH   8  12
ENDBRANCH   1   8
TORSDOF 3
ENDMDL
MODEL 7
REMARK VINA RESULT:      -3.0      2.712      4.382
REMARK  Name = *****
REMARK                            x       y       z     vdW  Elec       q    Type
REMARK                         _______ _______ _______ _____ _____    ______ ____
ROOT
ATOM      1  C   LIG    1       23.760 -19.101   3.649  0.00  0.00    +0.056 C 
ENDROOT
BRANCH   1   2
ATOM      2  C   LIG    1       24.360 -17.710   3.693  0.00  0.00    -0.046 A 
ATOM      3  C   LIG    1       25.686 -17.486   3.302  0.00  0.00    +0.003 A 
ATOM      4  C   LIG    1       26.227 -16.198   3.329  0.00  0.00    +0.000 A 
ATOM      5  C   LIG    1       25.449 -15.122   3.755  0.00  0.00    +0.000 A 
ATOM      6  C   LIG    1       24.134 -15.334   4.159  0.00  0.00    +0.000 A 
ATOM      7  C   LIG    1       23.592 -16.619   4.131  0.00  0.00    +0.003 A 
ENDBRANCH   1   2
BRANCH   1   8
ATOM      8  C   LIG    1       24.390 -20.166   4.604  0.00  0.00    +0.017 C 
ATOM      9  C   LIG    1       23.675 -20.212   5.967  0.00  0.00    +0.027 C 
ATOM     10  C   LIG    1       24.301 -21.571   3.969  0.00  0.00    +0.027 C 
BRANCH   8  12
ATOM     11  C   LIG    1       26.423 -20.388   6.041  0.00  0.00    +0.101 C 
ATOM     12  N   LIG    1       25.846 -19.923   4.787  0.00  0.00    -0.314 NA
ATOM     13  H   LIG    1       26.355 -20.361   4.019  0.00  0.00    +0.122 HD
ENDBRANCH   8  12
ENDBRANCH   1   8
TORSDOF 3
ENDMDL
MODEL 8
REMARK VINA RESULT:      -3.0      3.871      6.068
REMARK  Name = *****
REMARK                            x       y       z     vdW  Elec       q    Type
REMARK                         _______ _______ _______ _____ _____    ______ ____
ROOT
ATOM      1  C   LIG    1       23.530 -14.982   4.313  0.00  0.00    +0.056 C 
ENDROOT
BRANCH   1   2
ATOM      2  C   LIG    1       23.462 -16.493   4.209  0.00  0.00    -0.046 A 
ATOM      3  C   LIG    1       24.534 -17.227   3.686  0.00  0.00    +0.003 A 
ATOM      4  C   LIG    1       24.471 -18.620   3.609  0.00  0.00    +0.000 A 
ATOM      5  C   LIG    1       23.331 -19.294   4.046  0.00  0.00    +0.000 A 
ATOM      6  C   LIG    1       22.253 -18.574   4.556  0.00  0.00    +0.000 A 
ATOM      7  C   LIG    1       22.316 -17.183   4.635  0.00  0.00    +0.003 A 
ENDBRANCH   1   2
BRANCH   1   8
ATOM      8  C   LIG    1       24.846 -14.304   3.815  0.00  0.00    +0.017 C 
ATOM      9  C   LIG    1       24.595 -13.370   2.617  0.00  0.00    +0.027 C 
ATOM     10  C   LIG    1       25.479 -13.469   4.949  0.00  0.00    +0.027 C 
BRANCH   8  12
ATOM     11  C   LIG    1       27.263 -14.888   3.553  0.00  0.00    +0.101 C 
ATOM     12  N   LIG    1       25.875 -15.324   3.474  0.00  0.00    -0.314 NA
ATOM     13  H   LIG    1       25.758 -16.131   4.086  0.00  0.00    +0.122 HD
ENDBRANCH   8  12
ENDBRANCH   1   8
TORSDOF 3
ENDMDL
MODEL 9
REMARK VINA RESULT:      -3.0      4.891      6.858
REMARK  Name = *****
REMARK                            x       y       z     vdW  Elec       q    Type
REMARK                         _______ _______ _______ _____ _____    ______ ____
ROOT
ATOM      1  C   LIG    1       26.333 -15.446   3.273  0.00  0.00    +0.056 C 
ENDROOT
BRANCH   1   2
ATOM      2  C   LIG    1       25.021 -16.090   3.674  0.00  0.00    -0.046 A 
ATOM      3  C   LIG    1       24.830 -17.472   3.547  0.00  0.00    +0.003 A 
ATOM      4  C   LIG    1       23.623 -18.060   3.934  0.00  0.00    +0.000 A 
ATOM      5  C   LIG    1       22.593 -17.272   4.445  0.00  0.00    +0.000 A 
ATOM      6  C   LIG    1       22.767 -15.896   4.564  0.00  0.00    +0.000 A 
ATOM      7  C   LIG    1       23.971 -15.307   4.179  0.00  0.00    +0.003 A 
ENDBRANCH   1   2
BRANCH   1   8
ATOM      8  C   LIG    1       26.406 -13.888   3.362  0.00  0.00    +0.017 C 
ATOM      9  C   LIG    1       25.252 -13.213   2.597  0.00  0.00    +0.027 C 
ATOM     10  C   LIG    1       26.333 -13.434   4.836  0.00  0.00    +0.027 C 
BRANCH   8  12
ATOM     11  C   LIG    1       28.687 -13.017   3.896  0.00  0.00    +0.101 C 
ATOM     12  N   LIG    1       27.719 -13.386   2.873  0.00  0.00    -0.314 NA
ATOM     13  H   LIG    1       28.142 -14.094   2.273  0.00  0.00    +0.122 HD
ENDBRANCH   8  12
ENDBRANCH   1   8
TORSDOF 3
ENDMDL
