MODEL 1
REMARK VINA RESULT:      -3.9      0.000      0.000
REMARK  Name = *****
REMARK                            x       y       z     vdW  Elec       q    Type
REMARK                         _______ _______ _______ _____ _____    ______ ____
ROOT
ATOM      1  C   LIG    1       26.115 -14.932   3.350  0.00  0.00    +0.131 C 
ENDROOT
BRANCH   1   2
ATOM      2  C   LIG    1       27.384 -14.819   4.329  0.00  0.00    +0.094 C 
ATOM      3  N   LIG    1       28.674 -14.419   3.688  0.00  0.00    -0.310 NA
ATOM      4  H   LIG    1       29.434 -14.752   4.282  0.00  0.00    +0.122 HD
ATOM      5  C   LIG    1       28.854 -12.980   3.499  0.00  0.00    +0.081 C 
ATOM      6  C   LIG    1       28.676 -12.190   4.789  0.00  0.00    +0.015 C 
ATOM      7  C   LIG    1       27.326 -12.483   5.425  0.00  0.00    +0.003 C 
ATOM      8  C   LIG    1       27.147 -13.985   5.611  0.00  0.00    +0.022 C 
ENDBRANCH   1   2
BRANCH   1   9
ATOM      9  C   LIG    1       25.295 -16.236   3.532  0.00  0.00    -0.010 A 
ATOM     10  C   LIG    1       25.895 -17.491   3.308  0.00  0.00    +0.007 A 
ATOM     11  C   LIG    1       25.182 -18.680   3.488  0.00  0.00    +0.000 A 
ATOM     12  C   LIG    1       23.844 -18.639   3.873  0.00  0.00    +0.000 A 
ATOM     13  C   LIG    1       23.216 -17.415   4.064  0.00  0.00    +0.000 A 
ATOM     14  C   LIG    1       23.933 -16.226   3.891  0.00  0.00    +0.007 A 
ENDBRANCH   1   9
BRANCH   1  15
ATOM     15  C   LIG    1       25.182 -13.710   3.505  0.00  0.00    -0.010 A 
ATOM     16  C   LIG    1       24.448 -13.486   4.687  0.00  0.00    +0.007 A 
ATOM     17  C   LIG    1       23.620 -12.367   4.823  0.00  0.00    +0.000 A 
ATOM     18  C   LIG    1       23.506 -11.449   3.786  0.00  0.00    +0.000 A 
ATOM     19  C   LIG    1       24.217 -11.649   2.606  0.00  0.00    +0.000 A 
ATOM     20  C   LIG    1       25.045 -12.767   2.469  0.00  0.00    +0.007 A 
ENDBRANCH   1  15
BRANCH   1  21
ATOM     21  O   LIG    1       26.635 -14.948   2.005  0.00  0.00    -0.378 OA
ATOM     22  H   LIG    1       27.599 -14.918   2.111  0.00  0.00    +0.211 HD
ENDBRANCH   1  21
TORSDOF 4
ENDMDL
MODEL 2
REMARK VINA RESULT:      -3.3      1.450      5.246
REMARK  Name = *****
REMARK                            x       y       z     vdW  Elec       q    Type
REMARK                         _______ _______ _______ _____ _____    ______ ____
ROOT
ATOM      1  C   LIG    1       26.188 -14.677   3.155  0.00  0.00    +0.131 C 
ENDROOT
BRANCH   1   2
ATOM      2  C   LIG    1       24.636 -14.262   3.163  0.00  0.00    +0.094 C 
ATOM      3  N   LIG    1       24.087 -13.796   4.474  0.00  0.00    -0.310 NA
ATOM      4  H   LIG    1       23.077 -13.941   4.457  0.00  0.00    +0.122 HD
ATOM      5  C   LIG    1       24.332 -12.388   4.784  0.00  0.00    +0.081 C 
ATOM      6  C   LIG    1       23.851 -11.451   3.684  0.00  0.00    +0.015 C 
ATOM      7  C   LIG    1       24.470 -11.821   2.345  0.00  0.00    +0.003 C 
ATOM      8  C   LIG    1       24.214 -13.291   2.035  0.00  0.00    +0.022 C 
ENDBRANCH   1   2
BRANCH   1   9
ATOM      9  C   LIG    1       27.073 -13.814   4.093  0.00  0.00    -0.010 A 
ATOM     10  C   LIG    1       28.126 -13.042   3.566  0.00  0.00    +0.007 A 
ATOM     11  C   LIG    1       28.922 -12.239   4.390  0.00  0.00    +0.000 A 
ATOM     12  C   LIG    1       28.697 -12.211   5.764  0.00  0.00    +0.000 A 
ATOM     13  C   LIG    1       27.689 -12.992   6.316  0.00  0.00    +0.000 A 
ATOM     14  C   LIG    1       26.889 -13.788   5.490  0.00  0.00    +0.007 A 
ENDBRANCH   1   9
BRANCH   1  15
ATOM     15  C   LIG    1       26.367 -16.171   3.507  0.00  0.00    -0.010 A 
ATOM     16  C   LIG    1       27.567 -16.662   4.058  0.00  0.00    +0.007 A 
ATOM     17  C   LIG    1       27.713 -18.014   4.389  0.00  0.00    +0.000 A 
ATOM     18  C   LIG    1       26.665 -18.903   4.180  0.00  0.00    +0.000 A 
ATOM     19  C   LIG    1       25.470 -18.444   3.634  0.00  0.00    +0.000 A 
ATOM     20  C   LIG    1       25.324 -17.094   3.302  0.00  0.00    +0.007 A 
ENDBRANCH   1  15
BRANCH   1  21
ATOM     21  O   LIG    1       26.665 -14.459   1.812  0.00  0.00    -0.378 OA
ATOM     22  H   LIG    1       26.406 -15.257   1.324  0.00  0.00    +0.211 HD
ENDBRANCH   1  21
TORSDOF 4
ENDMDL
MODEL 3
REMARK VINA RESULT:      -2.4      3.071      6.827
REMARK  Name = *****
REMARK                            x       y       z     vdW  Elec       q    Type
REMARK                         _______ _______ _______ _____ _____    ______ ____
ROOT
ATOM      1  C   LIG    1       25.320 -18.897   3.528  0.00  0.00    +0.131 C 
ENDROOT
BRANCH   1   2
ATOM      2  C   LIG    1       23.883 -19.580   3.310  0.00  0.00    +0.094 C 
ATOM      3  N   LIG    1       23.837 -21.070   3.438  0.00  0.00    -0.310 NA
ATOM      4  H   LIG    1       23.026 -21.402   2.917  0.00  0.00    +0.122 HD
ATOM      5  C   LIG    1       23.726 -21.572   4.807  0.00  0.00    +0.081 C 
ATOM      6  C   LIG    1       22.544 -20.974   5.558  0.00  0.00    +0.015 C 
ATOM      7  C   LIG    1       22.604 -19.454   5.548  0.00  0.00    +0.003 C 
ATOM      8  C   LIG    1       22.727 -18.942   4.118  0.00  0.00    +0.022 C 
ENDBRANCH   1   2
BRANCH   1   9
ATOM      9  C   LIG    1       25.272 -17.349   3.629  0.00  0.00    -0.010 A 
ATOM     10  C   LIG    1       26.413 -16.581   3.331  0.00  0.00    +0.007 A 
ATOM     11  C   LIG    1       26.386 -15.184   3.394  0.00  0.00    +0.000 A 
ATOM     12  C   LIG    1       25.221 -14.526   3.780  0.00  0.00    +0.000 A 
ATOM     13  C   LIG    1       24.091 -15.260   4.115  0.00  0.00    +0.000 A 
ATOM     14  C   LIG    1       24.117 -16.657   4.045  0.00  0.00    +0.007 A 
ENDBRANCH   1   9
BRANCH   1  15
ATOM     15  C   LIG    1       26.027 -19.473   4.775  0.00  0.00    -0.010 A 
ATOM     16  C   LIG    1       25.299 -19.945   5.885  0.00  0.00    +0.007 A 
ATOM     17  C   LIG    1       25.949 -20.481   7.003  0.00  0.00    +0.000 A 
ATOM     18  C   LIG    1       27.335 -20.560   7.036  0.00  0.00    +0.000 A 
ATOM     19  C   LIG    1       28.079 -20.097   5.953  0.00  0.00    +0.000 A 
ATOM     20  C   LIG    1       27.431 -19.561   4.837  0.00  0.00    +0.007 A 
ENDBRANCH   1  15
BRANCH   1  21
ATOM     21  O   LIG    1       26.107 -19.216   2.362  0.00  0.00    -0.378 OA
ATOM     22  H   LIG    1       26.978 -19.466   2.712  0.00  0.00    +0.211 HD
ENDBRANCH   1  21
TORSDOF 4
ENDMDL
MODEL 4
REMARK VINA RESULT:      -1.0      1.991      3.860
REMARK  Name = *****
REMARK                            x       y       z     vdW  Elec       q    Type
REMARK                         _______ _______ _______ _____ _____    ______ ____
ROOT
ATOM      1  C   LIG    1       24.068 -14.779   4.301  0.00  0.00    +0.131 C 
ENDROOT
BRANCH   1   2
ATOM      2  C   LIG    1       23.426 -13.911   3.112  0.00  0.00    +0.094 C 
ATOM      3  N   LIG    1       22.966 -12.536   3.477  0.00  0.00    -0.310 NA
ATOM      4  H   LIG    1       22.260 -12.253   2.798  0.00  0.00    +0.122 HD
ATOM      5  C   LIG    1       24.012 -11.514   3.486  0.00  0.00    +0.081 C 
ATOM      6  C   LIG    1       24.781 -11.447   2.173  0.00  0.00    +0.015 C 
ATOM      7  C   LIG    1       25.361 -12.805   1.812  0.00  0.00    +0.003 C 
ATOM      8  C   LIG    1       24.265 -13.863   1.812  0.00  0.00    +0.022 C 
ENDBRANCH   1   2
BRANCH   1   9
ATOM      9  C   LIG    1       23.823 -16.306   4.169  0.00  0.00    -0.010 A 
ATOM     10  C   LIG    1       22.596 -16.867   4.572  0.00  0.00    +0.007 A 
ATOM     11  C   LIG    1       22.344 -18.236   4.440  0.00  0.00    +0.000 A 
ATOM     12  C   LIG    1       23.326 -19.079   3.924  0.00  0.00    +0.000 A 
ATOM     13  C   LIG    1       24.558 -18.558   3.553  0.00  0.00    +0.000 A 
ATOM     14  C   LIG    1       24.807 -17.187   3.678  0.00  0.00    +0.007 A 
ENDBRANCH   1   9
BRANCH   1  15
ATOM     15  C   LIG    1       25.584 -14.510   4.431  0.00  0.00    -0.010 A 
ATOM     16  C   LIG    1       26.528 -15.212   3.657  0.00  0.00    +0.007 A 
ATOM     17  C   LIG    1       27.898 -14.948   3.769  0.00  0.00    +0.000 A 
ATOM     18  C   LIG    1       28.354 -13.979   4.655  0.00  0.00    +0.000 A 
ATOM     19  C   LIG    1       27.442 -13.273   5.434  0.00  0.00    +0.000 A 
ATOM     20  C   LIG    1       26.074 -13.537   5.323  0.00  0.00    +0.007 A 
ENDBRANCH   1  15
BRANCH   1  21
ATOM     21  O   LIG    1       23.418 -14.355   5.517  0.00  0.00    -0.378 OA
ATOM     22  H   LIG    1       22.509 -14.143   5.250  0.00  0.00    +0.211 HD
ENDBRANCH   1  21
TORSDOF 4
ENDMDL
MODEL 5
REMARK VINA RESULT:      -1.0      3.309      7.356
REMARK  Name = *****
REMARK                            x       y       z     vdW  Elec       q    Type
REMARK                         _______ _______ _______ _____ _____    ______ ____
ROOT
ATOM      1  C   LIG    1       24.389 -19.044   4.387  0.00  0.00    +0.131 C 
ENDROOT
BRANCH   1   2
ATOM      2  C   LIG    1       23.000 -19.066   5.193  0.00  0.00    +0.094 C 
ATOM      3  N   LIG    1       21.855 -18.352   4.547  0.00  0.00    -0.310 NA
ATOM      4  H   LIG    1       21.192 -18.101   5.280  0.00  0.00    +0.122 HD
ATOM      5  C   LIG    1       21.133 -19.123   3.536  0.00  0.00    +0.081 C 
ATOM      6  C   LIG    1       20.647 -20.468   4.058  0.00  0.00    +0.015 C 
ATOM      7  C   LIG    1       21.799 -21.280   4.630  0.00  0.00    +0.003 C 
ATOM      8  C   LIG    1       22.547 -20.465   5.678  0.00  0.00    +0.022 C 
ENDBRANCH   1   2
BRANCH   1   9
ATOM      9  C   LIG    1       24.862 -17.621   3.988  0.00  0.00    -0.010 A 
ATOM     10  C   LIG    1       24.012 -16.513   4.167  0.00  0.00    +0.007 A 
ATOM     11  C   LIG    1       24.425 -15.219   3.836  0.00  0.00    +0.000 A 
ATOM     12  C   LIG    1       25.692 -15.008   3.295  0.00  0.00    +0.000 A 
ATOM     13  C   LIG    1       26.537 -16.088   3.073  0.00  0.00    +0.000 A 
ATOM     14  C   LIG    1       26.125 -17.381   3.412  0.00  0.00    +0.007 A 
ENDBRANCH   1   9
BRANCH   1  15
ATOM     15  C   LIG    1       25.506 -19.754   5.185  0.00  0.00    -0.010 A 
ATOM     16  C   LIG    1       26.869 -19.542   4.897  0.00  0.00    +0.007 A 
ATOM     17  C   LIG    1       27.873 -20.177   5.637  0.00  0.00    +0.000 A 
ATOM     18  C   LIG    1       27.539 -21.034   6.679  0.00  0.00    +0.000 A 
ATOM     19  C   LIG    1       26.200 -21.264   6.981  0.00  0.00    +0.000 A 
ATOM     20  C   LIG    1       25.196 -20.631   6.242  0.00  0.00    +0.007 A 
ENDBRANCH   1  15
BRANCH   1  21
ATOM     21  O   LIG    1       24.165 -19.770   3.161  0.00  0.00    -0.378 OA
ATOM     22  H   LIG    1       24.244 -20.705   3.409  0.00  0.00    +0.211 HD
ENDBRANCH   1  21
TORSDOF 4
ENDMDL
