MODEL 1
REMARK VINA RESULT:       0.4      0.000      0.000
REMARK  Name = *****
REMARK                            x       y       z     vdW  Elec       q    Type
REMARK                         _______ _______ _______ _____ _____    ______ ____
ROOT
ATOM      1  C   LIG    1       26.535 -13.202   3.934  0.00  0.00    +0.122 C 
ATOM      2  C   LIG    1       26.499 -14.482   3.051  0.00  0.00    +0.036 C 
ATOM      3  C   LIG    1       25.163 -14.717   2.290  0.00  0.00    +0.028 C 
ATOM      4  C   LIG    1       24.085 -13.638   2.474  0.00  0.00    +0.058 C 
ATOM      5  N   LIG    1       23.970 -13.221   3.868  0.00  0.00    -0.296 NA
ATOM      6  C   LIG    1       24.463 -12.304   1.812  0.00  0.00    +0.020 C 
ATOM      7  C   LIG    1       24.993 -11.447   2.962  0.00  0.00    +0.021 C 
ATOM      8  C   LIG    1       25.188 -12.447   4.115  0.00  0.00    +0.071 C 
ENDROOT
BRANCH   2   9
ATOM      9  C   LIG    1       27.003 -15.811   3.627  0.00  0.00    -0.043 A 
ATOM     10  C   LIG    1       28.189 -15.935   4.367  0.00  0.00    +0.005 A 
ATOM     11  C   LIG    1       28.570 -17.156   4.935  0.00  0.00    +0.014 A 
ATOM     12  C   LIG    1       27.770 -18.281   4.764  0.00  0.00    +0.013 A 
ATOM     13  I   LIG    1       28.342 -20.095   5.600  0.00  0.00    -0.044 I 
ATOM     14  C   LIG    1       26.590 -18.189   4.034  0.00  0.00    +0.014 A 
ATOM     15  C   LIG    1       26.209 -16.963   3.477  0.00  0.00    +0.005 A 
ENDBRANCH   2   9
BRANCH   1  16
ATOM     16  C   LIG    1       27.313 -13.287   5.241  0.00  0.00    +0.312 C 
ATOM     17  O   LIG    1       26.931 -13.836   6.258  0.00  0.00    -0.251 OA
BRANCH  16  19
ATOM     18  C   LIG    1       29.050 -12.604   3.818  0.00  0.00    +0.280 C 
ATOM     19  O   LIG    1       28.484 -12.590   5.130  0.00  0.00    -0.468 OA
ENDBRANCH  16  19
ENDBRANCH   1  16
BRANCH   5  20
ATOM     20  C   LIG    1       23.552 -14.232   4.824  0.00  0.00    +0.087 C 
BRANCH  20  21
ATOM     21  C   LIG    1       22.987 -15.480   4.143  0.00  0.00    +0.049 C 
BRANCH  21  22
ATOM     22  C   LIG    1       22.133 -16.293   5.095  0.00  0.00    +0.214 C 
ATOM     23  F   LIG    1       22.013 -17.560   4.623  0.00  0.00    -0.249 F 
ENDBRANCH  21  22
ENDBRANCH  20  21
ENDBRANCH   5  20
TORSDOF 6
ENDMDL
MODEL 2
REMARK VINA RESULT:       2.3      2.570      3.720
REMARK  Name = *****
REMARK                            x       y       z     vdW  Elec       q    Type
REMARK                         _______ _______ _______ _____ _____    ______ ____
ROOT
ATOM      1  C   LIG    1       27.513 -15.547   3.744  0.00  0.00    +0.122 C 
ATOM      2  C   LIG    1       26.212 -15.918   2.975  0.00  0.00    +0.036 C 
ATOM      3  C   LIG    1       25.310 -14.709   2.591  0.00  0.00    +0.028 C 
ATOM      4  C   LIG    1       25.845 -13.322   2.977  0.00  0.00    +0.058 C 
ATOM      5  N   LIG    1       26.398 -13.312   4.327  0.00  0.00    -0.296 NA
ATOM      6  C   LIG    1       27.082 -12.917   2.163  0.00  0.00    +0.020 C 
ATOM      7  C   LIG    1       28.261 -13.220   3.088  0.00  0.00    +0.021 C 
ATOM      8  C   LIG    1       27.645 -14.071   4.213  0.00  0.00    +0.071 C 
ENDROOT
BRANCH   2   9
ATOM      9  C   LIG    1       25.338 -17.071   3.484  0.00  0.00    -0.043 A 
ATOM     10  C   LIG    1       24.071 -16.887   4.059  0.00  0.00    +0.005 A 
ATOM     11  C   LIG    1       23.280 -17.977   4.442  0.00  0.00    +0.014 A 
ATOM     12  C   LIG    1       23.750 -19.273   4.262  0.00  0.00    +0.013 A 
ATOM     13  I   LIG    1       22.577 -20.889   4.840  0.00  0.00    -0.044 I 
ATOM     14  C   LIG    1       25.002 -19.486   3.696  0.00  0.00    +0.014 A 
ATOM     15  C   LIG    1       25.785 -18.393   3.306  0.00  0.00    +0.005 A 
ENDBRANCH   2   9
BRANCH   1  16
ATOM     16  C   LIG    1       27.984 -16.522   4.814  0.00  0.00    +0.312 C 
ATOM     17  O   LIG    1       28.223 -16.241   5.974  0.00  0.00    -0.251 OA
BRANCH  16  19
ATOM     18  C   LIG    1       28.816 -18.693   5.135  0.00  0.00    +0.280 C 
ATOM     19  O   LIG    1       28.172 -17.761   4.264  0.00  0.00    -0.468 OA
ENDBRANCH  16  19
ENDBRANCH   1  16
BRANCH   5  20
ATOM     20  C   LIG    1       25.479 -13.595   5.417  0.00  0.00    +0.087 C 
BRANCH  20  21
ATOM     21  C   LIG    1       24.030 -13.254   5.060  0.00  0.00    +0.049 C 
BRANCH  21  22
ATOM     22  C   LIG    1       23.827 -11.757   4.941  0.00  0.00    +0.214 C 
ATOM     23  F   LIG    1       23.503 -11.447   3.660  0.00  0.00    -0.249 F 
ENDBRANCH  21  22
ENDBRANCH  20  21
ENDBRANCH   5  20
TORSDOF 6
ENDMDL
MODEL 3
REMARK VINA RESULT:       2.7      2.925      4.220
REMARK  Name = *****
REMARK                            x       y       z     vdW  Elec       q    Type
REMARK                         _______ _______ _______ _____ _____    ______ ____
ROOT
ATOM      1  C   LIG    1       25.572 -15.474   2.868  0.00  0.00    +0.122 C 
ATOM      2  C   LIG    1       24.101 -15.827   3.230  0.00  0.00    +0.036 C 
ATOM      3  C   LIG    1       23.277 -14.659   3.843  0.00  0.00    +0.028 C 
ATOM      4  C   LIG    1       24.005 -13.313   3.964  0.00  0.00    +0.058 C 
ATOM      5  N   LIG    1       25.366 -13.477   4.466  0.00  0.00    -0.296 NA
ATOM      6  C   LIG    1       24.286 -12.667   2.599  0.00  0.00    +0.020 C 
ATOM      7  C   LIG    1       25.748 -13.011   2.310  0.00  0.00    +0.021 C 
ATOM      8  C   LIG    1       26.091 -14.090   3.352  0.00  0.00    +0.071 C 
ENDROOT
BRANCH   2   9
ATOM      9  C   LIG    1       23.803 -17.124   3.993  0.00  0.00    -0.043 A 
ATOM     10  C   LIG    1       22.634 -17.331   4.743  0.00  0.00    +0.005 A 
ATOM     11  C   LIG    1       22.374 -18.559   5.362  0.00  0.00    +0.014 A 
ATOM     12  C   LIG    1       23.287 -19.602   5.247  0.00  0.00    +0.013 A 
ATOM     13  I   LIG    1       22.902 -21.420   6.176  0.00  0.00    -0.044 I 
ATOM     14  C   LIG    1       24.454 -19.426   4.512  0.00  0.00    +0.014 A 
ATOM     15  C   LIG    1       24.705 -18.199   3.887  0.00  0.00    +0.005 A 
ENDBRANCH   2   9
BRANCH   1  16
ATOM     16  C   LIG    1       26.614 -16.567   3.066  0.00  0.00    +0.312 C 
ATOM     17  O   LIG    1       26.546 -17.699   2.625  0.00  0.00    -0.251 OA
BRANCH  16  19
ATOM     18  C   LIG    1       28.277 -17.141   4.619  0.00  0.00    +0.280 C 
ATOM     19  O   LIG    1       27.614 -16.113   3.882  0.00  0.00    -0.468 OA
ENDBRANCH  16  19
ENDBRANCH   1  16
BRANCH   5  20
ATOM     20  C   LIG    1       25.510 -14.021   5.806  0.00  0.00    +0.087 C 
BRANCH  20  21
ATOM     21  C   LIG    1       26.873 -13.696   6.423  0.00  0.00    +0.049 C 
BRANCH  21  22
ATOM     22  C   LIG    1       27.826 -13.128   5.392  0.00  0.00    +0.214 C 
ATOM     23  F   LIG    1       28.709 -12.297   6.005  0.00  0.00    -0.249 F 
ENDBRANCH  21  22
ENDBRANCH  20  21
ENDBRANCH   5  20
TORSDOF 6
ENDMDL
