MODEL 1
REMARK VINA RESULT:      -1.8      0.000      0.000
REMARK  Name = *****
REMARK                            x       y       z     vdW  Elec       q    Type
REMARK                         _______ _______ _______ _____ _____    ______ ____
ROOT
ATOM      1  C   LIG    1       23.596 -17.262   4.108  0.00  0.00    +0.110 A 
ATOM      2  N   LIG    1       23.966 -18.512   4.071  0.00  0.00    -0.162 NA
ATOM      3  N   LIG    1       22.925 -19.386   4.234  0.00  0.00    -0.200 N 
ATOM      4  C   LIG    1       21.586 -19.045   4.420  0.00  0.00    +0.252 A 
ATOM      5  N   LIG    1       20.843 -20.129   4.525  0.00  0.00    -0.217 NA
ATOM      6  C   LIG    1       21.703 -21.186   4.405  0.00  0.00    +0.138 A 
ATOM      7  N   LIG    1       21.189 -17.748   4.467  0.00  0.00    -0.217 NA
ATOM      8  C   LIG    1       23.003 -20.759   4.234  0.00  0.00    +0.069 A 
ATOM      9  C   LIG    1       22.139 -16.881   4.322  0.00  0.00    +0.144 A 
ENDROOT
BRANCH   1  14
ATOM     10  C   LIG    1       26.504 -14.093   3.717  0.00  0.00    +0.072 A 
ATOM     11  C   LIG    1       25.290 -13.890   4.378  0.00  0.00    +0.136 A 
ATOM     12  F   LIG    1       24.987 -12.699   4.914  0.00  0.00    -0.205 F 
ATOM     13  C   LIG    1       24.351 -14.919   4.503  0.00  0.00    +0.049 A 
ATOM     14  C   LIG    1       24.610 -16.181   3.955  0.00  0.00    +0.006 A 
ATOM     15  C   LIG    1       25.827 -16.398   3.293  0.00  0.00    +0.011 A 
ATOM     16  C   LIG    1       26.763 -15.361   3.177  0.00  0.00    +0.016 A 
BRANCH  10  20
ATOM     17  C   LIG    1       29.418 -11.800   4.559  0.00  0.00    +0.128 C 
ATOM     18  N   LIG    1       28.378 -12.793   4.622  0.00  0.00    -0.314 N 
ATOM     19  H   LIG    1       28.316 -13.376   5.450  0.00  0.00    +0.149 HD
ATOM     20  C   LIG    1       27.540 -13.031   3.555  0.00  0.00    +0.247 C 
ATOM     21  O   LIG    1       27.615 -12.409   2.501  0.00  0.00    -0.270 OA
ENDBRANCH  10  20
ENDBRANCH   1  14
BRANCH   8  22
ATOM     22  C   LIG    1       24.260 -21.532   4.049  0.00  0.00    +0.092 C 
BRANCH  22  23
ATOM     23  C   LIG    1       25.431 -21.003   4.845  0.00  0.00    -0.041 A 
ATOM     24  C   LIG    1       26.221 -19.952   4.358  0.00  0.00    +0.014 A 
ATOM     25  C   LIG    1       27.323 -19.480   5.092  0.00  0.00    +0.001 A 
ATOM     26  C   LIG    1       27.651 -20.058   6.336  0.00  0.00    +0.071 A 
ATOM     27  N   LIG    1       28.710 -19.655   7.062  0.00  0.00    -0.255 NA
ATOM     28  C   LIG    1       29.472 -18.656   6.567  0.00  0.00    +0.111 A 
ATOM     29  C   LIG    1       29.226 -18.018   5.367  0.00  0.00    +0.020 A 
ATOM     30  C   LIG    1       26.846 -21.081   6.815  0.00  0.00    +0.028 A 
ATOM     31  C   LIG    1       28.131 -18.438   4.619  0.00  0.00    +0.011 A 
ATOM     32  C   LIG    1       25.747 -21.553   6.091  0.00  0.00    +0.006 A 
ENDBRANCH  22  23
ENDBRANCH   8  22
TORSDOF 4
ENDMDL
