MODEL 1
REMARK VINA RESULT:      -3.8      0.000      0.000
REMARK  Name = *****
REMARK                            x       y       z     vdW  Elec       q    Type
REMARK                         _______ _______ _______ _____ _____    ______ ____
ROOT
ATOM      1  C   LIG    1       25.216 -18.265   3.177  0.00  0.00    +0.119 C 
ATOM      2  N   LIG    1       24.744 -16.902   3.522  0.00  0.00    -0.330 N 
ATOM      3  H   LIG    1       23.947 -16.555   2.983  0.00  0.00    +0.147 HD
ATOM      4  C   LIG    1       25.701 -15.877   3.628  0.00  0.00    +0.133 A 
ATOM      5  C   LIG    1       27.032 -16.109   3.737  0.00  0.00    +0.126 A 
ATOM      6  N   LIG    1       27.884 -15.046   3.849  0.00  0.00    -0.315 N 
ATOM      7  H   LIG    1       28.837 -15.228   3.571  0.00  0.00    +0.170 HD
ATOM      8  C   LIG    1       27.428 -13.773   3.752  0.00  0.00    +0.195 A 
ATOM      9  N   LIG    1       26.193 -13.426   3.627  0.00  0.00    -0.176 NA
ATOM     10  N   LIG    1       27.519 -17.413   3.710  0.00  0.00    -0.327 N 
ATOM     11  H   LIG    1       28.381 -17.513   4.238  0.00  0.00    +0.147 HD
ATOM     12  C   LIG    1       25.244 -14.425   3.556  0.00  0.00    +0.297 A 
ATOM     13  O   LIG    1       24.045 -14.199   3.399  0.00  0.00    -0.264 OA
ATOM     14  C   LIG    1       26.582 -18.540   3.878  0.00  0.00    +0.128 C 
ENDROOT
BRANCH   8  15
ATOM     15  N   LIG    1       28.413 -12.842   3.809  0.00  0.00    -0.329 N 
ATOM     16  H   LIG    1       28.024 -11.910   3.687  0.00  0.00    +0.145 HD
ATOM     17  H   LIG    1       28.967 -12.885   4.657  0.00  0.00    +0.145 HD
ENDBRANCH   8  15
BRANCH   1  18
ATOM     18  C   LIG    1       24.146 -19.295   3.601  0.00  0.00    +0.164 C 
BRANCH  18  20
ATOM     19  C   LIG    1       22.715 -19.862   5.668  0.00  0.00    +0.040 C 
ATOM     20  C   LIG    1       23.159 -18.796   4.675  0.00  0.00    +0.142 C 
BRANCH  20  21
ATOM     21  O   LIG    1       21.986 -18.309   4.011  0.00  0.00    -0.389 OA
ATOM     22  H   LIG    1       21.381 -19.077   3.964  0.00  0.00    +0.210 HD
ENDBRANCH  20  21
ENDBRANCH  18  20
BRANCH  18  23
ATOM     23  O   LIG    1       24.779 -20.491   4.106  0.00  0.00    -0.387 OA
ATOM     24  H   LIG    1       24.075 -20.986   4.567  0.00  0.00    +0.210 HD
ENDBRANCH  18  23
ENDBRANCH   1  18
TORSDOF 5
ENDMDL
MODEL 2
REMARK VINA RESULT:      -3.6      1.775      2.223
REMARK  Name = *****
REMARK                            x       y       z     vdW  Elec       q    Type
REMARK                         _______ _______ _______ _____ _____    ______ ____
ROOT
ATOM      1  C   LIG    1       24.209 -19.579   3.457  0.00  0.00    +0.119 C 
ATOM      2  N   LIG    1       23.566 -18.438   4.153  0.00  0.00    -0.330 N 
ATOM      3  H   LIG    1       22.552 -18.362   4.045  0.00  0.00    +0.147 HD
ATOM      4  C   LIG    1       24.137 -17.161   3.997  0.00  0.00    +0.133 A 
ATOM      5  C   LIG    1       25.387 -16.958   3.515  0.00  0.00    +0.126 A 
ATOM      6  N   LIG    1       25.859 -15.679   3.413  0.00  0.00    -0.315 N 
ATOM      7  H   LIG    1       26.603 -15.549   2.744  0.00  0.00    +0.170 HD
ATOM      8  C   LIG    1       25.064 -14.618   3.692  0.00  0.00    +0.195 A 
ATOM      9  N   LIG    1       23.856 -14.681   4.137  0.00  0.00    -0.176 NA
ATOM     10  N   LIG    1       26.164 -18.039   3.107  0.00  0.00    -0.327 N 
ATOM     11  H   LIG    1       27.157 -17.860   3.213  0.00  0.00    +0.147 HD
ATOM     12  C   LIG    1       23.300 -15.931   4.324  0.00  0.00    +0.297 A 
ATOM     13  O   LIG    1       22.143 -16.097   4.708  0.00  0.00    -0.264 OA
ATOM     14  C   LIG    1       25.759 -19.406   3.487  0.00  0.00    +0.128 C 
ENDROOT
BRANCH   8  15
ATOM     15  N   LIG    1       25.664 -13.422   3.468  0.00  0.00    -0.329 N 
ATOM     16  H   LIG    1       24.993 -12.757   3.088  0.00  0.00    +0.145 HD
ATOM     17  H   LIG    1       26.121 -13.035   4.285  0.00  0.00    +0.145 HD
ENDBRANCH   8  15
BRANCH   1  18
ATOM     18  C   LIG    1       23.774 -20.897   4.136  0.00  0.00    +0.164 C 
BRANCH  18  20
ATOM     19  C   LIG    1       23.237 -21.116   6.647  0.00  0.00    +0.040 C 
ATOM     20  C   LIG    1       22.734 -20.730   5.261  0.00  0.00    +0.142 C 
BRANCH  20  21
ATOM     21  O   LIG    1       21.613 -21.571   4.960  0.00  0.00    -0.389 OA
ATOM     22  H   LIG    1       20.836 -21.106   5.333  0.00  0.00    +0.210 HD
ENDBRANCH  20  21
ENDBRANCH  18  20
BRANCH  18  23
ATOM     23  O   LIG    1       24.923 -21.572   4.694  0.00  0.00    -0.387 OA
ATOM     24  H   LIG    1       25.205 -22.214   4.015  0.00  0.00    +0.210 HD
ENDBRANCH  18  23
ENDBRANCH   1  18
TORSDOF 5
ENDMDL
MODEL 3
REMARK VINA RESULT:      -3.4      2.154      5.408
REMARK  Name = *****
REMARK                            x       y       z     vdW  Elec       q    Type
REMARK                         _______ _______ _______ _____ _____    ______ ____
ROOT
ATOM      1  C   LIG    1       25.763 -15.438   3.845  0.00  0.00    +0.119 C 
ATOM      2  N   LIG    1       24.443 -16.105   3.726  0.00  0.00    -0.330 N 
ATOM      3  H   LIG    1       23.695 -15.723   4.310  0.00  0.00    +0.147 HD
ATOM      4  C   LIG    1       24.402 -17.509   3.795  0.00  0.00    +0.133 A 
ATOM      5  C   LIG    1       25.498 -18.294   3.657  0.00  0.00    +0.126 A 
ATOM      6  N   LIG    1       25.355 -19.652   3.726  0.00  0.00    -0.315 N 
ATOM      7  H   LIG    1       26.191 -20.159   3.976  0.00  0.00    +0.170 HD
ATOM      8  C   LIG    1       24.159 -20.212   4.028  0.00  0.00    +0.195 A 
ATOM      9  N   LIG    1       23.052 -19.574   4.201  0.00  0.00    -0.176 NA
ATOM     10  N   LIG    1       26.753 -17.718   3.473  0.00  0.00    -0.327 N 
ATOM     11  H   LIG    1       27.376 -18.317   2.941  0.00  0.00    +0.147 HD
ATOM     12  C   LIG    1       23.078 -18.197   4.102  0.00  0.00    +0.297 A 
ATOM     13  O   LIG    1       22.085 -17.495   4.287  0.00  0.00    -0.264 OA
ATOM     14  C   LIG    1       26.848 -16.289   3.116  0.00  0.00    +0.128 C 
ENDROOT
BRANCH   8  15
ATOM     15  N   LIG    1       24.208 -21.564   4.130  0.00  0.00    -0.329 N 
ATOM     16  H   LIG    1       23.296 -21.966   3.924  0.00  0.00    +0.145 HD
ATOM     17  H   LIG    1       24.921 -21.992   3.551  0.00  0.00    +0.145 HD
ENDBRANCH   8  15
BRANCH   1  18
ATOM     18  C   LIG    1       25.669 -14.015   3.252  0.00  0.00    +0.164 C 
BRANCH  18  20
ATOM     19  C   LIG    1       24.149 -12.044   2.582  0.00  0.00    +0.040 C 
ATOM     20  C   LIG    1       24.251 -13.409   3.251  0.00  0.00    +0.142 C 
BRANCH  20  21
ATOM     21  O   LIG    1       23.831 -13.255   4.613  0.00  0.00    -0.389 OA
ATOM     22  H   LIG    1       22.886 -13.006   4.563  0.00  0.00    +0.210 HD
ENDBRANCH  20  21
ENDBRANCH  18  20
BRANCH  18  23
ATOM     23  O   LIG    1       26.150 -14.011   1.890  0.00  0.00    -0.387 OA
ATOM     24  H   LIG    1       26.258 -13.069   1.653  0.00  0.00    +0.210 HD
ENDBRANCH  18  23
ENDBRANCH   1  18
TORSDOF 5
ENDMDL
MODEL 4
REMARK VINA RESULT:      -3.2      2.171      3.191
REMARK  Name = *****
REMARK                            x       y       z     vdW  Elec       q    Type
REMARK                         _______ _______ _______ _____ _____    ______ ____
ROOT
ATOM      1  C   LIG    1       23.656 -19.014   4.471  0.00  0.00    +0.119 C 
ATOM      2  N   LIG    1       24.667 -18.197   3.757  0.00  0.00    -0.330 N 
ATOM      3  H   LIG    1       25.645 -18.445   3.929  0.00  0.00    +0.147 HD
ATOM      4  C   LIG    1       24.539 -16.797   3.802  0.00  0.00    +0.133 A 
ATOM      5  C   LIG    1       23.404 -16.164   4.186  0.00  0.00    +0.126 A 
ATOM      6  N   LIG    1       23.371 -14.798   4.184  0.00  0.00    -0.315 N 
ATOM      7  H   LIG    1       22.681 -14.384   4.793  0.00  0.00    +0.170 HD
ATOM      8  C   LIG    1       24.482 -14.075   3.900  0.00  0.00    +0.195 A 
ATOM      9  N   LIG    1       25.622 -14.558   3.542  0.00  0.00    -0.176 NA
ATOM     10  N   LIG    1       22.298 -16.903   4.601  0.00  0.00    -0.327 N 
ATOM     11  H   LIG    1       21.424 -16.421   4.418  0.00  0.00    +0.147 HD
ATOM     12  C   LIG    1       25.746 -15.931   3.463  0.00  0.00    +0.297 A 
ATOM     13  O   LIG    1       26.801 -16.491   3.168  0.00  0.00    -0.264 OA
ATOM     14  C   LIG    1       22.250 -18.352   4.327  0.00  0.00    +0.128 C 
ENDROOT
BRANCH   8  15
ATOM     15  N   LIG    1       24.297 -12.736   4.016  0.00  0.00    -0.329 N 
ATOM     16  H   LIG    1       25.078 -12.235   3.598  0.00  0.00    +0.145 HD
ATOM     17  H   LIG    1       23.420 -12.410   3.627  0.00  0.00    +0.145 HD
ENDBRANCH   8  15
BRANCH   1  18
ATOM     18  C   LIG    1       23.666 -20.448   3.899  0.00  0.00    +0.164 C 
BRANCH  18  20
ATOM     19  C   LIG    1       23.839 -21.567   6.214  0.00  0.00    +0.040 C 
ATOM     20  C   LIG    1       24.371 -21.492   4.788  0.00  0.00    +0.142 C 
BRANCH  20  21
ATOM     21  O   LIG    1       25.760 -21.148   4.863  0.00  0.00    -0.389 OA
ATOM     22  H   LIG    1       25.788 -20.174   4.774  0.00  0.00    +0.210 HD
ENDBRANCH  20  21
ENDBRANCH  18  20
BRANCH  18  23
ATOM     23  O   LIG    1       24.310 -20.465   2.606  0.00  0.00    -0.387 OA
ATOM     24  H   LIG    1       24.220 -19.557   2.256  0.00  0.00    +0.210 HD
ENDBRANCH  18  23
ENDBRANCH   1  18
TORSDOF 5
ENDMDL
MODEL 5
REMARK VINA RESULT:      -3.1      2.273      6.044
REMARK  Name = *****
REMARK                            x       y       z     vdW  Elec       q    Type
REMARK                         _______ _______ _______ _____ _____    ______ ____
ROOT
ATOM      1  C   LIG    1       24.728 -14.627   3.519  0.00  0.00    +0.119 C 
ATOM      2  N   LIG    1       25.273 -16.003   3.613  0.00  0.00    -0.330 N 
ATOM      3  H   LIG    1       25.890 -16.292   2.851  0.00  0.00    +0.147 HD
ATOM      4  C   LIG    1       24.378 -17.051   3.897  0.00  0.00    +0.133 A 
ATOM      5  C   LIG    1       23.129 -16.853   4.384  0.00  0.00    +0.126 A 
ATOM      6  N   LIG    1       22.338 -17.937   4.642  0.00  0.00    -0.315 N 
ATOM      7  H   LIG    1       21.346 -17.752   4.650  0.00  0.00    +0.170 HD
ATOM      8  C   LIG    1       22.746 -19.190   4.324  0.00  0.00    +0.195 A 
ATOM      9  N   LIG    1       23.898 -19.504   3.839  0.00  0.00    -0.176 NA
ATOM     10  N   LIG    1       22.657 -15.560   4.594  0.00  0.00    -0.327 N 
ATOM     11  H   LIG    1       21.974 -15.517   5.343  0.00  0.00    +0.147 HD
ATOM     12  C   LIG    1       24.794 -18.484   3.589  0.00  0.00    +0.297 A 
ATOM     13  O   LIG    1       25.904 -18.675   3.092  0.00  0.00    -0.264 OA
ATOM     14  C   LIG    1       23.607 -14.431   4.587  0.00  0.00    +0.128 C 
ENDROOT
BRANCH   8  15
ATOM     15  N   LIG    1       21.812 -20.141   4.576  0.00  0.00    -0.329 N 
ATOM     16  H   LIG    1       21.878 -20.889   3.889  0.00  0.00    +0.145 HD
ATOM     17  H   LIG    1       21.857 -20.519   5.515  0.00  0.00    +0.145 HD
ENDBRANCH   8  15
BRANCH   1  18
ATOM     18  C   LIG    1       25.876 -13.611   3.713  0.00  0.00    +0.164 C 
BRANCH  18  20
ATOM     19  C   LIG    1       28.416 -13.187   3.619  0.00  0.00    +0.040 C 
ATOM     20  C   LIG    1       27.259 -14.106   3.245  0.00  0.00    +0.142 C 
BRANCH  20  21
ATOM     21  O   LIG    1       27.236 -14.211   1.816  0.00  0.00    -0.389 OA
ATOM     22  H   LIG    1       27.099 -13.297   1.494  0.00  0.00    +0.210 HD
ENDBRANCH  20  21
ENDBRANCH  18  20
BRANCH  18  23
ATOM     23  O   LIG    1       25.986 -13.245   5.105  0.00  0.00    -0.387 OA
ATOM     24  H   LIG    1       25.591 -12.354   5.174  0.00  0.00    +0.210 HD
ENDBRANCH  18  23
ENDBRANCH   1  18
TORSDOF 5
ENDMDL
MODEL 6
REMARK VINA RESULT:      -2.7      2.620      6.237
REMARK  Name = *****
REMARK                            x       y       z     vdW  Elec       q    Type
REMARK                         _______ _______ _______ _____ _____    ______ ____
ROOT
ATOM      1  C   LIG    1       24.404 -16.079   3.486  0.00  0.00    +0.119 C 
ATOM      2  N   LIG    1       24.977 -17.426   3.725  0.00  0.00    -0.330 N 
ATOM      3  H   LIG    1       25.643 -17.759   3.024  0.00  0.00    +0.147 HD
ATOM      4  C   LIG    1       24.095 -18.473   4.048  0.00  0.00    +0.133 A 
ATOM      5  C   LIG    1       22.817 -18.273   4.450  0.00  0.00    +0.126 A 
ATOM      6  N   LIG    1       22.040 -19.355   4.755  0.00  0.00    -0.315 N 
ATOM      7  H   LIG    1       21.044 -19.200   4.695  0.00  0.00    +0.170 HD
ATOM      8  C   LIG    1       22.496 -20.617   4.566  0.00  0.00    +0.195 A 
ATOM      9  N   LIG    1       23.682 -20.936   4.171  0.00  0.00    -0.176 NA
ATOM     10  N   LIG    1       22.301 -16.981   4.524  0.00  0.00    -0.327 N 
ATOM     11  H   LIG    1       21.576 -16.897   5.230  0.00  0.00    +0.147 HD
ATOM     12  C   LIG    1       24.563 -19.914   3.884  0.00  0.00    +0.297 A 
ATOM     13  O   LIG    1       25.703 -20.112   3.465  0.00  0.00    -0.264 OA
ATOM     14  C   LIG    1       23.222 -15.829   4.473  0.00  0.00    +0.128 C 
ENDROOT
BRANCH   8  15
ATOM     15  N   LIG    1       21.574 -21.572   4.848  0.00  0.00    -0.329 N 
ATOM     16  H   LIG    1       22.025 -22.479   4.940  0.00  0.00    +0.145 HD
ATOM     17  H   LIG    1       21.014 -21.369   5.668  0.00  0.00    +0.145 HD
ENDBRANCH   8  15
BRANCH   1  18
ATOM     18  C   LIG    1       25.513 -15.018   3.654  0.00  0.00    +0.164 C 
BRANCH  18  20
ATOM     19  C   LIG    1       24.641 -12.641   3.174  0.00  0.00    +0.040 C 
ATOM     20  C   LIG    1       25.034 -13.669   4.227  0.00  0.00    +0.142 C 
BRANCH  20  21
ATOM     21  O   LIG    1       26.102 -13.108   5.001  0.00  0.00    -0.389 OA
ATOM     22  H   LIG    1       26.904 -13.595   4.722  0.00  0.00    +0.210 HD
ENDBRANCH  20  21
ENDBRANCH  18  20
BRANCH  18  23
ATOM     23  O   LIG    1       26.148 -14.755   2.384  0.00  0.00    -0.387 OA
ATOM     24  H   LIG    1       27.102 -14.673   2.579  0.00  0.00    +0.210 HD
ENDBRANCH  18  23
ENDBRANCH   1  18
TORSDOF 5
ENDMDL
MODEL 7
REMARK VINA RESULT:      -2.5      2.379      5.752
REMARK  Name = *****
REMARK                            x       y       z     vdW  Elec       q    Type
REMARK                         _______ _______ _______ _____ _____    ______ ____
ROOT
ATOM      1  C   LIG    1       25.722 -16.170   3.764  0.00  0.00    +0.119 C 
ATOM      2  N   LIG    1       24.267 -16.455   3.799  0.00  0.00    -0.330 N 
ATOM      3  H   LIG    1       23.703 -15.827   4.376  0.00  0.00    +0.147 HD
ATOM      4  C   LIG    1       23.857 -17.780   4.035  0.00  0.00    +0.133 A 
ATOM      5  C   LIG    1       24.686 -18.846   3.928  0.00  0.00    +0.126 A 
ATOM      6  N   LIG    1       24.191 -20.098   4.164  0.00  0.00    -0.315 N 
ATOM      7  H   LIG    1       24.879 -20.790   4.424  0.00  0.00    +0.170 HD
ATOM      8  C   LIG    1       22.919 -20.275   4.597  0.00  0.00    +0.195 A 
ATOM      9  N   LIG    1       22.044 -19.342   4.757  0.00  0.00    -0.176 NA
ATOM     10  N   LIG    1       26.029 -18.659   3.606  0.00  0.00    -0.327 N 
ATOM     11  H   LIG    1       26.420 -19.456   3.113  0.00  0.00    +0.147 HD
ATOM     12  C   LIG    1       22.429 -18.043   4.495  0.00  0.00    +0.297 A 
ATOM     13  O   LIG    1       21.680 -17.079   4.653  0.00  0.00    -0.264 OA
ATOM     14  C   LIG    1       26.472 -17.355   3.079  0.00  0.00    +0.128 C 
ENDROOT
BRANCH   8  15
ATOM     15  N   LIG    1       22.613 -21.571   4.854  0.00  0.00    -0.329 N 
ATOM     16  H   LIG    1       23.333 -21.994   5.436  0.00  0.00    +0.145 HD
ATOM     17  H   LIG    1       21.699 -21.700   5.273  0.00  0.00    +0.145 HD
ENDBRANCH   8  15
BRANCH   1  18
ATOM     18  C   LIG    1       25.962 -14.841   3.014  0.00  0.00    +0.164 C 
BRANCH  18  20
ATOM     19  C   LIG    1       27.290 -13.705   4.908  0.00  0.00    +0.040 C 
ATOM     20  C   LIG    1       27.238 -14.085   3.434  0.00  0.00    +0.142 C 
BRANCH  20  21
ATOM     21  O   LIG    1       27.309 -12.872   2.673  0.00  0.00    -0.389 OA
ATOM     22  H   LIG    1       27.685 -12.208   3.285  0.00  0.00    +0.210 HD
ENDBRANCH  20  21
ENDBRANCH  18  20
BRANCH  18  23
ATOM     23  O   LIG    1       24.840 -13.952   3.206  0.00  0.00    -0.387 OA
ATOM     24  H   LIG    1       24.978 -13.216   2.578  0.00  0.00    +0.210 HD
ENDBRANCH  18  23
ENDBRANCH   1  18
TORSDOF 5
ENDMDL
MODEL 8
REMARK VINA RESULT:      -2.0      1.816      5.145
REMARK  Name = *****
REMARK                            x       y       z     vdW  Elec       q    Type
REMARK                         _______ _______ _______ _____ _____    ______ ____
ROOT
ATOM      1  C   LIG    1       25.866 -14.283   3.519  0.00  0.00    +0.119 C 
ATOM      2  N   LIG    1       25.290 -15.613   3.204  0.00  0.00    -0.330 N 
ATOM      3  H   LIG    1       24.300 -15.735   3.427  0.00  0.00    +0.147 HD
ATOM      4  C   LIG    1       25.995 -16.755   3.624  0.00  0.00    +0.133 A 
ATOM      5  C   LIG    1       27.291 -16.728   4.018  0.00  0.00    +0.126 A 
ATOM      6  N   LIG    1       27.895 -17.895   4.397  0.00  0.00    -0.315 N 
ATOM      7  H   LIG    1       28.696 -17.787   5.001  0.00  0.00    +0.170 HD
ATOM      8  C   LIG    1       27.190 -19.050   4.478  0.00  0.00    +0.195 A 
ATOM      9  N   LIG    1       25.952 -19.199   4.152  0.00  0.00    -0.176 NA
ATOM     10  N   LIG    1       27.985 -15.521   4.058  0.00  0.00    -0.327 N 
ATOM     11  H   LIG    1       28.981 -15.645   3.905  0.00  0.00    +0.147 HD
ATOM     12  C   LIG    1       25.263 -18.089   3.706  0.00  0.00    +0.297 A 
ATOM     13  O   LIG    1       24.070 -18.118   3.407  0.00  0.00    -0.264 OA
ATOM     14  C   LIG    1       27.419 -14.338   3.383  0.00  0.00    +0.128 C 
ENDROOT
BRANCH   8  15
ATOM     15  N   LIG    1       27.921 -20.095   4.941  0.00  0.00    -0.329 N 
ATOM     16  H   LIG    1       28.347 -20.597   4.165  0.00  0.00    +0.145 HD
ATOM     17  H   LIG    1       28.624 -19.832   5.621  0.00  0.00    +0.145 HD
ENDBRANCH   8  15
BRANCH   1  18
ATOM     18  C   LIG    1       25.254 -13.227   2.572  0.00  0.00    +0.164 C 
BRANCH  18  20
ATOM     19  C   LIG    1       24.180 -12.210   4.682  0.00  0.00    +0.040 C 
ATOM     20  C   LIG    1       24.712 -11.967   3.276  0.00  0.00    +0.142 C 
BRANCH  20  21
ATOM     21  O   LIG    1       23.631 -11.447   2.490  0.00  0.00    -0.389 OA
ATOM     22  H   LIG    1       23.893 -10.530   2.269  0.00  0.00    +0.210 HD
ENDBRANCH  20  21
ENDBRANCH  18  20
BRANCH  18  23
ATOM     23  O   LIG    1       24.171 -13.807   1.813  0.00  0.00    -0.387 OA
ATOM     24  H   LIG    1       23.352 -13.502   2.249  0.00  0.00    +0.210 HD
ENDBRANCH  18  23
ENDBRANCH   1  18
TORSDOF 5
ENDMDL
MODEL 9
REMARK VINA RESULT:      -1.9      3.028      5.965
REMARK  Name = *****
REMARK                            x       y       z     vdW  Elec       q    Type
REMARK                         _______ _______ _______ _____ _____    ______ ____
ROOT
ATOM      1  C   LIG    1       27.360 -15.439   3.244  0.00  0.00    +0.119 C 
ATOM      2  N   LIG    1       27.921 -16.357   4.265  0.00  0.00    -0.330 N 
ATOM      3  H   LIG    1       28.937 -16.475   4.250  0.00  0.00    +0.147 HD
ATOM      4  C   LIG    1       27.319 -17.619   4.423  0.00  0.00    +0.133 A 
ATOM      5  C   LIG    1       26.094 -17.927   3.930  0.00  0.00    +0.126 A 
ATOM      6  N   LIG    1       25.587 -19.177   4.148  0.00  0.00    -0.315 N 
ATOM      7  H   LIG    1       24.881 -19.474   3.490  0.00  0.00    +0.170 HD
ATOM      8  C   LIG    1       26.328 -20.135   4.757  0.00  0.00    +0.195 A 
ATOM      9  N   LIG    1       27.508 -19.971   5.249  0.00  0.00    -0.176 NA
ATOM     10  N   LIG    1       25.380 -16.986   3.193  0.00  0.00    -0.327 N 
ATOM     11  H   LIG    1       24.376 -17.114   3.276  0.00  0.00    +0.147 HD
ATOM     12  C   LIG    1       28.092 -18.726   5.127  0.00  0.00    +0.297 A 
ATOM     13  O   LIG    1       29.229 -18.479   5.529  0.00  0.00    -0.264 OA
ATOM     14  C   LIG    1       25.806 -15.573   3.215  0.00  0.00    +0.128 C 
ENDROOT
BRANCH   8  15
ATOM     15  N   LIG    1       25.704 -21.337   4.825  0.00  0.00    -0.329 N 
ATOM     16  H   LIG    1       25.719 -21.794   3.916  0.00  0.00    +0.145 HD
ATOM     17  H   LIG    1       26.080 -21.953   5.537  0.00  0.00    +0.145 HD
ENDBRANCH   8  15
BRANCH   1  18
ATOM     18  C   LIG    1       27.796 -13.993   3.567  0.00  0.00    +0.164 C 
BRANCH  18  20
ATOM     19  C   LIG    1       26.020 -13.086   5.199  0.00  0.00    +0.040 C 
ATOM     20  C   LIG    1       27.465 -13.525   4.998  0.00  0.00    +0.142 C 
BRANCH  20  21
ATOM     21  O   LIG    1       28.303 -12.403   5.306  0.00  0.00    -0.389 OA
ATOM     22  H   LIG    1       28.020 -12.107   6.195  0.00  0.00    +0.210 HD
ENDBRANCH  20  21
ENDBRANCH  18  20
BRANCH  18  23
ATOM     23  O   LIG    1       27.176 -13.069   2.647  0.00  0.00    -0.387 OA
ATOM     24  H   LIG    1       26.215 -13.221   2.729  0.00  0.00    +0.210 HD
ENDBRANCH  18  23
ENDBRANCH   1  18
TORSDOF 5
ENDMDL
