MODEL 1
REMARK VINA RESULT:      29.1      0.000      0.000
REMARK  Name = *****
REMARK                            x       y       z     vdW  Elec       q    Type
REMARK                         _______ _______ _______ _____ _____    ______ ____
ROOT
ATOM      1  C   LIG    1       22.424 -14.184   5.558  0.00  0.00    +0.066 C 
ATOM      2  C   LIG    1       22.570 -12.804   6.210  0.00  0.00    +0.035 C 
ATOM      3  C   LIG    1       20.980 -14.685   5.724  0.00  0.00    +0.035 C 
ENDROOT
BRANCH   1   4
ATOM      4  S   LIG    1       23.516 -15.423   6.451  0.00  0.00    -0.108 S 
BRANCH   4   9
ATOM      5  C   LIG    1       23.216 -19.415   5.587  0.00  0.00    +0.001 A 
ATOM      6  C   LIG    1       22.175 -19.381   4.616  0.00  0.00    +0.124 A 
ATOM      7  C   LIG    1       21.459 -18.208   4.272  0.00  0.00    +0.001 A 
ATOM      8  C   LIG    1       21.880 -17.023   4.896  0.00  0.00    +0.022 A 
ATOM      9  C   LIG    1       22.972 -16.986   5.772  0.00  0.00    +0.010 A 
ATOM     10  C   LIG    1       23.596 -18.177   6.138  0.00  0.00    +0.022 A 
BRANCH   5  12
ATOM     11  C   LIG    1       24.388 -21.571   4.867  0.00  0.00    +0.016 C 
ATOM     12  C   LIG    1       23.889 -20.726   6.054  0.00  0.00    -0.009 C 
ATOM     13  C   LIG    1       25.122 -20.501   6.973  0.00  0.00    +0.016 C 
ATOM     14  C   LIG    1       22.890 -21.562   6.897  0.00  0.00    +0.016 C 
ENDBRANCH   5  12
BRANCH   7  15
ATOM     15  C   LIG    1       20.277 -18.180   3.268  0.00  0.00    -0.009 C 
ATOM     16  C   LIG    1       19.356 -19.408   3.461  0.00  0.00    +0.016 C 
ATOM     17  C   LIG    1       20.793 -18.149   1.813  0.00  0.00    +0.016 C 
ATOM     18  C   LIG    1       19.354 -16.943   3.425  0.00  0.00    +0.016 C 
ENDBRANCH   7  15
BRANCH   6  19
ATOM     19  O   LIG    1       21.871 -20.543   3.959  0.00  0.00    -0.506 OA
ATOM     20  H   LIG    1       21.253 -20.312   3.268  0.00  0.00    +0.292 HD
ENDBRANCH   6  19
ENDBRANCH   4   9
ENDBRANCH   1   4
BRANCH   1  21
ATOM     21  S   LIG    1       22.858 -14.190   3.749  0.00  0.00    -0.108 S 
BRANCH  21  22
ATOM     22  C   LIG    1       24.554 -14.736   3.754  0.00  0.00    +0.010 A 
ATOM     23  C   LIG    1       24.858 -16.096   3.648  0.00  0.00    +0.022 A 
ATOM     24  C   LIG    1       26.178 -16.567   3.634  0.00  0.00    +0.001 A 
ATOM     25  C   LIG    1       27.192 -15.572   3.779  0.00  0.00    +0.124 A 
ATOM     26  C   LIG    1       26.936 -14.178   3.841  0.00  0.00    +0.001 A 
ATOM     27  C   LIG    1       25.586 -13.790   3.799  0.00  0.00    +0.022 A 
BRANCH  24  28
ATOM     28  C   LIG    1       26.451 -18.082   3.498  0.00  0.00    -0.009 C 
ATOM     29  C   LIG    1       27.168 -18.495   2.196  0.00  0.00    +0.016 C 
ATOM     30  C   LIG    1       25.138 -18.921   3.511  0.00  0.00    +0.016 C 
ATOM     31  C   LIG    1       27.303 -18.542   4.700  0.00  0.00    +0.016 C 
ENDBRANCH  24  28
BRANCH  26  32
ATOM     32  C   LIG    1       28.059 -13.121   3.947  0.00  0.00    -0.009 C 
ATOM     33  C   LIG    1       27.769 -11.937   2.996  0.00  0.00    +0.016 C 
ATOM     34  C   LIG    1       29.434 -13.737   3.592  0.00  0.00    +0.016 C 
ATOM     35  C   LIG    1       28.224 -12.518   5.365  0.00  0.00    +0.016 C 
ENDBRANCH  26  32
BRANCH  25  36
ATOM     36  O   LIG    1       28.491 -15.971   3.897  0.00  0.00    -0.506 OA
ATOM     37  H   LIG    1       28.454 -16.915   4.111  0.00  0.00    +0.292 HD
ENDBRANCH  25  36
ENDBRANCH  21  22
ENDBRANCH   1  21
TORSDOF 10
ENDMDL
MODEL 2
REMARK VINA RESULT:      29.7      0.411      3.176
REMARK  Name = *****
REMARK                            x       y       z     vdW  Elec       q    Type
REMARK                         _______ _______ _______ _____ _____    ______ ____
ROOT
ATOM      1  C   LIG    1       22.450 -14.187   5.572  0.00  0.00    +0.066 C 
ATOM      2  C   LIG    1       22.732 -12.773   6.091  0.00  0.00    +0.035 C 
ATOM      3  C   LIG    1       20.960 -14.519   5.759  0.00  0.00    +0.035 C 
ENDROOT
BRANCH   1   4
ATOM      4  S   LIG    1       23.399 -15.438   6.601  0.00  0.00    -0.108 S 
BRANCH   4   9
ATOM      5  C   LIG    1       23.193 -19.419   5.662  0.00  0.00    +0.001 A 
ATOM      6  C   LIG    1       22.188 -19.385   4.653  0.00  0.00    +0.124 A 
ATOM      7  C   LIG    1       21.468 -18.217   4.302  0.00  0.00    +0.001 A 
ATOM      8  C   LIG    1       21.847 -17.036   4.960  0.00  0.00    +0.022 A 
ATOM      9  C   LIG    1       22.905 -16.998   5.877  0.00  0.00    +0.010 A 
ATOM     10  C   LIG    1       23.533 -18.186   6.247  0.00  0.00    +0.022 A 
BRANCH   5  12
ATOM     11  C   LIG    1       24.379 -21.570   4.949  0.00  0.00    +0.016 C 
ATOM     12  C   LIG    1       23.868 -20.728   6.133  0.00  0.00    -0.009 C 
ATOM     13  C   LIG    1       25.093 -20.499   7.061  0.00  0.00    +0.016 C 
ATOM     14  C   LIG    1       22.866 -21.569   6.968  0.00  0.00    +0.016 C 
ENDBRANCH   5  12
BRANCH   7  15
ATOM     15  C   LIG    1       20.324 -18.189   3.254  0.00  0.00    -0.009 C 
ATOM     16  C   LIG    1       20.891 -18.225   1.815  0.00  0.00    +0.016 C 
ATOM     17  C   LIG    1       19.447 -16.931   3.430  0.00  0.00    +0.016 C 
ATOM     18  C   LIG    1       19.362 -19.403   3.349  0.00  0.00    +0.016 C 
ENDBRANCH   7  15
BRANCH   6  19
ATOM     19  O   LIG    1       21.927 -20.539   3.967  0.00  0.00    -0.506 OA
ATOM     20  H   LIG    1       22.758 -21.007   3.895  0.00  0.00    +0.292 HD
ENDBRANCH   6  19
ENDBRANCH   4   9
ENDBRANCH   1   4
BRANCH   1  21
ATOM     21  S   LIG    1       22.897 -14.415   3.781  0.00  0.00    -0.108 S 
BRANCH  21  22
ATOM     22  C   LIG    1       24.619 -14.863   3.860  0.00  0.00    +0.010 A 
ATOM     23  C   LIG    1       25.601 -13.875   3.978  0.00  0.00    +0.022 A 
ATOM     24  C   LIG    1       26.966 -14.184   4.057  0.00  0.00    +0.001 A 
ATOM     25  C   LIG    1       27.292 -15.571   3.967  0.00  0.00    +0.124 A 
ATOM     26  C   LIG    1       26.331 -16.613   3.897  0.00  0.00    +0.001 A 
ATOM     27  C   LIG    1       24.984 -16.216   3.871  0.00  0.00    +0.022 A 
BRANCH  24  28
ATOM     28  C   LIG    1       28.003 -13.047   4.203  0.00  0.00    -0.009 C 
ATOM     29  C   LIG    1       27.741 -11.816   3.311  0.00  0.00    +0.016 C 
ATOM     30  C   LIG    1       29.442 -13.511   3.825  0.00  0.00    +0.016 C 
ATOM     31  C   LIG    1       28.036 -12.593   5.677  0.00  0.00    +0.016 C 
ENDBRANCH  24  28
BRANCH  26  32
ATOM     32  C   LIG    1       26.716 -18.109   3.851  0.00  0.00    -0.009 C 
ATOM     33  C   LIG    1       28.253 -18.263   3.790  0.00  0.00    +0.016 C 
ATOM     34  C   LIG    1       26.082 -18.806   2.624  0.00  0.00    +0.016 C 
ATOM     35  C   LIG    1       26.240 -18.919   5.085  0.00  0.00    +0.016 C 
ENDBRANCH  26  32
BRANCH  25  36
ATOM     36  O   LIG    1       28.606 -15.933   3.914  0.00  0.00    -0.506 OA
ATOM     37  H   LIG    1       28.627 -16.759   3.408  0.00  0.00    +0.292 HD
ENDBRANCH  25  36
ENDBRANCH  21  22
ENDBRANCH   1  21
TORSDOF 10
ENDMDL
