MODEL 1
REMARK VINA RESULT:      -3.9      0.000      0.000
REMARK  Name = *****
REMARK                            x       y       z     vdW  Elec       q    Type
REMARK                         _______ _______ _______ _____ _____    ______ ____
ROOT
ATOM      1  C   LIG    1       22.433 -19.392   6.520  0.00  0.00    +0.105 C 
ATOM      2  N   LIG    1       23.378 -20.065   5.555  0.00  0.00    -0.302 NA
ATOM      3  C   LIG    1       23.892 -21.207   6.411  0.00  0.00    +0.065 C 
ATOM      4  C   LIG    1       25.342 -21.435   6.972  0.00  0.00    +0.054 C 
ATOM      5  C   LIG    1       26.513 -20.666   6.404  0.00  0.00    -0.042 A 
ATOM      6  C   LIG    1       26.371 -20.037   5.181  0.00  0.00    -0.034 A 
ATOM      7  C   LIG    1       25.060 -20.155   4.505  0.00  0.00    +0.002 C 
ATOM      8  C   LIG    1       24.369 -18.388   4.444  0.00  0.00    +0.012 C 
ATOM      9  C   LIG    1       22.663 -18.153   4.036  0.00  0.00    +0.001 C 
ATOM     10  C   LIG    1       21.472 -19.516   4.061  0.00  0.00    +0.000 C 
ATOM     11  C   LIG    1       21.880 -21.249   4.630  0.00  0.00    +0.006 C 
ATOM     12  C   LIG    1       25.009 -20.560   3.147  0.00  0.00    +0.027 C 
ATOM     13  C   LIG    1       27.363 -19.175   4.691  0.00  0.00    +0.049 A 
ATOM     14  C   LIG    1       28.554 -19.025   5.376  0.00  0.00    +0.117 A 
ATOM     15  C   LIG    1       28.772 -19.739   6.546  0.00  0.00    +0.045 A 
ATOM     16  C   LIG    1       27.750 -20.555   7.062  0.00  0.00    +0.007 A 
ATOM     17  C   LIG    1       23.777 -21.571   5.059  0.00  0.00    +0.017 C 
ATOM     18  C   LIG    1       23.579 -20.296   3.600  0.00  0.00    +0.085 C 
ENDROOT
BRANCH  14  19
ATOM     19  O   LIG    1       29.474 -18.165   4.856  0.00  0.00    -0.507 OA
ATOM     20  H   LIG    1       30.362 -18.505   5.045  0.00  0.00    +0.292 HD
ENDBRANCH  14  19
TORSDOF 1
ENDMDL
MODEL 2
REMARK VINA RESULT:      -1.9      2.666      4.381
REMARK  Name = *****
REMARK                            x       y       z     vdW  Elec       q    Type
REMARK                         _______ _______ _______ _____ _____    ______ ____
ROOT
ATOM      1  C   LIG    1       25.375 -20.437   5.789  0.00  0.00    +0.105 C 
ATOM      2  N   LIG    1       24.523 -19.761   4.743  0.00  0.00    -0.302 NA
ATOM      3  C   LIG    1       25.555 -19.501   3.661  0.00  0.00    +0.065 C 
ATOM      4  C   LIG    1       26.116 -18.124   3.154  0.00  0.00    +0.054 C 
ATOM      5  C   LIG    1       25.399 -16.835   3.484  0.00  0.00    -0.042 A 
ATOM      6  C   LIG    1       24.088 -16.892   3.919  0.00  0.00    -0.034 A 
ATOM      7  C   LIG    1       23.470 -18.231   4.043  0.00  0.00    +0.002 C 
ATOM      8  C   LIG    1       23.115 -18.449   5.894  0.00  0.00    +0.012 C 
ATOM      9  C   LIG    1       22.708 -20.061   6.501  0.00  0.00    +0.001 C 
ATOM     10  C   LIG    1       22.995 -21.557   5.522  0.00  0.00    +0.000 C 
ATOM     11  C   LIG    1       23.850 -21.570   3.861  0.00  0.00    +0.006 C 
ATOM     12  C   LIG    1       22.205 -18.473   3.449  0.00  0.00    +0.027 C 
ATOM     13  C   LIG    1       23.434 -15.747   4.397  0.00  0.00    +0.049 A 
ATOM     14  C   LIG    1       24.057 -14.515   4.338  0.00  0.00    +0.117 A 
ATOM     15  C   LIG    1       25.329 -14.410   3.793  0.00  0.00    +0.045 A 
ATOM     16  C   LIG    1       26.001 -15.570   3.371  0.00  0.00    +0.007 A 
ATOM     17  C   LIG    1       24.289 -19.795   3.124  0.00  0.00    +0.017 C 
ATOM     18  C   LIG    1       22.634 -19.755   4.150  0.00  0.00    +0.085 C 
ENDROOT
BRANCH  14  19
ATOM     19  O   LIG    1       23.376 -13.441   4.829  0.00  0.00    -0.507 OA
ATOM     20  H   LIG    1       22.477 -13.720   5.062  0.00  0.00    +0.292 HD
ENDBRANCH  14  19
TORSDOF 1
ENDMDL
