MODEL 1
REMARK VINA RESULT:      -6.8      0.000      0.000
REMARK  Name = *****
REMARK                            x       y       z     vdW  Elec       q    Type
REMARK                         _______ _______ _______ _____ _____    ______ ____
ROOT
ATOM      1  N   LIG    1       26.196 -21.761   6.458  0.00  0.00    -0.284 N 
ATOM      2  H   LIG    1       26.767 -21.920   5.639  0.00  0.00    +0.155 HD
ATOM      3  C   LIG    1       26.920 -21.401   7.591  0.00  0.00    +0.234 C 
ATOM      4  O   LIG    1       26.622 -21.699   8.749  0.00  0.00    -0.274 OA
ENDROOT
BRANCH   1   7
ATOM      5  C   LIG    1       26.271 -24.733   6.447  0.00  0.00    +0.045 C 
ATOM      6  C   LIG    1       25.005 -23.917   6.523  0.00  0.00    -0.029 A 
ATOM      7  C   LIG    1       24.996 -22.504   6.549  0.00  0.00    +0.039 A 
ATOM      8  C   LIG    1       23.777 -21.806   6.703  0.00  0.00    -0.029 A 
ATOM      9  C   LIG    1       23.704 -20.304   6.737  0.00  0.00    +0.045 C 
ATOM     10  C   LIG    1       22.579 -22.533   6.791  0.00  0.00    +0.005 A 
ATOM     11  C   LIG    1       22.582 -23.923   6.721  0.00  0.00    +0.001 A 
ATOM     12  C   LIG    1       23.786 -24.609   6.588  0.00  0.00    +0.005 A 
ENDBRANCH   1   7
BRANCH   3  13
ATOM     13  C   LIG    1       28.185 -20.589   7.249  0.00  0.00    +0.135 C 
ATOM     14  C   LIG    1       28.068 -19.952   5.868  0.00  0.00    +0.033 C 
BRANCH  13  15
ATOM     15  N   LIG    1       29.369 -21.470   7.289  0.00  0.00    -0.320 NA
ATOM     16  H   LIG    1       29.134 -22.333   7.781  0.00  0.00    +0.119 HD
ATOM     17  H   LIG    1       29.588 -21.759   6.333  0.00  0.00    +0.119 HD
ENDBRANCH  13  15
ENDBRANCH   3  13
TORSDOF 3
ENDMDL
MODEL 2
REMARK VINA RESULT:      -6.7      1.388      2.646
REMARK  Name = *****
REMARK                            x       y       z     vdW  Elec       q    Type
REMARK                         _______ _______ _______ _____ _____    ______ ____
ROOT
ATOM      1  N   LIG    1       26.209 -21.480   5.768  0.00  0.00    -0.284 N 
ATOM      2  H   LIG    1       26.836 -22.061   5.229  0.00  0.00    +0.155 HD
ATOM      3  C   LIG    1       26.850 -20.664   6.697  0.00  0.00    +0.234 C 
ATOM      4  O   LIG    1       26.388 -20.334   7.790  0.00  0.00    -0.274 OA
ENDROOT
BRANCH   1   7
ATOM      5  C   LIG    1       23.812 -19.920   4.956  0.00  0.00    +0.045 C 
ATOM      6  C   LIG    1       23.757 -21.259   5.644  0.00  0.00    -0.029 A 
ATOM      7  C   LIG    1       24.911 -21.993   6.002  0.00  0.00    +0.039 A 
ATOM      8  C   LIG    1       24.785 -23.280   6.571  0.00  0.00    -0.029 A 
ATOM      9  C   LIG    1       25.975 -24.108   6.972  0.00  0.00    +0.045 C 
ATOM     10  C   LIG    1       23.503 -23.799   6.811  0.00  0.00    +0.005 A 
ATOM     11  C   LIG    1       22.365 -23.059   6.501  0.00  0.00    +0.001 A 
ATOM     12  C   LIG    1       22.492 -21.800   5.922  0.00  0.00    +0.005 A 
ENDBRANCH   1   7
BRANCH   3  13
ATOM     13  C   LIG    1       28.248 -20.220   6.224  0.00  0.00    +0.135 C 
ATOM     14  C   LIG    1       29.022 -19.557   7.359  0.00  0.00    +0.033 C 
BRANCH  13  15
ATOM     15  N   LIG    1       28.117 -19.276   5.097  0.00  0.00    -0.320 NA
ATOM     16  H   LIG    1       29.006 -19.218   4.598  0.00  0.00    +0.119 HD
ATOM     17  H   LIG    1       27.458 -19.670   4.422  0.00  0.00    +0.119 HD
ENDBRANCH  13  15
ENDBRANCH   3  13
TORSDOF 3
ENDMDL
MODEL 3
REMARK VINA RESULT:      -6.6      1.440      1.531
REMARK  Name = *****
REMARK                            x       y       z     vdW  Elec       q    Type
REMARK                         _______ _______ _______ _____ _____    ______ ____
ROOT
ATOM      1  N   LIG    1       26.239 -21.431   5.737  0.00  0.00    -0.284 N 
ATOM      2  H   LIG    1       26.857 -22.008   5.183  0.00  0.00    +0.155 HD
ATOM      3  C   LIG    1       26.895 -20.633   6.671  0.00  0.00    +0.234 C 
ATOM      4  O   LIG    1       26.447 -20.316   7.774  0.00  0.00    -0.274 OA
ENDROOT
BRANCH   1   7
ATOM      5  C   LIG    1       25.885 -24.019   7.157  0.00  0.00    +0.045 C 
ATOM      6  C   LIG    1       24.749 -23.180   6.630  0.00  0.00    -0.029 A 
ATOM      7  C   LIG    1       24.941 -21.941   5.977  0.00  0.00    +0.039 A 
ATOM      8  C   LIG    1       23.826 -21.168   5.581  0.00  0.00    -0.029 A 
ATOM      9  C   LIG    1       23.968 -19.843   4.882  0.00  0.00    +0.045 C 
ATOM     10  C   LIG    1       22.534 -21.665   5.810  0.00  0.00    +0.005 A 
ATOM     11  C   LIG    1       22.343 -22.905   6.413  0.00  0.00    +0.001 A 
ATOM     12  C   LIG    1       23.443 -23.655   6.820  0.00  0.00    +0.005 A 
ENDBRANCH   1   7
BRANCH   3  13
ATOM     13  C   LIG    1       28.290 -20.189   6.190  0.00  0.00    +0.135 C 
ATOM     14  C   LIG    1       29.089 -19.568   7.332  0.00  0.00    +0.033 C 
BRANCH  13  15
ATOM     15  N   LIG    1       28.153 -19.212   5.092  0.00  0.00    -0.320 NA
ATOM     16  H   LIG    1       28.179 -18.266   5.475  0.00  0.00    +0.119 HD
ATOM     17  H   LIG    1       28.979 -19.282   4.494  0.00  0.00    +0.119 HD
ENDBRANCH  13  15
ENDBRANCH   3  13
TORSDOF 3
ENDMDL
MODEL 4
REMARK VINA RESULT:      -6.5      1.867      2.513
REMARK  Name = *****
REMARK                            x       y       z     vdW  Elec       q    Type
REMARK                         _______ _______ _______ _____ _____    ______ ____
ROOT
ATOM      1  N   LIG    1       26.474 -21.027   5.550  0.00  0.00    -0.284 N 
ATOM      2  H   LIG    1       26.937 -21.807   5.106  0.00  0.00    +0.155 HD
ATOM      3  C   LIG    1       27.141 -20.535   6.670  0.00  0.00    +0.234 C 
ATOM      4  O   LIG    1       26.599 -20.052   7.664  0.00  0.00    -0.274 OA
ENDROOT
BRANCH   1   7
ATOM      5  C   LIG    1       24.799 -22.884   7.158  0.00  0.00    +0.045 C 
ATOM      6  C   LIG    1       24.248 -21.873   6.186  0.00  0.00    -0.029 A 
ATOM      7  C   LIG    1       25.063 -20.984   5.449  0.00  0.00    +0.039 A 
ATOM      8  C   LIG    1       24.474 -20.006   4.617  0.00  0.00    -0.029 A 
ATOM      9  C   LIG    1       25.289 -19.035   3.808  0.00  0.00    +0.045 C 
ATOM     10  C   LIG    1       23.075 -19.956   4.505  0.00  0.00    +0.005 A 
ATOM     11  C   LIG    1       22.273 -20.859   5.196  0.00  0.00    +0.001 A 
ATOM     12  C   LIG    1       22.855 -21.809   6.030  0.00  0.00    +0.005 A 
ENDBRANCH   1   7
BRANCH   3  13
ATOM     13  C   LIG    1       28.671 -20.680   6.554  0.00  0.00    +0.135 C 
ATOM     14  C   LIG    1       29.265 -21.241   7.843  0.00  0.00    +0.033 C 
BRANCH  13  15
ATOM     15  N   LIG    1       29.276 -19.367   6.260  0.00  0.00    -0.320 NA
ATOM     16  H   LIG    1       29.183 -18.760   7.076  0.00  0.00    +0.119 HD
ATOM     17  H   LIG    1       30.283 -19.496   6.137  0.00  0.00    +0.119 HD
ENDBRANCH  13  15
ENDBRANCH   3  13
TORSDOF 3
ENDMDL
MODEL 5
REMARK VINA RESULT:      -6.5      1.831      3.033
REMARK  Name = *****
REMARK                            x       y       z     vdW  Elec       q    Type
REMARK                         _______ _______ _______ _____ _____    ______ ____
ROOT
ATOM      1  N   LIG    1       26.484 -21.061   5.593  0.00  0.00    -0.284 N 
ATOM      2  H   LIG    1       26.944 -21.855   5.170  0.00  0.00    +0.155 HD
ATOM      3  C   LIG    1       27.149 -20.548   6.703  0.00  0.00    +0.234 C 
ATOM      4  O   LIG    1       26.606 -20.037   7.683  0.00  0.00    -0.274 OA
ENDROOT
BRANCH   1   7
ATOM      5  C   LIG    1       25.191 -19.084   3.788  0.00  0.00    +0.045 C 
ATOM      6  C   LIG    1       24.437 -20.065   4.648  0.00  0.00    -0.029 A 
ATOM      7  C   LIG    1       25.074 -21.011   5.483  0.00  0.00    +0.039 A 
ATOM      8  C   LIG    1       24.306 -21.955   6.201  0.00  0.00    -0.029 A 
ATOM      9  C   LIG    1       24.927 -22.985   7.104  0.00  0.00    +0.045 C 
ATOM     10  C   LIG    1       22.906 -21.913   6.103  0.00  0.00    +0.005 A 
ATOM     11  C   LIG    1       22.275 -20.954   5.316  0.00  0.00    +0.001 A 
ATOM     12  C   LIG    1       23.036 -20.038   4.595  0.00  0.00    +0.005 A 
ENDBRANCH   1   7
BRANCH   3  13
ATOM     13  C   LIG    1       28.679 -20.706   6.599  0.00  0.00    +0.135 C 
ATOM     14  C   LIG    1       29.260 -21.258   7.897  0.00  0.00    +0.033 C 
BRANCH  13  15
ATOM     15  N   LIG    1       29.296 -19.400   6.295  0.00  0.00    -0.320 NA
ATOM     16  H   LIG    1       28.631 -18.821   5.782  0.00  0.00    +0.119 HD
ATOM     17  H   LIG    1       29.455 -18.907   7.177  0.00  0.00    +0.119 HD
ENDBRANCH  13  15
ENDBRANCH   3  13
TORSDOF 3
ENDMDL
MODEL 6
REMARK VINA RESULT:      -6.5      2.428      4.388
REMARK  Name = *****
REMARK                            x       y       z     vdW  Elec       q    Type
REMARK                         _______ _______ _______ _____ _____    ______ ____
ROOT
ATOM      1  N   LIG    1       25.412 -24.465   6.938  0.00  0.00    -0.284 N 
ATOM      2  H   LIG    1       26.135 -24.734   7.591  0.00  0.00    +0.155 HD
ATOM      3  C   LIG    1       25.452 -25.161   5.732  0.00  0.00    +0.234 C 
ATOM      4  O   LIG    1       25.134 -24.699   4.635  0.00  0.00    -0.274 OA
ENDROOT
BRANCH   1   7
ATOM      5  C   LIG    1       22.507 -23.856   6.772  0.00  0.00    +0.045 C 
ATOM      6  C   LIG    1       23.585 -22.812   6.909  0.00  0.00    -0.029 A 
ATOM      7  C   LIG    1       24.959 -23.127   7.009  0.00  0.00    +0.039 A 
ATOM      8  C   LIG    1       25.908 -22.101   7.218  0.00  0.00    -0.029 A 
ATOM      9  C   LIG    1       27.383 -22.375   7.331  0.00  0.00    +0.045 C 
ATOM     10  C   LIG    1       25.472 -20.769   7.286  0.00  0.00    +0.005 A 
ATOM     11  C   LIG    1       24.124 -20.453   7.145  0.00  0.00    +0.001 A 
ATOM     12  C   LIG    1       23.189 -21.467   6.958  0.00  0.00    +0.005 A 
ENDBRANCH   1   7
BRANCH   3  13
ATOM     13  C   LIG    1       25.971 -26.602   5.900  0.00  0.00    +0.135 C 
ATOM     14  C   LIG    1       25.963 -27.017   7.368  0.00  0.00    +0.033 C 
BRANCH  13  15
ATOM     15  N   LIG    1       27.343 -26.704   5.364  0.00  0.00    -0.320 NA
ATOM     16  H   LIG    1       27.347 -27.331   4.559  0.00  0.00    +0.119 HD
ATOM     17  H   LIG    1       27.612 -25.790   4.992  0.00  0.00    +0.119 HD
ENDBRANCH  13  15
ENDBRANCH   3  13
TORSDOF 3
ENDMDL
MODEL 7
REMARK VINA RESULT:      -6.5      2.433      4.265
REMARK  Name = *****
REMARK                            x       y       z     vdW  Elec       q    Type
REMARK                         _______ _______ _______ _____ _____    ______ ____
ROOT
ATOM      1  N   LIG    1       25.470 -24.483   6.935  0.00  0.00    -0.284 N 
ATOM      2  H   LIG    1       26.199 -24.775   7.570  0.00  0.00    +0.155 HD
ATOM      3  C   LIG    1       25.477 -25.158   5.717  0.00  0.00    +0.234 C 
ATOM      4  O   LIG    1       25.147 -24.673   4.634  0.00  0.00    -0.274 OA
ENDROOT
BRANCH   1   7
ATOM      5  C   LIG    1       27.458 -22.294   7.241  0.00  0.00    +0.045 C 
ATOM      6  C   LIG    1       25.966 -22.084   7.204  0.00  0.00    -0.029 A 
ATOM      7  C   LIG    1       25.040 -23.139   7.036  0.00  0.00    +0.039 A 
ATOM      8  C   LIG    1       23.659 -22.859   6.929  0.00  0.00    -0.029 A 
ATOM      9  C   LIG    1       22.627 -23.939   6.750  0.00  0.00    +0.045 C 
ATOM     10  C   LIG    1       23.220 -21.530   7.032  0.00  0.00    +0.005 A 
ATOM     11  C   LIG    1       24.127 -20.495   7.242  0.00  0.00    +0.001 A 
ATOM     12  C   LIG    1       25.488 -20.771   7.327  0.00  0.00    +0.005 A 
ENDBRANCH   1   7
BRANCH   3  13
ATOM     13  C   LIG    1       25.976 -26.610   5.851  0.00  0.00    +0.135 C 
ATOM     14  C   LIG    1       25.888 -27.086   7.298  0.00  0.00    +0.033 C 
BRANCH  13  15
ATOM     15  N   LIG    1       27.372 -26.704   5.383  0.00  0.00    -0.320 NA
ATOM     16  H   LIG    1       27.398 -26.594   4.368  0.00  0.00    +0.119 HD
ATOM     17  H   LIG    1       27.889 -25.903   5.751  0.00  0.00    +0.119 HD
ENDBRANCH  13  15
ENDBRANCH   3  13
TORSDOF 3
ENDMDL
MODEL 8
REMARK VINA RESULT:      -6.2      2.140      5.645
REMARK  Name = *****
REMARK                            x       y       z     vdW  Elec       q    Type
REMARK                         _______ _______ _______ _____ _____    ______ ____
ROOT
ATOM      1  N   LIG    1       27.922 -21.654   7.454  0.00  0.00    -0.284 N 
ATOM      2  H   LIG    1       27.715 -22.227   6.648  0.00  0.00    +0.155 HD
ATOM      3  C   LIG    1       26.809 -21.343   8.230  0.00  0.00    +0.234 C 
ATOM      4  O   LIG    1       26.648 -20.292   8.852  0.00  0.00    -0.274 OA
ENDROOT
BRANCH   1   7
ATOM      5  C   LIG    1       30.316 -21.980   9.186  0.00  0.00    +0.045 C 
ATOM      6  C   LIG    1       30.155 -20.886   8.162  0.00  0.00    -0.029 A 
ATOM      7  C   LIG    1       29.016 -20.764   7.334  0.00  0.00    +0.039 A 
ATOM      8  C   LIG    1       28.968 -19.762   6.339  0.00  0.00    -0.029 A 
ATOM      9  C   LIG    1       27.783 -19.582   5.429  0.00  0.00    +0.045 C 
ATOM     10  C   LIG    1       30.045 -18.871   6.213  0.00  0.00    +0.005 A 
ATOM     11  C   LIG    1       31.148 -18.962   7.057  0.00  0.00    +0.001 A 
ATOM     12  C   LIG    1       31.202 -19.962   8.023  0.00  0.00    +0.005 A 
ENDBRANCH   1   7
BRANCH   3  13
ATOM     13  C   LIG    1       25.751 -22.463   8.217  0.00  0.00    +0.135 C 
ATOM     14  C   LIG    1       26.021 -23.456   7.091  0.00  0.00    +0.033 C 
BRANCH  13  15
ATOM     15  N   LIG    1       24.406 -21.878   8.049  0.00  0.00    -0.320 NA
ATOM     16  H   LIG    1       24.073 -21.529   8.949  0.00  0.00    +0.119 HD
ATOM     17  H   LIG    1       24.488 -21.050   7.456  0.00  0.00    +0.119 HD
ENDBRANCH  13  15
ENDBRANCH   3  13
TORSDOF 3
ENDMDL
MODEL 9
REMARK VINA RESULT:      -6.0      2.130      5.902
REMARK  Name = *****
REMARK                            x       y       z     vdW  Elec       q    Type
REMARK                         _______ _______ _______ _____ _____    ______ ____
ROOT
ATOM      1  N   LIG    1       27.881 -21.634   7.353  0.00  0.00    -0.284 N 
ATOM      2  H   LIG    1       27.646 -22.195   6.545  0.00  0.00    +0.155 HD
ATOM      3  C   LIG    1       26.796 -21.348   8.178  0.00  0.00    +0.234 C 
ATOM      4  O   LIG    1       26.651 -20.310   8.826  0.00  0.00    -0.274 OA
ENDROOT
BRANCH   1   7
ATOM      5  C   LIG    1       27.741 -19.445   5.346  0.00  0.00    +0.045 C 
ATOM      6  C   LIG    1       28.925 -19.697   6.243  0.00  0.00    -0.029 A 
ATOM      7  C   LIG    1       28.960 -20.731   7.206  0.00  0.00    +0.039 A 
ATOM      8  C   LIG    1       30.071 -20.858   8.070  0.00  0.00    -0.029 A 
ATOM      9  C   LIG    1       30.165 -21.939   9.113  0.00  0.00    +0.045 C 
ATOM     10  C   LIG    1       31.150 -19.971   7.932  0.00  0.00    +0.005 A 
ATOM     11  C   LIG    1       31.137 -18.980   6.955  0.00  0.00    +0.001 A 
ATOM     12  C   LIG    1       30.033 -18.844   6.118  0.00  0.00    +0.005 A 
ENDBRANCH   1   7
BRANCH   3  13
ATOM     13  C   LIG    1       25.748 -22.478   8.186  0.00  0.00    +0.135 C 
ATOM     14  C   LIG    1       26.027 -23.489   7.078  0.00  0.00    +0.033 C 
BRANCH  13  15
ATOM     15  N   LIG    1       24.398 -21.909   8.010  0.00  0.00    -0.320 NA
ATOM     16  H   LIG    1       24.396 -21.284   7.203  0.00  0.00    +0.119 HD
ATOM     17  H   LIG    1       23.759 -22.667   7.762  0.00  0.00    +0.119 HD
ENDBRANCH  13  15
ENDBRANCH   3  13
TORSDOF 3
ENDMDL
