MODEL 1
REMARK VINA RESULT:      -5.3      0.000      0.000
REMARK  Name = *****
REMARK                            x       y       z     vdW  Elec       q    Type
REMARK                         _______ _______ _______ _____ _____    ______ ____
ROOT
ATOM      1  C   LIG    1       24.722 -18.396   4.064  0.00  0.00    +0.064 C 
ATOM      2  C   LIG    1       25.343 -19.847   3.976  0.00  0.00    +0.039 C 
ATOM      3  C   LIG    1       24.066 -20.737   3.857  0.00  0.00    -0.002 C 
ATOM      4  C   LIG    1       23.171 -19.876   2.965  0.00  0.00    +0.009 C 
ATOM      5  C   LIG    1       23.252 -20.741   5.165  0.00  0.00    +0.004 C 
ATOM      6  C   LIG    1       22.713 -19.312   5.241  0.00  0.00    +0.005 C 
ATOM      7  C   LIG    1       23.204 -18.688   3.923  0.00  0.00    +0.007 C 
ENDROOT
BRANCH   2   8
ATOM      8  C   LIG    1       26.331 -20.245   5.061  0.00  0.00    -0.043 A 
ATOM      9  C   LIG    1       25.994 -21.200   6.037  0.00  0.00    +0.004 A 
ATOM     10  C   LIG    1       26.901 -21.565   7.037  0.00  0.00    +0.000 A 
ATOM     11  C   LIG    1       28.176 -21.002   7.062  0.00  0.00    +0.000 A 
ATOM     12  C   LIG    1       28.542 -20.090   6.081  0.00  0.00    +0.000 A 
ATOM     13  C   LIG    1       27.634 -19.726   5.083  0.00  0.00    +0.004 A 
ENDBRANCH   2   8
BRANCH   1  14
ATOM     14  N   LIG    1       25.221 -17.533   2.976  0.00  0.00    -0.313 NA
ATOM     15  H   LIG    1       25.408 -18.108   2.154  0.00  0.00    +0.122 HD
BRANCH  14  17
ATOM     16  C   LIG    1       26.240 -15.323   3.319  0.00  0.00    +0.020 C 
ATOM     17  C   LIG    1       26.450 -16.829   3.354  0.00  0.00    +0.077 C 
ENDBRANCH  14  17
ENDBRANCH   1  14
TORSDOF 3
ENDMDL
MODEL 2
REMARK VINA RESULT:      -5.1      1.684      2.309
REMARK  Name = *****
REMARK                            x       y       z     vdW  Elec       q    Type
REMARK                         _______ _______ _______ _____ _____    ______ ____
ROOT
ATOM      1  C   LIG    1       24.240 -19.222   5.017  0.00  0.00    +0.064 C 
ATOM      2  C   LIG    1       25.417 -20.259   4.826  0.00  0.00    +0.039 C 
ATOM      3  C   LIG    1       24.783 -21.572   5.385  0.00  0.00    -0.002 C 
ATOM      4  C   LIG    1       23.341 -21.453   4.891  0.00  0.00    +0.009 C 
ATOM      5  C   LIG    1       24.574 -21.497   6.910  0.00  0.00    +0.004 C 
ATOM      6  C   LIG    1       23.468 -20.450   7.056  0.00  0.00    +0.005 C 
ATOM      7  C   LIG    1       23.113 -20.118   5.596  0.00  0.00    +0.007 C 
ENDROOT
BRANCH   2   8
ATOM      8  C   LIG    1       26.775 -19.882   5.400  0.00  0.00    -0.043 A 
ATOM      9  C   LIG    1       27.328 -20.585   6.484  0.00  0.00    +0.004 A 
ATOM     10  C   LIG    1       28.574 -20.238   7.014  0.00  0.00    +0.000 A 
ATOM     11  C   LIG    1       29.306 -19.194   6.448  0.00  0.00    +0.000 A 
ATOM     12  C   LIG    1       28.796 -18.516   5.349  0.00  0.00    +0.000 A 
ATOM     13  C   LIG    1       27.550 -18.865   4.822  0.00  0.00    +0.004 A 
ENDBRANCH   2   8
BRANCH   1  14
ATOM     14  N   LIG    1       23.853 -18.609   3.731  0.00  0.00    -0.313 NA
ATOM     15  H   LIG    1       24.468 -17.817   3.542  0.00  0.00    +0.122 HD
BRANCH  14  17
ATOM     16  C   LIG    1       22.309 -16.943   4.668  0.00  0.00    +0.020 C 
ATOM     17  C   LIG    1       22.464 -18.141   3.744  0.00  0.00    +0.077 C 
ENDBRANCH  14  17
ENDBRANCH   1  14
TORSDOF 3
ENDMDL
MODEL 3
REMARK VINA RESULT:      -4.4      1.848      4.684
REMARK  Name = *****
REMARK                            x       y       z     vdW  Elec       q    Type
REMARK                         _______ _______ _______ _____ _____    ______ ____
ROOT
ATOM      1  C   LIG    1       23.033 -19.367   4.861  0.00  0.00    +0.064 C 
ATOM      2  C   LIG    1       23.951 -18.902   3.662  0.00  0.00    +0.039 C 
ATOM      3  C   LIG    1       25.022 -20.036   3.617  0.00  0.00    -0.002 C 
ATOM      4  C   LIG    1       24.178 -21.272   3.931  0.00  0.00    +0.009 C 
ATOM      5  C   LIG    1       25.944 -19.996   4.851  0.00  0.00    +0.004 C 
ATOM      6  C   LIG    1       25.011 -20.399   5.994  0.00  0.00    +0.005 C 
ATOM      7  C   LIG    1       23.692 -20.712   5.266  0.00  0.00    +0.007 C 
ENDROOT
BRANCH   2   8
ATOM      8  C   LIG    1       24.491 -17.481   3.711  0.00  0.00    -0.043 A 
ATOM      9  C   LIG    1       25.792 -17.182   3.271  0.00  0.00    +0.004 A 
ATOM     10  C   LIG    1       26.291 -15.876   3.318  0.00  0.00    +0.000 A 
ATOM     11  C   LIG    1       25.484 -14.838   3.782  0.00  0.00    +0.000 A 
ATOM     12  C   LIG    1       24.182 -15.107   4.181  0.00  0.00    +0.000 A 
ATOM     13  C   LIG    1       23.686 -16.412   4.133  0.00  0.00    +0.004 A 
ENDBRANCH   2   8
BRANCH   1  14
ATOM     14  N   LIG    1       21.634 -19.546   4.427  0.00  0.00    -0.313 NA
ATOM     15  H   LIG    1       21.579 -20.356   3.809  0.00  0.00    +0.122 HD
BRANCH  14  17
ATOM     16  C   LIG    1       19.745 -18.644   3.141  0.00  0.00    +0.020 C 
ATOM     17  C   LIG    1       21.126 -18.370   3.715  0.00  0.00    +0.077 C 
ENDBRANCH  14  17
ENDBRANCH   1  14
TORSDOF 3
ENDMDL
MODEL 4
REMARK VINA RESULT:      -3.6      3.332      6.007
REMARK  Name = *****
REMARK                            x       y       z     vdW  Elec       q    Type
REMARK                         _______ _______ _______ _____ _____    ______ ____
ROOT
ATOM      1  C   LIG    1       25.587 -13.536   4.648  0.00  0.00    +0.064 C 
ATOM      2  C   LIG    1       25.586 -14.611   3.489  0.00  0.00    +0.039 C 
ATOM      3  C   LIG    1       25.199 -13.746   2.249  0.00  0.00    -0.002 C 
ATOM      4  C   LIG    1       25.951 -12.445   2.531  0.00  0.00    +0.009 C 
ATOM      5  C   LIG    1       23.739 -13.259   2.329  0.00  0.00    +0.004 C 
ATOM      6  C   LIG    1       23.770 -12.264   3.490  0.00  0.00    +0.005 C 
ATOM      7  C   LIG    1       25.260 -12.230   3.875  0.00  0.00    +0.007 C 
ENDROOT
BRANCH   2   8
ATOM      8  C   LIG    1       24.757 -15.866   3.708  0.00  0.00    -0.043 A 
ATOM      9  C   LIG    1       25.274 -17.140   3.416  0.00  0.00    +0.004 A 
ATOM     10  C   LIG    1       24.511 -18.296   3.615  0.00  0.00    +0.000 A 
ATOM     11  C   LIG    1       23.222 -18.199   4.138  0.00  0.00    +0.000 A 
ATOM     12  C   LIG    1       22.711 -16.952   4.474  0.00  0.00    +0.000 A 
ATOM     13  C   LIG    1       23.474 -15.799   4.274  0.00  0.00    +0.004 A 
ENDBRANCH   2   8
BRANCH   1  14
ATOM     14  N   LIG    1       26.903 -13.467   5.314  0.00  0.00    -0.313 NA
ATOM     15  H   LIG    1       27.138 -12.489   5.485  0.00  0.00    +0.122 HD
BRANCH  14  17
ATOM     16  C   LIG    1       28.895 -13.011   3.950  0.00  0.00    +0.020 C 
ATOM     17  C   LIG    1       27.961 -14.076   4.503  0.00  0.00    +0.077 C 
ENDBRANCH  14  17
ENDBRANCH   1  14
TORSDOF 3
ENDMDL
MODEL 5
REMARK VINA RESULT:      -3.6      2.683      5.040
REMARK  Name = *****
REMARK                            x       y       z     vdW  Elec       q    Type
REMARK                         _______ _______ _______ _____ _____    ______ ____
ROOT
ATOM      1  C   LIG    1       26.873 -13.893   3.724  0.00  0.00    +0.064 C 
ATOM      2  C   LIG    1       26.186 -15.078   2.937  0.00  0.00    +0.039 C 
ATOM      3  C   LIG    1       24.698 -14.609   2.882  0.00  0.00    -0.002 C 
ATOM      4  C   LIG    1       24.857 -13.103   2.669  0.00  0.00    +0.009 C 
ATOM      5  C   LIG    1       24.042 -14.635   4.276  0.00  0.00    +0.004 C 
ATOM      6  C   LIG    1       24.767 -13.513   5.021  0.00  0.00    +0.005 C 
ATOM      7  C   LIG    1       25.684 -12.918   3.938  0.00  0.00    +0.007 C 
ENDROOT
BRANCH   2   8
ATOM      8  C   LIG    1       26.418 -16.487   3.462  0.00  0.00    -0.043 A 
ATOM      9  C   LIG    1       25.477 -17.508   3.245  0.00  0.00    +0.004 A 
ATOM     10  C   LIG    1       25.688 -18.803   3.730  0.00  0.00    +0.000 A 
ATOM     11  C   LIG    1       26.861 -19.108   4.418  0.00  0.00    +0.000 A 
ATOM     12  C   LIG    1       27.822 -18.122   4.605  0.00  0.00    +0.000 A 
ATOM     13  C   LIG    1       27.609 -16.829   4.120  0.00  0.00    +0.004 A 
ENDBRANCH   2   8
BRANCH   1  14
ATOM     14  N   LIG    1       27.955 -13.278   2.930  0.00  0.00    -0.313 NA
ATOM     15  H   LIG    1       28.221 -13.918   2.180  0.00  0.00    +0.122 HD
BRANCH  14  17
ATOM     16  C   LIG    1       28.747 -12.213   4.998  0.00  0.00    +0.020 C 
ATOM     17  C   LIG    1       29.136 -12.986   3.746  0.00  0.00    +0.077 C 
ENDBRANCH  14  17
ENDBRANCH   1  14
TORSDOF 3
ENDMDL
MODEL 6
REMARK VINA RESULT:      -3.5      3.238      5.926
REMARK  Name = *****
REMARK                            x       y       z     vdW  Elec       q    Type
REMARK                         _______ _______ _______ _____ _____    ______ ____
ROOT
ATOM      1  C   LIG    1       24.515 -13.896   2.717  0.00  0.00    +0.064 C 
ATOM      2  C   LIG    1       24.532 -14.707   4.074  0.00  0.00    +0.039 C 
ATOM      3  C   LIG    1       26.002 -14.497   4.556  0.00  0.00    -0.002 C 
ATOM      4  C   LIG    1       26.257 -13.045   4.148  0.00  0.00    +0.009 C 
ATOM      5  C   LIG    1       27.008 -15.233   3.651  0.00  0.00    +0.004 C 
ATOM      6  C   LIG    1       26.925 -14.453   2.337  0.00  0.00    +0.005 C 
ATOM      7  C   LIG    1       25.952 -13.310   2.676  0.00  0.00    +0.007 C 
ENDROOT
BRANCH   2   8
ATOM      8  C   LIG    1       24.049 -16.149   4.026  0.00  0.00    -0.043 A 
ATOM      9  C   LIG    1       24.906 -17.190   3.632  0.00  0.00    +0.004 A 
ATOM     10  C   LIG    1       24.463 -18.516   3.585  0.00  0.00    +0.000 A 
ATOM     11  C   LIG    1       23.158 -18.828   3.962  0.00  0.00    +0.000 A 
ATOM     12  C   LIG    1       22.310 -17.818   4.397  0.00  0.00    +0.000 A 
ATOM     13  C   LIG    1       22.755 -16.494   4.441  0.00  0.00    +0.004 A 
ENDBRANCH   2   8
BRANCH   1  14
ATOM     14  N   LIG    1       23.488 -12.837   2.739  0.00  0.00    -0.313 NA
ATOM     15  H   LIG    1       23.183 -12.650   1.783  0.00  0.00    +0.122 HD
BRANCH  14  17
ATOM     16  C   LIG    1       23.517 -11.447   4.765  0.00  0.00    +0.020 C 
ATOM     17  C   LIG    1       23.994 -11.594   3.329  0.00  0.00    +0.077 C 
ENDBRANCH  14  17
ENDBRANCH   1  14
TORSDOF 3
ENDMDL
MODEL 7
REMARK VINA RESULT:      -3.5      3.266      5.907
REMARK  Name = *****
REMARK                            x       y       z     vdW  Elec       q    Type
REMARK                         _______ _______ _______ _____ _____    ______ ____
ROOT
ATOM      1  C   LIG    1       24.491 -13.838   2.738  0.00  0.00    +0.064 C 
ATOM      2  C   LIG    1       24.558 -14.635   4.101  0.00  0.00    +0.039 C 
ATOM      3  C   LIG    1       26.050 -14.440   4.515  0.00  0.00    -0.002 C 
ATOM      4  C   LIG    1       26.305 -12.996   4.081  0.00  0.00    +0.009 C 
ATOM      5  C   LIG    1       27.005 -15.199   3.574  0.00  0.00    +0.004 C 
ATOM      6  C   LIG    1       26.873 -14.432   2.257  0.00  0.00    +0.005 C 
ATOM      7  C   LIG    1       25.932 -13.272   2.626  0.00  0.00    +0.007 C 
ENDROOT
BRANCH   2   8
ATOM      8  C   LIG    1       24.054 -16.070   4.091  0.00  0.00    -0.043 A 
ATOM      9  C   LIG    1       22.727 -16.378   4.436  0.00  0.00    +0.004 A 
ATOM     10  C   LIG    1       22.263 -17.698   4.430  0.00  0.00    +0.000 A 
ATOM     11  C   LIG    1       23.114 -18.734   4.049  0.00  0.00    +0.000 A 
ATOM     12  C   LIG    1       24.417 -18.445   3.663  0.00  0.00    +0.000 A 
ATOM     13  C   LIG    1       24.878 -17.126   3.670  0.00  0.00    +0.004 A 
ENDBRANCH   2   8
BRANCH   1  14
ATOM     14  N   LIG    1       23.479 -12.765   2.795  0.00  0.00    -0.313 NA
ATOM     15  H   LIG    1       23.188 -12.532   1.844  0.00  0.00    +0.122 HD
BRANCH  14  17
ATOM     16  C   LIG    1       23.481 -11.447   4.868  0.00  0.00    +0.020 C 
ATOM     17  C   LIG    1       23.998 -11.556   3.442  0.00  0.00    +0.077 C 
ENDBRANCH  14  17
ENDBRANCH   1  14
TORSDOF 3
ENDMDL
MODEL 8
REMARK VINA RESULT:      -3.5      2.885      5.501
REMARK  Name = *****
REMARK                            x       y       z     vdW  Elec       q    Type
REMARK                         _______ _______ _______ _____ _____    ______ ____
ROOT
ATOM      1  C   LIG    1       26.214 -14.336   4.538  0.00  0.00    +0.064 C 
ATOM      2  C   LIG    1       25.771 -15.173   3.272  0.00  0.00    +0.039 C 
ATOM      3  C   LIG    1       24.946 -14.123   2.464  0.00  0.00    -0.002 C 
ATOM      4  C   LIG    1       25.753 -12.846   2.702  0.00  0.00    +0.009 C 
ATOM      5  C   LIG    1       23.627 -13.767   3.176  0.00  0.00    +0.004 C 
ATOM      6  C   LIG    1       24.098 -13.007   4.417  0.00  0.00    +0.005 C 
ATOM      7  C   LIG    1       25.622 -12.937   4.220  0.00  0.00    +0.007 C 
ENDROOT
BRANCH   2   8
ATOM      8  C   LIG    1       25.082 -16.505   3.528  0.00  0.00    -0.043 A 
ATOM      9  C   LIG    1       23.752 -16.561   3.979  0.00  0.00    +0.004 A 
ATOM     10  C   LIG    1       23.117 -17.784   4.217  0.00  0.00    +0.000 A 
ATOM     11  C   LIG    1       23.795 -18.979   3.978  0.00  0.00    +0.000 A 
ATOM     12  C   LIG    1       25.095 -18.944   3.490  0.00  0.00    +0.000 A 
ATOM     13  C   LIG    1       25.727 -17.720   3.254  0.00  0.00    +0.004 A 
ENDBRANCH   2   8
BRANCH   1  14
ATOM     14  N   LIG    1       27.684 -14.298   4.667  0.00  0.00    -0.313 NA
ATOM     15  H   LIG    1       27.969 -14.935   5.412  0.00  0.00    +0.122 HD
BRANCH  14  17
ATOM     16  C   LIG    1       29.177 -12.488   3.937  0.00  0.00    +0.020 C 
ATOM     17  C   LIG    1       28.171 -12.952   4.980  0.00  0.00    +0.077 C 
ENDBRANCH  14  17
ENDBRANCH   1  14
TORSDOF 3
ENDMDL
MODEL 9
REMARK VINA RESULT:      -3.3      1.926      5.078
REMARK  Name = *****
REMARK                            x       y       z     vdW  Elec       q    Type
REMARK                         _______ _______ _______ _____ _____    ______ ____
ROOT
ATOM      1  C   LIG    1       23.658 -19.609   5.073  0.00  0.00    +0.064 C 
ATOM      2  C   LIG    1       23.832 -18.778   3.740  0.00  0.00    +0.039 C 
ATOM      3  C   LIG    1       25.024 -19.517   3.054  0.00  0.00    -0.002 C 
ATOM      4  C   LIG    1       24.724 -20.976   3.400  0.00  0.00    +0.009 C 
ATOM      5  C   LIG    1       26.343 -19.303   3.820  0.00  0.00    +0.004 C 
ATOM      6  C   LIG    1       26.116 -20.076   5.121  0.00  0.00    +0.005 C 
ATOM      7  C   LIG    1       24.733 -20.716   4.904  0.00  0.00    +0.007 C 
ENDROOT
BRANCH   2   8
ATOM      8  C   LIG    1       23.977 -17.270   3.876  0.00  0.00    -0.043 A 
ATOM      9  C   LIG    1       22.959 -16.491   4.452  0.00  0.00    +0.004 A 
ATOM     10  C   LIG    1       23.089 -15.104   4.576  0.00  0.00    +0.000 A 
ATOM     11  C   LIG    1       24.257 -14.473   4.150  0.00  0.00    +0.000 A 
ATOM     12  C   LIG    1       25.291 -15.231   3.618  0.00  0.00    +0.000 A 
ATOM     13  C   LIG    1       25.158 -16.617   3.495  0.00  0.00    +0.004 A 
ENDBRANCH   2   8
BRANCH   1  14
ATOM     14  N   LIG    1       22.298 -20.173   5.179  0.00  0.00    -0.313 NA
ATOM     15  H   LIG    1       21.738 -19.577   5.790  0.00  0.00    +0.122 HD
BRANCH  14  17
ATOM     16  C   LIG    1       23.032 -21.572   7.061  0.00  0.00    +0.020 C 
ATOM     17  C   LIG    1       22.310 -21.534   5.723  0.00  0.00    +0.077 C 
ENDBRANCH  14  17
ENDBRANCH   1  14
TORSDOF 3
ENDMDL
