MODEL 1
REMARK VINA RESULT:      -6.2      0.000      0.000
REMARK  Name = *****
REMARK                            x       y       z     vdW  Elec       q    Type
REMARK                         _______ _______ _______ _____ _____    ______ ____
ROOT
ATOM      1  C   LIG    1       24.703 -16.081   3.582  0.00  0.00    +0.087 C 
ATOM      2  C   LIG    1       25.877 -16.974   3.311  0.00  0.00    +0.345 C 
ATOM      3  O   LIG    1       26.999 -16.540   3.119  0.00  0.00    -0.245 OA
ATOM      4  O   LIG    1       25.676 -18.343   3.296  0.00  0.00    -0.422 OA
ATOM      5  C   LIG    1       24.521 -18.904   3.842  0.00  0.00    +0.143 A 
ATOM      6  C   LIG    1       23.462 -18.102   4.241  0.00  0.00    +0.059 A 
ATOM      7  C   LIG    1       22.337 -18.743   4.778  0.00  0.00    +0.015 A 
ATOM      8  C   LIG    1       22.312 -20.137   4.937  0.00  0.00    +0.001 A 
ATOM      9  C   LIG    1       23.405 -20.910   4.551  0.00  0.00    +0.004 A 
ATOM     10  C   LIG    1       24.515 -20.293   3.988  0.00  0.00    +0.047 A 
ATOM     11  C   LIG    1       23.580 -16.646   4.079  0.00  0.00    +0.138 C 
ENDROOT
BRANCH  11  12
ATOM     12  O   LIG    1       22.457 -15.949   4.475  0.00  0.00    -0.505 OA
ATOM     13  H   LIG    1       21.805 -15.905   3.759  0.00  0.00    +0.292 HD
ENDBRANCH  11  12
BRANCH   1  14
ATOM     14  C   LIG    1       24.889 -14.581   3.267  0.00  0.00    +0.067 C 
BRANCH  14  15
ATOM     15  C   LIG    1       26.153 -14.005   3.919  0.00  0.00    -0.039 A 
ATOM     16  C   LIG    1       27.263 -13.599   3.162  0.00  0.00    +0.004 A 
ATOM     17  C   LIG    1       28.380 -13.014   3.757  0.00  0.00    +0.000 A 
ATOM     18  C   LIG    1       28.430 -12.867   5.136  0.00  0.00    +0.000 A 
ATOM     19  C   LIG    1       27.363 -13.304   5.916  0.00  0.00    +0.000 A 
ATOM     20  C   LIG    1       26.229 -13.863   5.314  0.00  0.00    +0.004 A 
ENDBRANCH  14  15
BRANCH  14  21
ATOM     21  C   LIG    1       23.639 -13.713   3.526  0.00  0.00    +0.087 C 
BRANCH  21  23
ATOM     22  C   LIG    1       24.309 -11.781   1.945  0.00  0.00    +0.086 C 
ATOM     23  C   LIG    1       23.925 -12.234   3.333  0.00  0.00    +0.131 C 
ATOM     24  O   LIG    1       23.884 -11.447   4.280  0.00  0.00    -0.298 OA
ENDBRANCH  21  23
ENDBRANCH  14  21
ENDBRANCH   1  14
TORSDOF 5
ENDMDL
MODEL 2
REMARK VINA RESULT:      -3.8      1.273      2.931
REMARK  Name = *****
REMARK                            x       y       z     vdW  Elec       q    Type
REMARK                         _______ _______ _______ _____ _____    ______ ____
ROOT
ATOM      1  C   LIG    1       25.561 -15.946   3.996  0.00  0.00    +0.087 C 
ATOM      2  C   LIG    1       26.441 -17.114   3.666  0.00  0.00    +0.345 C 
ATOM      3  O   LIG    1       27.658 -17.043   3.688  0.00  0.00    -0.245 OA
ATOM      4  O   LIG    1       25.846 -18.321   3.344  0.00  0.00    -0.422 OA
ATOM      5  C   LIG    1       24.503 -18.558   3.638  0.00  0.00    +0.143 A 
ATOM      6  C   LIG    1       23.681 -17.534   4.084  0.00  0.00    +0.059 A 
ATOM      7  C   LIG    1       22.344 -17.855   4.355  0.00  0.00    +0.015 A 
ATOM      8  C   LIG    1       21.878 -19.170   4.215  0.00  0.00    +0.001 A 
ATOM      9  C   LIG    1       22.737 -20.181   3.790  0.00  0.00    +0.004 A 
ATOM     10  C   LIG    1       24.058 -19.873   3.488  0.00  0.00    +0.047 A 
ATOM     11  C   LIG    1       24.254 -16.189   4.244  0.00  0.00    +0.138 C 
ENDROOT
BRANCH  11  12
ATOM     12  O   LIG    1       23.341 -15.241   4.659  0.00  0.00    -0.505 OA
ATOM     13  H   LIG    1       23.575 -14.893   5.532  0.00  0.00    +0.292 HD
ENDBRANCH  11  12
BRANCH   1  14
ATOM     14  C   LIG    1       26.235 -14.558   4.023  0.00  0.00    +0.067 C 
BRANCH  14  15
ATOM     15  C   LIG    1       25.283 -13.442   3.571  0.00  0.00    -0.039 A 
ATOM     16  C   LIG    1       25.054 -13.164   2.214  0.00  0.00    +0.004 A 
ATOM     17  C   LIG    1       24.136 -12.195   1.812  0.00  0.00    +0.000 A 
ATOM     18  C   LIG    1       23.459 -11.447   2.764  0.00  0.00    +0.000 A 
ATOM     19  C   LIG    1       23.701 -11.670   4.117  0.00  0.00    +0.000 A 
ATOM     20  C   LIG    1       24.601 -12.664   4.520  0.00  0.00    +0.004 A 
ENDBRANCH  14  15
BRANCH  14  21
ATOM     21  C   LIG    1       27.603 -14.497   3.308  0.00  0.00    +0.087 C 
BRANCH  21  23
ATOM     22  C   LIG    1       28.102 -12.815   5.206  0.00  0.00    +0.086 C 
ATOM     23  C   LIG    1       28.486 -13.395   3.867  0.00  0.00    +0.131 C 
ATOM     24  O   LIG    1       29.453 -12.969   3.232  0.00  0.00    -0.298 OA
ENDBRANCH  21  23
ENDBRANCH  14  21
ENDBRANCH   1  14
TORSDOF 5
ENDMDL
MODEL 3
REMARK VINA RESULT:      -3.7      1.849      6.505
REMARK  Name = *****
REMARK                            x       y       z     vdW  Elec       q    Type
REMARK                         _______ _______ _______ _____ _____    ______ ____
ROOT
ATOM      1  C   LIG    1       23.324 -16.999   4.280  0.00  0.00    +0.087 C 
ATOM      2  C   LIG    1       22.747 -15.740   4.854  0.00  0.00    +0.345 C 
ATOM      3  O   LIG    1       21.762 -15.740   5.573  0.00  0.00    -0.245 OA
ATOM      4  O   LIG    1       23.369 -14.537   4.569  0.00  0.00    -0.422 OA
ATOM      5  C   LIG    1       24.666 -14.506   4.059  0.00  0.00    +0.143 A 
ATOM      6  C   LIG    1       25.297 -15.670   3.645  0.00  0.00    +0.059 A 
ATOM      7  C   LIG    1       26.600 -15.552   3.143  0.00  0.00    +0.015 A 
ATOM      8  C   LIG    1       27.245 -14.307   3.102  0.00  0.00    +0.001 A 
ATOM      9  C   LIG    1       26.592 -13.160   3.550  0.00  0.00    +0.004 A 
ATOM     10  C   LIG    1       25.289 -13.256   4.022  0.00  0.00    +0.047 A 
ATOM     11  C   LIG    1       24.570 -16.943   3.758  0.00  0.00    +0.138 C 
ENDROOT
BRANCH  11  12
ATOM     12  O   LIG    1       25.277 -18.031   3.287  0.00  0.00    -0.505 OA
ATOM     13  H   LIG    1       26.232 -17.867   3.325  0.00  0.00    +0.292 HD
ENDBRANCH  11  12
BRANCH   1  14
ATOM     14  C   LIG    1       22.433 -18.258   4.340  0.00  0.00    +0.067 C 
BRANCH  14  15
ATOM     15  C   LIG    1       23.154 -19.447   4.990  0.00  0.00    -0.039 A 
ATOM     16  C   LIG    1       24.032 -20.271   4.267  0.00  0.00    +0.004 A 
ATOM     17  C   LIG    1       24.735 -21.306   4.881  0.00  0.00    +0.000 A 
ATOM     18  C   LIG    1       24.537 -21.572   6.228  0.00  0.00    +0.000 A 
ATOM     19  C   LIG    1       23.637 -20.800   6.959  0.00  0.00    +0.000 A 
ATOM     20  C   LIG    1       22.955 -19.741   6.348  0.00  0.00    +0.004 A 
ENDBRANCH  14  15
BRANCH  14  21
ATOM     21  C   LIG    1       21.761 -18.631   3.001  0.00  0.00    +0.087 C 
BRANCH  21  23
ATOM     22  C   LIG    1       19.350 -17.807   2.563  0.00  0.00    +0.086 C 
ATOM     23  C   LIG    1       20.266 -18.849   3.158  0.00  0.00    +0.131 C 
ATOM     24  O   LIG    1       19.825 -19.817   3.779  0.00  0.00    -0.298 OA
ENDBRANCH  21  23
ENDBRANCH  14  21
ENDBRANCH   1  14
TORSDOF 5
ENDMDL
MODEL 4
REMARK VINA RESULT:      -3.6      0.717      2.094
REMARK  Name = *****
REMARK                            x       y       z     vdW  Elec       q    Type
REMARK                         _______ _______ _______ _____ _____    ______ ____
ROOT
ATOM      1  C   LIG    1       24.252 -16.219   3.677  0.00  0.00    +0.087 C 
ATOM      2  C   LIG    1       22.912 -16.425   4.317  0.00  0.00    +0.345 C 
ATOM      3  O   LIG    1       22.036 -15.578   4.288  0.00  0.00    -0.245 OA
ATOM      4  O   LIG    1       22.658 -17.630   4.948  0.00  0.00    -0.422 OA
ATOM      5  C   LIG    1       23.467 -18.743   4.717  0.00  0.00    +0.143 A 
ATOM      6  C   LIG    1       24.651 -18.627   4.004  0.00  0.00    +0.059 A 
ATOM      7  C   LIG    1       25.406 -19.793   3.817  0.00  0.00    +0.015 A 
ATOM      8  C   LIG    1       24.953 -21.028   4.303  0.00  0.00    +0.001 A 
ATOM      9  C   LIG    1       23.745 -21.114   4.992  0.00  0.00    +0.004 A 
ATOM     10  C   LIG    1       23.000 -19.963   5.212  0.00  0.00    +0.047 A 
ATOM     11  C   LIG    1       25.038 -17.304   3.491  0.00  0.00    +0.138 C 
ENDROOT
BRANCH  11  12
ATOM     12  O   LIG    1       26.248 -17.297   2.828  0.00  0.00    -0.505 OA
ATOM     13  H   LIG    1       26.145 -17.609   1.916  0.00  0.00    +0.292 HD
ENDBRANCH  11  12
BRANCH   1  14
ATOM     14  C   LIG    1       24.615 -14.772   3.282  0.00  0.00    +0.067 C 
BRANCH  14  15
ATOM     15  C   LIG    1       25.910 -14.296   3.953  0.00  0.00    -0.039 A 
ATOM     16  C   LIG    1       27.122 -14.204   3.251  0.00  0.00    +0.004 A 
ATOM     17  C   LIG    1       28.278 -13.706   3.850  0.00  0.00    +0.000 A 
ATOM     18  C   LIG    1       28.258 -13.333   5.186  0.00  0.00    +0.000 A 
ATOM     19  C   LIG    1       27.081 -13.458   5.920  0.00  0.00    +0.000 A 
ATOM     20  C   LIG    1       25.913 -13.929   5.308  0.00  0.00    +0.004 A 
ENDBRANCH  14  15
BRANCH  14  21
ATOM     21  C   LIG    1       23.459 -13.758   3.435  0.00  0.00    +0.087 C 
BRANCH  21  23
ATOM     22  C   LIG    1       24.560 -12.073   1.814  0.00  0.00    +0.086 C 
ATOM     23  C   LIG    1       23.911 -12.337   3.151  0.00  0.00    +0.131 C 
ATOM     24  O   LIG    1       23.786 -11.447   3.994  0.00  0.00    -0.298 OA
ENDBRANCH  21  23
ENDBRANCH  14  21
ENDBRANCH   1  14
TORSDOF 5
ENDMDL
