MODEL 1
REMARK VINA RESULT:      -4.0      0.000      0.000
REMARK  Name = *****
REMARK                            x       y       z     vdW  Elec       q    Type
REMARK                         _______ _______ _______ _____ _____    ______ ____
ROOT
ATOM      1  C   LIG    1       23.147 -17.288   4.109  0.00  0.00    +0.250 C 
ATOM      2  N   LIG    1       24.519 -17.336   3.885  0.00  0.00    -0.283 N 
ATOM      3  H   LIG    1       24.907 -18.245   3.649  0.00  0.00    +0.155 HD
ATOM      4  O   LIG    1       22.464 -16.276   4.246  0.00  0.00    -0.272 OA
ENDROOT
BRANCH   2   5
ATOM      5  C   LIG    1       25.345 -16.206   3.744  0.00  0.00    +0.034 A 
ATOM      6  C   LIG    1       24.764 -14.954   3.508  0.00  0.00    +0.037 A 
ATOM      7  C   LIG    1       25.563 -13.789   3.379  0.00  0.00    +0.074 A 
ATOM      8  C   LIG    1       26.959 -13.914   3.465  0.00  0.00    +0.064 A 
ATOM      9  C   LIG    1       27.532 -15.171   3.677  0.00  0.00    +0.021 A 
ATOM     10  C   LIG    1       26.732 -16.301   3.821  0.00  0.00    +0.024 A 
BRANCH   7  11
ATOM     11  C   LIG    1       24.861 -12.467   3.170  0.00  0.00    +0.419 C 
ATOM     12  F   LIG    1       23.572 -12.633   2.761  0.00  0.00    -0.166 F 
ATOM     13  F   LIG    1       25.463 -11.727   2.197  0.00  0.00    -0.166 F 
ATOM     14  F   LIG    1       24.802 -11.661   4.260  0.00  0.00    -0.166 F 
ENDBRANCH   7  11
BRANCH   8  15
ATOM     15  C   LIG    1       27.866 -12.801   3.345  0.00  0.00    +0.100 C 
ATOM     16  N   LIG    1       28.611 -11.928   3.299  0.00  0.00    -0.191 NA
ENDBRANCH   8  15
ENDBRANCH   2   5
BRANCH   1  18
ATOM     17  C   LIG    1       23.173 -19.551   3.111  0.00  0.00    +0.053 C 
ATOM     18  C   LIG    1       22.495 -18.682   4.198  0.00  0.00    +0.158 C 
BRANCH  18  19
ATOM     19  O   LIG    1       21.104 -18.643   3.871  0.00  0.00    -0.378 OA
ATOM     20  H   LIG    1       20.805 -19.571   3.800  0.00  0.00    +0.211 HD
ENDBRANCH  18  19
BRANCH  18  21
ATOM     21  C   LIG    1       22.726 -19.317   5.572  0.00  0.00    +0.215 C 
BRANCH  21  22
ATOM     22  S   LIG    1       23.506 -20.913   5.638  0.00  0.00    +0.000 S 
ATOM     23  O   LIG    1       23.347 -21.564   4.352  0.00  0.00    -0.169 OA
ATOM     24  O   LIG    1       23.035 -21.571   6.844  0.00  0.00    -0.169 OA
BRANCH  22  25
ATOM     25  C   LIG    1       25.257 -20.675   5.879  0.00  0.00    +0.088 A 
ATOM     26  C   LIG    1       25.893 -21.324   6.945  0.00  0.00    +0.030 A 
ATOM     27  C   LIG    1       27.281 -21.264   7.061  0.00  0.00    +0.040 A 
ATOM     28  C   LIG    1       28.011 -20.495   6.164  0.00  0.00    +0.123 A 
ATOM     29  F   LIG    1       29.347 -20.467   6.254  0.00  0.00    -0.205 F 
ATOM     30  C   LIG    1       27.371 -19.747   5.177  0.00  0.00    +0.040 A 
ATOM     31  C   LIG    1       25.983 -19.833   5.029  0.00  0.00    +0.030 A 
ENDBRANCH  22  25
ENDBRANCH  21  22
ENDBRANCH  18  21
ENDBRANCH   1  18
TORSDOF 8
ENDMDL
MODEL 2
REMARK VINA RESULT:      -1.6      1.653      2.063
REMARK  Name = *****
REMARK                            x       y       z     vdW  Elec       q    Type
REMARK                         _______ _______ _______ _____ _____    ______ ____
ROOT
ATOM      1  C   LIG    1       23.313 -16.721   4.221  0.00  0.00    +0.250 C 
ATOM      2  N   LIG    1       24.619 -16.790   3.745  0.00  0.00    -0.283 N 
ATOM      3  H   LIG    1       24.899 -17.669   3.319  0.00  0.00    +0.155 HD
ATOM      4  O   LIG    1       22.733 -15.714   4.619  0.00  0.00    -0.272 OA
ENDROOT
BRANCH   2   5
ATOM      5  C   LIG    1       25.480 -15.685   3.612  0.00  0.00    +0.034 A 
ATOM      6  C   LIG    1       25.839 -14.952   4.750  0.00  0.00    +0.037 A 
ATOM      7  C   LIG    1       26.720 -13.844   4.657  0.00  0.00    +0.074 A 
ATOM      8  C   LIG    1       27.207 -13.472   3.394  0.00  0.00    +0.064 A 
ATOM      9  C   LIG    1       26.825 -14.194   2.261  0.00  0.00    +0.021 A 
ATOM     10  C   LIG    1       25.975 -15.292   2.372  0.00  0.00    +0.024 A 
BRANCH   7  11
ATOM     11  C   LIG    1       27.097 -13.130   5.935  0.00  0.00    +0.419 C 
ATOM     12  F   LIG    1       26.972 -13.935   7.026  0.00  0.00    -0.166 F 
ATOM     13  F   LIG    1       26.284 -12.061   6.172  0.00  0.00    -0.166 F 
ATOM     14  F   LIG    1       28.363 -12.643   5.977  0.00  0.00    -0.166 F 
ENDBRANCH   7  11
BRANCH   8  15
ATOM     15  C   LIG    1       28.102 -12.362   3.182  0.00  0.00    +0.100 C 
ATOM     16  N   LIG    1       28.831 -11.482   3.067  0.00  0.00    -0.191 NA
ENDBRANCH   8  15
ENDBRANCH   2   5
BRANCH   1  18
ATOM     17  C   LIG    1       21.173 -17.837   3.681  0.00  0.00    +0.053 C 
ATOM     18  C   LIG    1       22.597 -18.085   4.235  0.00  0.00    +0.158 C 
BRANCH  18  19
ATOM     19  O   LIG    1       22.429 -18.587   5.563  0.00  0.00    -0.378 OA
ATOM     20  H   LIG    1       23.294 -18.951   5.838  0.00  0.00    +0.211 HD
ENDBRANCH  18  19
BRANCH  18  21
ATOM     21  C   LIG    1       23.318 -19.101   3.344  0.00  0.00    +0.215 C 
BRANCH  21  22
ATOM     22  S   LIG    1       23.820 -20.645   4.069  0.00  0.00    +0.000 S 
ATOM     23  O   LIG    1       24.162 -21.571   3.007  0.00  0.00    -0.169 OA
ATOM     24  O   LIG    1       22.810 -21.008   5.047  0.00  0.00    -0.169 OA
BRANCH  22  25
ATOM     25  C   LIG    1       25.311 -20.368   5.007  0.00  0.00    +0.088 A 
ATOM     26  C   LIG    1       25.414 -20.903   6.298  0.00  0.00    +0.030 A 
ATOM     27  C   LIG    1       26.624 -20.820   6.986  0.00  0.00    +0.040 A 
ATOM     28  C   LIG    1       27.691 -20.136   6.416  0.00  0.00    +0.123 A 
ATOM     29  F   LIG    1       28.863 -20.088   7.061  0.00  0.00    -0.205 F 
ATOM     30  C   LIG    1       27.554 -19.495   5.186  0.00  0.00    +0.040 A 
ATOM     31  C   LIG    1       26.357 -19.608   4.471  0.00  0.00    +0.030 A 
ENDBRANCH  22  25
ENDBRANCH  21  22
ENDBRANCH  18  21
ENDBRANCH   1  18
TORSDOF 8
ENDMDL
MODEL 3
REMARK VINA RESULT:      -1.5      4.246      6.731
REMARK  Name = *****
REMARK                            x       y       z     vdW  Elec       q    Type
REMARK                         _______ _______ _______ _____ _____    ______ ____
ROOT
ATOM      1  C   LIG    1       23.829 -14.341   4.428  0.00  0.00    +0.250 C 
ATOM      2  N   LIG    1       24.095 -15.491   3.691  0.00  0.00    -0.283 N 
ATOM      3  H   LIG    1       24.851 -15.431   3.015  0.00  0.00    +0.155 HD
ATOM      4  O   LIG    1       23.076 -14.249   5.394  0.00  0.00    -0.272 OA
ENDROOT
BRANCH   2   5
ATOM      5  C   LIG    1       23.555 -16.759   3.971  0.00  0.00    +0.034 A 
ATOM      6  C   LIG    1       24.276 -17.907   3.621  0.00  0.00    +0.037 A 
ATOM      7  C   LIG    1       23.771 -19.202   3.904  0.00  0.00    +0.074 A 
ATOM      8  C   LIG    1       22.515 -19.319   4.520  0.00  0.00    +0.064 A 
ATOM      9  C   LIG    1       21.790 -18.169   4.844  0.00  0.00    +0.021 A 
ATOM     10  C   LIG    1       22.309 -16.904   4.577  0.00  0.00    +0.024 A 
BRANCH   7  11
ATOM     11  C   LIG    1       24.628 -20.392   3.537  0.00  0.00    +0.419 C 
ATOM     12  F   LIG    1       25.481 -20.737   4.540  0.00  0.00    -0.166 F 
ATOM     13  F   LIG    1       25.416 -20.129   2.457  0.00  0.00    -0.166 F 
ATOM     14  F   LIG    1       23.947 -21.524   3.226  0.00  0.00    -0.166 F 
ENDBRANCH   7  11
BRANCH   8  15
ATOM     15  C   LIG    1       21.904 -20.582   4.849  0.00  0.00    +0.100 C 
ATOM     16  N   LIG    1       21.370 -21.571   5.084  0.00  0.00    -0.191 NA
ENDBRANCH   8  15
ENDBRANCH   2   5
BRANCH   1  18
ATOM     17  C   LIG    1       23.883 -11.870   4.544  0.00  0.00    +0.053 C 
ATOM     18  C   LIG    1       24.578 -13.098   3.907  0.00  0.00    +0.158 C 
BRANCH  18  19
ATOM     19  O   LIG    1       24.444 -12.946   2.493  0.00  0.00    -0.378 OA
ATOM     20  H   LIG    1       23.882 -13.684   2.182  0.00  0.00    +0.211 HD
ENDBRANCH  18  19
BRANCH  18  21
ATOM     21  C   LIG    1       26.051 -13.121   4.327  0.00  0.00    +0.215 C 
BRANCH  21  22
ATOM     22  S   LIG    1       27.213 -13.944   3.262  0.00  0.00    +0.000 S 
ATOM     23  O   LIG    1       28.470 -13.222   3.296  0.00  0.00    -0.169 OA
ATOM     24  O   LIG    1       26.545 -14.174   1.994  0.00  0.00    -0.169 OA
BRANCH  22  25
ATOM     25  C   LIG    1       27.536 -15.566   3.930  0.00  0.00    +0.088 A 
ATOM     26  C   LIG    1       26.899 -16.677   3.361  0.00  0.00    +0.030 A 
ATOM     27  C   LIG    1       27.249 -17.962   3.774  0.00  0.00    +0.040 A 
ATOM     28  C   LIG    1       28.169 -18.123   4.803  0.00  0.00    +0.123 A 
ATOM     29  F   LIG    1       28.532 -19.358   5.175  0.00  0.00    -0.205 F 
ATOM     30  C   LIG    1       28.712 -17.018   5.457  0.00  0.00    +0.040 A 
ATOM     31  C   LIG    1       28.396 -15.727   5.022  0.00  0.00    +0.030 A 
ENDBRANCH  22  25
ENDBRANCH  21  22
ENDBRANCH  18  21
ENDBRANCH   1  18
TORSDOF 8
ENDMDL
