MODEL 1
REMARK VINA RESULT:      -9.9      0.000      0.000
REMARK  Name = *****
REMARK                            x       y       z     vdW  Elec       q    Type
REMARK                         _______ _______ _______ _____ _____    ______ ____
ROOT
ATOM      1  C   LIG    1       26.699 -20.949   6.460  0.00  0.00    -0.017 C 
ATOM      2  C   LIG    1       25.601 -21.432   5.844  0.00  0.00    -0.013 C 
ATOM      3  C   LIG    1       25.084 -22.808   6.073  0.00  0.00    -0.003 A 
ATOM      4  C   LIG    1       23.752 -22.964   6.504  0.00  0.00    +0.021 A 
ATOM      5  C   LIG    1       23.244 -24.243   6.766  0.00  0.00    +0.017 A 
ATOM      6  C   LIG    1       24.028 -25.371   6.523  0.00  0.00    +0.021 A 
ATOM      7  C   LIG    1       25.312 -25.220   6.002  0.00  0.00    +0.042 A 
ATOM      8 CL   LIG    1       26.239 -26.616   5.614  0.00  0.00    -0.084 Cl
ATOM      9  S   LIG    1       22.643 -21.562   6.654  0.00  0.00    -0.088 S 
ATOM     10  C   LIG    1       23.350 -20.452   5.429  0.00  0.00    +0.021 A 
ATOM     11  C   LIG    1       22.502 -19.556   4.770  0.00  0.00    +0.015 A 
ATOM     12  C   LIG    1       23.017 -18.659   3.832  0.00  0.00    +0.001 A 
ATOM     13  C   LIG    1       24.382 -18.652   3.548  0.00  0.00    +0.001 A 
ATOM     14  C   LIG    1       25.236 -19.549   4.192  0.00  0.00    +0.009 A 
ATOM     15  C   LIG    1       25.844 -23.949   5.778  0.00  0.00    +0.029 A 
ATOM     16  C   LIG    1       24.730 -20.450   5.142  0.00  0.00    -0.004 A 
ENDROOT
BRANCH   1  17
ATOM     17  C   LIG    1       27.618 -21.637   7.443  0.00  0.00    +0.043 C 
BRANCH  17  18
ATOM     18  C   LIG    1       29.063 -21.110   7.316  0.00  0.00    +0.088 C 
BRANCH  18  22
ATOM     19  N   LIG    1       31.470 -18.214   7.924  0.00  0.00    -0.298 NA
ATOM     20  C   LIG    1       31.828 -19.621   7.646  0.00  0.00    +0.100 C 
ATOM     21  C   LIG    1       31.112 -20.657   8.550  0.00  0.00    +0.100 C 
ATOM     22  N   LIG    1       29.629 -20.554   8.562  0.00  0.00    -0.300 NA
ATOM     23  C   LIG    1       29.261 -19.139   8.794  0.00  0.00    +0.100 C 
ATOM     24  C   LIG    1       29.990 -18.113   7.888  0.00  0.00    +0.100 C 
BRANCH  19  25
ATOM     25  C   LIG    1       31.983 -17.726   9.223  0.00  0.00    +0.112 C 
BRANCH  25  26
ATOM     26  C   LIG    1       31.825 -16.218   9.472  0.00  0.00    +0.171 C 
BRANCH  26  27
ATOM     27  O   LIG    1       33.025 -15.548   9.089  0.00  0.00    -0.394 OA
ATOM     28  H   LIG    1       33.647 -15.639   9.830  0.00  0.00    +0.209 HD
ENDBRANCH  26  27
ENDBRANCH  25  26
ENDBRANCH  19  25
ENDBRANCH  18  22
ENDBRANCH  17  18
ENDBRANCH   1  17
TORSDOF 6
ENDMDL
MODEL 2
REMARK VINA RESULT:      -8.1      4.992      8.113
REMARK  Name = *****
REMARK                            x       y       z     vdW  Elec       q    Type
REMARK                         _______ _______ _______ _____ _____    ______ ____
ROOT
ATOM      1  C   LIG    1       25.252 -22.423   6.455  0.00  0.00    -0.017 C 
ATOM      2  C   LIG    1       25.459 -21.108   6.233  0.00  0.00    -0.013 C 
ATOM      3  C   LIG    1       26.796 -20.467   6.356  0.00  0.00    -0.003 A 
ATOM      4  C   LIG    1       27.311 -19.767   5.247  0.00  0.00    +0.021 A 
ATOM      5  C   LIG    1       28.582 -19.183   5.315  0.00  0.00    +0.017 A 
ATOM      6  C   LIG    1       29.308 -19.223   6.506  0.00  0.00    +0.021 A 
ATOM      7  C   LIG    1       28.755 -19.830   7.631  0.00  0.00    +0.042 A 
ATOM      8 CL   LIG    1       29.612 -19.793   9.123  0.00  0.00    -0.084 Cl
ATOM      9  S   LIG    1       26.344 -19.526   3.756  0.00  0.00    -0.088 S 
ATOM     10  C   LIG    1       24.678 -19.575   4.434  0.00  0.00    +0.021 A 
ATOM     11  C   LIG    1       23.675 -18.836   3.796  0.00  0.00    +0.015 A 
ATOM     12  C   LIG    1       22.364 -18.871   4.276  0.00  0.00    +0.001 A 
ATOM     13  C   LIG    1       22.048 -19.642   5.393  0.00  0.00    +0.001 A 
ATOM     14  C   LIG    1       23.043 -20.374   6.043  0.00  0.00    +0.009 A 
ATOM     15  C   LIG    1       27.508 -20.452   7.564  0.00  0.00    +0.029 A 
ATOM     16  C   LIG    1       24.363 -20.354   5.565  0.00  0.00    -0.004 A 
ENDROOT
BRANCH   1  17
ATOM     17  C   LIG    1       26.246 -23.484   6.870  0.00  0.00    +0.043 C 
BRANCH  17  18
ATOM     18  C   LIG    1       25.561 -24.860   7.011  0.00  0.00    +0.088 C 
BRANCH  18  22
ATOM     19  N   LIG    1       24.410 -28.345   5.972  0.00  0.00    -0.298 NA
ATOM     20  C   LIG    1       24.931 -27.941   7.295  0.00  0.00    +0.100 C 
ATOM     21  C   LIG    1       26.277 -27.174   7.248  0.00  0.00    +0.100 C 
ATOM     22  N   LIG    1       26.282 -25.978   6.367  0.00  0.00    -0.300 NA
ATOM     23  C   LIG    1       25.718 -26.361   5.054  0.00  0.00    +0.100 C 
ATOM     24  C   LIG    1       24.375 -27.134   5.116  0.00  0.00    +0.100 C 
BRANCH  19  25
ATOM     25  C   LIG    1       25.213 -29.405   5.324  0.00  0.00    +0.112 C 
BRANCH  25  26
ATOM     26  C   LIG    1       24.805 -30.846   5.664  0.00  0.00    +0.171 C 
BRANCH  26  27
ATOM     27  O   LIG    1       23.383 -30.925   5.757  0.00  0.00    -0.394 OA
ATOM     28  H   LIG    1       23.168 -31.023   6.700  0.00  0.00    +0.209 HD
ENDBRANCH  26  27
ENDBRANCH  25  26
ENDBRANCH  19  25
ENDBRANCH  18  22
ENDBRANCH  17  18
ENDBRANCH   1  17
TORSDOF 6
ENDMDL
MODEL 3
REMARK VINA RESULT:      -7.0      6.222      9.849
REMARK  Name = *****
REMARK                            x       y       z     vdW  Elec       q    Type
REMARK                         _______ _______ _______ _____ _____    ______ ____
ROOT
ATOM      1  C   LIG    1       24.585 -28.958   7.412  0.00  0.00    -0.017 C 
ATOM      2  C   LIG    1       24.734 -30.273   7.676  0.00  0.00    -0.013 C 
ATOM      3  C   LIG    1       25.538 -31.185   6.819  0.00  0.00    -0.003 A 
ATOM      4  C   LIG    1       26.586 -31.916   7.412  0.00  0.00    +0.021 A 
ATOM      5  C   LIG    1       27.387 -32.755   6.628  0.00  0.00    +0.017 A 
ATOM      6  C   LIG    1       27.101 -32.933   5.275  0.00  0.00    +0.021 A 
ATOM      7  C   LIG    1       26.003 -32.286   4.711  0.00  0.00    +0.042 A 
ATOM      8 CL   LIG    1       25.595 -32.583   3.066  0.00  0.00    -0.084 Cl
ATOM      9  S   LIG    1       26.882 -31.868   9.181  0.00  0.00    -0.088 S 
ATOM     10  C   LIG    1       25.224 -31.509   9.781  0.00  0.00    +0.021 A 
ATOM     11  C   LIG    1       24.852 -31.986  11.042  0.00  0.00    +0.015 A 
ATOM     12  C   LIG    1       23.584 -31.705  11.554  0.00  0.00    +0.001 A 
ATOM     13  C   LIG    1       22.681 -30.947  10.810  0.00  0.00    +0.001 A 
ATOM     14  C   LIG    1       23.038 -30.475   9.546  0.00  0.00    +0.009 A 
ATOM     15  C   LIG    1       25.223 -31.414   5.472  0.00  0.00    +0.029 A 
ATOM     16  C   LIG    1       24.313 -30.745   9.024  0.00  0.00    -0.004 A 
ENDROOT
BRANCH   1  17
ATOM     17  C   LIG    1       25.139 -28.153   6.259  0.00  0.00    +0.043 C 
BRANCH  17  18
ATOM     18  C   LIG    1       25.722 -26.810   6.750  0.00  0.00    +0.088 C 
BRANCH  18  22
ATOM     19  N   LIG    1       24.152 -23.344   7.017  0.00  0.00    -0.298 NA
ATOM     20  C   LIG    1       23.476 -24.595   6.613  0.00  0.00    +0.100 C 
ATOM     21  C   LIG    1       24.202 -25.384   5.493  0.00  0.00    +0.100 C 
ATOM     22  N   LIG    1       25.625 -25.702   5.778  0.00  0.00    -0.300 NA
ATOM     23  C   LIG    1       26.300 -24.465   6.228  0.00  0.00    +0.100 C 
ATOM     24  C   LIG    1       25.560 -23.681   7.344  0.00  0.00    +0.100 C 
BRANCH  19  25
ATOM     25  C   LIG    1       24.108 -22.292   5.979  0.00  0.00    +0.112 C 
BRANCH  25  26
ATOM     26  C   LIG    1       23.353 -21.011   6.366  0.00  0.00    +0.171 C 
BRANCH  26  27
ATOM     27  O   LIG    1       23.477 -20.797   7.771  0.00  0.00    -0.394 OA
ATOM     28  H   LIG    1       24.313 -20.320   7.910  0.00  0.00    +0.209 HD
ENDBRANCH  26  27
ENDBRANCH  25  26
ENDBRANCH  19  25
ENDBRANCH  18  22
ENDBRANCH  17  18
ENDBRANCH   1  17
TORSDOF 6
ENDMDL
