MODEL 1
REMARK VINA RESULT:      -9.4      0.000      0.000
REMARK  Name = *****
REMARK                            x       y       z     vdW  Elec       q    Type
REMARK                         _______ _______ _______ _____ _____    ______ ____
ROOT
ATOM      1  C   LIG    1       27.276 -21.451   7.901  0.00  0.00    +0.158 C 
ENDROOT
BRANCH   1   2
ATOM      2  C   LIG    1       25.949 -22.084   7.497  0.00  0.00    -0.016 A 
ATOM      3  C   LIG    1       25.863 -23.396   6.984  0.00  0.00    +0.033 A 
ATOM      4  C   LIG    1       24.632 -23.997   6.657  0.00  0.00    +0.075 A 
ATOM      5  C   LIG    1       23.463 -23.263   6.874  0.00  0.00    +0.138 A 
ATOM      6  C   LIG    1       23.521 -21.969   7.394  0.00  0.00    +0.048 A 
ATOM      7  C   LIG    1       24.751 -21.390   7.708  0.00  0.00    +0.010 A 
BRANCH   4   8
ATOM      8  N   LIG    1       24.698 -25.309   6.135  0.00  0.00    -0.285 N 
ATOM      9  H   LIG    1       24.018 -25.989   6.451  0.00  0.00    +0.155 HD
ATOM     10  C   LIG    1       25.575 -25.821   5.231  0.00  0.00    +0.330 C 
ATOM     11  O   LIG    1       25.510 -26.996   4.859  0.00  0.00    -0.279 OA
ENDBRANCH   4   8
BRANCH   5  12
ATOM     12  O   LIG    1       22.231 -23.782   6.598  0.00  0.00    -0.505 OA
ATOM     13  H   LIG    1       21.837 -24.132   7.414  0.00  0.00    +0.292 HD
ENDBRANCH   5  12
ENDBRANCH   1   2
BRANCH   1  14
ATOM     14  O   LIG    1       27.042 -20.299   8.729  0.00  0.00    -0.386 OA
ATOM     15  H   LIG    1       27.667 -19.611   8.447  0.00  0.00    +0.210 HD
ENDBRANCH   1  14
BRANCH   1  16
ATOM     16  C   LIG    1       28.171 -21.034   6.703  0.00  0.00    +0.117 C 
BRANCH  16  17
ATOM     17  N   LIG    1       29.505 -20.585   7.124  0.00  0.00    -0.310 NA
ATOM     18  H   LIG    1       29.682 -20.927   8.072  0.00  0.00    +0.122 HD
BRANCH  17  19
ATOM     19  C   LIG    1       29.686 -19.122   7.062  0.00  0.00    +0.055 C 
ATOM     20  C   LIG    1       29.453 -18.569   5.647  0.00  0.00    +0.024 C 
BRANCH  19  21
ATOM     21  C   LIG    1       31.126 -18.779   7.524  0.00  0.00    +0.053 C 
BRANCH  21  25
ATOM     22  C   LIG    1       31.273 -16.629  11.274  0.00  0.00    +0.120 A 
ATOM     23  C   LIG    1       30.157 -17.395  10.941  0.00  0.00    +0.046 A 
ATOM     24  C   LIG    1       30.107 -18.069   9.718  0.00  0.00    +0.007 A 
ATOM     25  C   LIG    1       31.170 -17.985   8.811  0.00  0.00    -0.046 A 
ATOM     26  C   LIG    1       32.275 -17.191   9.139  0.00  0.00    +0.007 A 
ATOM     27  C   LIG    1       32.322 -16.517  10.362  0.00  0.00    +0.046 A 
BRANCH  22  29
ATOM     28  C   LIG    1       32.552 -16.277  13.227  0.00  0.00    +0.277 C 
ATOM     29  O   LIG    1       31.421 -15.924  12.438  0.00  0.00    -0.495 OA
ENDBRANCH  22  29
ENDBRANCH  21  25
ENDBRANCH  19  21
ENDBRANCH  17  19
ENDBRANCH  16  17
ENDBRANCH   1  16
TORSDOF 10
ENDMDL
MODEL 2
REMARK VINA RESULT:      -9.3      2.473      9.115
REMARK  Name = *****
REMARK                            x       y       z     vdW  Elec       q    Type
REMARK                         _______ _______ _______ _____ _____    ______ ____
ROOT
ATOM      1  C   LIG    1       27.839 -20.244   5.695  0.00  0.00    +0.158 C 
ENDROOT
BRANCH   1   2
ATOM      2  C   LIG    1       28.999 -20.400   6.675  0.00  0.00    -0.016 A 
ATOM      3  C   LIG    1       29.938 -19.371   6.903  0.00  0.00    +0.033 A 
ATOM      4  C   LIG    1       30.979 -19.499   7.843  0.00  0.00    +0.075 A 
ATOM      5  C   LIG    1       31.057 -20.682   8.583  0.00  0.00    +0.138 A 
ATOM      6  C   LIG    1       30.131 -21.707   8.385  0.00  0.00    +0.048 A 
ATOM      7  C   LIG    1       29.110 -21.563   7.447  0.00  0.00    +0.010 A 
BRANCH   4   8
ATOM      8  N   LIG    1       31.858 -18.396   7.952  0.00  0.00    -0.285 N 
ATOM      9  H   LIG    1       32.645 -18.343   7.318  0.00  0.00    +0.155 HD
ATOM     10  C   LIG    1       31.807 -17.350   8.819  0.00  0.00    +0.330 C 
ATOM     11  O   LIG    1       32.648 -16.448   8.796  0.00  0.00    -0.279 OA
ENDBRANCH   4   8
BRANCH   5  12
ATOM     12  O   LIG    1       32.026 -20.873   9.525  0.00  0.00    -0.505 OA
ATOM     13  H   LIG    1       31.750 -20.466  10.361  0.00  0.00    +0.292 HD
ENDBRANCH   5  12
ENDBRANCH   1   2
BRANCH   1  14
ATOM     14  O   LIG    1       27.960 -19.002   4.982  0.00  0.00    -0.386 OA
ATOM     15  H   LIG    1       28.819 -18.617   5.218  0.00  0.00    +0.210 HD
ENDBRANCH   1  14
BRANCH   1  16
ATOM     16  C   LIG    1       26.437 -20.309   6.358  0.00  0.00    +0.117 C 
BRANCH  16  17
ATOM     17  N   LIG    1       25.347 -20.301   5.372  0.00  0.00    -0.310 NA
ATOM     18  H   LIG    1       25.067 -19.332   5.200  0.00  0.00    +0.122 HD
BRANCH  17  19
ATOM     19  C   LIG    1       24.180 -21.111   5.771  0.00  0.00    +0.055 C 
ATOM     20  C   LIG    1       22.927 -20.251   5.998  0.00  0.00    +0.024 C 
BRANCH  19  21
ATOM     21  C   LIG    1       24.528 -21.877   7.074  0.00  0.00    +0.053 C 
BRANCH  21  25
ATOM     22  C   LIG    1       25.089 -26.100   6.330  0.00  0.00    +0.120 A 
ATOM     23  C   LIG    1       23.817 -25.535   6.272  0.00  0.00    +0.046 A 
ATOM     24  C   LIG    1       23.640 -24.174   6.535  0.00  0.00    +0.007 A 
ATOM     25  C   LIG    1       24.732 -23.361   6.862  0.00  0.00    -0.046 A 
ATOM     26  C   LIG    1       26.003 -23.941   6.948  0.00  0.00    +0.007 A 
ATOM     27  C   LIG    1       26.177 -25.302   6.685  0.00  0.00    +0.046 A 
BRANCH  22  29
ATOM     28  C   LIG    1       24.306 -28.186   5.549  0.00  0.00    +0.277 C 
ATOM     29  O   LIG    1       25.373 -27.419   6.100  0.00  0.00    -0.495 OA
ENDBRANCH  22  29
ENDBRANCH  21  25
ENDBRANCH  19  21
ENDBRANCH  17  19
ENDBRANCH  16  17
ENDBRANCH   1  16
TORSDOF 10
ENDMDL
MODEL 3
REMARK VINA RESULT:      -9.3      3.130      5.109
REMARK  Name = *****
REMARK                            x       y       z     vdW  Elec       q    Type
REMARK                         _______ _______ _______ _____ _____    ______ ____
ROOT
ATOM      1  C   LIG    1       22.810 -23.104   6.983  0.00  0.00    +0.158 C 
ENDROOT
BRANCH   1   2
ATOM      2  C   LIG    1       23.916 -24.111   6.684  0.00  0.00    -0.016 A 
ATOM      3  C   LIG    1       23.643 -25.434   6.273  0.00  0.00    +0.033 A 
ATOM      4  C   LIG    1       24.665 -26.347   5.950  0.00  0.00    +0.075 A 
ATOM      5  C   LIG    1       25.989 -25.908   6.024  0.00  0.00    +0.138 A 
ATOM      6  C   LIG    1       26.284 -24.600   6.414  0.00  0.00    +0.048 A 
ATOM      7  C   LIG    1       25.258 -23.712   6.733  0.00  0.00    +0.010 A 
BRANCH   4   8
ATOM      8  N   LIG    1       24.245 -27.644   5.572  0.00  0.00    -0.285 N 
ATOM      9  H   LIG    1       24.021 -27.815   4.600  0.00  0.00    +0.155 HD
ATOM     10  C   LIG    1       24.088 -28.747   6.352  0.00  0.00    +0.330 C 
ATOM     11  O   LIG    1       23.716 -29.825   5.881  0.00  0.00    -0.279 OA
ENDBRANCH   4   8
BRANCH   5  12
ATOM     12  O   LIG    1       27.033 -26.728   5.710  0.00  0.00    -0.505 OA
ATOM     13  H   LIG    1       27.026 -26.911   4.757  0.00  0.00    +0.292 HD
ENDBRANCH   5  12
ENDBRANCH   1   2
BRANCH   1  14
ATOM     14  O   LIG    1       21.671 -23.358   6.144  0.00  0.00    -0.386 OA
ATOM     15  H   LIG    1       21.265 -24.183   6.454  0.00  0.00    +0.210 HD
ENDBRANCH   1  14
BRANCH   1  16
ATOM     16  C   LIG    1       23.240 -21.622   6.812  0.00  0.00    +0.117 C 
BRANCH  16  17
ATOM     17  N   LIG    1       23.179 -21.176   5.413  0.00  0.00    -0.310 NA
ATOM     18  H   LIG    1       23.390 -21.971   4.805  0.00  0.00    +0.122 HD
BRANCH  17  19
ATOM     19  C   LIG    1       24.077 -20.045   5.111  0.00  0.00    +0.055 C 
ATOM     20  C   LIG    1       23.544 -19.171   3.965  0.00  0.00    +0.024 C 
BRANCH  19  21
ATOM     21  C   LIG    1       25.472 -20.605   4.732  0.00  0.00    +0.053 C 
BRANCH  21  25
ATOM     22  C   LIG    1       28.544 -19.879   7.690  0.00  0.00    +0.120 A 
ATOM     23  C   LIG    1       27.285 -20.339   8.075  0.00  0.00    +0.046 A 
ATOM     24  C   LIG    1       26.291 -20.550   7.117  0.00  0.00    +0.007 A 
ATOM     25  C   LIG    1       26.540 -20.303   5.761  0.00  0.00    -0.046 A 
ATOM     26  C   LIG    1       27.796 -19.813   5.384  0.00  0.00    +0.007 A 
ATOM     27  C   LIG    1       28.788 -19.602   6.345  0.00  0.00    +0.046 A 
BRANCH  22  29
ATOM     28  C   LIG    1       30.751 -20.417   8.330  0.00  0.00    +0.277 C 
ATOM     29  O   LIG    1       29.583 -19.632   8.545  0.00  0.00    -0.495 OA
ENDBRANCH  22  29
ENDBRANCH  21  25
ENDBRANCH  19  21
ENDBRANCH  17  19
ENDBRANCH  16  17
ENDBRANCH   1  16
TORSDOF 10
ENDMDL
MODEL 4
REMARK VINA RESULT:      -9.2      3.015      8.285
REMARK  Name = *****
REMARK                            x       y       z     vdW  Elec       q    Type
REMARK                         _______ _______ _______ _____ _____    ______ ____
ROOT
ATOM      1  C   LIG    1       26.083 -21.074   8.173  0.00  0.00    +0.158 C 
ENDROOT
BRANCH   1   2
ATOM      2  C   LIG    1       27.234 -20.351   7.480  0.00  0.00    -0.016 A 
ATOM      3  C   LIG    1       28.470 -20.112   8.119  0.00  0.00    +0.033 A 
ATOM      4  C   LIG    1       29.548 -19.489   7.461  0.00  0.00    +0.075 A 
ATOM      5  C   LIG    1       29.379 -19.120   6.123  0.00  0.00    +0.138 A 
ATOM      6  C   LIG    1       28.172 -19.360   5.466  0.00  0.00    +0.048 A 
ATOM      7  C   LIG    1       27.115 -19.975   6.136  0.00  0.00    +0.010 A 
BRANCH   4   8
ATOM      8  N   LIG    1       30.719 -19.294   8.230  0.00  0.00    -0.285 N 
ATOM      9  H   LIG    1       31.567 -19.766   7.943  0.00  0.00    +0.155 HD
ATOM     10  C   LIG    1       30.887 -18.538   9.347  0.00  0.00    +0.330 C 
ATOM     11  O   LIG    1       31.979 -18.457   9.916  0.00  0.00    -0.279 OA
ENDBRANCH   4   8
BRANCH   5  12
ATOM     12  O   LIG    1       30.383 -18.527   5.413  0.00  0.00    -0.505 OA
ATOM     13  H   LIG    1       31.228 -18.951   5.633  0.00  0.00    +0.292 HD
ENDBRANCH   5  12
ENDBRANCH   1   2
BRANCH   1  14
ATOM     14  O   LIG    1       25.878 -20.527   9.487  0.00  0.00    -0.386 OA
ATOM     15  H   LIG    1       25.630 -19.596   9.374  0.00  0.00    +0.210 HD
ENDBRANCH   1  14
BRANCH   1  16
ATOM     16  C   LIG    1       26.279 -22.609   8.293  0.00  0.00    +0.117 C 
BRANCH  16  17
ATOM     17  N   LIG    1       26.091 -23.303   7.012  0.00  0.00    -0.310 NA
ATOM     18  H   LIG    1       26.764 -22.933   6.336  0.00  0.00    +0.122 HD
BRANCH  17  19
ATOM     19  C   LIG    1       24.718 -23.203   6.479  0.00  0.00    +0.055 C 
ATOM     20  C   LIG    1       24.000 -24.562   6.468  0.00  0.00    +0.024 C 
BRANCH  19  21
ATOM     21  C   LIG    1       24.784 -22.639   5.036  0.00  0.00    +0.053 C 
BRANCH  21  25
ATOM     22  C   LIG    1       22.721 -18.877   4.489  0.00  0.00    +0.120 A 
ATOM     23  C   LIG    1       23.699 -19.286   3.583  0.00  0.00    +0.046 A 
ATOM     24  C   LIG    1       24.377 -20.492   3.778  0.00  0.00    +0.007 A 
ATOM     25  C   LIG    1       24.089 -21.304   4.881  0.00  0.00    -0.046 A 
ATOM     26  C   LIG    1       23.127 -20.874   5.803  0.00  0.00    +0.007 A 
ATOM     27  C   LIG    1       22.451 -19.667   5.606  0.00  0.00    +0.046 A 
BRANCH  22  29
ATOM     28  C   LIG    1       22.769 -16.517   4.500  0.00  0.00    +0.277 C 
ATOM     29  O   LIG    1       22.005 -17.714   4.398  0.00  0.00    -0.495 OA
ENDBRANCH  22  29
ENDBRANCH  21  25
ENDBRANCH  19  21
ENDBRANCH  17  19
ENDBRANCH  16  17
ENDBRANCH   1  16
TORSDOF 10
ENDMDL
MODEL 5
REMARK VINA RESULT:      -9.0      3.381      9.975
REMARK  Name = *****
REMARK                            x       y       z     vdW  Elec       q    Type
REMARK                         _______ _______ _______ _____ _____    ______ ____
ROOT
ATOM      1  C   LIG    1       26.088 -21.609   7.715  0.00  0.00    +0.158 C 
ENDROOT
BRANCH   1   2
ATOM      2  C   LIG    1       27.313 -20.831   7.243  0.00  0.00    -0.016 A 
ATOM      3  C   LIG    1       28.589 -21.008   7.822  0.00  0.00    +0.033 A 
ATOM      4  C   LIG    1       29.728 -20.326   7.353  0.00  0.00    +0.075 A 
ATOM      5  C   LIG    1       29.578 -19.463   6.264  0.00  0.00    +0.138 A 
ATOM      6  C   LIG    1       28.329 -19.283   5.666  0.00  0.00    +0.048 A 
ATOM      7  C   LIG    1       27.212 -19.965   6.147  0.00  0.00    +0.010 A 
BRANCH   4   8
ATOM      8  N   LIG    1       30.937 -20.586   8.040  0.00  0.00    -0.285 N 
ATOM      9  H   LIG    1       31.758 -20.051   7.789  0.00  0.00    +0.155 HD
ATOM     10  C   LIG    1       31.175 -21.486   9.031  0.00  0.00    +0.330 C 
ATOM     11  O   LIG    1       32.290 -21.601   9.547  0.00  0.00    -0.279 OA
ENDBRANCH   4   8
BRANCH   5  12
ATOM     12  O   LIG    1       30.637 -18.780   5.742  0.00  0.00    -0.505 OA
ATOM     13  H   LIG    1       30.313 -18.080   5.153  0.00  0.00    +0.292 HD
ENDBRANCH   5  12
ENDBRANCH   1   2
BRANCH   1  14
ATOM     14  O   LIG    1       25.962 -21.512   9.143  0.00  0.00    -0.386 OA
ATOM     15  H   LIG    1       25.115 -21.921   9.385  0.00  0.00    +0.210 HD
ENDBRANCH   1  14
BRANCH   1  16
ATOM     16  C   LIG    1       26.096 -23.108   7.312  0.00  0.00    +0.117 C 
BRANCH  16  17
ATOM     17  N   LIG    1       25.643 -23.322   5.930  0.00  0.00    -0.310 NA
ATOM     18  H   LIG    1       24.967 -22.594   5.689  0.00  0.00    +0.122 HD
BRANCH  17  19
ATOM     19  C   LIG    1       25.065 -24.660   5.696  0.00  0.00    +0.055 C 
ATOM     20  C   LIG    1       23.714 -24.840   6.406  0.00  0.00    +0.024 C 
BRANCH  19  21
ATOM     21  C   LIG    1       26.066 -25.731   6.205  0.00  0.00    +0.053 C 
BRANCH  21  25
ATOM     22  C   LIG    1       24.279 -29.663   6.435  0.00  0.00    +0.120 A 
ATOM     23  C   LIG    1       24.924 -29.112   7.542  0.00  0.00    +0.046 A 
ATOM     24  C   LIG    1       25.518 -27.851   7.454  0.00  0.00    +0.007 A 
ATOM     25  C   LIG    1       25.478 -27.124   6.259  0.00  0.00    -0.046 A 
ATOM     26  C   LIG    1       24.855 -27.694   5.142  0.00  0.00    +0.007 A 
ATOM     27  C   LIG    1       24.262 -28.956   5.232  0.00  0.00    +0.046 A 
BRANCH  22  29
ATOM     28  C   LIG    1       24.537 -31.992   6.147  0.00  0.00    +0.277 C 
ATOM     29  O   LIG    1       23.674 -30.890   6.410  0.00  0.00    -0.495 OA
ENDBRANCH  22  29
ENDBRANCH  21  25
ENDBRANCH  19  21
ENDBRANCH  17  19
ENDBRANCH  16  17
ENDBRANCH   1  16
TORSDOF 10
ENDMDL
MODEL 6
REMARK VINA RESULT:      -8.9      1.706      2.661
REMARK  Name = *****
REMARK                            x       y       z     vdW  Elec       q    Type
REMARK                         _______ _______ _______ _____ _____    ______ ____
ROOT
ATOM      1  C   LIG    1       27.419 -21.359   7.810  0.00  0.00    +0.158 C 
ENDROOT
BRANCH   1   2
ATOM      2  C   LIG    1       26.026 -21.824   7.397  0.00  0.00    -0.016 A 
ATOM      3  C   LIG    1       25.040 -20.931   6.925  0.00  0.00    +0.033 A 
ATOM      4  C   LIG    1       23.771 -21.369   6.498  0.00  0.00    +0.075 A 
ATOM      5  C   LIG    1       23.502 -22.739   6.530  0.00  0.00    +0.138 A 
ATOM      6  C   LIG    1       24.466 -23.643   6.980  0.00  0.00    +0.048 A 
ATOM      7  C   LIG    1       25.715 -23.190   7.401  0.00  0.00    +0.010 A 
BRANCH   4   8
ATOM      8  N   LIG    1       22.877 -20.361   6.068  0.00  0.00    -0.285 N 
ATOM      9  H   LIG    1       22.097 -20.121   6.667  0.00  0.00    +0.155 HD
ATOM     10  C   LIG    1       22.905 -19.632   4.920  0.00  0.00    +0.330 C 
ATOM     11  O   LIG    1       22.052 -18.774   4.677  0.00  0.00    -0.279 OA
ENDBRANCH   4   8
BRANCH   5  12
ATOM     12  O   LIG    1       22.302 -23.242   6.117  0.00  0.00    -0.505 OA
ATOM     13  H   LIG    1       22.214 -24.160   6.420  0.00  0.00    +0.292 HD
ENDBRANCH   5  12
ENDBRANCH   1   2
BRANCH   1  14
ATOM     14  O   LIG    1       27.320 -20.239   8.706  0.00  0.00    -0.386 OA
ATOM     15  H   LIG    1       27.204 -20.597   9.600  0.00  0.00    +0.210 HD
ENDBRANCH   1  14
BRANCH   1  16
ATOM     16  C   LIG    1       28.335 -20.970   6.619  0.00  0.00    +0.117 C 
BRANCH  16  17
ATOM     17  N   LIG    1       29.670 -20.536   7.053  0.00  0.00    -0.310 NA
ATOM     18  H   LIG    1       29.858 -20.927   7.980  0.00  0.00    +0.122 HD
BRANCH  17  19
ATOM     19  C   LIG    1       29.841 -19.071   7.069  0.00  0.00    +0.055 C 
ATOM     20  C   LIG    1       29.647 -18.449   5.677  0.00  0.00    +0.024 C 
BRANCH  19  21
ATOM     21  C   LIG    1       31.265 -18.742   7.591  0.00  0.00    +0.053 C 
BRANCH  21  25
ATOM     22  C   LIG    1       31.303 -16.559  11.325  0.00  0.00    +0.120 A 
ATOM     23  C   LIG    1       30.305 -17.496  11.063  0.00  0.00    +0.046 A 
ATOM     24  C   LIG    1       30.286 -18.181   9.847  0.00  0.00    +0.007 A 
ATOM     25  C   LIG    1       31.263 -17.938   8.873  0.00  0.00    -0.046 A 
ATOM     26  C   LIG    1       32.246 -16.975   9.129  0.00  0.00    +0.007 A 
ATOM     27  C   LIG    1       32.262 -16.290  10.347  0.00  0.00    +0.046 A 
BRANCH  22  29
ATOM     28  C   LIG    1       32.447 -16.233  13.364  0.00  0.00    +0.277 C 
ATOM     29  O   LIG    1       31.410 -15.827  12.477  0.00  0.00    -0.495 OA
ENDBRANCH  22  29
ENDBRANCH  21  25
ENDBRANCH  19  21
ENDBRANCH  17  19
ENDBRANCH  16  17
ENDBRANCH   1  16
TORSDOF 10
ENDMDL
MODEL 7
REMARK VINA RESULT:      -8.8      2.442      4.535
REMARK  Name = *****
REMARK                            x       y       z     vdW  Elec       q    Type
REMARK                         _______ _______ _______ _____ _____    ______ ____
ROOT
ATOM      1  C   LIG    1       23.265 -23.300   6.886  0.00  0.00    +0.158 C 
ENDROOT
BRANCH   1   2
ATOM      2  C   LIG    1       24.210 -24.449   6.548  0.00  0.00    -0.016 A 
ATOM      3  C   LIG    1       23.742 -25.725   6.166  0.00  0.00    +0.033 A 
ATOM      4  C   LIG    1       24.615 -26.769   5.807  0.00  0.00    +0.075 A 
ATOM      5  C   LIG    1       25.989 -26.512   5.815  0.00  0.00    +0.138 A 
ATOM      6  C   LIG    1       26.474 -25.254   6.175  0.00  0.00    +0.048 A 
ATOM      7  C   LIG    1       25.593 -24.233   6.531  0.00  0.00    +0.010 A 
BRANCH   4   8
ATOM      8  N   LIG    1       24.007 -28.000   5.465  0.00  0.00    -0.285 N 
ATOM      9  H   LIG    1       23.518 -28.067   4.582  0.00  0.00    +0.155 HD
ATOM     10  C   LIG    1       23.978 -29.159   6.174  0.00  0.00    +0.330 C 
ATOM     11  O   LIG    1       23.408 -30.167   5.746  0.00  0.00    -0.279 OA
ENDBRANCH   4   8
BRANCH   5  12
ATOM     12  O   LIG    1       26.897 -27.468   5.464  0.00  0.00    -0.505 OA
ATOM     13  H   LIG    1       26.913 -28.163   6.140  0.00  0.00    +0.292 HD
ENDBRANCH   5  12
ENDBRANCH   1   2
BRANCH   1  14
ATOM     14  O   LIG    1       21.918 -23.646   6.522  0.00  0.00    -0.386 OA
ATOM     15  H   LIG    1       21.973 -24.307   5.814  0.00  0.00    +0.210 HD
ENDBRANCH   1  14
BRANCH   1  16
ATOM     16  C   LIG    1       23.637 -21.953   6.209  0.00  0.00    +0.117 C 
BRANCH  16  17
ATOM     17  N   LIG    1       24.509 -21.122   7.050  0.00  0.00    -0.310 NA
ATOM     18  H   LIG    1       23.933 -20.435   7.543  0.00  0.00    +0.122 HD
BRANCH  17  19
ATOM     19  C   LIG    1       25.588 -20.447   6.302  0.00  0.00    +0.055 C 
ATOM     20  C   LIG    1       25.231 -20.251   4.820  0.00  0.00    +0.024 C 
BRANCH  19  21
ATOM     21  C   LIG    1       26.880 -21.297   6.417  0.00  0.00    +0.053 C 
BRANCH  21  25
ATOM     22  C   LIG    1       30.343 -18.824   7.191  0.00  0.00    +0.120 A 
ATOM     23  C   LIG    1       29.591 -18.646   6.031  0.00  0.00    +0.046 A 
ATOM     24  C   LIG    1       28.487 -19.462   5.777  0.00  0.00    +0.007 A 
ATOM     25  C   LIG    1       28.120 -20.470   6.677  0.00  0.00    -0.046 A 
ATOM     26  C   LIG    1       28.897 -20.664   7.826  0.00  0.00    +0.007 A 
ATOM     27  C   LIG    1       30.001 -19.846   8.077  0.00  0.00    +0.046 A 
BRANCH  22  29
ATOM     28  C   LIG    1       31.652 -17.910   8.931  0.00  0.00    +0.277 C 
ATOM     29  O   LIG    1       31.445 -18.088   7.533  0.00  0.00    -0.495 OA
ENDBRANCH  22  29
ENDBRANCH  21  25
ENDBRANCH  19  21
ENDBRANCH  17  19
ENDBRANCH  16  17
ENDBRANCH   1  16
TORSDOF 10
ENDMDL
MODEL 8
REMARK VINA RESULT:      -8.7      3.151      5.590
REMARK  Name = *****
REMARK                            x       y       z     vdW  Elec       q    Type
REMARK                         _______ _______ _______ _____ _____    ______ ____
ROOT
ATOM      1  C   LIG    1       24.215 -24.142   6.409  0.00  0.00    +0.158 C 
ENDROOT
BRANCH   1   2
ATOM      2  C   LIG    1       24.651 -25.603   6.352  0.00  0.00    -0.016 A 
ATOM      3  C   LIG    1       25.523 -26.169   7.307  0.00  0.00    +0.033 A 
ATOM      4  C   LIG    1       25.885 -27.529   7.282  0.00  0.00    +0.075 A 
ATOM      5  C   LIG    1       25.338 -28.338   6.282  0.00  0.00    +0.138 A 
ATOM      6  C   LIG    1       24.462 -27.805   5.335  0.00  0.00    +0.048 A 
ATOM      7  C   LIG    1       24.118 -26.454   5.376  0.00  0.00    +0.010 A 
BRANCH   4   8
ATOM      8  N   LIG    1       26.782 -27.955   8.289  0.00  0.00    -0.285 N 
ATOM      9  H   LIG    1       27.764 -27.734   8.184  0.00  0.00    +0.155 HD
ATOM     10  C   LIG    1       26.515 -28.647   9.429  0.00  0.00    +0.330 C 
ATOM     11  O   LIG    1       27.406 -28.948  10.227  0.00  0.00    -0.279 OA
ENDBRANCH   4   8
BRANCH   5  12
ATOM     12  O   LIG    1       25.627 -29.670   6.202  0.00  0.00    -0.505 OA
ATOM     13  H   LIG    1       26.576 -29.785   6.034  0.00  0.00    +0.292 HD
ENDBRANCH   5  12
ENDBRANCH   1   2
BRANCH   1  14
ATOM     14  O   LIG    1       22.780 -24.056   6.432  0.00  0.00    -0.386 OA
ATOM     15  H   LIG    1       22.522 -23.825   7.339  0.00  0.00    +0.210 HD
ENDBRANCH   1  14
BRANCH   1  16
ATOM     16  C   LIG    1       24.751 -23.275   5.238  0.00  0.00    +0.117 C 
BRANCH  16  17
ATOM     17  N   LIG    1       23.820 -22.205   4.857  0.00  0.00    -0.310 NA
ATOM     18  H   LIG    1       23.856 -22.083   3.842  0.00  0.00    +0.122 HD
BRANCH  17  19
ATOM     19  C   LIG    1       24.078 -20.922   5.539  0.00  0.00    +0.055 C 
ATOM     20  C   LIG    1       22.896 -19.948   5.410  0.00  0.00    +0.024 C 
BRANCH  19  21
ATOM     21  C   LIG    1       25.350 -20.280   4.927  0.00  0.00    +0.053 C 
BRANCH  21  25
ATOM     22  C   LIG    1       28.668 -20.218   7.701  0.00  0.00    +0.120 A 
ATOM     23  C   LIG    1       27.377 -20.494   8.148  0.00  0.00    +0.046 A 
ATOM     24  C   LIG    1       26.307 -20.491   7.251  0.00  0.00    +0.007 A 
ATOM     25  C   LIG    1       26.511 -20.210   5.894  0.00  0.00    -0.046 A 
ATOM     26  C   LIG    1       27.806 -19.905   5.457  0.00  0.00    +0.007 A 
ATOM     27  C   LIG    1       28.874 -19.908   6.357  0.00  0.00    +0.046 A 
BRANCH  22  29
ATOM     28  C   LIG    1       30.954 -19.656   7.882  0.00  0.00    +0.277 C 
ATOM     29  O   LIG    1       29.783 -20.187   8.495  0.00  0.00    -0.495 OA
ENDBRANCH  22  29
ENDBRANCH  21  25
ENDBRANCH  19  21
ENDBRANCH  17  19
ENDBRANCH  16  17
ENDBRANCH   1  16
TORSDOF 10
ENDMDL
MODEL 9
REMARK VINA RESULT:      -8.7      2.066      9.498
REMARK  Name = *****
REMARK                            x       y       z     vdW  Elec       q    Type
REMARK                         _______ _______ _______ _____ _____    ______ ____
ROOT
ATOM      1  C   LIG    1       27.514 -20.523   7.941  0.00  0.00    +0.158 C 
ENDROOT
BRANCH   1   2
ATOM      2  C   LIG    1       28.822 -19.737   7.950  0.00  0.00    -0.016 A 
ATOM      3  C   LIG    1       29.089 -18.725   8.898  0.00  0.00    +0.033 A 
ATOM      4  C   LIG    1       30.316 -18.035   8.935  0.00  0.00    +0.075 A 
ATOM      5  C   LIG    1       31.301 -18.391   8.009  0.00  0.00    +0.138 A 
ATOM      6  C   LIG    1       31.065 -19.399   7.072  0.00  0.00    +0.048 A 
ATOM      7  C   LIG    1       29.842 -20.068   7.049  0.00  0.00    +0.010 A 
BRANCH   4   8
ATOM      8  N   LIG    1       30.437 -17.032   9.925  0.00  0.00    -0.285 N 
ATOM      9  H   LIG    1       30.101 -16.102   9.712  0.00  0.00    +0.155 HD
ATOM     10  C   LIG    1       30.961 -17.131  11.176  0.00  0.00    +0.330 C 
ATOM     11  O   LIG    1       30.997 -16.164  11.941  0.00  0.00    -0.279 OA
ENDBRANCH   4   8
BRANCH   5  12
ATOM     12  O   LIG    1       32.521 -17.780   7.993  0.00  0.00    -0.505 OA
ATOM     13  H   LIG    1       32.704 -17.399   8.867  0.00  0.00    +0.292 HD
ENDBRANCH   5  12
ENDBRANCH   1   2
BRANCH   1  14
ATOM     14  O   LIG    1       27.679 -21.764   8.647  0.00  0.00    -0.386 OA
ATOM     15  H   LIG    1       27.654 -21.560   9.596  0.00  0.00    +0.210 HD
ENDBRANCH   1  14
BRANCH   1  16
ATOM     16  C   LIG    1       26.965 -20.822   6.521  0.00  0.00    +0.117 C 
BRANCH  16  17
ATOM     17  N   LIG    1       25.596 -20.325   6.330  0.00  0.00    -0.310 NA
ATOM     18  H   LIG    1       25.301 -19.839   7.180  0.00  0.00    +0.122 HD
BRANCH  17  19
ATOM     19  C   LIG    1       24.625 -21.378   5.976  0.00  0.00    +0.055 C 
ATOM     20  C   LIG    1       23.243 -20.802   5.629  0.00  0.00    +0.024 C 
BRANCH  19  21
ATOM     21  C   LIG    1       24.494 -22.356   7.173  0.00  0.00    +0.053 C 
BRANCH  21  25
ATOM     22  C   LIG    1       25.196 -26.451   5.970  0.00  0.00    +0.120 A 
ATOM     23  C   LIG    1       23.900 -25.940   6.018  0.00  0.00    +0.046 A 
ATOM     24  C   LIG    1       23.679 -24.623   6.428  0.00  0.00    +0.007 A 
ATOM     25  C   LIG    1       24.749 -23.800   6.799  0.00  0.00    -0.046 A 
ATOM     26  C   LIG    1       26.045 -24.328   6.777  0.00  0.00    +0.007 A 
ATOM     27  C   LIG    1       26.264 -25.646   6.367  0.00  0.00    +0.046 A 
BRANCH  22  29
ATOM     28  C   LIG    1       24.422 -28.606   5.396  0.00  0.00    +0.277 C 
ATOM     29  O   LIG    1       25.523 -27.725   5.592  0.00  0.00    -0.495 OA
ENDBRANCH  22  29
ENDBRANCH  21  25
ENDBRANCH  19  21
ENDBRANCH  17  19
ENDBRANCH  16  17
ENDBRANCH   1  16
TORSDOF 10
ENDMDL
