MODEL 1
REMARK VINA RESULT:      -9.7      0.000      0.000
REMARK  Name = *****
REMARK                            x       y       z     vdW  Elec       q    Type
REMARK                         _______ _______ _______ _____ _____    ______ ____
ROOT
ATOM      1  C   LIG    1       27.097 -20.722   6.627  0.00  0.00    +0.036 A 
ATOM      2  C   LIG    1       27.787 -19.697   5.943  0.00  0.00    +0.027 A 
ATOM      3  C   LIG    1       29.139 -19.415   6.177  0.00  0.00    +0.048 A 
ATOM      4  C   LIG    1       29.845 -20.178   7.090  0.00  0.00    +0.132 A 
ATOM      5  C   LIG    1       29.211 -21.204   7.775  0.00  0.00    +0.048 A 
ATOM      6  C   LIG    1       27.857 -21.474   7.536  0.00  0.00    +0.027 A 
ENDROOT
BRANCH   1   8
ATOM      7  C   LIG    1       25.289 -21.240   5.011  0.00  0.00    +0.138 C 
ATOM      8  N   LIG    1       25.669 -20.933   6.399  0.00  0.00    -0.272 N 
ATOM      9  C   LIG    1       24.709 -20.855   7.445  0.00  0.00    +0.252 C 
ATOM     10  O   LIG    1       25.003 -20.677   8.631  0.00  0.00    -0.272 OA
BRANCH   9  11
ATOM     11  C   LIG    1       23.225 -21.018   7.077  0.00  0.00    +0.257 C 
ATOM     12 CL   LIG    1       22.869 -22.706   6.613  0.00  0.00    -0.095 Cl
ATOM     13 CL   LIG    1       22.860 -19.926   5.722  0.00  0.00    -0.095 Cl
ENDBRANCH   9  11
ENDBRANCH   1   8
BRANCH   4  14
ATOM     14  O   LIG    1       31.178 -19.934   7.456  0.00  0.00    -0.420 OA
BRANCH  14  15
ATOM     15  C   LIG    1       31.620 -19.961   8.778  0.00  0.00    +0.380 C 
ATOM     16  O   LIG    1       32.225 -20.885   9.315  0.00  0.00    -0.241 OA
BRANCH  15  17
ATOM     17  C   LIG    1       31.255 -18.727   9.422  0.00  0.00    +0.212 A 
ATOM     18  O   LIG    1       30.636 -18.748  10.645  0.00  0.00    -0.456 OA
ATOM     19  C   LIG    1       30.423 -17.461  11.014  0.00  0.00    +0.196 A 
ATOM     20  C   LIG    1       30.886 -16.602  10.048  0.00  0.00    +0.042 A 
ATOM     21  C   LIG    1       31.418 -17.413   9.018  0.00  0.00    +0.056 A 
ENDBRANCH  15  17
ENDBRANCH  14  15
ENDBRANCH   4  14
TORSDOF 5
ENDMDL
MODEL 2
REMARK VINA RESULT:      -9.5      1.526      2.085
REMARK  Name = *****
REMARK                            x       y       z     vdW  Elec       q    Type
REMARK                         _______ _______ _______ _____ _____    ______ ____
ROOT
ATOM      1  C   LIG    1       27.126 -20.487   6.540  0.00  0.00    +0.036 A 
ATOM      2  C   LIG    1       27.430 -20.368   7.914  0.00  0.00    +0.027 A 
ATOM      3  C   LIG    1       28.606 -19.762   8.374  0.00  0.00    +0.048 A 
ATOM      4  C   LIG    1       29.501 -19.233   7.462  0.00  0.00    +0.132 A 
ATOM      5  C   LIG    1       29.237 -19.315   6.103  0.00  0.00    +0.048 A 
ATOM      6  C   LIG    1       28.059 -19.927   5.653  0.00  0.00    +0.027 A 
ENDROOT
BRANCH   1   8
ATOM      7  C   LIG    1       25.047 -20.437   5.190  0.00  0.00    +0.138 C 
ATOM      8  N   LIG    1       25.920 -21.188   6.106  0.00  0.00    -0.272 N 
ATOM      9  C   LIG    1       25.609 -22.509   6.531  0.00  0.00    +0.252 C 
ATOM     10  O   LIG    1       26.357 -23.194   7.236  0.00  0.00    -0.272 OA
BRANCH   9  11
ATOM     11  C   LIG    1       24.274 -23.119   6.074  0.00  0.00    +0.257 C 
ATOM     12 CL   LIG    1       22.932 -22.556   7.111  0.00  0.00    -0.095 Cl
ATOM     13 CL   LIG    1       24.408 -24.890   6.162  0.00  0.00    -0.095 Cl
ENDBRANCH   9  11
ENDBRANCH   1   8
BRANCH   4  14
ATOM     14  O   LIG    1       30.741 -18.674   7.808  0.00  0.00    -0.420 OA
BRANCH  14  15
ATOM     15  C   LIG    1       31.482 -19.095   8.912  0.00  0.00    +0.380 C 
ATOM     16  O   LIG    1       32.053 -20.176   9.025  0.00  0.00    -0.241 OA
BRANCH  15  17
ATOM     17  C   LIG    1       31.474 -18.057   9.908  0.00  0.00    +0.212 A 
ATOM     18  O   LIG    1       32.647 -17.657  10.493  0.00  0.00    -0.456 OA
ATOM     19  C   LIG    1       32.346 -16.669  11.372  0.00  0.00    +0.196 A 
ATOM     20  C   LIG    1       30.995 -16.424  11.375  0.00  0.00    +0.042 A 
ATOM     21  C   LIG    1       30.428 -17.319  10.437  0.00  0.00    +0.056 A 
ENDBRANCH  15  17
ENDBRANCH  14  15
ENDBRANCH   4  14
TORSDOF 5
ENDMDL
MODEL 3
REMARK VINA RESULT:      -9.2      1.462      1.872
REMARK  Name = *****
REMARK                            x       y       z     vdW  Elec       q    Type
REMARK                         _______ _______ _______ _____ _____    ______ ____
ROOT
ATOM      1  C   LIG    1       26.466 -20.303   5.885  0.00  0.00    +0.036 A 
ATOM      2  C   LIG    1       27.651 -19.619   5.532  0.00  0.00    +0.027 A 
ATOM      3  C   LIG    1       28.791 -19.622   6.346  0.00  0.00    +0.048 A 
ATOM      4  C   LIG    1       28.781 -20.338   7.530  0.00  0.00    +0.132 A 
ATOM      5  C   LIG    1       27.644 -21.037   7.909  0.00  0.00    +0.048 A 
ATOM      6  C   LIG    1       26.507 -21.023   7.089  0.00  0.00    +0.027 A 
ENDROOT
BRANCH   1   8
ATOM      7  C   LIG    1       25.538 -19.935   3.616  0.00  0.00    +0.138 C 
ATOM      8  N   LIG    1       25.280 -20.214   5.037  0.00  0.00    -0.272 N 
ATOM      9  C   LIG    1       23.963 -20.391   5.545  0.00  0.00    +0.252 C 
ATOM     10  O   LIG    1       23.718 -20.703   6.715  0.00  0.00    -0.272 OA
BRANCH   9  11
ATOM     11  C   LIG    1       22.784 -20.199   4.577  0.00  0.00    +0.257 C 
ATOM     12 CL   LIG    1       22.132 -18.540   4.696  0.00  0.00    -0.095 Cl
ATOM     13 CL   LIG    1       21.521 -21.379   4.989  0.00  0.00    -0.095 Cl
ENDBRANCH   9  11
ENDBRANCH   1   8
BRANCH   4  14
ATOM     14  O   LIG    1       29.837 -20.348   8.454  0.00  0.00    -0.420 OA
BRANCH  14  15
ATOM     15  C   LIG    1       31.006 -19.609   8.278  0.00  0.00    +0.380 C 
ATOM     16  O   LIG    1       31.863 -19.811   7.422  0.00  0.00    -0.241 OA
BRANCH  15  17
ATOM     17  C   LIG    1       31.055 -18.562   9.265  0.00  0.00    +0.212 A 
ATOM     18  O   LIG    1       32.204 -18.345   9.979  0.00  0.00    -0.456 OA
ATOM     19  C   LIG    1       31.971 -17.304  10.816  0.00  0.00    +0.196 A 
ATOM     20  C   LIG    1       30.686 -16.844  10.664  0.00  0.00    +0.042 A 
ATOM     21  C   LIG    1       30.090 -17.654   9.669  0.00  0.00    +0.056 A 
ENDBRANCH  15  17
ENDBRANCH  14  15
ENDBRANCH   4  14
TORSDOF 5
ENDMDL
MODEL 4
REMARK VINA RESULT:      -9.0      1.381      1.951
REMARK  Name = *****
REMARK                            x       y       z     vdW  Elec       q    Type
REMARK                         _______ _______ _______ _____ _____    ______ ____
ROOT
ATOM      1  C   LIG    1       27.104 -20.699   6.502  0.00  0.00    +0.036 A 
ATOM      2  C   LIG    1       27.701 -21.396   7.576  0.00  0.00    +0.027 A 
ATOM      3  C   LIG    1       29.027 -21.174   7.971  0.00  0.00    +0.048 A 
ATOM      4  C   LIG    1       29.784 -20.222   7.313  0.00  0.00    +0.132 A 
ATOM      5  C   LIG    1       29.233 -19.503   6.262  0.00  0.00    +0.048 A 
ATOM      6  C   LIG    1       27.908 -19.736   5.871  0.00  0.00    +0.027 A 
ENDROOT
BRANCH   1   8
ATOM      7  C   LIG    1       25.042 -22.015   6.903  0.00  0.00    +0.138 C 
ATOM      8  N   LIG    1       25.741 -21.014   6.082  0.00  0.00    -0.272 N 
ATOM      9  C   LIG    1       25.125 -20.393   4.961  0.00  0.00    +0.252 C 
ATOM     10  O   LIG    1       25.655 -19.495   4.299  0.00  0.00    -0.272 OA
BRANCH   9  11
ATOM     11  C   LIG    1       23.714 -20.858   4.563  0.00  0.00    +0.257 C 
ATOM     12 CL   LIG    1       23.573 -21.004   2.788  0.00  0.00    -0.095 Cl
ATOM     13 CL   LIG    1       22.539 -19.670   5.171  0.00  0.00    -0.095 Cl
ENDBRANCH   9  11
ENDBRANCH   1   8
BRANCH   4  14
ATOM     14  O   LIG    1       31.139 -19.973   7.576  0.00  0.00    -0.420 OA
BRANCH  14  15
ATOM     15  C   LIG    1       31.679 -19.989   8.862  0.00  0.00    +0.380 C 
ATOM     16  O   LIG    1       32.283 -20.925   9.378  0.00  0.00    -0.241 OA
BRANCH  15  17
ATOM     17  C   LIG    1       31.414 -18.725   9.499  0.00  0.00    +0.212 A 
ATOM     18  O   LIG    1       30.698 -18.681  10.666  0.00  0.00    -0.456 OA
ATOM     19  C   LIG    1       30.614 -17.381  11.042  0.00  0.00    +0.196 A 
ATOM     20  C   LIG    1       31.258 -16.577  10.135  0.00  0.00    +0.042 A 
ATOM     21  C   LIG    1       31.771 -17.437   9.136  0.00  0.00    +0.056 A 
ENDBRANCH  15  17
ENDBRANCH  14  15
ENDBRANCH   4  14
TORSDOF 5
ENDMDL
MODEL 5
REMARK VINA RESULT:      -8.7      4.017      7.585
REMARK  Name = *****
REMARK                            x       y       z     vdW  Elec       q    Type
REMARK                         _______ _______ _______ _____ _____    ______ ____
ROOT
ATOM      1  C   LIG    1       28.971 -19.786   7.722  0.00  0.00    +0.036 A 
ATOM      2  C   LIG    1       27.824 -20.299   8.367  0.00  0.00    +0.027 A 
ATOM      3  C   LIG    1       26.644 -20.602   7.675  0.00  0.00    +0.048 A 
ATOM      4  C   LIG    1       26.595 -20.423   6.304  0.00  0.00    +0.132 A 
ATOM      5  C   LIG    1       27.703 -19.936   5.627  0.00  0.00    +0.048 A 
ATOM      6  C   LIG    1       28.876 -19.632   6.330  0.00  0.00    +0.027 A 
ENDROOT
BRANCH   1   8
ATOM      7  C   LIG    1       31.141 -20.495   8.690  0.00  0.00    +0.138 C 
ATOM      8  N   LIG    1       30.154 -19.420   8.496  0.00  0.00    -0.272 N 
ATOM      9  C   LIG    1       30.348 -18.114   9.024  0.00  0.00    +0.252 C 
ATOM     10  O   LIG    1       29.578 -17.171   8.814  0.00  0.00    -0.272 OA
BRANCH   9  11
ATOM     11  C   LIG    1       31.593 -17.862   9.890  0.00  0.00    +0.257 C 
ATOM     12 CL   LIG    1       31.131 -17.545  11.586  0.00  0.00    -0.095 Cl
ATOM     13 CL   LIG    1       32.465 -16.462   9.226  0.00  0.00    -0.095 Cl
ENDBRANCH   9  11
ENDBRANCH   1   8
BRANCH   4  14
ATOM     14  O   LIG    1       25.444 -20.623   5.525  0.00  0.00    -0.420 OA
BRANCH  14  15
ATOM     15  C   LIG    1       24.228 -21.042   6.061  0.00  0.00    +0.380 C 
ATOM     16  O   LIG    1       23.323 -20.311   6.453  0.00  0.00    -0.241 OA
BRANCH  15  17
ATOM     17  C   LIG    1       24.195 -22.482   6.084  0.00  0.00    +0.212 A 
ATOM     18  O   LIG    1       25.065 -23.201   5.307  0.00  0.00    -0.456 OA
ATOM     19  C   LIG    1       24.823 -24.515   5.535  0.00  0.00    +0.196 A 
ATOM     20  C   LIG    1       23.803 -24.664   6.443  0.00  0.00    +0.042 A 
ATOM     21  C   LIG    1       23.393 -23.357   6.796  0.00  0.00    +0.056 A 
ENDBRANCH  15  17
ENDBRANCH  14  15
ENDBRANCH   4  14
TORSDOF 5
ENDMDL
MODEL 6
REMARK VINA RESULT:      -8.3      4.228      7.550
REMARK  Name = *****
REMARK                            x       y       z     vdW  Elec       q    Type
REMARK                         _______ _______ _______ _____ _____    ______ ____
ROOT
ATOM      1  C   LIG    1       29.668 -19.298   7.650  0.00  0.00    +0.036 A 
ATOM      2  C   LIG    1       28.559 -20.063   8.072  0.00  0.00    +0.027 A 
ATOM      3  C   LIG    1       27.490 -20.371   7.220  0.00  0.00    +0.048 A 
ATOM      4  C   LIG    1       27.520 -19.938   5.907  0.00  0.00    +0.132 A 
ATOM      5  C   LIG    1       28.597 -19.196   5.445  0.00  0.00    +0.048 A 
ATOM      6  C   LIG    1       29.659 -18.890   6.307  0.00  0.00    +0.027 A 
ENDROOT
BRANCH   1   8
ATOM      7  C   LIG    1       31.765 -19.967   8.791  0.00  0.00    +0.138 C 
ATOM      8  N   LIG    1       30.726 -18.944   8.594  0.00  0.00    -0.272 N 
ATOM      9  C   LIG    1       30.757 -17.695   9.274  0.00  0.00    +0.252 C 
ATOM     10  O   LIG    1       29.944 -16.787   9.073  0.00  0.00    -0.272 OA
BRANCH   9  11
ATOM     11  C   LIG    1       31.874 -17.462  10.303  0.00  0.00    +0.257 C 
ATOM     12 CL   LIG    1       31.187 -17.126  11.918  0.00  0.00    -0.095 Cl
ATOM     13 CL   LIG    1       32.856 -16.082   9.762  0.00  0.00    -0.095 Cl
ENDBRANCH   9  11
ENDBRANCH   1   8
BRANCH   4  14
ATOM     14  O   LIG    1       26.472 -20.125   4.992  0.00  0.00    -0.420 OA
BRANCH  14  15
ATOM     15  C   LIG    1       25.337 -20.880   5.282  0.00  0.00    +0.380 C 
ATOM     16  O   LIG    1       25.327 -22.026   5.720  0.00  0.00    -0.241 OA
BRANCH  15  17
ATOM     17  C   LIG    1       24.164 -20.100   4.983  0.00  0.00    +0.212 A 
ATOM     18  O   LIG    1       24.174 -19.220   3.933  0.00  0.00    -0.456 OA
ATOM     19  C   LIG    1       22.949 -18.639   3.878  0.00  0.00    +0.196 A 
ATOM     20  C   LIG    1       22.144 -19.122   4.880  0.00  0.00    +0.042 A 
ATOM     21  C   LIG    1       22.924 -20.059   5.598  0.00  0.00    +0.056 A 
ENDBRANCH  15  17
ENDBRANCH  14  15
ENDBRANCH   4  14
TORSDOF 5
ENDMDL
MODEL 7
REMARK VINA RESULT:      -8.2      6.249      8.988
REMARK  Name = *****
REMARK                            x       y       z     vdW  Elec       q    Type
REMARK                         _______ _______ _______ _____ _____    ______ ____
ROOT
ATOM      1  C   LIG    1       25.015 -24.196   6.431  0.00  0.00    +0.036 A 
ATOM      2  C   LIG    1       23.854 -24.957   6.172  0.00  0.00    +0.027 A 
ATOM      3  C   LIG    1       23.881 -26.352   6.052  0.00  0.00    +0.048 A 
ATOM      4  C   LIG    1       25.078 -27.026   6.217  0.00  0.00    +0.132 A 
ATOM      5  C   LIG    1       26.241 -26.320   6.488  0.00  0.00    +0.048 A 
ATOM      6  C   LIG    1       26.203 -24.924   6.601  0.00  0.00    +0.027 A 
ENDROOT
BRANCH   1   8
ATOM      7  C   LIG    1       25.218 -22.134   7.794  0.00  0.00    +0.138 C 
ATOM      8  N   LIG    1       24.949 -22.737   6.479  0.00  0.00    -0.272 N 
ATOM      9  C   LIG    1       24.651 -21.948   5.334  0.00  0.00    +0.252 C 
ATOM     10  O   LIG    1       24.497 -22.417   4.202  0.00  0.00    -0.272 OA
BRANCH   9  11
ATOM     11  C   LIG    1       24.531 -20.426   5.517  0.00  0.00    +0.257 C 
ATOM     12 CL   LIG    1       22.829 -19.954   5.788  0.00  0.00    -0.095 Cl
ATOM     13 CL   LIG    1       25.157 -19.633   4.054  0.00  0.00    -0.095 Cl
ENDBRANCH   9  11
ENDBRANCH   1   8
BRANCH   4  14
ATOM     14  O   LIG    1       25.232 -28.410   6.045  0.00  0.00    -0.420 OA
BRANCH  14  15
ATOM     15  C   LIG    1       24.277 -29.338   6.457  0.00  0.00    +0.380 C 
ATOM     16  O   LIG    1       23.412 -29.845   5.748  0.00  0.00    -0.241 OA
BRANCH  15  17
ATOM     17  C   LIG    1       24.462 -29.613   7.858  0.00  0.00    +0.212 A 
ATOM     18  O   LIG    1       23.429 -30.122   8.601  0.00  0.00    -0.456 OA
ATOM     19  C   LIG    1       23.884 -30.293   9.867  0.00  0.00    +0.196 A 
ATOM     20  C   LIG    1       25.195 -29.896   9.963  0.00  0.00    +0.042 A 
ATOM     21  C   LIG    1       25.571 -29.453   8.673  0.00  0.00    +0.056 A 
ENDBRANCH  15  17
ENDBRANCH  14  15
ENDBRANCH   4  14
TORSDOF 5
ENDMDL
MODEL 8
REMARK VINA RESULT:      -7.9      6.539      8.151
REMARK  Name = *****
REMARK                            x       y       z     vdW  Elec       q    Type
REMARK                         _______ _______ _______ _____ _____    ______ ____
ROOT
ATOM      1  C   LIG    1       24.999 -26.673   6.438  0.00  0.00    +0.036 A 
ATOM      2  C   LIG    1       23.825 -25.903   6.288  0.00  0.00    +0.027 A 
ATOM      3  C   LIG    1       23.845 -24.503   6.242  0.00  0.00    +0.048 A 
ATOM      4  C   LIG    1       25.055 -23.836   6.318  0.00  0.00    +0.132 A 
ATOM      5  C   LIG    1       26.234 -24.553   6.451  0.00  0.00    +0.048 A 
ATOM      6  C   LIG    1       26.203 -25.953   6.501  0.00  0.00    +0.027 A 
ENDROOT
BRANCH   1   8
ATOM      7  C   LIG    1       24.312 -28.819   5.404  0.00  0.00    +0.138 C 
ATOM      8  N   LIG    1       24.922 -28.127   6.551  0.00  0.00    -0.272 N 
ATOM      9  C   LIG    1       25.407 -28.833   7.687  0.00  0.00    +0.252 C 
ATOM     10  O   LIG    1       25.992 -28.290   8.629  0.00  0.00    -0.272 OA
BRANCH   9  11
ATOM     11  C   LIG    1       25.202 -30.356   7.732  0.00  0.00    +0.257 C 
ATOM     12 CL   LIG    1       23.753 -30.772   8.691  0.00  0.00    -0.095 Cl
ATOM     13 CL   LIG    1       26.646 -31.094   8.461  0.00  0.00    -0.095 Cl
ENDBRANCH   9  11
ENDBRANCH   1   8
BRANCH   4  14
ATOM     14  O   LIG    1       25.183 -22.439   6.357  0.00  0.00    -0.420 OA
BRANCH  14  15
ATOM     15  C   LIG    1       24.173 -21.597   6.820  0.00  0.00    +0.380 C 
ATOM     16  O   LIG    1       23.671 -21.622   7.940  0.00  0.00    -0.241 OA
BRANCH  15  17
ATOM     17  C   LIG    1       23.805 -20.683   5.770  0.00  0.00    +0.212 A 
ATOM     18  O   LIG    1       24.625 -20.517   4.685  0.00  0.00    -0.456 OA
ATOM     19  C   LIG    1       24.032 -19.620   3.860  0.00  0.00    +0.196 A 
ATOM     20  C   LIG    1       22.841 -19.192   4.394  0.00  0.00    +0.042 A 
ATOM     21  C   LIG    1       22.692 -19.871   5.626  0.00  0.00    +0.056 A 
ENDBRANCH  15  17
ENDBRANCH  14  15
ENDBRANCH   4  14
TORSDOF 5
ENDMDL
MODEL 9
REMARK VINA RESULT:      -7.8      6.580      9.494
REMARK  Name = *****
REMARK                            x       y       z     vdW  Elec       q    Type
REMARK                         _______ _______ _______ _____ _____    ______ ____
ROOT
ATOM      1  C   LIG    1       25.009 -24.004   6.349  0.00  0.00    +0.036 A 
ATOM      2  C   LIG    1       23.861 -24.822   6.263  0.00  0.00    +0.027 A 
ATOM      3  C   LIG    1       23.938 -26.216   6.154  0.00  0.00    +0.048 A 
ATOM      4  C   LIG    1       25.177 -26.832   6.156  0.00  0.00    +0.132 A 
ATOM      5  C   LIG    1       26.331 -26.068   6.254  0.00  0.00    +0.048 A 
ATOM      6  C   LIG    1       26.243 -24.674   6.357  0.00  0.00    +0.027 A 
ENDROOT
BRANCH   1   8
ATOM      7  C   LIG    1       25.084 -21.935   7.713  0.00  0.00    +0.138 C 
ATOM      8  N   LIG    1       24.880 -22.549   6.392  0.00  0.00    -0.272 N 
ATOM      9  C   LIG    1       24.583 -21.774   5.236  0.00  0.00    +0.252 C 
ATOM     10  O   LIG    1       24.483 -22.251   4.101  0.00  0.00    -0.272 OA
BRANCH   9  11
ATOM     11  C   LIG    1       24.393 -20.259   5.413  0.00  0.00    +0.257 C 
ATOM     12 CL   LIG    1       22.671 -19.863   5.672  0.00  0.00    -0.095 Cl
ATOM     13 CL   LIG    1       24.991 -19.445   3.950  0.00  0.00    -0.095 Cl
ENDBRANCH   9  11
ENDBRANCH   1   8
BRANCH   4  14
ATOM     14  O   LIG    1       25.372 -28.210   5.977  0.00  0.00    -0.420 OA
BRANCH  14  15
ATOM     15  C   LIG    1       25.149 -29.146   6.985  0.00  0.00    +0.380 C 
ATOM     16  O   LIG    1       25.196 -28.929   8.193  0.00  0.00    -0.241 OA
BRANCH  15  17
ATOM     17  C   LIG    1       24.852 -30.421   6.387  0.00  0.00    +0.212 A 
ATOM     18  O   LIG    1       23.670 -31.054   6.669  0.00  0.00    -0.456 OA
ATOM     19  C   LIG    1       23.651 -32.213   5.966  0.00  0.00    +0.196 A 
ATOM     20  C   LIG    1       24.806 -32.350   5.236  0.00  0.00    +0.042 A 
ATOM     21  C   LIG    1       25.585 -31.201   5.507  0.00  0.00    +0.056 A 
ENDBRANCH  15  17
ENDBRANCH  14  15
ENDBRANCH   4  14
TORSDOF 5
ENDMDL
