MODEL 1
REMARK VINA RESULT:      -4.6      0.000      0.000
REMARK  Name = *****
REMARK                            x       y       z     vdW  Elec       q    Type
REMARK                         _______ _______ _______ _____ _____    ______ ____
ROOT
ATOM      1  C   LIG    1       26.217 -19.439   4.095  0.00  0.00    -0.018 A 
ATOM      2  C   LIG    1       27.434 -19.155   4.736  0.00  0.00    +0.008 A 
ATOM      3  C   LIG    1       27.994 -17.876   4.683  0.00  0.00    +0.025 A 
ATOM      4  C   LIG    1       27.348 -16.865   3.975  0.00  0.00    +0.048 A 
ATOM      5  C   LIG    1       26.140 -17.122   3.333  0.00  0.00    +0.025 A 
ATOM      6  C   LIG    1       25.585 -18.407   3.380  0.00  0.00    +0.008 A 
ENDROOT
BRANCH   4   7
ATOM      7  N   LIG    1       27.876 -15.537   3.999  0.00  0.00    -0.221 N 
ATOM      8  H   LIG    1       28.203 -15.247   4.923  0.00  0.00    +0.173 HD
BRANCH   7   9
ATOM      9  S   LIG    1       26.840 -14.333   3.385  0.00  0.00    +0.040 S 
ATOM     10  O   LIG    1       25.706 -14.283   4.290  0.00  0.00    -0.155 OA
ATOM     11  O   LIG    1       26.668 -14.479   1.962  0.00  0.00    -0.155 OA
ATOM     12  C   LIG    1       27.830 -12.890   3.685  0.00  0.00    +0.218 C 
ENDBRANCH   7   9
ENDBRANCH   4   7
BRANCH   1  13
ATOM     13  C   LIG    1       25.585 -20.818   4.172  0.00  0.00    +0.158 C 
BRANCH  13  14
ATOM     14  O   LIG    1       25.765 -21.321   5.498  0.00  0.00    -0.386 OA
ATOM     15  H   LIG    1       26.195 -20.594   5.989  0.00  0.00    +0.210 HD
ENDBRANCH  13  14
BRANCH  13  16
ATOM     16  C   LIG    1       24.070 -20.811   3.815  0.00  0.00    +0.117 C 
BRANCH  16  17
ATOM     17  N   LIG    1       23.234 -21.547   4.793  0.00  0.00    -0.311 NA
ATOM     18  H   LIG    1       22.553 -22.125   4.296  0.00  0.00    +0.122 HD
BRANCH  17  20
ATOM     19  C   LIG    1       23.204 -20.622   7.060  0.00  0.00    +0.024 C 
ATOM     20  C   LIG    1       22.499 -20.635   5.700  0.00  0.00    +0.048 C 
ATOM     21  C   LIG    1       22.415 -19.205   5.158  0.00  0.00    +0.024 C 
ENDBRANCH  17  20
ENDBRANCH  16  17
ENDBRANCH  13  16
ENDBRANCH   1  13
TORSDOF 7
ENDMDL
MODEL 2
REMARK VINA RESULT:      -4.5      2.151      2.649
REMARK  Name = *****
REMARK                            x       y       z     vdW  Elec       q    Type
REMARK                         _______ _______ _______ _____ _____    ______ ____
ROOT
ATOM      1  C   LIG    1       24.889 -18.129   3.624  0.00  0.00    -0.018 A 
ATOM      2  C   LIG    1       25.725 -17.043   3.316  0.00  0.00    +0.008 A 
ATOM      3  C   LIG    1       25.298 -15.728   3.518  0.00  0.00    +0.025 A 
ATOM      4  C   LIG    1       24.022 -15.482   4.020  0.00  0.00    +0.048 A 
ATOM      5  C   LIG    1       23.177 -16.542   4.334  0.00  0.00    +0.025 A 
ATOM      6  C   LIG    1       23.603 -17.860   4.122  0.00  0.00    +0.008 A 
ENDROOT
BRANCH   4   7
ATOM      7  N   LIG    1       23.624 -14.140   4.311  0.00  0.00    -0.221 N 
ATOM      8  H   LIG    1       22.805 -13.835   3.780  0.00  0.00    +0.173 HD
BRANCH   7   9
ATOM      9  S   LIG    1       24.848 -12.968   4.142  0.00  0.00    +0.040 S 
ATOM     10  O   LIG    1       25.011 -12.763   2.714  0.00  0.00    -0.155 OA
ATOM     11  O   LIG    1       25.969 -13.269   4.997  0.00  0.00    -0.155 OA
ATOM     12  C   LIG    1       24.009 -11.547   4.797  0.00  0.00    +0.218 C 
ENDBRANCH   7   9
ENDBRANCH   4   7
BRANCH   1  13
ATOM     13  C   LIG    1       25.354 -19.564   3.436  0.00  0.00    +0.158 C 
BRANCH  13  14
ATOM     14  O   LIG    1       26.292 -19.871   4.472  0.00  0.00    -0.386 OA
ATOM     15  H   LIG    1       27.129 -19.456   4.186  0.00  0.00    +0.210 HD
ENDBRANCH  13  14
BRANCH  13  16
ATOM     16  C   LIG    1       24.183 -20.588   3.468  0.00  0.00    +0.117 C 
BRANCH  16  17
ATOM     17  N   LIG    1       24.294 -21.571   4.573  0.00  0.00    -0.311 NA
ATOM     18  H   LIG    1       24.288 -22.519   4.191  0.00  0.00    +0.122 HD
BRANCH  17  20
ATOM     19  C   LIG    1       23.638 -20.564   6.706  0.00  0.00    +0.024 C 
ATOM     20  C   LIG    1       23.182 -21.450   5.543  0.00  0.00    +0.048 C 
ATOM     21  C   LIG    1       21.915 -20.856   4.918  0.00  0.00    +0.024 C 
ENDBRANCH  17  20
ENDBRANCH  16  17
ENDBRANCH  13  16
ENDBRANCH   1  13
TORSDOF 7
ENDMDL
MODEL 3
REMARK VINA RESULT:      -4.2      2.386      3.439
REMARK  Name = *****
REMARK                            x       y       z     vdW  Elec       q    Type
REMARK                         _______ _______ _______ _____ _____    ______ ____
ROOT
ATOM      1  C   LIG    1       23.520 -18.982   3.987  0.00  0.00    -0.018 A 
ATOM      2  C   LIG    1       24.613 -18.169   3.643  0.00  0.00    +0.008 A 
ATOM      3  C   LIG    1       24.545 -16.779   3.775  0.00  0.00    +0.025 A 
ATOM      4  C   LIG    1       23.375 -16.184   4.240  0.00  0.00    +0.048 A 
ATOM      5  C   LIG    1       22.279 -16.968   4.587  0.00  0.00    +0.025 A 
ATOM      6  C   LIG    1       22.347 -18.360   4.447  0.00  0.00    +0.008 A 
ENDROOT
BRANCH   4   7
ATOM      7  N   LIG    1       23.340 -14.771   4.459  0.00  0.00    -0.221 N 
ATOM      8  H   LIG    1       22.521 -14.316   4.049  0.00  0.00    +0.173 HD
BRANCH   7   9
ATOM      9  S   LIG    1       24.735 -13.927   3.966  0.00  0.00    +0.040 S 
ATOM     10  O   LIG    1       24.963 -14.305   2.583  0.00  0.00    -0.155 OA
ATOM     11  O   LIG    1       25.774 -14.026   4.960  0.00  0.00    -0.155 OA
ATOM     12  C   LIG    1       24.110 -12.265   3.972  0.00  0.00    +0.218 C 
ENDBRANCH   7   9
ENDBRANCH   4   7
BRANCH   1  13
ATOM     13  C   LIG    1       23.594 -20.496   3.876  0.00  0.00    +0.158 C 
BRANCH  13  14
ATOM     14  O   LIG    1       24.253 -20.824   2.650  0.00  0.00    -0.386 OA
ATOM     15  H   LIG    1       24.962 -20.159   2.557  0.00  0.00    +0.210 HD
ENDBRANCH  13  14
BRANCH  13  16
ATOM     16  C   LIG    1       24.347 -21.153   5.069  0.00  0.00    +0.117 C 
BRANCH  16  17
ATOM     17  N   LIG    1       25.821 -21.140   4.911  0.00  0.00    -0.311 NA
ATOM     18  H   LIG    1       26.170 -22.099   4.863  0.00  0.00    +0.122 HD
BRANCH  17  20
ATOM     19  C   LIG    1       26.934 -21.500   7.062  0.00  0.00    +0.024 C 
ATOM     20  C   LIG    1       26.498 -20.452   6.033  0.00  0.00    +0.048 C 
ATOM     21  C   LIG    1       27.720 -19.646   5.581  0.00  0.00    +0.024 C 
ENDBRANCH  17  20
ENDBRANCH  16  17
ENDBRANCH  13  16
ENDBRANCH   1  13
TORSDOF 7
ENDMDL
MODEL 4
REMARK VINA RESULT:      -4.1      2.795      6.434
REMARK  Name = *****
REMARK                            x       y       z     vdW  Elec       q    Type
REMARK                         _______ _______ _______ _____ _____    ______ ____
ROOT
ATOM      1  C   LIG    1       26.990 -16.306   3.686  0.00  0.00    -0.018 A 
ATOM      2  C   LIG    1       25.827 -16.873   3.140  0.00  0.00    +0.008 A 
ATOM      3  C   LIG    1       25.527 -18.225   3.331  0.00  0.00    +0.025 A 
ATOM      4  C   LIG    1       26.397 -19.031   4.061  0.00  0.00    +0.048 A 
ATOM      5  C   LIG    1       27.555 -18.492   4.613  0.00  0.00    +0.025 A 
ATOM      6  C   LIG    1       27.858 -17.139   4.413  0.00  0.00    +0.008 A 
ENDROOT
BRANCH   4   7
ATOM      7  N   LIG    1       26.042 -20.390   4.330  0.00  0.00    -0.221 N 
ATOM      8  H   LIG    1       26.342 -21.040   3.601  0.00  0.00    +0.173 HD
BRANCH   7   9
ATOM      9  S   LIG    1       24.391 -20.657   4.653  0.00  0.00    +0.040 S 
ATOM     10  O   LIG    1       23.927 -21.571   3.625  0.00  0.00    -0.155 OA
ATOM     11  O   LIG    1       23.712 -19.415   4.925  0.00  0.00    -0.155 OA
ATOM     12  C   LIG    1       24.516 -21.572   6.169  0.00  0.00    +0.218 C 
ENDBRANCH   7   9
ENDBRANCH   4   7
BRANCH   1  13
ATOM     13  C   LIG    1       27.310 -14.831   3.510  0.00  0.00    +0.158 C 
BRANCH  13  14
ATOM     14  O   LIG    1       26.941 -14.447   2.183  0.00  0.00    -0.386 OA
ATOM     15  H   LIG    1       26.131 -14.958   1.988  0.00  0.00    +0.210 HD
ENDBRANCH  13  14
BRANCH  13  16
ATOM     16  C   LIG    1       26.578 -13.926   4.542  0.00  0.00    +0.117 C 
BRANCH  16  17
ATOM     17  N   LIG    1       25.945 -12.733   3.929  0.00  0.00    -0.311 NA
ATOM     18  H   LIG    1       26.348 -11.885   4.334  0.00  0.00    +0.122 HD
BRANCH  17  20
ATOM     19  C   LIG    1       23.846 -11.803   3.079  0.00  0.00    +0.024 C 
ATOM     20  C   LIG    1       24.480 -12.703   4.144  0.00  0.00    +0.048 C 
ATOM     21  C   LIG    1       23.845 -14.096   4.075  0.00  0.00    +0.024 C 
ENDBRANCH  17  20
ENDBRANCH  16  17
ENDBRANCH  13  16
ENDBRANCH   1  13
TORSDOF 7
ENDMDL
MODEL 5
REMARK VINA RESULT:      -4.1      2.279      3.164
REMARK  Name = *****
REMARK                            x       y       z     vdW  Elec       q    Type
REMARK                         _______ _______ _______ _____ _____    ______ ____
ROOT
ATOM      1  C   LIG    1       23.145 -17.065   4.272  0.00  0.00    -0.018 A 
ATOM      2  C   LIG    1       24.357 -17.492   3.705  0.00  0.00    +0.008 A 
ATOM      3  C   LIG    1       25.346 -16.573   3.344  0.00  0.00    +0.025 A 
ATOM      4  C   LIG    1       25.128 -15.210   3.533  0.00  0.00    +0.048 A 
ATOM      5  C   LIG    1       23.936 -14.763   4.094  0.00  0.00    +0.025 A 
ATOM      6  C   LIG    1       22.942 -15.685   4.447  0.00  0.00    +0.008 A 
ENDROOT
BRANCH   4   7
ATOM      7  N   LIG    1       26.176 -14.281   3.247  0.00  0.00    -0.221 N 
ATOM      8  H   LIG    1       26.620 -14.436   2.339  0.00  0.00    +0.173 HD
BRANCH   7   9
ATOM      9  S   LIG    1       27.392 -14.171   4.434  0.00  0.00    +0.040 S 
ATOM     10  O   LIG    1       28.016 -15.481   4.489  0.00  0.00    -0.155 OA
ATOM     11  O   LIG    1       26.895 -13.518   5.619  0.00  0.00    -0.155 OA
ATOM     12  C   LIG    1       28.522 -13.071   3.620  0.00  0.00    +0.218 C 
ENDBRANCH   7   9
ENDBRANCH   4   7
BRANCH   1  13
ATOM     13  C   LIG    1       22.076 -18.058   4.696  0.00  0.00    +0.158 C 
BRANCH  13  14
ATOM     14  O   LIG    1       21.456 -18.580   3.518  0.00  0.00    -0.386 OA
ATOM     15  H   LIG    1       21.685 -17.947   2.810  0.00  0.00    +0.210 HD
ENDBRANCH  13  14
BRANCH  13  16
ATOM     16  C   LIG    1       22.642 -19.226   5.553  0.00  0.00    +0.117 C 
BRANCH  16  17
ATOM     17  N   LIG    1       22.822 -20.482   4.786  0.00  0.00    -0.311 NA
ATOM     18  H   LIG    1       21.924 -20.963   4.698  0.00  0.00    +0.122 HD
BRANCH  17  20
ATOM     19  C   LIG    1       25.201 -20.858   5.228  0.00  0.00    +0.024 C 
ATOM     20  C   LIG    1       23.783 -21.403   5.435  0.00  0.00    +0.048 C 
ATOM     21  C   LIG    1       23.518 -21.571   6.935  0.00  0.00    +0.024 C 
ENDBRANCH  17  20
ENDBRANCH  16  17
ENDBRANCH  13  16
ENDBRANCH   1  13
TORSDOF 7
ENDMDL
MODEL 6
REMARK VINA RESULT:      -4.1      1.807      2.009
REMARK  Name = *****
REMARK                            x       y       z     vdW  Elec       q    Type
REMARK                         _______ _______ _______ _____ _____    ______ ____
ROOT
ATOM      1  C   LIG    1       26.426 -18.540   4.107  0.00  0.00    -0.018 A 
ATOM      2  C   LIG    1       27.475 -17.606   4.111  0.00  0.00    +0.008 A 
ATOM      3  C   LIG    1       27.265 -16.286   3.700  0.00  0.00    +0.025 A 
ATOM      4  C   LIG    1       26.003 -15.889   3.265  0.00  0.00    +0.048 A 
ATOM      5  C   LIG    1       24.948 -16.796   3.253  0.00  0.00    +0.025 A 
ATOM      6  C   LIG    1       25.163 -18.120   3.657  0.00  0.00    +0.008 A 
ENDROOT
BRANCH   4   7
ATOM      7  N   LIG    1       25.771 -14.518   2.931  0.00  0.00    -0.221 N 
ATOM      8  H   LIG    1       26.630 -13.984   2.785  0.00  0.00    +0.173 HD
BRANCH   7   9
ATOM      9  S   LIG    1       24.780 -13.664   4.022  0.00  0.00    +0.040 S 
ATOM     10  O   LIG    1       25.673 -13.113   5.025  0.00  0.00    -0.155 OA
ATOM     11  O   LIG    1       23.622 -14.444   4.384  0.00  0.00    -0.155 OA
ATOM     12  C   LIG    1       24.251 -12.328   2.980  0.00  0.00    +0.218 C 
ENDBRANCH   7   9
ENDBRANCH   4   7
BRANCH   1  13
ATOM     13  C   LIG    1       26.637 -19.968   4.581  0.00  0.00    +0.158 C 
BRANCH  13  14
ATOM     14  O   LIG    1       27.924 -20.051   5.197  0.00  0.00    -0.386 OA
ATOM     15  H   LIG    1       28.376 -19.220   4.953  0.00  0.00    +0.210 HD
ENDBRANCH  13  14
BRANCH  13  16
ATOM     16  C   LIG    1       25.544 -20.440   5.582  0.00  0.00    +0.117 C 
BRANCH  16  17
ATOM     17  N   LIG    1       24.534 -21.337   4.969  0.00  0.00    -0.311 NA
ATOM     18  H   LIG    1       24.445 -21.124   3.974  0.00  0.00    +0.122 HD
BRANCH  17  20
ATOM     19  C   LIG    1       23.391 -20.775   7.060  0.00  0.00    +0.024 C 
ATOM     20  C   LIG    1       23.202 -21.194   5.599  0.00  0.00    +0.048 C 
ATOM     21  C   LIG    1       22.320 -20.163   4.886  0.00  0.00    +0.024 C 
ENDBRANCH  17  20
ENDBRANCH  16  17
ENDBRANCH  13  16
ENDBRANCH   1  13
TORSDOF 7
ENDMDL
MODEL 7
REMARK VINA RESULT:      -4.0      3.118      6.667
REMARK  Name = *****
REMARK                            x       y       z     vdW  Elec       q    Type
REMARK                         _______ _______ _______ _____ _____    ______ ____
ROOT
ATOM      1  C   LIG    1       25.814 -16.465   3.640  0.00  0.00    -0.018 A 
ATOM      2  C   LIG    1       24.413 -16.475   3.743  0.00  0.00    +0.008 A 
ATOM      3  C   LIG    1       23.700 -17.677   3.739  0.00  0.00    +0.025 A 
ATOM      4  C   LIG    1       24.381 -18.887   3.618  0.00  0.00    +0.048 A 
ATOM      5  C   LIG    1       25.769 -18.902   3.515  0.00  0.00    +0.025 A 
ATOM      6  C   LIG    1       26.480 -17.695   3.511  0.00  0.00    +0.008 A 
ENDROOT
BRANCH   4   7
ATOM      7  N   LIG    1       23.657 -20.117   3.706  0.00  0.00    -0.221 N 
ATOM      8  H   LIG    1       22.996 -20.255   2.938  0.00  0.00    +0.173 HD
BRANCH   7   9
ATOM      9  S   LIG    1       22.841 -20.374   5.178  0.00  0.00    +0.040 S 
ATOM     10  O   LIG    1       21.898 -21.450   4.929  0.00  0.00    -0.155 OA
ATOM     11  O   LIG    1       22.426 -19.123   5.762  0.00  0.00    -0.155 OA
ATOM     12  C   LIG    1       24.167 -21.036   6.156  0.00  0.00    +0.218 C 
ENDBRANCH   7   9
ENDBRANCH   4   7
BRANCH   1  13
ATOM     13  C   LIG    1       26.600 -15.166   3.673  0.00  0.00    +0.158 C 
BRANCH  13  14
ATOM     14  O   LIG    1       27.969 -15.477   3.949  0.00  0.00    -0.386 OA
ATOM     15  H   LIG    1       28.355 -15.710   3.083  0.00  0.00    +0.210 HD
ENDBRANCH  13  14
BRANCH  13  16
ATOM     16  C   LIG    1       26.502 -14.364   2.343  0.00  0.00    +0.117 C 
BRANCH  16  17
ATOM     17  N   LIG    1       26.118 -12.946   2.541  0.00  0.00    -0.311 NA
ATOM     18  H   LIG    1       26.464 -12.619   3.445  0.00  0.00    +0.122 HD
BRANCH  17  20
ATOM     19  C   LIG    1       24.119 -12.751   3.942  0.00  0.00    +0.024 C 
ATOM     20  C   LIG    1       24.650 -12.752   2.505  0.00  0.00    +0.048 C 
ATOM     21  C   LIG    1       24.243 -11.448   1.812  0.00  0.00    +0.024 C 
ENDBRANCH  17  20
ENDBRANCH  16  17
ENDBRANCH  13  16
ENDBRANCH   1  13
TORSDOF 7
ENDMDL
MODEL 8
REMARK VINA RESULT:      -3.7      2.705      6.324
REMARK  Name = *****
REMARK                            x       y       z     vdW  Elec       q    Type
REMARK                         _______ _______ _______ _____ _____    ______ ____
ROOT
ATOM      1  C   LIG    1       27.136 -16.092   3.707  0.00  0.00    -0.018 A 
ATOM      2  C   LIG    1       27.969 -16.968   4.424  0.00  0.00    +0.008 A 
ATOM      3  C   LIG    1       27.638 -18.318   4.569  0.00  0.00    +0.025 A 
ATOM      4  C   LIG    1       26.459 -18.806   4.010  0.00  0.00    +0.048 A 
ATOM      5  C   LIG    1       25.619 -17.958   3.294  0.00  0.00    +0.025 A 
ATOM      6  C   LIG    1       25.949 -16.604   3.157  0.00  0.00    +0.008 A 
ENDROOT
BRANCH   4   7
ATOM      7  N   LIG    1       26.169 -20.205   4.083  0.00  0.00    -0.221 N 
ATOM      8  H   LIG    1       26.161 -20.666   3.171  0.00  0.00    +0.173 HD
BRANCH   7   9
ATOM      9  S   LIG    1       24.735 -20.606   4.909  0.00  0.00    +0.040 S 
ATOM     10  O   LIG    1       23.998 -19.363   5.056  0.00  0.00    -0.155 OA
ATOM     11  O   LIG    1       25.012 -21.460   6.036  0.00  0.00    -0.155 OA
ATOM     12  C   LIG    1       23.919 -21.570   3.662  0.00  0.00    +0.218 C 
ENDBRANCH   7   9
ENDBRANCH   4   7
BRANCH   1  13
ATOM     13  C   LIG    1       27.503 -14.630   3.517  0.00  0.00    +0.158 C 
BRANCH  13  14
ATOM     14  O   LIG    1       27.176 -14.256   2.176  0.00  0.00    -0.386 OA
ATOM     15  H   LIG    1       26.340 -14.722   1.980  0.00  0.00    +0.210 HD
ENDBRANCH  13  14
BRANCH  13  16
ATOM     16  C   LIG    1       26.772 -13.688   4.517  0.00  0.00    +0.117 C 
BRANCH  16  17
ATOM     17  N   LIG    1       25.847 -12.736   3.857  0.00  0.00    -0.311 NA
ATOM     18  H   LIG    1       26.173 -11.779   4.010  0.00  0.00    +0.122 HD
BRANCH  17  20
ATOM     19  C   LIG    1       23.627 -11.705   3.790  0.00  0.00    +0.024 C 
ATOM     20  C   LIG    1       24.464 -12.847   4.374  0.00  0.00    +0.048 C 
ATOM     21  C   LIG    1       23.809 -14.187   4.024  0.00  0.00    +0.024 C 
ENDBRANCH  17  20
ENDBRANCH  16  17
ENDBRANCH  13  16
ENDBRANCH   1  13
TORSDOF 7
ENDMDL
MODEL 9
REMARK VINA RESULT:      -3.5      2.799      7.030
REMARK  Name = *****
REMARK                            x       y       z     vdW  Elec       q    Type
REMARK                         _______ _______ _______ _____ _____    ______ ____
ROOT
ATOM      1  C   LIG    1       24.224 -15.454   3.915  0.00  0.00    -0.018 A 
ATOM      2  C   LIG    1       22.951 -15.590   4.494  0.00  0.00    +0.008 A 
ATOM      3  C   LIG    1       22.377 -16.851   4.677  0.00  0.00    +0.025 A 
ATOM      4  C   LIG    1       23.064 -17.992   4.270  0.00  0.00    +0.048 A 
ATOM      5  C   LIG    1       24.327 -17.882   3.696  0.00  0.00    +0.025 A 
ATOM      6  C   LIG    1       24.898 -16.617   3.505  0.00  0.00    +0.008 A 
ENDROOT
BRANCH   4   7
ATOM      7  N   LIG    1       22.513 -19.283   4.542  0.00  0.00    -0.221 N 
ATOM      8  H   LIG    1       21.847 -19.285   5.318  0.00  0.00    +0.173 HD
BRANCH   7   9
ATOM      9  S   LIG    1       23.655 -20.519   4.803  0.00  0.00    +0.040 S 
ATOM     10  O   LIG    1       24.729 -19.916   5.572  0.00  0.00    -0.155 OA
ATOM     11  O   LIG    1       23.913 -21.247   3.585  0.00  0.00    -0.155 OA
ATOM     12  C   LIG    1       22.733 -21.569   5.898  0.00  0.00    +0.218 C 
ENDBRANCH   7   9
ENDBRANCH   4   7
BRANCH   1  13
ATOM     13  C   LIG    1       24.871 -14.090   3.739  0.00  0.00    +0.158 C 
BRANCH  13  14
ATOM     14  O   LIG    1       23.938 -13.234   3.074  0.00  0.00    -0.386 OA
ATOM     15  H   LIG    1       23.993 -13.483   2.131  0.00  0.00    +0.210 HD
ENDBRANCH  13  14
BRANCH  13  16
ATOM     16  C   LIG    1       25.304 -13.447   5.088  0.00  0.00    +0.117 C 
BRANCH  16  17
ATOM     17  N   LIG    1       26.740 -13.080   5.127  0.00  0.00    -0.311 NA
ATOM     18  H   LIG    1       26.837 -12.064   5.068  0.00  0.00    +0.122 HD
BRANCH  17  20
ATOM     19  C   LIG    1       28.792 -12.884   3.805  0.00  0.00    +0.024 C 
ATOM     20  C   LIG    1       27.504 -13.687   4.013  0.00  0.00    +0.048 C 
ATOM     21  C   LIG    1       27.858 -15.155   4.271  0.00  0.00    +0.024 C 
ENDBRANCH  17  20
ENDBRANCH  16  17
ENDBRANCH  13  16
ENDBRANCH   1  13
TORSDOF 7
ENDMDL
