MODEL 1
REMARK VINA RESULT:      -5.8      0.000      0.000
REMARK  Name = *****
REMARK                            x       y       z     vdW  Elec       q    Type
REMARK                         _______ _______ _______ _____ _____    ______ ____
ROOT
ATOM      1  N   LIG    1       26.715 -21.070   7.160  0.00  0.00    -0.340 NA
ATOM      2  C   LIG    1       26.520 -22.445   7.222  0.00  0.00    +0.104 C 
ATOM      3  C   LIG    1       25.741 -23.151   6.387  0.00  0.00    +0.077 C 
ATOM      4  I   LIG    1       25.554 -25.182   6.527  0.00  0.00    -0.038 I 
ATOM      5  C   LIG    1       25.005 -22.399   5.313  0.00  0.00    +0.208 C 
ATOM      6  O   LIG    1       24.281 -22.974   4.503  0.00  0.00    -0.286 OA
ATOM      7  C   LIG    1       25.196 -20.908   5.278  0.00  0.00    +0.077 C 
ATOM      8  I   LIG    1       24.222 -19.780   3.878  0.00  0.00    -0.038 I 
ATOM      9  C   LIG    1       26.022 -20.363   6.184  0.00  0.00    +0.104 C 
ENDROOT
BRANCH   1  10
ATOM     10  C   LIG    1       27.603 -20.379   8.119  0.00  0.00    +0.241 C 
BRANCH  10  11
ATOM     11  C   LIG    1       29.046 -20.390   7.652  0.00  0.00    +0.327 C 
ATOM     12  O   LIG    1       29.378 -20.489   6.481  0.00  0.00    -0.249 OA
BRANCH  11  13
ATOM     13  O   LIG    1       29.911 -20.286   8.705  0.00  0.00    -0.463 OA
BRANCH  13  14
ATOM     14  C   LIG    1       30.942 -19.294   8.552  0.00  0.00    +0.232 C 
BRANCH  14  16
ATOM     15  C   LIG    1       30.297 -17.553  10.268  0.00  0.00    +0.007 C 
ATOM     16  C   LIG    1       30.353 -17.907   8.793  0.00  0.00    +0.038 C 
ENDBRANCH  14  16
ENDBRANCH  13  14
ENDBRANCH  11  13
ENDBRANCH  10  11
ENDBRANCH   1  10
TORSDOF 5
ENDMDL
MODEL 2
REMARK VINA RESULT:      -5.8      0.026      2.505
REMARK  Name = *****
REMARK                            x       y       z     vdW  Elec       q    Type
REMARK                         _______ _______ _______ _____ _____    ______ ____
ROOT
ATOM      1  N   LIG    1       26.711 -21.064   7.168  0.00  0.00    -0.340 NA
ATOM      2  C   LIG    1       26.041 -20.366   6.169  0.00  0.00    +0.104 C 
ATOM      3  C   LIG    1       25.211 -20.916   5.269  0.00  0.00    +0.077 C 
ATOM      4  I   LIG    1       24.232 -19.799   3.864  0.00  0.00    -0.038 I 
ATOM      5  C   LIG    1       25.003 -22.405   5.328  0.00  0.00    +0.208 C 
ATOM      6  O   LIG    1       24.251 -22.982   4.546  0.00  0.00    -0.286 OA
ATOM      7  C   LIG    1       25.760 -23.154   6.389  0.00  0.00    +0.077 C 
ATOM      8  I   LIG    1       25.574 -25.183   6.545  0.00  0.00    -0.038 I 
ATOM      9  C   LIG    1       26.541 -22.443   7.217  0.00  0.00    +0.104 C 
ENDROOT
BRANCH   1  10
ATOM     10  C   LIG    1       27.598 -20.368   8.125  0.00  0.00    +0.241 C 
BRANCH  10  11
ATOM     11  C   LIG    1       29.042 -20.382   7.659  0.00  0.00    +0.327 C 
ATOM     12  O   LIG    1       29.375 -20.461   6.486  0.00  0.00    -0.249 OA
BRANCH  11  13
ATOM     13  O   LIG    1       29.906 -20.305   8.714  0.00  0.00    -0.463 OA
BRANCH  13  14
ATOM     14  C   LIG    1       30.949 -19.323   8.579  0.00  0.00    +0.232 C 
BRANCH  14  16
ATOM     15  C   LIG    1       30.318 -17.559  10.276  0.00  0.00    +0.007 C 
ATOM     16  C   LIG    1       30.368 -17.930   8.805  0.00  0.00    +0.038 C 
ENDBRANCH  14  16
ENDBRANCH  13  14
ENDBRANCH  11  13
ENDBRANCH  10  11
ENDBRANCH   1  10
TORSDOF 5
ENDMDL
MODEL 3
REMARK VINA RESULT:      -5.8      3.086      6.463
REMARK  Name = *****
REMARK                            x       y       z     vdW  Elec       q    Type
REMARK                         _______ _______ _______ _____ _____    ______ ____
ROOT
ATOM      1  N   LIG    1       25.855 -22.387   6.848  0.00  0.00    -0.340 NA
ATOM      2  C   LIG    1       25.164 -21.712   5.847  0.00  0.00    +0.104 C 
ATOM      3  C   LIG    1       25.612 -20.623   5.202  0.00  0.00    +0.077 C 
ATOM      4  I   LIG    1       24.544 -19.726   3.708  0.00  0.00    -0.038 I 
ATOM      5  C   LIG    1       26.954 -20.075   5.603  0.00  0.00    +0.208 C 
ATOM      6  O   LIG    1       27.438 -19.089   5.053  0.00  0.00    -0.286 OA
ATOM      7  C   LIG    1       27.675 -20.792   6.710  0.00  0.00    +0.077 C 
ATOM      8  I   LIG    1       29.494 -20.119   7.356  0.00  0.00    -0.038 I 
ATOM      9  C   LIG    1       27.086 -21.875   7.240  0.00  0.00    +0.104 C 
ENDROOT
BRANCH   1  10
ATOM     10  C   LIG    1       25.284 -23.588   7.495  0.00  0.00    +0.241 C 
BRANCH  10  11
ATOM     11  C   LIG    1       24.607 -24.497   6.487  0.00  0.00    +0.327 C 
ATOM     12  O   LIG    1       23.419 -24.778   6.518  0.00  0.00    -0.249 OA
BRANCH  11  13
ATOM     13  O   LIG    1       25.496 -24.960   5.559  0.00  0.00    -0.463 OA
BRANCH  13  14
ATOM     14  C   LIG    1       26.159 -26.188   5.909  0.00  0.00    +0.232 C 
BRANCH  14  16
ATOM     15  C   LIG    1       24.526 -28.082   5.541  0.00  0.00    +0.007 C 
ATOM     16  C   LIG    1       25.696 -27.301   4.973  0.00  0.00    +0.038 C 
ENDBRANCH  14  16
ENDBRANCH  13  14
ENDBRANCH  11  13
ENDBRANCH  10  11
ENDBRANCH   1  10
TORSDOF 5
ENDMDL
MODEL 4
REMARK VINA RESULT:      -5.7      3.138      6.500
REMARK  Name = *****
REMARK                            x       y       z     vdW  Elec       q    Type
REMARK                         _______ _______ _______ _____ _____    ______ ____
ROOT
ATOM      1  N   LIG    1       25.730 -22.725   6.726  0.00  0.00    -0.340 NA
ATOM      2  C   LIG    1       26.945 -22.213   7.166  0.00  0.00    +0.104 C 
ATOM      3  C   LIG    1       27.498 -21.066   6.738  0.00  0.00    +0.077 C 
ATOM      4  I   LIG    1       29.270 -20.368   7.480  0.00  0.00    -0.038 I 
ATOM      5  C   LIG    1       26.759 -20.283   5.687  0.00  0.00    +0.208 C 
ATOM      6  O   LIG    1       27.194 -19.220   5.252  0.00  0.00    -0.286 OA
ATOM      7  C   LIG    1       25.464 -20.866   5.194  0.00  0.00    +0.077 C 
ATOM      8  I   LIG    1       24.390 -19.900   3.747  0.00  0.00    -0.038 I 
ATOM      9  C   LIG    1       25.050 -22.020   5.739  0.00  0.00    +0.104 C 
ENDROOT
BRANCH   1  10
ATOM     10  C   LIG    1       25.194 -23.994   7.265  0.00  0.00    +0.241 C 
BRANCH  10  11
ATOM     11  C   LIG    1       24.016 -24.494   6.451  0.00  0.00    +0.327 C 
ATOM     12  O   LIG    1       22.850 -24.287   6.750  0.00  0.00    -0.249 OA
BRANCH  11  13
ATOM     13  O   LIG    1       24.429 -25.206   5.362  0.00  0.00    -0.463 OA
BRANCH  13  14
ATOM     14  C   LIG    1       25.291 -26.321   5.652  0.00  0.00    +0.232 C 
BRANCH  14  16
ATOM     15  C   LIG    1       24.793 -28.766   5.247  0.00  0.00    +0.007 C 
ATOM     16  C   LIG    1       24.446 -27.527   6.052  0.00  0.00    +0.038 C 
ENDBRANCH  14  16
ENDBRANCH  13  14
ENDBRANCH  11  13
ENDBRANCH  10  11
ENDBRANCH   1  10
TORSDOF 5
ENDMDL
MODEL 5
REMARK VINA RESULT:      -5.6      3.335      7.077
REMARK  Name = *****
REMARK                            x       y       z     vdW  Elec       q    Type
REMARK                         _______ _______ _______ _____ _____    ______ ____
ROOT
ATOM      1  N   LIG    1       24.867 -22.953   6.337  0.00  0.00    -0.340 NA
ATOM      2  C   LIG    1       24.351 -22.029   5.435  0.00  0.00    +0.104 C 
ATOM      3  C   LIG    1       24.962 -20.892   5.064  0.00  0.00    +0.077 C 
ATOM      4  I   LIG    1       24.146 -19.615   3.691  0.00  0.00    -0.038 I 
ATOM      5  C   LIG    1       26.296 -20.579   5.685  0.00  0.00    +0.208 C 
ATOM      6  O   LIG    1       26.922 -19.564   5.390  0.00  0.00    -0.286 OA
ATOM      7  C   LIG    1       26.825 -21.568   6.686  0.00  0.00    +0.077 C 
ATOM      8  I   LIG    1       28.616 -21.232   7.613  0.00  0.00    -0.038 I 
ATOM      9  C   LIG    1       26.089 -22.662   6.933  0.00  0.00    +0.104 C 
ENDROOT
BRANCH   1  10
ATOM     10  C   LIG    1       24.124 -24.186   6.676  0.00  0.00    +0.241 C 
BRANCH  10  11
ATOM     11  C   LIG    1       24.456 -25.318   5.722  0.00  0.00    +0.327 C 
ATOM     12  O   LIG    1       25.028 -25.158   4.654  0.00  0.00    -0.249 OA
BRANCH  11  13
ATOM     13  O   LIG    1       24.024 -26.520   6.205  0.00  0.00    -0.463 OA
BRANCH  13  14
ATOM     14  C   LIG    1       25.066 -27.459   6.523  0.00  0.00    +0.232 C 
BRANCH  14  16
ATOM     15  C   LIG    1       24.893 -29.848   5.714  0.00  0.00    +0.007 C 
ATOM     16  C   LIG    1       24.454 -28.838   6.758  0.00  0.00    +0.038 C 
ENDBRANCH  14  16
ENDBRANCH  13  14
ENDBRANCH  11  13
ENDBRANCH  10  11
ENDBRANCH   1  10
TORSDOF 5
ENDMDL
MODEL 6
REMARK VINA RESULT:      -5.5      6.129      8.478
REMARK  Name = *****
REMARK                            x       y       z     vdW  Elec       q    Type
REMARK                         _______ _______ _______ _____ _____    ______ ____
ROOT
ATOM      1  N   LIG    1       24.774 -28.405   6.400  0.00  0.00    -0.340 NA
ATOM      2  C   LIG    1       25.433 -28.269   7.617  0.00  0.00    +0.104 C 
ATOM      3  C   LIG    1       25.705 -29.276   8.462  0.00  0.00    +0.077 C 
ATOM      4  I   LIG    1       26.722 -28.987  10.211  0.00  0.00    -0.038 I 
ATOM      5  C   LIG    1       25.246 -30.656   8.076  0.00  0.00    +0.208 C 
ATOM      6  O   LIG    1       25.466 -31.632   8.790  0.00  0.00    -0.286 OA
ATOM      7  C   LIG    1       24.505 -30.784   6.774  0.00  0.00    +0.077 C 
ATOM      8  I   LIG    1       23.811 -32.607   6.163  0.00  0.00    -0.038 I 
ATOM      9  C   LIG    1       24.328 -29.672   6.044  0.00  0.00    +0.104 C 
ENDROOT
BRANCH   1  10
ATOM     10  C   LIG    1       24.529 -27.235   5.528  0.00  0.00    +0.241 C 
BRANCH  10  11
ATOM     11  C   LIG    1       25.823 -26.545   5.142  0.00  0.00    +0.327 C 
ATOM     12  O   LIG    1       26.819 -27.138   4.758  0.00  0.00    -0.249 OA
BRANCH  11  13
ATOM     13  O   LIG    1       25.729 -25.190   5.291  0.00  0.00    -0.463 OA
BRANCH  13  14
ATOM     14  C   LIG    1       25.578 -24.734   6.647  0.00  0.00    +0.232 C 
BRANCH  14  16
ATOM     15  C   LIG    1       23.235 -23.791   6.747  0.00  0.00    +0.007 C 
ATOM     16  C   LIG    1       24.717 -23.474   6.667  0.00  0.00    +0.038 C 
ENDBRANCH  14  16
ENDBRANCH  13  14
ENDBRANCH  11  13
ENDBRANCH  10  11
ENDBRANCH   1  10
TORSDOF 5
ENDMDL
MODEL 7
REMARK VINA RESULT:      -5.5      6.306      8.541
REMARK  Name = *****
REMARK                            x       y       z     vdW  Elec       q    Type
REMARK                         _______ _______ _______ _____ _____    ______ ____
ROOT
ATOM      1  N   LIG    1       24.871 -28.520   6.339  0.00  0.00    -0.340 NA
ATOM      2  C   LIG    1       24.396 -29.781   5.994  0.00  0.00    +0.104 C 
ATOM      3  C   LIG    1       24.449 -30.866   6.784  0.00  0.00    +0.077 C 
ATOM      4  I   LIG    1       23.680 -32.671   6.208  0.00  0.00    -0.038 I 
ATOM      5  C   LIG    1       25.087 -30.716   8.137  0.00  0.00    +0.208 C 
ATOM      6  O   LIG    1       25.165 -31.659   8.921  0.00  0.00    -0.286 OA
ATOM      7  C   LIG    1       25.629 -29.357   8.484  0.00  0.00    +0.077 C 
ATOM      8  I   LIG    1       26.542 -29.045  10.286  0.00  0.00    -0.038 I 
ATOM      9  C   LIG    1       25.482 -28.377   7.579  0.00  0.00    +0.104 C 
ENDROOT
BRANCH   1  10
ATOM     10  C   LIG    1       24.758 -27.379   5.405  0.00  0.00    +0.241 C 
BRANCH  10  11
ATOM     11  C   LIG    1       26.097 -26.701   5.188  0.00  0.00    +0.327 C 
ATOM     12  O   LIG    1       27.029 -27.216   4.589  0.00  0.00    -0.249 OA
BRANCH  11  13
ATOM     13  O   LIG    1       26.123 -25.458   5.755  0.00  0.00    -0.463 OA
BRANCH  13  14
ATOM     14  C   LIG    1       25.015 -24.608   5.412  0.00  0.00    +0.232 C 
BRANCH  14  16
ATOM     15  C   LIG    1       23.049 -23.766   6.761  0.00  0.00    +0.007 C 
ATOM     16  C   LIG    1       24.561 -23.839   6.651  0.00  0.00    +0.038 C 
ENDBRANCH  14  16
ENDBRANCH  13  14
ENDBRANCH  11  13
ENDBRANCH  10  11
ENDBRANCH   1  10
TORSDOF 5
ENDMDL
MODEL 8
REMARK VINA RESULT:      -5.4      1.511      1.636
REMARK  Name = *****
REMARK                            x       y       z     vdW  Elec       q    Type
REMARK                         _______ _______ _______ _____ _____    ______ ____
ROOT
ATOM      1  N   LIG    1       26.132 -20.877   6.051  0.00  0.00    -0.340 NA
ATOM      2  C   LIG    1       25.732 -22.184   6.305  0.00  0.00    +0.104 C 
ATOM      3  C   LIG    1       24.502 -22.672   6.074  0.00  0.00    +0.077 C 
ATOM      4  I   LIG    1       24.018 -24.624   6.436  0.00  0.00    -0.038 I 
ATOM      5  C   LIG    1       23.470 -21.730   5.516  0.00  0.00    +0.208 C 
ATOM      6  O   LIG    1       22.326 -22.103   5.268  0.00  0.00    -0.286 OA
ATOM      7  C   LIG    1       23.905 -20.311   5.279  0.00  0.00    +0.077 C 
ATOM      8  I   LIG    1       22.578 -18.938   4.549  0.00  0.00    -0.038 I 
ATOM      9  C   LIG    1       25.179 -19.994   5.556  0.00  0.00    +0.104 C 
ENDROOT
BRANCH   1  10
ATOM     10  C   LIG    1       27.515 -20.433   6.328  0.00  0.00    +0.241 C 
BRANCH  10  11
ATOM     11  C   LIG    1       27.775 -20.313   7.818  0.00  0.00    +0.327 C 
ATOM     12  O   LIG    1       26.890 -20.224   8.655  0.00  0.00    -0.249 OA
BRANCH  11  13
ATOM     13  O   LIG    1       29.114 -20.308   8.091  0.00  0.00    -0.463 OA
BRANCH  13  14
ATOM     14  C   LIG    1       29.795 -19.081   7.778  0.00  0.00    +0.232 C 
BRANCH  14  16
ATOM     15  C   LIG    1       30.205 -17.378   9.601  0.00  0.00    +0.007 C 
ATOM     16  C   LIG    1       30.673 -18.670   8.957  0.00  0.00    +0.038 C 
ENDBRANCH  14  16
ENDBRANCH  13  14
ENDBRANCH  11  13
ENDBRANCH  10  11
ENDBRANCH   1  10
TORSDOF 5
ENDMDL
MODEL 9
REMARK VINA RESULT:      -5.3      1.720      3.282
REMARK  Name = *****
REMARK                            x       y       z     vdW  Elec       q    Type
REMARK                         _______ _______ _______ _____ _____    ______ ____
ROOT
ATOM      1  N   LIG    1       26.138 -20.787   5.904  0.00  0.00    -0.340 NA
ATOM      2  C   LIG    1       25.177 -19.916   5.404  0.00  0.00    +0.104 C 
ATOM      3  C   LIG    1       23.887 -20.227   5.201  0.00  0.00    +0.077 C 
ATOM      4  I   LIG    1       22.533 -18.862   4.506  0.00  0.00    -0.038 I 
ATOM      5  C   LIG    1       23.448 -21.631   5.517  0.00  0.00    +0.208 C 
ATOM      6  O   LIG    1       22.282 -21.991   5.368  0.00  0.00    -0.286 OA
ATOM      7  C   LIG    1       24.504 -22.574   6.023  0.00  0.00    +0.077 C 
ATOM      8  I   LIG    1       24.027 -24.513   6.459  0.00  0.00    -0.038 I 
ATOM      9  C   LIG    1       25.747 -22.093   6.179  0.00  0.00    +0.104 C 
ENDROOT
BRANCH   1  10
ATOM     10  C   LIG    1       27.537 -20.349   6.105  0.00  0.00    +0.241 C 
BRANCH  10  11
ATOM     11  C   LIG    1       27.837 -20.096   7.570  0.00  0.00    +0.327 C 
ATOM     12  O   LIG    1       27.100 -20.436   8.482  0.00  0.00    -0.249 OA
BRANCH  11  13
ATOM     13  O   LIG    1       29.022 -19.435   7.728  0.00  0.00    -0.463 OA
BRANCH  13  14
ATOM     14  C   LIG    1       30.198 -20.212   7.438  0.00  0.00    +0.232 C 
BRANCH  14  16
ATOM     15  C   LIG    1       31.024 -21.906   9.124  0.00  0.00    +0.007 C 
ATOM     16  C   LIG    1       30.986 -20.442   8.725  0.00  0.00    +0.038 C 
ENDBRANCH  14  16
ENDBRANCH  13  14
ENDBRANCH  11  13
ENDBRANCH  10  11
ENDBRANCH   1  10
TORSDOF 5
ENDMDL
