MODEL 1
REMARK VINA RESULT:      -5.5      0.000      0.000
REMARK  Name = *****
REMARK                            x       y       z     vdW  Elec       q    Type
REMARK                         _______ _______ _______ _____ _____    ______ ____
ROOT
ATOM      1  C   LIG    1       24.606 -21.805   7.711  0.00  0.00    +0.120 A 
ATOM      2  C   LIG    1       23.290 -22.056   7.319  0.00  0.00    +0.049 A 
ATOM      3  C   LIG    1       22.956 -23.281   6.733  0.00  0.00    +0.049 A 
ATOM      4  C   LIG    1       23.937 -24.247   6.540  0.00  0.00    +0.117 A 
ATOM      5  C   LIG    1       25.252 -24.012   6.924  0.00  0.00    +0.049 A 
ATOM      6  C   LIG    1       25.580 -22.788   7.510  0.00  0.00    +0.049 A 
ENDROOT
BRANCH   1   8
ATOM      7  C   LIG    1       26.476 -20.461   8.303  0.00  0.00    +0.277 C 
ATOM      8  O   LIG    1       25.067 -20.656   8.294  0.00  0.00    -0.495 OA
ENDBRANCH   1   8
BRANCH   4   9
ATOM      9  O   LIG    1       23.563 -25.425   5.965  0.00  0.00    -0.507 OA
ATOM     10  H   LIG    1       24.156 -26.125   6.285  0.00  0.00    +0.292 HD
ENDBRANCH   4   9
TORSDOF 2
ENDMDL
MODEL 2
REMARK VINA RESULT:      -5.4      0.185      1.617
REMARK  Name = *****
REMARK                            x       y       z     vdW  Elec       q    Type
REMARK                         _______ _______ _______ _____ _____    ______ ____
ROOT
ATOM      1  C   LIG    1       24.810 -21.999   7.717  0.00  0.00    +0.120 A 
ATOM      2  C   LIG    1       25.712 -23.028   7.438  0.00  0.00    +0.049 A 
ATOM      3  C   LIG    1       25.267 -24.202   6.823  0.00  0.00    +0.049 A 
ATOM      4  C   LIG    1       23.924 -24.344   6.490  0.00  0.00    +0.117 A 
ATOM      5  C   LIG    1       23.014 -23.329   6.762  0.00  0.00    +0.049 A 
ATOM      6  C   LIG    1       23.464 -22.158   7.376  0.00  0.00    +0.049 A 
ENDROOT
BRANCH   1   8
ATOM      7  C   LIG    1       26.481 -20.422   8.326  0.00  0.00    +0.277 C 
ATOM      8  O   LIG    1       25.111 -20.804   8.312  0.00  0.00    -0.495 OA
ENDBRANCH   1   8
BRANCH   4   9
ATOM      9  O   LIG    1       23.537 -25.505   5.892  0.00  0.00    -0.507 OA
ATOM     10  H   LIG    1       23.263 -25.306   4.982  0.00  0.00    +0.292 HD
ENDBRANCH   4   9
TORSDOF 2
ENDMDL
MODEL 3
REMARK VINA RESULT:      -5.3      0.843      4.143
REMARK  Name = *****
REMARK                            x       y       z     vdW  Elec       q    Type
REMARK                         _______ _______ _______ _____ _____    ______ ____
ROOT
ATOM      1  C   LIG    1       24.050 -24.362   6.592  0.00  0.00    +0.120 A 
ATOM      2  C   LIG    1       25.364 -24.064   6.955  0.00  0.00    +0.049 A 
ATOM      3  C   LIG    1       25.674 -22.813   7.498  0.00  0.00    +0.049 A 
ATOM      4  C   LIG    1       24.671 -21.866   7.674  0.00  0.00    +0.117 A 
ATOM      5  C   LIG    1       23.358 -22.148   7.317  0.00  0.00    +0.049 A 
ATOM      6  C   LIG    1       23.053 -23.399   6.776  0.00  0.00    +0.049 A 
ENDROOT
BRANCH   1   8
ATOM      7  C   LIG    1       24.517 -26.638   6.086  0.00  0.00    +0.277 C 
ATOM      8  O   LIG    1       23.612 -25.541   6.054  0.00  0.00    -0.495 OA
ENDBRANCH   1   8
BRANCH   4   9
ATOM      9  O   LIG    1       25.021 -20.662   8.207  0.00  0.00    -0.507 OA
ATOM     10  H   LIG    1       25.884 -20.403   7.843  0.00  0.00    +0.292 HD
ENDBRANCH   4   9
TORSDOF 2
ENDMDL
MODEL 4
REMARK VINA RESULT:      -5.3      0.832      3.789
REMARK  Name = *****
REMARK                            x       y       z     vdW  Elec       q    Type
REMARK                         _______ _______ _______ _____ _____    ______ ____
ROOT
ATOM      1  C   LIG    1       23.883 -24.367   6.586  0.00  0.00    +0.120 A 
ATOM      2  C   LIG    1       22.933 -23.365   6.796  0.00  0.00    +0.049 A 
ATOM      3  C   LIG    1       23.321 -22.132   7.328  0.00  0.00    +0.049 A 
ATOM      4  C   LIG    1       24.655 -21.905   7.649  0.00  0.00    +0.117 A 
ATOM      5  C   LIG    1       25.612 -22.892   7.446  0.00  0.00    +0.049 A 
ATOM      6  C   LIG    1       25.220 -24.122   6.914  0.00  0.00    +0.049 A 
ENDROOT
BRANCH   1   8
ATOM      7  C   LIG    1       24.703 -26.554   6.147  0.00  0.00    +0.277 C 
ATOM      8  O   LIG    1       23.639 -25.612   6.075  0.00  0.00    -0.495 OA
ENDBRANCH   1   8
BRANCH   4   9
ATOM      9  O   LIG    1       24.986 -20.687   8.164  0.00  0.00    -0.507 OA
ATOM     10  H   LIG    1       25.426 -20.169   7.471  0.00  0.00    +0.292 HD
ENDBRANCH   4   9
TORSDOF 2
ENDMDL
MODEL 5
REMARK VINA RESULT:      -5.2      4.291      6.736
REMARK  Name = *****
REMARK                            x       y       z     vdW  Elec       q    Type
REMARK                         _______ _______ _______ _____ _____    ______ ____
ROOT
ATOM      1  C   LIG    1       29.044 -20.017   6.546  0.00  0.00    +0.120 A 
ATOM      2  C   LIG    1       30.134 -19.146   6.570  0.00  0.00    +0.049 A 
ATOM      3  C   LIG    1       31.173 -19.349   7.483  0.00  0.00    +0.049 A 
ATOM      4  C   LIG    1       31.119 -20.420   8.368  0.00  0.00    +0.117 A 
ATOM      5  C   LIG    1       30.040 -21.297   8.356  0.00  0.00    +0.049 A 
ATOM      6  C   LIG    1       29.004 -21.089   7.442  0.00  0.00    +0.049 A 
ENDROOT
BRANCH   1   8
ATOM      7  C   LIG    1       26.737 -20.465   6.189  0.00  0.00    +0.277 C 
ATOM      8  O   LIG    1       27.966 -19.934   5.708  0.00  0.00    -0.495 OA
ENDBRANCH   1   8
BRANCH   4   9
ATOM      9  O   LIG    1       32.155 -20.579   9.239  0.00  0.00    -0.507 OA
ATOM     10  H   LIG    1       32.986 -20.430   8.759  0.00  0.00    +0.292 HD
ENDBRANCH   4   9
TORSDOF 2
ENDMDL
MODEL 6
REMARK VINA RESULT:      -5.1      2.890      4.094
REMARK  Name = *****
REMARK                            x       y       z     vdW  Elec       q    Type
REMARK                         _______ _______ _______ _____ _____    ______ ____
ROOT
ATOM      1  C   LIG    1       25.323 -20.518   5.387  0.00  0.00    +0.120 A 
ATOM      2  C   LIG    1       24.246 -20.756   6.243  0.00  0.00    +0.049 A 
ATOM      3  C   LIG    1       24.453 -20.832   7.624  0.00  0.00    +0.049 A 
ATOM      4  C   LIG    1       25.733 -20.672   8.143  0.00  0.00    +0.117 A 
ATOM      5  C   LIG    1       26.815 -20.435   7.304  0.00  0.00    +0.049 A 
ATOM      6  C   LIG    1       26.604 -20.359   5.926  0.00  0.00    +0.049 A 
ENDROOT
BRANCH   1   8
ATOM      7  C   LIG    1       24.204 -19.636   3.485  0.00  0.00    +0.277 C 
ATOM      8  O   LIG    1       25.261 -20.420   4.024  0.00  0.00    -0.495 OA
ENDBRANCH   1   8
BRANCH   4   9
ATOM      9  O   LIG    1       25.885 -20.754   9.495  0.00  0.00    -0.507 OA
ATOM     10  H   LIG    1       26.078 -21.677   9.728  0.00  0.00    +0.292 HD
ENDBRANCH   4   9
TORSDOF 2
ENDMDL
MODEL 7
REMARK VINA RESULT:      -5.0      1.504      2.412
REMARK  Name = *****
REMARK                            x       y       z     vdW  Elec       q    Type
REMARK                         _______ _______ _______ _____ _____    ______ ____
ROOT
ATOM      1  C   LIG    1       23.976 -22.550   7.227  0.00  0.00    +0.120 A 
ATOM      2  C   LIG    1       25.351 -22.717   7.394  0.00  0.00    +0.049 A 
ATOM      3  C   LIG    1       25.954 -23.935   7.064  0.00  0.00    +0.049 A 
ATOM      4  C   LIG    1       25.181 -24.980   6.570  0.00  0.00    +0.117 A 
ATOM      5  C   LIG    1       23.810 -24.829   6.399  0.00  0.00    +0.049 A 
ATOM      6  C   LIG    1       23.213 -23.611   6.729  0.00  0.00    +0.049 A 
ENDROOT
BRANCH   1   8
ATOM      7  C   LIG    1       23.098 -20.482   6.450  0.00  0.00    +0.277 C 
ATOM      8  O   LIG    1       23.262 -21.417   7.509  0.00  0.00    -0.495 OA
ENDBRANCH   1   8
BRANCH   4   9
ATOM      9  O   LIG    1       25.813 -26.147   6.262  0.00  0.00    -0.507 OA
ATOM     10  H   LIG    1       26.772 -25.993   6.282  0.00  0.00    +0.292 HD
ENDBRANCH   4   9
TORSDOF 2
ENDMDL
MODEL 8
REMARK VINA RESULT:      -4.9      2.791      4.349
REMARK  Name = *****
REMARK                            x       y       z     vdW  Elec       q    Type
REMARK                         _______ _______ _______ _____ _____    ______ ____
ROOT
ATOM      1  C   LIG    1       24.585 -20.803   6.243  0.00  0.00    +0.120 A 
ATOM      2  C   LIG    1       25.762 -20.494   5.557  0.00  0.00    +0.049 A 
ATOM      3  C   LIG    1       26.954 -20.304   6.263  0.00  0.00    +0.049 A 
ATOM      4  C   LIG    1       26.966 -20.421   7.648  0.00  0.00    +0.117 A 
ATOM      5  C   LIG    1       25.803 -20.727   8.345  0.00  0.00    +0.049 A 
ATOM      6  C   LIG    1       24.615 -20.917   7.636  0.00  0.00    +0.049 A 
ENDROOT
BRANCH   1   8
ATOM      7  C   LIG    1       22.645 -19.862   5.244  0.00  0.00    +0.277 C 
ATOM      8  O   LIG    1       23.357 -21.013   5.679  0.00  0.00    -0.495 OA
ENDBRANCH   1   8
BRANCH   4   9
ATOM      9  O   LIG    1       28.151 -20.227   8.292  0.00  0.00    -0.507 OA
ATOM     10  H   LIG    1       27.968 -19.850   9.168  0.00  0.00    +0.292 HD
ENDBRANCH   4   9
TORSDOF 2
ENDMDL
MODEL 9
REMARK VINA RESULT:      -4.8      3.337      5.741
REMARK  Name = *****
REMARK                            x       y       z     vdW  Elec       q    Type
REMARK                         _______ _______ _______ _____ _____    ______ ____
ROOT
ATOM      1  C   LIG    1       27.844 -20.588   7.713  0.00  0.00    +0.120 A 
ATOM      2  C   LIG    1       27.393 -20.433   6.401  0.00  0.00    +0.049 A 
ATOM      3  C   LIG    1       28.075 -19.587   5.522  0.00  0.00    +0.049 A 
ATOM      4  C   LIG    1       29.202 -18.898   5.956  0.00  0.00    +0.117 A 
ATOM      5  C   LIG    1       29.663 -19.041   7.260  0.00  0.00    +0.049 A 
ATOM      6  C   LIG    1       28.979 -19.888   8.134  0.00  0.00    +0.049 A 
ENDROOT
BRANCH   1   8
ATOM      7  C   LIG    1       25.952 -21.839   8.422  0.00  0.00    +0.277 C 
ATOM      8  O   LIG    1       27.275 -21.380   8.672  0.00  0.00    -0.495 OA
ENDBRANCH   1   8
BRANCH   4   9
ATOM      9  O   LIG    1       29.833 -18.085   5.063  0.00  0.00    -0.507 OA
ATOM     10  H   LIG    1       30.784 -18.283   5.084  0.00  0.00    +0.292 HD
ENDBRANCH   4   9
TORSDOF 2
ENDMDL
