MODEL 1
REMARK VINA RESULT:       2.5      0.000      0.000
REMARK  Name = *****
REMARK                            x       y       z     vdW  Elec       q    Type
REMARK                         _______ _______ _______ _____ _____    ______ ____
ROOT
ATOM      1  C   LIG    1       25.784 -16.522   3.440  0.00  0.00    +0.031 C 
ATOM      2  C   LIG    1       24.484 -16.644   3.770  0.00  0.00    +0.035 C 
ATOM      3  C   LIG    1       23.883 -17.966   4.176  0.00  0.00    +0.003 A 
ATOM      4  C   LIG    1       22.500 -18.013   4.508  0.00  0.00    -0.033 A 
ATOM      5  C   LIG    1       21.910 -19.212   4.903  0.00  0.00    +0.053 A 
ATOM      6  C   LIG    1       22.626 -20.405   4.969  0.00  0.00    +0.162 A 
ATOM      7  C   LIG    1       24.002 -20.384   4.694  0.00  0.00    +0.163 A 
ATOM      8  C   LIG    1       21.614 -16.806   4.384  0.00  0.00    +0.054 C 
ATOM      9  C   LIG    1       22.394 -15.523   4.580  0.00  0.00    +0.106 C 
ATOM     10  C   LIG    1       24.596 -19.170   4.294  0.00  0.00    +0.059 A 
ATOM     11  N   LIG    1       23.593 -15.577   3.774  0.00  0.00    -0.343 N 
ATOM     12  H   LIG    1       23.832 -14.777   3.202  0.00  0.00    +0.146 HD
ENDROOT
BRANCH   1  16
ATOM     13  C   LIG    1       28.002 -12.828   3.262  0.00  0.00    +0.162 A 
ATOM     14  C   LIG    1       26.717 -12.886   2.701  0.00  0.00    +0.162 A 
ATOM     15  C   LIG    1       26.026 -14.107   2.718  0.00  0.00    +0.057 A 
ATOM     16  C   LIG    1       26.570 -15.274   3.271  0.00  0.00    -0.020 A 
ATOM     17  C   LIG    1       27.848 -15.202   3.839  0.00  0.00    +0.012 A 
ATOM     18  C   LIG    1       28.548 -13.993   3.826  0.00  0.00    +0.050 A 
BRANCH  13  19
ATOM     19  O   LIG    1       28.846 -11.761   3.398  0.00  0.00    -0.489 OA
BRANCH  19  21
ATOM     20  C   LIG    1       28.637 -12.176   5.729  0.00  0.00    +0.048 C 
ATOM     21  C   LIG    1       29.429 -11.448   4.656  0.00  0.00    +0.226 C 
ENDBRANCH  19  21
ENDBRANCH  13  19
BRANCH  14  22
ATOM     22  O   LIG    1       26.177 -11.767   2.119  0.00  0.00    -0.489 OA
BRANCH  22  23
ATOM     23  C   LIG    1       24.761 -11.585   2.230  0.00  0.00    +0.226 C 
ATOM     24  C   LIG    1       24.375 -11.695   3.697  0.00  0.00    +0.048 C 
ENDBRANCH  22  23
ENDBRANCH  14  22
ENDBRANCH   1  16
BRANCH   7  25
ATOM     25  O   LIG    1       24.894 -21.425   4.741  0.00  0.00    -0.489 OA
BRANCH  25  26
ATOM     26  C   LIG    1       25.797 -21.545   5.837  0.00  0.00    +0.226 C 
ATOM     27  C   LIG    1       26.854 -20.453   5.781  0.00  0.00    +0.048 C 
ENDBRANCH  25  26
ENDBRANCH   7  25
BRANCH   6  28
ATOM     28  O   LIG    1       21.998 -21.571   5.314  0.00  0.00    -0.489 OA
BRANCH  28  29
ATOM     29  C   LIG    1       20.571 -21.546   5.247  0.00  0.00    +0.226 C 
ATOM     30  C   LIG    1       20.150 -20.649   4.102  0.00  0.00    +0.048 C 
ENDBRANCH  28  29
ENDBRANCH   6  28
TORSDOF 9
ENDMDL
MODEL 2
REMARK VINA RESULT:       5.1      1.251      8.918
REMARK  Name = *****
REMARK                            x       y       z     vdW  Elec       q    Type
REMARK                         _______ _______ _______ _____ _____    ______ ____
ROOT
ATOM      1  C   LIG    1       24.525 -17.199   3.477  0.00  0.00    +0.031 C 
ATOM      2  C   LIG    1       25.839 -16.990   3.688  0.00  0.00    +0.035 C 
ATOM      3  C   LIG    1       26.464 -15.625   3.550  0.00  0.00    +0.003 A 
ATOM      4  C   LIG    1       27.859 -15.486   3.788  0.00  0.00    -0.033 A 
ATOM      5  C   LIG    1       28.472 -14.238   3.686  0.00  0.00    +0.053 A 
ATOM      6  C   LIG    1       27.766 -13.092   3.331  0.00  0.00    +0.162 A 
ATOM      7  C   LIG    1       26.379 -13.185   3.135  0.00  0.00    +0.163 A 
ATOM      8  C   LIG    1       28.734 -16.671   4.088  0.00  0.00    +0.054 C 
ATOM      9  C   LIG    1       27.957 -17.772   4.776  0.00  0.00    +0.106 C 
ATOM     10  C   LIG    1       25.763 -14.449   3.239  0.00  0.00    +0.059 A 
ATOM     11  N   LIG    1       26.725 -17.998   4.054  0.00  0.00    -0.343 N 
ATOM     12  H   LIG    1       26.457 -18.948   3.830  0.00  0.00    +0.146 HD
ENDROOT
BRANCH   1  16
ATOM     13  C   LIG    1       22.077 -20.530   4.705  0.00  0.00    +0.162 A 
ATOM     14  C   LIG    1       23.444 -20.526   5.025  0.00  0.00    +0.162 A 
ATOM     15  C   LIG    1       24.241 -19.463   4.575  0.00  0.00    +0.057 A 
ATOM     16  C   LIG    1       23.727 -18.404   3.814  0.00  0.00    -0.020 A 
ATOM     17  C   LIG    1       22.360 -18.411   3.511  0.00  0.00    +0.012 A 
ATOM     18  C   LIG    1       21.556 -19.466   3.950  0.00  0.00    +0.050 A 
BRANCH  13  19
ATOM     19  O   LIG    1       21.103 -21.422   5.056  0.00  0.00    -0.489 OA
BRANCH  19  21
ATOM     20  C   LIG    1       19.743 -20.300   3.462  0.00  0.00    +0.048 C 
ATOM     21  C   LIG    1       19.749 -21.208   4.680  0.00  0.00    +0.226 C 
ENDBRANCH  19  21
ENDBRANCH  13  19
BRANCH  14  22
ATOM     22  O   LIG    1       23.979 -21.570   5.736  0.00  0.00    -0.489 OA
BRANCH  22  23
ATOM     23  C   LIG    1       24.693 -21.253   6.936  0.00  0.00    +0.226 C 
ATOM     24  C   LIG    1       26.179 -21.208   6.614  0.00  0.00    +0.048 C 
ENDBRANCH  22  23
ENDBRANCH  14  22
ENDBRANCH   1  16
BRANCH   7  25
ATOM     25  O   LIG    1       25.495 -12.183   2.826  0.00  0.00    -0.489 OA
BRANCH  25  26
ATOM     26  C   LIG    1       24.100 -12.361   3.059  0.00  0.00    +0.226 C 
ATOM     27  C   LIG    1       23.645 -11.529   4.247  0.00  0.00    +0.048 C 
ENDBRANCH  25  26
ENDBRANCH   7  25
BRANCH   6  28
ATOM     28  O   LIG    1       28.413 -11.894   3.193  0.00  0.00    -0.489 OA
BRANCH  28  29
ATOM     29  C   LIG    1       29.339 -11.571   4.232  0.00  0.00    +0.226 C 
ATOM     30  C   LIG    1       28.770 -12.034   5.556  0.00  0.00    +0.048 C 
ENDBRANCH  28  29
ENDBRANCH   6  28
TORSDOF 9
ENDMDL
