MODEL 1
REMARK VINA RESULT:     -10.0      0.000      0.000
REMARK  Name = *****
REMARK                            x       y       z     vdW  Elec       q    Type
REMARK                         _______ _______ _______ _____ _____    ______ ____
ROOT
ATOM      1  N   LIG    1       23.118 -22.278   6.067  0.00  0.00    -0.168 N 
ATOM      2  H   LIG    1       22.160 -22.271   6.400  0.00  0.00    +0.178 HD
ATOM      3  C   LIG    1       23.775 -23.499   6.186  0.00  0.00    +0.333 C 
ATOM      4  N   LIG    1       25.012 -23.601   5.585  0.00  0.00    -0.231 N 
ATOM      5  H   LIG    1       25.268 -22.872   4.918  0.00  0.00    +0.171 HD
ATOM      6  O   LIG    1       23.214 -24.390   6.807  0.00  0.00    -0.250 OA
ENDROOT
BRANCH   4   7
ATOM      7  N   LIG    1       25.698 -24.822   5.560  0.00  0.00    -0.225 NA
ATOM      8  C   LIG    1       25.802 -25.441   6.885  0.00  0.00    +0.109 C 
ATOM      9  C   LIG    1       26.260 -26.846   6.516  0.00  0.00    +0.009 C 
ATOM     10  C   LIG    1       25.433 -27.163   5.269  0.00  0.00    +0.009 C 
ATOM     11  C   LIG    1       24.263 -27.984   5.806  0.00  0.00    +0.005 C 
ATOM     12  C   LIG    1       24.902 -28.832   6.895  0.00  0.00    +0.001 C 
ATOM     13  C   LIG    1       25.933 -27.918   7.553  0.00  0.00    +0.005 C 
ATOM     14  C   LIG    1       25.038 -25.807   4.688  0.00  0.00    +0.109 C 
ENDBRANCH   4   7
BRANCH   1  15
ATOM     15  S   LIG    1       23.623 -20.897   5.320  0.00  0.00    +0.076 S 
ATOM     16  O   LIG    1       23.893 -21.211   3.932  0.00  0.00    -0.150 OA
ATOM     17  O   LIG    1       22.710 -19.844   5.701  0.00  0.00    -0.150 OA
BRANCH  15  22
ATOM     18  C   LIG    1       29.013 -20.075   7.982  0.00  0.00    +0.044 C 
ATOM     19  C   LIG    1       27.661 -20.197   7.339  0.00  0.00    -0.050 A 
ATOM     20  C   LIG    1       27.534 -20.096   5.948  0.00  0.00    +0.005 A 
ATOM     21  C   LIG    1       26.294 -20.282   5.334  0.00  0.00    +0.029 A 
ATOM     22  C   LIG    1       25.174 -20.571   6.118  0.00  0.00    +0.109 A 
ATOM     23  C   LIG    1       25.285 -20.675   7.507  0.00  0.00    +0.029 A 
ATOM     24  C   LIG    1       26.530 -20.493   8.113  0.00  0.00    +0.005 A 
ENDBRANCH  15  22
ENDBRANCH   1  15
TORSDOF 3
ENDMDL
MODEL 2
REMARK VINA RESULT:     -10.0      4.808      6.761
REMARK  Name = *****
REMARK                            x       y       z     vdW  Elec       q    Type
REMARK                         _______ _______ _______ _____ _____    ______ ____
ROOT
ATOM      1  N   LIG    1       29.350 -20.229   7.995  0.00  0.00    -0.168 N 
ATOM      2  H   LIG    1       29.608 -20.478   8.943  0.00  0.00    +0.178 HD
ATOM      3  C   LIG    1       28.197 -20.845   7.517  0.00  0.00    +0.333 C 
ATOM      4  N   LIG    1       27.712 -20.402   6.304  0.00  0.00    -0.231 N 
ATOM      5  H   LIG    1       28.085 -19.522   5.945  0.00  0.00    +0.171 HD
ATOM      6  O   LIG    1       27.698 -21.727   8.199  0.00  0.00    -0.250 OA
ENDROOT
BRANCH   4   7
ATOM      7  N   LIG    1       26.499 -20.888   5.796  0.00  0.00    -0.225 NA
ATOM      8  C   LIG    1       25.351 -20.537   6.638  0.00  0.00    +0.109 C 
ATOM      9  C   LIG    1       24.193 -20.873   5.707  0.00  0.00    +0.009 C 
ATOM     10  C   LIG    1       24.690 -20.382   4.346  0.00  0.00    +0.009 C 
ATOM     11  C   LIG    1       24.046 -19.006   4.198  0.00  0.00    +0.005 C 
ATOM     12  C   LIG    1       22.669 -19.196   4.817  0.00  0.00    +0.001 C 
ATOM     13  C   LIG    1       22.896 -20.127   6.006  0.00  0.00    +0.005 C 
ATOM     14  C   LIG    1       26.213 -20.358   4.453  0.00  0.00    +0.109 C 
ENDBRANCH   4   7
BRANCH   1  15
ATOM     15  S   LIG    1       30.254 -19.039   7.297  0.00  0.00    +0.076 S 
ATOM     16  O   LIG    1       31.429 -19.652   6.714  0.00  0.00    -0.150 OA
ATOM     17  O   LIG    1       29.355 -18.216   6.520  0.00  0.00    -0.150 OA
BRANCH  15  22
ATOM     18  C   LIG    1       32.193 -16.013  12.186  0.00  0.00    +0.044 C 
ATOM     19  C   LIG    1       31.678 -16.690  10.948  0.00  0.00    -0.050 A 
ATOM     20  C   LIG    1       32.515 -16.856   9.838  0.00  0.00    +0.005 A 
ATOM     21  C   LIG    1       32.069 -17.549   8.711  0.00  0.00    +0.029 A 
ATOM     22  C   LIG    1       30.777 -18.080   8.697  0.00  0.00    +0.109 A 
ATOM     23  C   LIG    1       29.930 -17.924   9.796  0.00  0.00    +0.029 A 
ATOM     24  C   LIG    1       30.386 -17.233  10.922  0.00  0.00    +0.005 A 
ENDBRANCH  15  22
ENDBRANCH   1  15
TORSDOF 3
ENDMDL
MODEL 3
REMARK VINA RESULT:      -9.7      2.619      6.927
REMARK  Name = *****
REMARK                            x       y       z     vdW  Elec       q    Type
REMARK                         _______ _______ _______ _____ _____    ______ ____
ROOT
ATOM      1  N   LIG    1       25.385 -20.501   6.290  0.00  0.00    -0.168 N 
ATOM      2  H   LIG    1       24.760 -20.072   5.616  0.00  0.00    +0.178 HD
ATOM      3  C   LIG    1       26.741 -20.310   6.040  0.00  0.00    +0.333 C 
ATOM      4  N   LIG    1       27.618 -20.721   7.023  0.00  0.00    -0.231 N 
ATOM      5  H   LIG    1       27.225 -20.929   7.941  0.00  0.00    +0.171 HD
ATOM      6  O   LIG    1       27.058 -19.794   4.979  0.00  0.00    -0.250 OA
ENDROOT
BRANCH   4   7
ATOM      7  N   LIG    1       28.992 -20.472   6.907  0.00  0.00    -0.225 NA
ATOM      8  C   LIG    1       29.322 -19.049   7.026  0.00  0.00    +0.109 C 
ATOM      9  C   LIG    1       30.833 -19.114   7.205  0.00  0.00    +0.009 C 
ATOM     10  C   LIG    1       31.021 -20.319   8.129  0.00  0.00    +0.009 C 
ATOM     11  C   LIG    1       31.161 -19.696   9.516  0.00  0.00    +0.005 C 
ATOM     12  C   LIG    1       31.962 -18.431   9.252  0.00  0.00    +0.001 C 
ATOM     13  C   LIG    1       31.445 -17.908   7.913  0.00  0.00    +0.005 C 
ATOM     14  C   LIG    1       29.768 -21.171   7.944  0.00  0.00    +0.109 C 
ENDBRANCH   4   7
BRANCH   1  15
ATOM     15  S   LIG    1       24.658 -21.184   7.603  0.00  0.00    +0.076 S 
ATOM     16  O   LIG    1       25.547 -21.034   8.736  0.00  0.00    -0.150 OA
ATOM     17  O   LIG    1       23.293 -20.711   7.633  0.00  0.00    -0.150 OA
BRANCH  15  22
ATOM     18  C   LIG    1       24.605 -26.987   5.830  0.00  0.00    +0.044 C 
ATOM     19  C   LIG    1       24.597 -25.577   6.346  0.00  0.00    -0.050 A 
ATOM     20  C   LIG    1       25.794 -24.965   6.740  0.00  0.00    +0.005 A 
ATOM     21  C   LIG    1       25.807 -23.632   7.150  0.00  0.00    +0.029 A 
ATOM     22  C   LIG    1       24.614 -22.905   7.168  0.00  0.00    +0.109 A 
ATOM     23  C   LIG    1       23.412 -23.500   6.779  0.00  0.00    +0.029 A 
ATOM     24  C   LIG    1       23.408 -24.834   6.364  0.00  0.00    +0.005 A 
ENDBRANCH  15  22
ENDBRANCH   1  15
TORSDOF 3
ENDMDL
MODEL 4
REMARK VINA RESULT:      -9.4      2.975      7.498
REMARK  Name = *****
REMARK                            x       y       z     vdW  Elec       q    Type
REMARK                         _______ _______ _______ _____ _____    ______ ____
ROOT
ATOM      1  N   LIG    1       25.741 -25.411   6.733  0.00  0.00    -0.168 N 
ATOM      2  H   LIG    1       26.420 -25.861   7.336  0.00  0.00    +0.178 HD
ATOM      3  C   LIG    1       25.611 -24.037   6.915  0.00  0.00    +0.333 C 
ATOM      4  N   LIG    1       24.833 -23.359   5.999  0.00  0.00    -0.231 N 
ATOM      5  H   LIG    1       24.589 -23.851   5.139  0.00  0.00    +0.171 HD
ATOM      6  O   LIG    1       26.191 -23.530   7.864  0.00  0.00    -0.250 OA
ENDROOT
BRANCH   4   7
ATOM      7  N   LIG    1       24.732 -21.962   6.040  0.00  0.00    -0.225 NA
ATOM      8  C   LIG    1       24.921 -21.341   4.725  0.00  0.00    +0.109 C 
ATOM      9  C   LIG    1       24.433 -19.925   4.998  0.00  0.00    +0.009 C 
ATOM     10  C   LIG    1       23.211 -20.146   5.891  0.00  0.00    +0.009 C 
ATOM     11  C   LIG    1       22.033 -20.069   4.923  0.00  0.00    +0.005 C 
ATOM     12  C   LIG    1       22.449 -18.975   3.952  0.00  0.00    +0.001 C 
ATOM     13  C   LIG    1       23.953 -19.165   3.764  0.00  0.00    +0.005 C 
ATOM     14  C   LIG    1       23.416 -21.519   6.527  0.00  0.00    +0.109 C 
ENDBRANCH   4   7
BRANCH   1  15
ATOM     15  S   LIG    1       25.067 -26.371   5.574  0.00  0.00    +0.076 S 
ATOM     16  O   LIG    1       23.707 -25.925   5.357  0.00  0.00    -0.150 OA
ATOM     17  O   LIG    1       26.020 -26.472   4.492  0.00  0.00    -0.150 OA
BRANCH  15  22
ATOM     18  C   LIG    1       24.556 -31.712   8.406  0.00  0.00    +0.044 C 
ATOM     19  C   LIG    1       24.758 -30.415   7.676  0.00  0.00    -0.050 A 
ATOM     20  C   LIG    1       24.190 -30.226   6.410  0.00  0.00    +0.005 A 
ATOM     21  C   LIG    1       24.309 -28.999   5.756  0.00  0.00    +0.029 A 
ATOM     22  C   LIG    1       25.002 -27.954   6.374  0.00  0.00    +0.109 A 
ATOM     23  C   LIG    1       25.575 -28.127   7.636  0.00  0.00    +0.029 A 
ATOM     24  C   LIG    1       25.446 -29.357   8.286  0.00  0.00    +0.005 A 
ENDBRANCH  15  22
ENDBRANCH   1  15
TORSDOF 3
ENDMDL
MODEL 5
REMARK VINA RESULT:      -9.4      4.654      6.382
REMARK  Name = *****
REMARK                            x       y       z     vdW  Elec       q    Type
REMARK                         _______ _______ _______ _____ _____    ______ ____
ROOT
ATOM      1  N   LIG    1       28.843 -19.366   8.599  0.00  0.00    -0.168 N 
ATOM      2  H   LIG    1       28.634 -18.932   9.491  0.00  0.00    +0.178 HD
ATOM      3  C   LIG    1       27.809 -20.124   8.056  0.00  0.00    +0.333 C 
ATOM      4  N   LIG    1       27.985 -20.582   6.767  0.00  0.00    -0.231 N 
ATOM      5  H   LIG    1       28.739 -20.164   6.222  0.00  0.00    +0.171 HD
ATOM      6  O   LIG    1       26.826 -20.328   8.753  0.00  0.00    -0.250 OA
ENDROOT
BRANCH   4   7
ATOM      7  N   LIG    1       26.955 -21.261   6.102  0.00  0.00    -0.225 NA
ATOM      8  C   LIG    1       26.405 -22.369   6.889  0.00  0.00    +0.109 C 
ATOM      9  C   LIG    1       25.137 -22.683   6.106  0.00  0.00    +0.009 C 
ATOM     10  C   LIG    1       24.611 -21.296   5.731  0.00  0.00    +0.009 C 
ATOM     11  C   LIG    1       23.553 -21.008   6.793  0.00  0.00    +0.005 C 
ATOM     12  C   LIG    1       22.900 -22.364   7.013  0.00  0.00    +0.001 C 
ATOM     13  C   LIG    1       24.042 -23.373   6.915  0.00  0.00    +0.005 C 
ATOM     14  C   LIG    1       25.826 -20.373   5.783  0.00  0.00    +0.109 C 
ENDBRANCH   4   7
BRANCH   1  15
ATOM     15  S   LIG    1       30.287 -18.947   7.922  0.00  0.00    +0.076 S 
ATOM     16  O   LIG    1       31.094 -20.144   7.810  0.00  0.00    -0.150 OA
ATOM     17  O   LIG    1       29.999 -18.109   6.780  0.00  0.00    -0.150 OA
BRANCH  15  22
ATOM     18  C   LIG    1       32.957 -15.654  12.263  0.00  0.00    +0.044 C 
ATOM     19  C   LIG    1       32.251 -16.401  11.167  0.00  0.00    -0.050 A 
ATOM     20  C   LIG    1       32.862 -16.554   9.916  0.00  0.00    +0.005 A 
ATOM     21  C   LIG    1       32.247 -17.309   8.916  0.00  0.00    +0.029 A 
ATOM     22  C   LIG    1       31.014 -17.914   9.169  0.00  0.00    +0.109 A 
ATOM     23  C   LIG    1       30.392 -17.771  10.412  0.00  0.00    +0.029 A 
ATOM     24  C   LIG    1       31.016 -17.018  11.410  0.00  0.00    +0.005 A 
ENDBRANCH  15  22
ENDBRANCH   1  15
TORSDOF 3
ENDMDL
MODEL 6
REMARK VINA RESULT:      -9.3      2.735      3.779
REMARK  Name = *****
REMARK                            x       y       z     vdW  Elec       q    Type
REMARK                         _______ _______ _______ _____ _____    ______ ____
ROOT
ATOM      1  N   LIG    1       24.890 -24.480   5.359  0.00  0.00    -0.168 N 
ATOM      2  H   LIG    1       25.218 -23.983   4.538  0.00  0.00    +0.178 HD
ATOM      3  C   LIG    1       25.248 -25.824   5.415  0.00  0.00    +0.333 C 
ATOM      4  N   LIG    1       24.978 -26.491   6.592  0.00  0.00    -0.231 N 
ATOM      5  H   LIG    1       24.745 -25.923   7.407  0.00  0.00    +0.171 HD
ATOM      6  O   LIG    1       25.773 -26.315   4.427  0.00  0.00    -0.250 OA
ENDROOT
BRANCH   4   7
ATOM      7  N   LIG    1       25.399 -27.814   6.778  0.00  0.00    -0.225 NA
ATOM      8  C   LIG    1       26.039 -28.028   8.080  0.00  0.00    +0.109 C 
ATOM      9  C   LIG    1       26.073 -29.549   8.143  0.00  0.00    +0.009 C 
ATOM     10  C   LIG    1       24.717 -29.950   7.558  0.00  0.00    +0.009 C 
ATOM     11  C   LIG    1       23.848 -30.195   8.788  0.00  0.00    +0.005 C 
ATOM     12  C   LIG    1       24.808 -30.844   9.772  0.00  0.00    +0.001 C 
ATOM     13  C   LIG    1       26.140 -30.130   9.553  0.00  0.00    +0.005 C 
ATOM     14  C   LIG    1       24.278 -28.765   6.700  0.00  0.00    +0.109 C 
ENDBRANCH   4   7
BRANCH   1  15
ATOM     15  S   LIG    1       24.152 -23.555   6.508  0.00  0.00    +0.076 S 
ATOM     16  O   LIG    1       22.870 -24.156   6.811  0.00  0.00    -0.150 OA
ATOM     17  O   LIG    1       25.132 -23.283   7.534  0.00  0.00    -0.150 OA
BRANCH  15  22
ATOM     18  C   LIG    1       23.351 -18.223   3.726  0.00  0.00    +0.044 C 
ATOM     19  C   LIG    1       23.491 -19.576   4.363  0.00  0.00    -0.050 A 
ATOM     20  C   LIG    1       24.524 -20.435   3.967  0.00  0.00    +0.005 A 
ATOM     21  C   LIG    1       24.708 -21.663   4.604  0.00  0.00    +0.029 A 
ATOM     22  C   LIG    1       23.852 -22.034   5.644  0.00  0.00    +0.109 A 
ATOM     23  C   LIG    1       22.816 -21.188   6.050  0.00  0.00    +0.029 A 
ATOM     24  C   LIG    1       22.643 -19.958   5.411  0.00  0.00    +0.005 A 
ENDBRANCH  15  22
ENDBRANCH   1  15
TORSDOF 3
ENDMDL
MODEL 7
REMARK VINA RESULT:      -9.2      3.651      6.270
REMARK  Name = *****
REMARK                            x       y       z     vdW  Elec       q    Type
REMARK                         _______ _______ _______ _____ _____    ______ ____
ROOT
ATOM      1  N   LIG    1       25.223 -22.707   7.798  0.00  0.00    -0.168 N 
ATOM      2  H   LIG    1       24.796 -22.910   8.695  0.00  0.00    +0.178 HD
ATOM      3  C   LIG    1       26.462 -22.077   7.863  0.00  0.00    +0.333 C 
ATOM      4  N   LIG    1       27.156 -21.944   6.679  0.00  0.00    -0.231 N 
ATOM      5  H   LIG    1       26.833 -22.497   5.884  0.00  0.00    +0.171 HD
ATOM      6  O   LIG    1       26.848 -21.691   8.957  0.00  0.00    -0.250 OA
ENDROOT
BRANCH   4   7
ATOM      7  N   LIG    1       28.456 -21.421   6.664  0.00  0.00    -0.225 NA
ATOM      8  C   LIG    1       28.500 -20.023   6.225  0.00  0.00    +0.109 C 
ATOM      9  C   LIG    1       29.917 -19.635   6.626  0.00  0.00    +0.009 C 
ATOM     10  C   LIG    1       30.091 -20.317   7.984  0.00  0.00    +0.009 C 
ATOM     11  C   LIG    1       29.798 -19.206   8.989  0.00  0.00    +0.005 C 
ATOM     12  C   LIG    1       30.409 -17.975   8.338  0.00  0.00    +0.001 C 
ATOM     13  C   LIG    1       30.132 -18.140   6.845  0.00  0.00    +0.005 C 
ATOM     14  C   LIG    1       29.080 -21.461   7.997  0.00  0.00    +0.109 C 
ENDBRANCH   4   7
BRANCH   1  15
ATOM     15  S   LIG    1       24.433 -23.307   6.480  0.00  0.00    +0.076 S 
ATOM     16  O   LIG    1       25.410 -23.951   5.627  0.00  0.00    -0.150 OA
ATOM     17  O   LIG    1       23.262 -24.003   6.961  0.00  0.00    -0.150 OA
BRANCH  15  22
ATOM     18  C   LIG    1       22.795 -18.133   3.767  0.00  0.00    +0.044 C 
ATOM     19  C   LIG    1       23.131 -19.450   4.407  0.00  0.00    -0.050 A 
ATOM     20  C   LIG    1       24.029 -20.325   3.783  0.00  0.00    +0.005 A 
ATOM     21  C   LIG    1       24.404 -21.517   4.404  0.00  0.00    +0.029 A 
ATOM     22  C   LIG    1       23.877 -21.835   5.659  0.00  0.00    +0.109 A 
ATOM     23  C   LIG    1       22.981 -20.973   6.294  0.00  0.00    +0.029 A 
ATOM     24  C   LIG    1       22.614 -19.779   5.668  0.00  0.00    +0.005 A 
ENDBRANCH  15  22
ENDBRANCH   1  15
TORSDOF 3
ENDMDL
MODEL 8
REMARK VINA RESULT:      -9.1      2.490      6.727
REMARK  Name = *****
REMARK                            x       y       z     vdW  Elec       q    Type
REMARK                         _______ _______ _______ _____ _____    ______ ____
ROOT
ATOM      1  N   LIG    1       25.351 -20.689   7.665  0.00  0.00    -0.168 N 
ATOM      2  H   LIG    1       24.860 -20.651   8.551  0.00  0.00    +0.178 HD
ATOM      3  C   LIG    1       26.720 -20.447   7.739  0.00  0.00    +0.333 C 
ATOM      4  N   LIG    1       27.452 -20.663   6.590  0.00  0.00    -0.231 N 
ATOM      5  H   LIG    1       26.999 -21.185   5.839  0.00  0.00    +0.171 HD
ATOM      6  O   LIG    1       27.175 -20.066   8.807  0.00  0.00    -0.250 OA
ENDROOT
BRANCH   4   7
ATOM      7  N   LIG    1       28.849 -20.550   6.598  0.00  0.00    -0.225 NA
ATOM      8  C   LIG    1       29.305 -19.158   6.665  0.00  0.00    +0.109 C 
ATOM      9  C   LIG    1       30.778 -19.349   7.000  0.00  0.00    +0.009 C 
ATOM     10  C   LIG    1       30.757 -20.500   8.008  0.00  0.00    +0.009 C 
ATOM     11  C   LIG    1       30.826 -19.798   9.362  0.00  0.00    +0.005 C 
ATOM     12  C   LIG    1       31.769 -18.633   9.106  0.00  0.00    +0.001 C 
ATOM     13  C   LIG    1       31.436 -18.159   7.693  0.00  0.00    +0.005 C 
ATOM     14  C   LIG    1       29.450 -21.244   7.749  0.00  0.00    +0.109 C 
ENDBRANCH   4   7
BRANCH   1  15
ATOM     15  S   LIG    1       24.453 -21.180   6.372  0.00  0.00    +0.076 S 
ATOM     16  O   LIG    1       23.074 -20.813   6.618  0.00  0.00    -0.150 OA
ATOM     17  O   LIG    1       25.154 -20.762   5.179  0.00  0.00    -0.150 OA
BRANCH  15  22
ATOM     18  C   LIG    1       24.929 -27.229   6.394  0.00  0.00    +0.044 C 
ATOM     19  C   LIG    1       24.799 -25.734   6.471  0.00  0.00    -0.050 A 
ATOM     20  C   LIG    1       25.945 -24.932   6.532  0.00  0.00    +0.005 A 
ATOM     21  C   LIG    1       25.837 -23.540   6.530  0.00  0.00    +0.029 A 
ATOM     22  C   LIG    1       24.573 -22.948   6.467  0.00  0.00    +0.109 A 
ATOM     23  C   LIG    1       23.420 -23.735   6.407  0.00  0.00    +0.029 A 
ATOM     24  C   LIG    1       23.538 -25.127   6.404  0.00  0.00    +0.005 A 
ENDBRANCH  15  22
ENDBRANCH   1  15
TORSDOF 3
ENDMDL
MODEL 9
REMARK VINA RESULT:      -9.0      2.410      7.058
REMARK  Name = *****
REMARK                            x       y       z     vdW  Elec       q    Type
REMARK                         _______ _______ _______ _____ _____    ______ ____
ROOT
ATOM      1  N   LIG    1       24.019 -26.090   6.115  0.00  0.00    -0.168 N 
ATOM      2  H   LIG    1       23.127 -26.564   6.204  0.00  0.00    +0.178 HD
ATOM      3  C   LIG    1       24.006 -24.741   6.459  0.00  0.00    +0.333 C 
ATOM      4  N   LIG    1       25.228 -24.105   6.524  0.00  0.00    -0.231 N 
ATOM      5  H   LIG    1       26.061 -24.694   6.535  0.00  0.00    +0.171 HD
ATOM      6  O   LIG    1       22.923 -24.220   6.680  0.00  0.00    -0.250 OA
ENDROOT
BRANCH   4   7
ATOM      7  N   LIG    1       25.322 -22.778   6.966  0.00  0.00    -0.225 NA
ATOM      8  C   LIG    1       26.582 -22.501   7.664  0.00  0.00    +0.109 C 
ATOM      9  C   LIG    1       26.558 -20.979   7.716  0.00  0.00    +0.009 C 
ATOM     10  C   LIG    1       26.010 -20.595   6.340  0.00  0.00    +0.009 C 
ATOM     11  C   LIG    1       27.261 -20.272   5.527  0.00  0.00    +0.005 C 
ATOM     12  C   LIG    1       28.166 -19.581   6.536  0.00  0.00    +0.001 C 
ATOM     13  C   LIG    1       27.930 -20.323   7.850  0.00  0.00    +0.005 C 
ATOM     14  C   LIG    1       25.240 -21.819   5.852  0.00  0.00    +0.109 C 
ENDBRANCH   4   7
BRANCH   1  15
ATOM     15  S   LIG    1       25.304 -27.052   5.740  0.00  0.00    +0.076 S 
ATOM     16  O   LIG    1       24.919 -27.905   4.635  0.00  0.00    -0.150 OA
ATOM     17  O   LIG    1       26.472 -26.203   5.680  0.00  0.00    -0.150 OA
BRANCH  15  22
ATOM     18  C   LIG    1       25.600 -30.372  10.810  0.00  0.00    +0.044 C 
ATOM     19  C   LIG    1       25.588 -29.599   9.522  0.00  0.00    -0.050 A 
ATOM     20  C   LIG    1       24.641 -29.895   8.533  0.00  0.00    +0.005 A 
ATOM     21  C   LIG    1       24.574 -29.134   7.365  0.00  0.00    +0.029 A 
ATOM     22  C   LIG    1       25.460 -28.069   7.186  0.00  0.00    +0.109 A 
ATOM     23  C   LIG    1       26.410 -27.761   8.162  0.00  0.00    +0.029 A 
ATOM     24  C   LIG    1       26.467 -28.524   9.331  0.00  0.00    +0.005 A 
ENDBRANCH  15  22
ENDBRANCH   1  15
TORSDOF 3
ENDMDL
