MODEL 1
REMARK VINA RESULT:      11.8      0.000      0.000
REMARK  Name = *****
REMARK                            x       y       z     vdW  Elec       q    Type
REMARK                         _______ _______ _______ _____ _____    ______ ____
ROOT
ATOM      1  C   LIG    1       27.387 -26.934  15.500  0.00  0.00    +0.127 C 
ATOM      2  C   LIG    1       28.627 -27.597  14.836  0.00  0.00    +0.015 C 
ATOM      3  C   LIG    1       30.005 -27.055  15.227  0.00  0.00    +0.010 C 
ATOM      4  C   LIG    1       28.611 -29.108  15.146  0.00  0.00    +0.011 C 
ATOM      5  C   LIG    1       27.197 -29.662  15.283  0.00  0.00    +0.065 C 
ATOM      6  C   LIG    1       26.183 -28.823  14.490  0.00  0.00    +0.174 C 
ATOM      7  O   LIG    1       26.635 -28.801  13.137  0.00  0.00    -0.345 OA
ATOM      8  C   LIG    1       25.727 -28.203  12.201  0.00  0.00    +0.129 C 
ATOM      9  C   LIG    1       26.535 -28.042  10.892  0.00  0.00    +0.059 C 
ATOM     10  C   LIG    1       25.886 -28.223   9.540  0.00  0.00    -0.023 C 
ATOM     11  C   LIG    1       25.787 -29.397   8.872  0.00  0.00    -0.048 C 
ATOM     12  C   LIG    1       26.119 -30.693   9.558  0.00  0.00    +0.041 C 
ATOM     13  C   LIG    1       25.269 -29.453   7.421  0.00  0.00    +0.153 C 
ATOM     14  C   LIG    1       23.981 -30.338   7.176  0.00  0.00    +0.042 C 
ATOM     15  C   LIG    1       24.185 -31.827   6.843  0.00  0.00    +0.014 C 
ATOM     16  C   LIG    1       22.995 -30.265   8.322  0.00  0.00    -0.021 C 
ATOM     17  C   LIG    1       21.668 -30.424   8.224  0.00  0.00    -0.004 C 
ATOM     18  C   LIG    1       20.838 -30.555   9.397  0.00  0.00    +0.004 C 
ATOM     19  C   LIG    1       21.070 -31.417  10.405  0.00  0.00    -0.009 C 
ATOM     20  C   LIG    1       20.157 -31.652  11.578  0.00  0.00    +0.134 C 
ATOM     21  C   LIG    1       20.363 -33.171  11.676  0.00  0.00    +0.188 C 
ATOM     22  C   LIG    1       19.837 -33.785  12.973  0.00  0.00    +0.172 C 
ATOM     23  C   LIG    1       20.209 -32.999  14.198  0.00  0.00    -0.045 C 
ATOM     24  C   LIG    1       20.144 -33.748  15.498  0.00  0.00    +0.041 C 
ATOM     25  C   LIG    1       20.546 -31.699  14.141  0.00  0.00    -0.008 C 
ATOM     26  O   LIG    1       21.769 -33.390  11.494  0.00  0.00    -0.366 OA
ATOM     27  C   LIG    1       20.487 -30.859  12.881  0.00  0.00    +0.159 C 
ATOM     28  C   LIG    1       21.615 -29.805  12.758  0.00  0.00    +0.318 C 
ATOM     29  O   LIG    1       21.488 -28.782  12.135  0.00  0.00    -0.250 OA
ATOM     30  O   LIG    1       22.738 -30.120  13.488  0.00  0.00    -0.461 OA
ATOM     31  C   LIG    1       23.800 -29.117  13.503  0.00  0.00    +0.184 C 
ATOM     32  C   LIG    1       22.166 -32.451  10.477  0.00  0.00    +0.194 C 
ATOM     33  C   LIG    1       24.505 -29.100  12.149  0.00  0.00    +0.076 C 
ATOM     34  C   LIG    1       24.805 -29.522  14.591  0.00  0.00    +0.109 C 
ATOM     35  O   LIG    1       26.131 -27.490  15.018  0.00  0.00    -0.345 OA
ENDROOT
BRANCH   1  36
ATOM     36  C   LIG    1       27.302 -25.371  15.427  0.00  0.00    +0.015 C 
ATOM     37  C   LIG    1       25.823 -24.936  15.483  0.00  0.00    +0.010 C 
BRANCH  36  39
ATOM     38  C   LIG    1       27.533 -25.384  12.856  0.00  0.00    +0.004 C 
ATOM     39  C   LIG    1       27.991 -24.770  14.181  0.00  0.00    +0.002 C 
ENDBRANCH  36  39
ENDBRANCH   1  36
BRANCH  20  40
ATOM     40  O   LIG    1       18.794 -31.399  11.199  0.00  0.00    -0.380 OA
ATOM     41  H   LIG    1       18.824 -31.024  10.296  0.00  0.00    +0.211 HD
ENDBRANCH  20  40
BRANCH  22  42
ATOM     42  O   LIG    1       18.406 -33.823  12.934  0.00  0.00    -0.385 OA
ATOM     43  H   LIG    1       18.162 -34.368  12.163  0.00  0.00    +0.210 HD
ENDBRANCH  22  42
BRANCH  13  44
ATOM     44  O   LIG    1       26.336 -29.807   6.507  0.00  0.00    -0.343 OA
BRANCH  44  45
ATOM     45  C   LIG    1       26.713 -28.730   5.613  0.00  0.00    +0.254 C 
ATOM     46  O   LIG    1       27.651 -27.849   6.235  0.00  0.00    -0.346 OA
ATOM     47  C   LIG    1       28.072 -26.752   5.415  0.00  0.00    +0.150 C 
ATOM     48  C   LIG    1       28.923 -27.221   4.230  0.00  0.00    +0.040 C 
ATOM     49  C   LIG    1       26.848 -25.864   5.100  0.00  0.00    +0.179 C 
ATOM     50  C   LIG    1       25.784 -26.710   4.338  0.00  0.00    +0.154 C 
ATOM     51  C   LIG    1       25.450 -27.973   5.156  0.00  0.00    +0.095 C 
BRANCH  50  52
ATOM     52  O   LIG    1       26.281 -27.029   3.025  0.00  0.00    -0.377 OA
ATOM     53  C   LIG    1       25.625 -26.360   1.952  0.00  0.00    +0.194 C 
ENDBRANCH  50  52
BRANCH  49  54
ATOM     54  O   LIG    1       26.225 -25.369   6.318  0.00  0.00    -0.343 OA
BRANCH  54  55
ATOM     55  C   LIG    1       25.739 -24.011   6.314  0.00  0.00    +0.254 C 
ATOM     56  O   LIG    1       26.686 -23.206   7.036  0.00  0.00    -0.346 OA
ATOM     57  C   LIG    1       26.313 -21.826   7.206  0.00  0.00    +0.149 C 
ATOM     58  C   LIG    1       26.294 -21.032   5.900  0.00  0.00    +0.040 C 
ATOM     59  C   LIG    1       25.010 -21.766   8.016  0.00  0.00    +0.172 C 
ATOM     60  C   LIG    1       23.887 -22.557   7.331  0.00  0.00    +0.153 C 
ATOM     61  C   LIG    1       24.360 -23.966   6.978  0.00  0.00    +0.095 C 
BRANCH  59  62
ATOM     62  O   LIG    1       25.253 -22.349   9.309  0.00  0.00    -0.387 OA
ATOM     63  H   LIG    1       24.465 -22.149   9.855  0.00  0.00    +0.210 HD
ENDBRANCH  59  62
BRANCH  60  64
ATOM     64  O   LIG    1       23.383 -21.950   6.134  0.00  0.00    -0.377 OA
ATOM     65  C   LIG    1       21.984 -22.133   5.942  0.00  0.00    +0.194 C 
ENDBRANCH  60  64
ENDBRANCH  54  55
ENDBRANCH  49  54
ENDBRANCH  44  45
ENDBRANCH  13  44
TORSDOF 11
ENDMDL
