MODEL 1
REMARK VINA RESULT:       9.1      0.000      0.000
REMARK  Name = *****
REMARK                            x       y       z     vdW  Elec       q    Type
REMARK                         _______ _______ _______ _____ _____    ______ ____
ROOT
ATOM      1  C   LIG    1       23.480 -16.810   3.839  0.00  0.00    +0.151 C 
ENDROOT
BRANCH   1   2
ATOM      2  O   LIG    1       24.643 -17.587   3.580  0.00  0.00    -0.389 OA
ATOM      3  H   LIG    1       24.591 -18.356   4.194  0.00  0.00    +0.210 HD
ENDBRANCH   1   2
BRANCH   1   4
ATOM      4  C   LIG    1       22.324 -17.738   4.276  0.00  0.00    +0.142 C 
BRANCH   4   5
ATOM      5  N   LIG    1       22.488 -19.249   4.090  0.00  0.00    -0.174 NA
BRANCH   5   6
ATOM      6  S   LIG    1       22.730 -20.315   5.469  0.00  0.00    +0.061 S 
ATOM      7  O   LIG    1       21.993 -21.571   5.230  0.00  0.00    -0.153 OA
ATOM      8  O   LIG    1       22.342 -19.594   6.658  0.00  0.00    -0.153 OA
BRANCH   6   9
ATOM      9  C   LIG    1       24.442 -20.630   5.587  0.00  0.00    +0.106 A 
ATOM     10  C   LIG    1       25.357 -20.082   4.691  0.00  0.00    +0.030 A 
ATOM     11  C   LIG    1       26.714 -20.037   4.990  0.00  0.00    +0.024 A 
ATOM     12  C   LIG    1       27.199 -20.637   6.145  0.00  0.00    +0.025 A 
ATOM     13  C   LIG    1       26.301 -21.337   6.960  0.00  0.00    +0.024 A 
ATOM     14  C   LIG    1       24.919 -21.291   6.719  0.00  0.00    +0.030 A 
BRANCH  12  15
ATOM     15  N   LIG    1       28.582 -20.743   6.316  0.00  0.00    -0.358 N 
ATOM     16  H   LIG    1       28.993 -21.531   5.823  0.00  0.00    +0.142 HD
ATOM     17  H   LIG    1       29.091 -19.882   6.160  0.00  0.00    +0.142 HD
ENDBRANCH  12  15
ENDBRANCH   6   9
ENDBRANCH   5   6
BRANCH   5  18
ATOM     18  C   LIG    1       21.558 -19.718   2.956  0.00  0.00    +0.112 C 
BRANCH  18  20
ATOM     19  C   LIG    1       19.601 -19.284   4.519  0.00  0.00    +0.008 C 
ATOM     20  C   LIG    1       20.082 -19.308   3.064  0.00  0.00    -0.002 C 
ATOM     21  C   LIG    1       19.883 -17.938   2.422  0.00  0.00    +0.008 C 
ENDBRANCH  18  20
ENDBRANCH   5  18
ENDBRANCH   4   5
ENDBRANCH   1   4
BRANCH   1  22
ATOM     22  C   LIG    1       23.929 -15.848   4.969  0.00  0.00    +0.110 C 
BRANCH  22  23
ATOM     23  N   LIG    1       25.388 -15.780   4.924  0.00  0.00    -0.275 N 
ATOM     24  H   LIG    1       25.889 -16.025   5.739  0.00  0.00    +0.152 HD
ATOM     25  C   LIG    1       26.100 -15.821   3.772  0.00  0.00    +0.401 C 
ATOM     26  O   LIG    1       25.609 -15.714   2.633  0.00  0.00    -0.227 OA
BRANCH  25  27
ATOM     27  O   LIG    1       27.429 -15.973   4.004  0.00  0.00    -0.444 OA
BRANCH  27  28
ATOM     28  C   LIG    1       28.227 -14.949   3.393  0.00  0.00    +0.212 C 
ATOM     29  C   LIG    1       28.816 -14.040   4.448  0.00  0.00    +0.090 C 
ATOM     30  C   LIG    1       29.022 -12.740   3.705  0.00  0.00    +0.257 C 
ATOM     31  O   LIG    1       28.835 -11.674   4.633  0.00  0.00    -0.351 OA
ATOM     32  C   LIG    1       28.385 -12.217   5.877  0.00  0.00    +0.163 C 
ATOM     33  O   LIG    1       28.050 -12.680   2.660  0.00  0.00    -0.347 OA
ATOM     34  C   LIG    1       27.929 -13.635   5.605  0.00  0.00    +0.040 C 
ATOM     35  C   LIG    1       27.491 -13.987   2.467  0.00  0.00    +0.208 C 
ENDBRANCH  27  28
ENDBRANCH  25  27
ENDBRANCH  22  23
BRANCH  22  36
ATOM     36  C   LIG    1       23.265 -14.430   4.835  0.00  0.00    +0.060 C 
BRANCH  36  37
ATOM     37  C   LIG    1       23.884 -13.385   3.917  0.00  0.00    -0.045 A 
ATOM     38  C   LIG    1       25.012 -12.669   4.342  0.00  0.00    +0.003 A 
ATOM     39  C   LIG    1       25.601 -11.701   3.522  0.00  0.00    +0.000 A 
ATOM     40  C   LIG    1       25.084 -11.447   2.254  0.00  0.00    +0.000 A 
ATOM     41  C   LIG    1       23.965 -12.146   1.812  0.00  0.00    +0.000 A 
ATOM     42  C   LIG    1       23.354 -13.093   2.645  0.00  0.00    +0.003 A 
ENDBRANCH  36  37
ENDBRANCH  22  36
ENDBRANCH   1  22
TORSDOF 14
ENDMDL
MODEL 2
REMARK VINA RESULT:       9.3      2.033      5.512
REMARK  Name = *****
REMARK                            x       y       z     vdW  Elec       q    Type
REMARK                         _______ _______ _______ _____ _____    ______ ____
ROOT
ATOM      1  C   LIG    1       24.658 -18.121   3.798  0.00  0.00    +0.151 C 
ENDROOT
BRANCH   1   2
ATOM      2  O   LIG    1       23.911 -18.246   2.594  0.00  0.00    -0.389 OA
ATOM      3  H   LIG    1       23.519 -19.150   2.616  0.00  0.00    +0.210 HD
ENDBRANCH   1   2
BRANCH   1   4
ATOM      4  C   LIG    1       23.952 -18.903   4.928  0.00  0.00    +0.142 C 
BRANCH   4   5
ATOM      5  N   LIG    1       22.422 -18.900   4.975  0.00  0.00    -0.174 NA
BRANCH   5   6
ATOM      6  S   LIG    1       21.480 -17.884   3.891  0.00  0.00    +0.061 S 
ATOM      7  O   LIG    1       20.057 -17.983   4.268  0.00  0.00    -0.153 OA
ATOM      8  O   LIG    1       21.784 -18.282   2.537  0.00  0.00    -0.153 OA
BRANCH   6   9
ATOM      9  C   LIG    1       22.047 -16.246   4.091  0.00  0.00    +0.106 A 
ATOM     10  C   LIG    1       22.420 -15.741   5.335  0.00  0.00    +0.030 A 
ATOM     11  C   LIG    1       23.192 -14.589   5.438  0.00  0.00    +0.024 A 
ATOM     12  C   LIG    1       23.518 -13.858   4.303  0.00  0.00    +0.025 A 
ATOM     13  C   LIG    1       22.999 -14.273   3.071  0.00  0.00    +0.024 A 
ATOM     14  C   LIG    1       22.312 -15.491   2.949  0.00  0.00    +0.030 A 
BRANCH  12  15
ATOM     15  N   LIG    1       24.125 -12.610   4.461  0.00  0.00    -0.358 N 
ATOM     16  H   LIG    1       23.487 -11.884   4.776  0.00  0.00    +0.142 HD
ATOM     17  H   LIG    1       24.985 -12.626   4.997  0.00  0.00    +0.142 HD
ENDBRANCH  12  15
ENDBRANCH   6   9
ENDBRANCH   5   6
BRANCH   5  18
ATOM     18  C   LIG    1       21.927 -20.331   5.253  0.00  0.00    +0.112 C 
BRANCH  18  20
ATOM     19  C   LIG    1       23.303 -21.570   3.512  0.00  0.00    +0.008 C 
ATOM     20  C   LIG    1       22.927 -21.467   4.993  0.00  0.00    -0.002 C 
ATOM     21  C   LIG    1       24.179 -21.250   5.839  0.00  0.00    +0.008 C 
ENDBRANCH  18  20
ENDBRANCH   5  18
ENDBRANCH   4   5
ENDBRANCH   1   4
BRANCH   1  22
ATOM     22  C   LIG    1       26.041 -18.722   3.433  0.00  0.00    +0.110 C 
BRANCH  22  23
ATOM     23  N   LIG    1       27.051 -17.733   3.799  0.00  0.00    -0.275 N 
ATOM     24  H   LIG    1       27.969 -18.051   3.976  0.00  0.00    +0.152 HD
ATOM     25  C   LIG    1       26.941 -16.414   3.510  0.00  0.00    +0.401 C 
ATOM     26  O   LIG    1       25.905 -15.865   3.094  0.00  0.00    -0.227 OA
BRANCH  25  27
ATOM     27  O   LIG    1       28.100 -15.746   3.747  0.00  0.00    -0.444 OA
BRANCH  27  28
ATOM     28  C   LIG    1       28.072 -14.389   3.283  0.00  0.00    +0.212 C 
ATOM     29  C   LIG    1       28.055 -13.432   4.454  0.00  0.00    +0.090 C 
ATOM     30  C   LIG    1       27.381 -12.204   3.883  0.00  0.00    +0.257 C 
ATOM     31  O   LIG    1       26.646 -11.583   4.936  0.00  0.00    -0.351 OA
ATOM     32  C   LIG    1       26.699 -12.421   6.094  0.00  0.00    +0.163 C 
ATOM     33  O   LIG    1       26.507 -12.636   2.839  0.00  0.00    -0.347 OA
ATOM     34  C   LIG    1       27.180 -13.782   5.638  0.00  0.00    +0.040 C 
ATOM     35  C   LIG    1       26.845 -13.981   2.474  0.00  0.00    +0.208 C 
ENDBRANCH  27  28
ENDBRANCH  25  27
ENDBRANCH  22  23
BRANCH  22  36
ATOM     36  C   LIG    1       26.285 -20.107   4.133  0.00  0.00    +0.060 C 
BRANCH  36  37
ATOM     37  C   LIG    1       27.396 -20.252   5.165  0.00  0.00    -0.045 A 
ATOM     38  C   LIG    1       28.434 -19.308   5.203  0.00  0.00    +0.003 A 
ATOM     39  C   LIG    1       29.469 -19.415   6.137  0.00  0.00    +0.000 A 
ATOM     40  C   LIG    1       29.475 -20.456   7.062  0.00  0.00    +0.000 A 
ATOM     41  C   LIG    1       28.455 -21.403   7.041  0.00  0.00    +0.000 A 
ATOM     42  C   LIG    1       27.434 -21.316   6.085  0.00  0.00    +0.003 A 
ENDBRANCH  36  37
ENDBRANCH  22  36
ENDBRANCH   1  22
TORSDOF 14
ENDMDL
MODEL 3
REMARK VINA RESULT:      10.1      1.609      2.918
REMARK  Name = *****
REMARK                            x       y       z     vdW  Elec       q    Type
REMARK                         _______ _______ _______ _____ _____    ______ ____
ROOT
ATOM      1  C   LIG    1       25.208 -17.669   3.524  0.00  0.00    +0.151 C 
ENDROOT
BRANCH   1   2
ATOM      2  O   LIG    1       25.942 -17.808   4.734  0.00  0.00    -0.389 OA
ATOM      3  H   LIG    1       26.244 -18.747   4.756  0.00  0.00    +0.210 HD
ENDBRANCH   1   2
BRANCH   1   4
ATOM      4  C   LIG    1       23.701 -17.859   3.807  0.00  0.00    +0.142 C 
BRANCH   4   5
ATOM      5  N   LIG    1       23.116 -19.272   3.738  0.00  0.00    -0.174 NA
BRANCH   5   6
ATOM      6  S   LIG    1       23.119 -20.329   5.145  0.00  0.00    +0.061 S 
ATOM      7  O   LIG    1       22.400 -21.572   4.805  0.00  0.00    -0.153 OA
ATOM      8  O   LIG    1       22.569 -19.588   6.256  0.00  0.00    -0.153 OA
BRANCH   6   9
ATOM      9  C   LIG    1       24.785 -20.679   5.527  0.00  0.00    +0.106 A 
ATOM     10  C   LIG    1       25.696 -21.084   4.554  0.00  0.00    +0.030 A 
ATOM     11  C   LIG    1       27.066 -21.014   4.782  0.00  0.00    +0.024 A 
ATOM     12  C   LIG    1       27.552 -20.637   6.027  0.00  0.00    +0.025 A 
ATOM     13  C   LIG    1       26.635 -20.395   7.056  0.00  0.00    +0.024 A 
ATOM     14  C   LIG    1       25.255 -20.359   6.801  0.00  0.00    +0.030 A 
BRANCH  12  15
ATOM     15  N   LIG    1       28.921 -20.765   6.278  0.00  0.00    -0.358 N 
ATOM     16  H   LIG    1       29.382 -21.451   5.687  0.00  0.00    +0.142 HD
ATOM     17  H   LIG    1       29.425 -19.886   6.313  0.00  0.00    +0.142 HD
ENDBRANCH  12  15
ENDBRANCH   6   9
ENDBRANCH   5   6
BRANCH   5  18
ATOM     18  C   LIG    1       21.865 -19.253   2.840  0.00  0.00    +0.112 C 
BRANCH  18  20
ATOM     19  C   LIG    1       20.068 -17.466   2.646  0.00  0.00    +0.008 C 
ATOM     20  C   LIG    1       20.587 -18.661   3.453  0.00  0.00    -0.002 C 
ATOM     21  C   LIG    1       19.514 -19.742   3.541  0.00  0.00    +0.008 C 
ENDBRANCH  18  20
ENDBRANCH   5  18
ENDBRANCH   4   5
ENDBRANCH   1   4
BRANCH   1  22
ATOM     22  C   LIG    1       25.548 -16.230   3.055  0.00  0.00    +0.110 C 
BRANCH  22  23
ATOM     23  N   LIG    1       24.577 -15.333   3.678  0.00  0.00    -0.275 N 
ATOM     24  H   LIG    1       24.536 -15.309   4.665  0.00  0.00    +0.152 HD
ATOM     25  C   LIG    1       24.046 -14.258   3.049  0.00  0.00    +0.401 C 
ATOM     26  O   LIG    1       24.155 -14.026   1.832  0.00  0.00    -0.227 OA
BRANCH  25  27
ATOM     27  O   LIG    1       23.354 -13.462   3.906  0.00  0.00    -0.444 OA
BRANCH  27  28
ATOM     28  C   LIG    1       24.156 -12.414   4.470  0.00  0.00    +0.212 C 
ATOM     29  C   LIG    1       25.479 -12.965   4.952  0.00  0.00    +0.090 C 
ATOM     30  C   LIG    1       25.878 -11.996   6.042  0.00  0.00    +0.257 C 
ATOM     31  O   LIG    1       26.604 -12.726   7.028  0.00  0.00    -0.351 OA
ATOM     32  C   LIG    1       26.565 -14.116   6.697  0.00  0.00    +0.163 C 
ATOM     33  O   LIG    1       24.679 -11.450   6.595  0.00  0.00    -0.347 OA
ATOM     34  C   LIG    1       25.470 -14.298   5.667  0.00  0.00    +0.040 C 
ATOM     35  C   LIG    1       23.587 -11.726   5.706  0.00  0.00    +0.208 C 
ENDBRANCH  27  28
ENDBRANCH  25  27
ENDBRANCH  22  23
BRANCH  22  36
ATOM     36  C   LIG    1       27.029 -15.832   3.397  0.00  0.00    +0.060 C 
BRANCH  36  37
ATOM     37  C   LIG    1       27.470 -14.379   3.287  0.00  0.00    -0.045 A 
ATOM     38  C   LIG    1       26.777 -13.507   2.434  0.00  0.00    +0.003 A 
ATOM     39  C   LIG    1       27.160 -12.168   2.309  0.00  0.00    +0.000 A 
ATOM     40  C   LIG    1       28.230 -11.672   3.051  0.00  0.00    +0.000 A 
ATOM     41  C   LIG    1       28.931 -12.520   3.903  0.00  0.00    +0.000 A 
ATOM     42  C   LIG    1       28.569 -13.870   4.004  0.00  0.00    +0.003 A 
ENDBRANCH  36  37
ENDBRANCH  22  36
ENDBRANCH   1  22
TORSDOF 14
ENDMDL
MODEL 4
REMARK VINA RESULT:      10.4      1.786      3.764
REMARK  Name = *****
REMARK                            x       y       z     vdW  Elec       q    Type
REMARK                         _______ _______ _______ _____ _____    ______ ____
ROOT
ATOM      1  C   LIG    1       25.459 -18.026   3.280  0.00  0.00    +0.151 C 
ENDROOT
BRANCH   1   2
ATOM      2  O   LIG    1       26.535 -18.662   3.959  0.00  0.00    -0.389 OA
ATOM      3  H   LIG    1       27.349 -18.182   3.677  0.00  0.00    +0.210 HD
ENDBRANCH   1   2
BRANCH   1   4
ATOM      4  C   LIG    1       24.194 -18.062   4.167  0.00  0.00    +0.142 C 
BRANCH   4   5
ATOM      5  N   LIG    1       23.004 -18.911   3.711  0.00  0.00    -0.174 NA
BRANCH   5   6
ATOM      6  S   LIG    1       22.901 -20.622   4.110  0.00  0.00    +0.061 S 
ATOM      7  O   LIG    1       22.835 -21.397   2.855  0.00  0.00    -0.153 OA
ATOM      8  O   LIG    1       21.779 -20.801   5.000  0.00  0.00    -0.153 OA
BRANCH   6   9
ATOM      9  C   LIG    1       24.343 -21.035   5.001  0.00  0.00    +0.106 A 
ATOM     10  C   LIG    1       25.501 -21.480   4.366  0.00  0.00    +0.030 A 
ATOM     11  C   LIG    1       26.728 -21.463   5.019  0.00  0.00    +0.024 A 
ATOM     12  C   LIG    1       26.806 -21.100   6.357  0.00  0.00    +0.025 A 
ATOM     13  C   LIG    1       25.618 -20.816   7.041  0.00  0.00    +0.024 A 
ATOM     14  C   LIG    1       24.394 -20.728   6.360  0.00  0.00    +0.030 A 
BRANCH  12  15
ATOM     15  N   LIG    1       28.017 -21.279   7.032  0.00  0.00    -0.358 N 
ATOM     16  H   LIG    1       28.692 -20.539   6.859  0.00  0.00    +0.142 HD
ATOM     17  H   LIG    1       27.921 -21.490   8.018  0.00  0.00    +0.142 HD
ENDBRANCH  12  15
ENDBRANCH   6   9
ENDBRANCH   5   6
BRANCH   5  18
ATOM     18  C   LIG    1       21.723 -18.062   3.792  0.00  0.00    +0.112 C 
BRANCH  18  20
ATOM     19  C   LIG    1       19.420 -19.096   3.497  0.00  0.00    +0.008 C 
ATOM     20  C   LIG    1       20.602 -18.412   2.802  0.00  0.00    -0.002 C 
ATOM     21  C   LIG    1       20.133 -17.146   2.092  0.00  0.00    +0.008 C 
ENDBRANCH  18  20
ENDBRANCH   5  18
ENDBRANCH   4   5
ENDBRANCH   1   4
BRANCH   1  22
ATOM     22  C   LIG    1       25.978 -16.584   3.044  0.00  0.00    +0.110 C 
BRANCH  22  23
ATOM     23  N   LIG    1       25.235 -15.705   3.945  0.00  0.00    -0.275 N 
ATOM     24  H   LIG    1       25.405 -15.785   4.914  0.00  0.00    +0.152 HD
ATOM     25  C   LIG    1       24.671 -14.539   3.549  0.00  0.00    +0.401 C 
ATOM     26  O   LIG    1       24.539 -14.184   2.364  0.00  0.00    -0.227 OA
BRANCH  25  27
ATOM     27  O   LIG    1       24.241 -13.803   4.606  0.00  0.00    -0.444 OA
BRANCH  27  28
ATOM     28  C   LIG    1       25.312 -13.180   5.330  0.00  0.00    +0.212 C 
ATOM     29  C   LIG    1       26.257 -12.485   4.377  0.00  0.00    +0.090 C 
ATOM     30  C   LIG    1       27.567 -12.484   5.132  0.00  0.00    +0.257 C 
ATOM     31  O   LIG    1       28.620 -12.583   4.176  0.00  0.00    -0.351 OA
ATOM     32  C   LIG    1       28.052 -12.789   2.880  0.00  0.00    +0.163 C 
ATOM     33  O   LIG    1       27.565 -13.615   6.004  0.00  0.00    -0.347 OA
ATOM     34  C   LIG    1       26.608 -13.194   3.087  0.00  0.00    +0.040 C 
ATOM     35  C   LIG    1       26.225 -14.116   6.115  0.00  0.00    +0.208 C 
ENDBRANCH  27  28
ENDBRANCH  25  27
ENDBRANCH  22  23
BRANCH  22  36
ATOM     36  C   LIG    1       27.532 -16.474   3.256  0.00  0.00    +0.060 C 
BRANCH  36  37
ATOM     37  C   LIG    1       28.193 -17.198   4.421  0.00  0.00    -0.045 A 
ATOM     38  C   LIG    1       28.425 -18.579   4.338  0.00  0.00    +0.003 A 
ATOM     39  C   LIG    1       29.027 -19.272   5.393  0.00  0.00    +0.000 A 
ATOM     40  C   LIG    1       29.427 -18.593   6.541  0.00  0.00    +0.000 A 
ATOM     41  C   LIG    1       29.206 -17.222   6.644  0.00  0.00    +0.000 A 
ATOM     42  C   LIG    1       28.573 -16.532   5.602  0.00  0.00    +0.003 A 
ENDBRANCH  36  37
ENDBRANCH  22  36
ENDBRANCH   1  22
TORSDOF 14
ENDMDL
MODEL 5
REMARK VINA RESULT:      10.9      2.267      6.196
REMARK  Name = *****
REMARK                            x       y       z     vdW  Elec       q    Type
REMARK                         _______ _______ _______ _____ _____    ______ ____
ROOT
ATOM      1  C   LIG    1       24.043 -15.928   2.879  0.00  0.00    +0.151 C 
ENDROOT
BRANCH   1   2
ATOM      2  O   LIG    1       24.066 -14.700   2.162  0.00  0.00    -0.389 OA
ATOM      3  H   LIG    1       23.425 -14.812   1.421  0.00  0.00    +0.210 HD
ENDBRANCH   1   2
BRANCH   1   4
ATOM      4  C   LIG    1       25.328 -16.056   3.728  0.00  0.00    +0.142 C 
BRANCH   4   5
ATOM      5  N   LIG    1       26.398 -14.968   3.605  0.00  0.00    -0.174 NA
BRANCH   5   6
ATOM      6  S   LIG    1       27.961 -15.134   4.397  0.00  0.00    +0.061 S 
ATOM      7  O   LIG    1       27.917 -14.412   5.683  0.00  0.00    -0.153 OA
ATOM      8  O   LIG    1       28.974 -14.680   3.474  0.00  0.00    -0.153 OA
BRANCH   6   9
ATOM      9  C   LIG    1       28.227 -16.837   4.667  0.00  0.00    +0.106 A 
ATOM     10  C   LIG    1       29.224 -17.301   5.521  0.00  0.00    +0.030 A 
ATOM     11  C   LIG    1       29.203 -18.605   6.005  0.00  0.00    +0.024 A 
ATOM     12  C   LIG    1       28.244 -19.504   5.559  0.00  0.00    +0.025 A 
ATOM     13  C   LIG    1       27.345 -19.084   4.571  0.00  0.00    +0.024 A 
ATOM     14  C   LIG    1       27.295 -17.742   4.161  0.00  0.00    +0.030 A 
BRANCH  12  15
ATOM     15  N   LIG    1       28.369 -20.850   5.914  0.00  0.00    -0.358 N 
ATOM     16  H   LIG    1       29.255 -21.073   6.358  0.00  0.00    +0.142 HD
ATOM     17  H   LIG    1       27.577 -21.225   6.424  0.00  0.00    +0.142 HD
ENDBRANCH  12  15
ENDBRANCH   6   9
ENDBRANCH   5   6
BRANCH   5  18
ATOM     18  C   LIG    1       26.357 -14.384   2.181  0.00  0.00    +0.112 C 
BRANCH  18  20
ATOM     19  C   LIG    1       24.852 -12.350   2.419  0.00  0.00    +0.008 C 
ATOM     20  C   LIG    1       26.255 -12.856   2.067  0.00  0.00    -0.002 C 
ATOM     21  C   LIG    1       27.292 -12.204   2.976  0.00  0.00    +0.008 C 
ENDBRANCH  18  20
ENDBRANCH   5  18
ENDBRANCH   4   5
ENDBRANCH   1   4
BRANCH   1  22
ATOM     22  C   LIG    1       22.764 -15.819   3.749  0.00  0.00    +0.110 C 
BRANCH  22  23
ATOM     23  N   LIG    1       22.125 -17.133   3.743  0.00  0.00    -0.275 N 
ATOM     24  H   LIG    1       21.994 -17.580   2.872  0.00  0.00    +0.152 HD
ATOM     25  C   LIG    1       22.088 -17.948   4.824  0.00  0.00    +0.401 C 
ATOM     26  O   LIG    1       22.399 -17.605   5.979  0.00  0.00    -0.227 OA
BRANCH  25  27
ATOM     27  O   LIG    1       21.647 -19.192   4.505  0.00  0.00    -0.444 OA
BRANCH  27  28
ATOM     28  C   LIG    1       22.685 -20.043   3.997  0.00  0.00    +0.212 C 
ATOM     29  C   LIG    1       23.135 -21.016   5.063  0.00  0.00    +0.090 C 
ATOM     30  C   LIG    1       24.557 -21.332   4.660  0.00  0.00    +0.257 C 
ATOM     31  O   LIG    1       25.304 -21.572   5.851  0.00  0.00    -0.351 OA
ATOM     32  C   LIG    1       24.476 -21.286   6.981  0.00  0.00    +0.163 C 
ATOM     33  O   LIG    1       25.070 -20.199   3.958  0.00  0.00    -0.347 OA
ATOM     34  C   LIG    1       23.289 -20.495   6.476  0.00  0.00    +0.040 C 
ATOM     35  C   LIG    1       23.978 -19.350   3.581  0.00  0.00    +0.208 C 
ENDBRANCH  27  28
ENDBRANCH  25  27
ENDBRANCH  22  23
BRANCH  22  36
ATOM     36  C   LIG    1       23.082 -15.321   5.205  0.00  0.00    +0.060 C 
BRANCH  36  37
ATOM     37  C   LIG    1       23.727 -13.958   5.418  0.00  0.00    -0.045 A 
ATOM     38  C   LIG    1       25.047 -13.880   5.886  0.00  0.00    +0.003 A 
ATOM     39  C   LIG    1       25.665 -12.643   6.093  0.00  0.00    +0.000 A 
ATOM     40  C   LIG    1       24.981 -11.462   5.818  0.00  0.00    +0.000 A 
ATOM     41  C   LIG    1       23.670 -11.516   5.353  0.00  0.00    +0.000 A 
ATOM     42  C   LIG    1       23.038 -12.754   5.175  0.00  0.00    +0.003 A 
ENDBRANCH  36  37
ENDBRANCH  22  36
ENDBRANCH   1  22
TORSDOF 14
ENDMDL
