MODEL 1
REMARK VINA RESULT:      -8.9      0.000      0.000
REMARK  Name = *****
REMARK                            x       y       z     vdW  Elec       q    Type
REMARK                         _______ _______ _______ _____ _____    ______ ____
ROOT
ATOM      1  P   LIG    1       25.410 -21.496   7.390  0.00  0.00    +0.216 P 
ATOM      2  O   LIG    1       24.024 -21.109   7.813  0.00  0.00    -0.290 OA
ENDROOT
BRANCH   1   3
ATOM      3  O   LIG    1       25.660 -21.291   5.799  0.00  0.00    -0.286 OA
BRANCH   3   4
ATOM      4  C   LIG    1       24.702 -20.521   5.075  0.00  0.00    +0.320 C 
BRANCH   4   5
ATOM      5  C   LIG    1       25.334 -20.064   3.732  0.00  0.00    +0.052 C 
ATOM      6  C   LIG    1       25.548 -18.545   3.693  0.00  0.00    +0.013 C 
ATOM      7  C   LIG    1       24.515 -20.487   2.506  0.00  0.00    +0.013 C 
ENDBRANCH   4   5
BRANCH   4   8
ATOM      8  O   LIG    1       23.553 -21.314   4.783  0.00  0.00    -0.434 OA
BRANCH   8   9
ATOM      9  C   LIG    1       22.331 -20.716   4.894  0.00  0.00    +0.309 C 
ATOM     10  O   LIG    1       21.257 -21.252   4.699  0.00  0.00    -0.251 OA
BRANCH   9  12
ATOM     11  C   LIG    1       21.927 -18.302   4.282  0.00  0.00    +0.015 C 
ATOM     12  C   LIG    1       22.479 -19.267   5.322  0.00  0.00    +0.117 C 
ENDBRANCH   9  12
ENDBRANCH   8   9
ENDBRANCH   4   8
ENDBRANCH   3   4
ENDBRANCH   1   3
BRANCH   1  13
ATOM     13  C   LIG    1       26.717 -20.506   8.106  0.00  0.00    +0.193 C 
BRANCH  13  14
ATOM     14  C   LIG    1       28.074 -21.135   7.948  0.00  0.00    +0.226 C 
ATOM     15  N   LIG    1       29.185 -20.418   8.322  0.00  0.00    -0.287 N 
ATOM     16  C   LIG    1       30.523 -20.875   7.923  0.00  0.00    +0.185 C 
ATOM     17  C   LIG    1       31.363 -19.598   7.956  0.00  0.00    +0.039 C 
ATOM     18  C   LIG    1       30.750 -18.788   9.115  0.00  0.00    +0.012 C 
ATOM     19  C   LIG    1       29.248 -19.080   8.916  0.00  0.00    +0.112 C 
ATOM     20  O   LIG    1       28.217 -22.285   7.544  0.00  0.00    -0.275 OA
BRANCH  18  21
ATOM     21  C   LIG    1       31.143 -17.287   9.080  0.00  0.00    -0.006 C 
ATOM     22  C   LIG    1       30.271 -16.399   9.990  0.00  0.00    +0.004 C 
ATOM     23  C   LIG    1       30.671 -16.420  11.464  0.00  0.00    +0.000 C 
ATOM     24  C   LIG    1       32.143 -16.078  11.650  0.00  0.00    +0.000 C 
ATOM     25  C   LIG    1       33.025 -17.024  10.846  0.00  0.00    +0.000 C 
ATOM     26  C   LIG    1       32.644 -17.036   9.365  0.00  0.00    +0.004 C 
ENDBRANCH  18  21
BRANCH  16  27
ATOM     27  C   LIG    1       31.126 -21.962   8.837  0.00  0.00    +0.326 C 
ATOM     28  O   LIG    1       30.654 -22.278   9.911  0.00  0.00    -0.249 OA
BRANCH  27  29
ATOM     29  O   LIG    1       32.289 -22.493   8.391  0.00  0.00    -0.479 OA
ATOM     30  H   LIG    1       32.343 -23.460   8.554  0.00  0.00    +0.295 HD
ENDBRANCH  27  29
ENDBRANCH  16  27
ENDBRANCH  13  14
ENDBRANCH   1  13
BRANCH   1  31
ATOM     31  C   LIG    1       25.818 -23.223   7.673  0.00  0.00    +0.098 C 
BRANCH  31  32
ATOM     32  C   LIG    1       24.915 -24.247   6.987  0.00  0.00    +0.010 C 
BRANCH  32  33
ATOM     33  C   LIG    1       25.541 -24.804   5.712  0.00  0.00    +0.005 C 
BRANCH  33  34
ATOM     34  C   LIG    1       26.480 -25.975   6.017  0.00  0.00    +0.035 C 
BRANCH  34  35
ATOM     35  C   LIG    1       25.717 -27.228   6.362  0.00  0.00    -0.047 A 
ATOM     36  C   LIG    1       25.891 -27.849   7.606  0.00  0.00    +0.003 A 
ATOM     37  C   LIG    1       25.176 -29.004   7.927  0.00  0.00    +0.000 A 
ATOM     38  C   LIG    1       24.275 -29.545   7.012  0.00  0.00    +0.000 A 
ATOM     39  C   LIG    1       24.088 -28.931   5.775  0.00  0.00    +0.000 A 
ATOM     40  C   LIG    1       24.803 -27.776   5.452  0.00  0.00    +0.003 A 
ENDBRANCH  34  35
ENDBRANCH  33  34
ENDBRANCH  32  33
ENDBRANCH  31  32
ENDBRANCH   1  31
TORSDOF 16
ENDMDL
MODEL 2
REMARK VINA RESULT:      -7.6      6.639     10.870
REMARK  Name = *****
REMARK                            x       y       z     vdW  Elec       q    Type
REMARK                         _______ _______ _______ _____ _____    ______ ____
ROOT
ATOM      1  P   LIG    1       25.907 -30.200   9.261  0.00  0.00    +0.216 P 
ATOM      2  O   LIG    1       26.988 -30.992   8.588  0.00  0.00    -0.290 OA
ENDROOT
BRANCH   1   3
ATOM      3  O   LIG    1       25.194 -31.014  10.471  0.00  0.00    -0.286 OA
BRANCH   3   4
ATOM      4  C   LIG    1       23.856 -31.461  10.265  0.00  0.00    +0.320 C 
BRANCH   4   5
ATOM      5  C   LIG    1       23.852 -33.012  10.165  0.00  0.00    +0.052 C 
ATOM      6  C   LIG    1       24.982 -33.636  10.995  0.00  0.00    +0.013 C 
ATOM      7  C   LIG    1       23.947 -33.523   8.722  0.00  0.00    +0.013 C 
ENDBRANCH   4   5
BRANCH   4   8
ATOM      8  O   LIG    1       23.035 -31.081  11.368  0.00  0.00    -0.434 OA
BRANCH   8   9
ATOM      9  C   LIG    1       21.686 -31.046  11.165  0.00  0.00    +0.309 C 
ATOM     10  O   LIG    1       21.131 -30.764  10.121  0.00  0.00    -0.251 OA
BRANCH   9  12
ATOM     11  C   LIG    1       19.748 -30.528  12.695  0.00  0.00    +0.015 C 
ATOM     12  C   LIG    1       20.942 -31.434  12.431  0.00  0.00    +0.117 C 
ENDBRANCH   9  12
ENDBRANCH   8   9
ENDBRANCH   4   8
ENDBRANCH   3   4
ENDBRANCH   1   3
BRANCH   1  13
ATOM     13  C   LIG    1       26.466 -28.714  10.085  0.00  0.00    +0.193 C 
BRANCH  13  14
ATOM     14  C   LIG    1       27.321 -29.005  11.288  0.00  0.00    +0.226 C 
ATOM     15  N   LIG    1       26.733 -29.019  12.531  0.00  0.00    -0.287 N 
ATOM     16  C   LIG    1       27.570 -29.014  13.738  0.00  0.00    +0.185 C 
ATOM     17  C   LIG    1       26.651 -28.425  14.809  0.00  0.00    +0.039 C 
ATOM     18  C   LIG    1       25.252 -28.935  14.410  0.00  0.00    +0.012 C 
ATOM     19  C   LIG    1       25.323 -28.819  12.873  0.00  0.00    +0.112 C 
ATOM     20  O   LIG    1       28.513 -29.281  11.192  0.00  0.00    -0.275 OA
BRANCH  18  21
ATOM     21  C   LIG    1       24.102 -28.139  15.083  0.00  0.00    -0.006 C 
ATOM     22  C   LIG    1       24.293 -26.611  15.025  0.00  0.00    +0.004 C 
ATOM     23  C   LIG    1       23.893 -25.973  13.696  0.00  0.00    +0.000 C 
ATOM     24  C   LIG    1       22.467 -26.340  13.306  0.00  0.00    +0.000 C 
ATOM     25  C   LIG    1       22.294 -27.851  13.245  0.00  0.00    +0.000 C 
ATOM     26  C   LIG    1       22.697 -28.523  14.558  0.00  0.00    +0.004 C 
ENDBRANCH  18  21
BRANCH  16  27
ATOM     27  C   LIG    1       28.093 -30.404  14.158  0.00  0.00    +0.326 C 
ATOM     28  O   LIG    1       27.423 -31.416  14.121  0.00  0.00    -0.249 OA
BRANCH  27  29
ATOM     29  O   LIG    1       29.351 -30.405  14.660  0.00  0.00    -0.479 OA
ATOM     30  H   LIG    1       29.366 -30.580  15.626  0.00  0.00    +0.295 HD
ENDBRANCH  27  29
ENDBRANCH  16  27
ENDBRANCH  13  14
ENDBRANCH   1  13
BRANCH   1  31
ATOM     31  C   LIG    1       24.542 -29.744   8.183  0.00  0.00    +0.098 C 
BRANCH  31  32
ATOM     32  C   LIG    1       24.925 -29.187   6.813  0.00  0.00    +0.010 C 
BRANCH  32  33
ATOM     33  C   LIG    1       25.354 -27.725   6.885  0.00  0.00    +0.005 C 
BRANCH  33  34
ATOM     34  C   LIG    1       24.420 -26.829   6.065  0.00  0.00    +0.035 C 
BRANCH  34  35
ATOM     35  C   LIG    1       24.572 -25.376   6.435  0.00  0.00    -0.047 A 
ATOM     36  C   LIG    1       23.449 -24.544   6.535  0.00  0.00    +0.003 A 
ATOM     37  C   LIG    1       23.592 -23.201   6.888  0.00  0.00    +0.000 A 
ATOM     38  C   LIG    1       24.857 -22.678   7.149  0.00  0.00    +0.000 A 
ATOM     39  C   LIG    1       25.980 -23.498   7.059  0.00  0.00    +0.000 A 
ATOM     40  C   LIG    1       25.839 -24.842   6.707  0.00  0.00    +0.003 A 
ENDBRANCH  34  35
ENDBRANCH  33  34
ENDBRANCH  32  33
ENDBRANCH  31  32
ENDBRANCH   1  31
TORSDOF 16
ENDMDL
MODEL 3
REMARK VINA RESULT:      -7.5      4.850     10.327
REMARK  Name = *****
REMARK                            x       y       z     vdW  Elec       q    Type
REMARK                         _______ _______ _______ _____ _____    ______ ____
ROOT
ATOM      1  P   LIG    1       25.564 -26.629   6.259  0.00  0.00    +0.216 P 
ATOM      2  O   LIG    1       26.272 -26.315   4.974  0.00  0.00    -0.290 OA
ENDROOT
BRANCH   1   3
ATOM      3  O   LIG    1       24.742 -25.360   6.848  0.00  0.00    -0.286 OA
BRANCH   3   4
ATOM      4  C   LIG    1       25.354 -24.076   6.749  0.00  0.00    +0.320 C 
BRANCH   4   5
ATOM      5  C   LIG    1       24.263 -23.022   6.411  0.00  0.00    +0.052 C 
ATOM      6  C   LIG    1       22.849 -23.593   6.587  0.00  0.00    +0.013 C 
ATOM      7  C   LIG    1       24.400 -22.447   4.996  0.00  0.00    +0.013 C 
ENDBRANCH   4   5
BRANCH   4   8
ATOM      8  O   LIG    1       25.951 -23.719   7.994  0.00  0.00    -0.434 OA
BRANCH   8   9
ATOM      9  C   LIG    1       26.129 -22.389   8.249  0.00  0.00    +0.309 C 
ATOM     10  O   LIG    1       25.523 -21.737   9.078  0.00  0.00    -0.251 OA
BRANCH   9  12
ATOM     11  C   LIG    1       26.935 -20.370   6.968  0.00  0.00    +0.015 C 
ATOM     12  C   LIG    1       27.218 -21.813   7.361  0.00  0.00    +0.117 C 
ENDBRANCH   9  12
ENDBRANCH   8   9
ENDBRANCH   4   8
ENDBRANCH   3   4
ENDBRANCH   1   3
BRANCH   1  13
ATOM     13  C   LIG    1       24.288 -27.876   6.127  0.00  0.00    +0.193 C 
BRANCH  13  14
ATOM     14  C   LIG    1       24.847 -29.263   5.969  0.00  0.00    +0.226 C 
ATOM     15  N   LIG    1       24.547 -30.211   6.919  0.00  0.00    -0.287 N 
ATOM     16  C   LIG    1       25.294 -31.476   6.956  0.00  0.00    +0.185 C 
ATOM     17  C   LIG    1       25.140 -31.940   8.404  0.00  0.00    +0.039 C 
ATOM     18  C   LIG    1       23.731 -31.453   8.796  0.00  0.00    +0.012 C 
ATOM     19  C   LIG    1       23.691 -30.076   8.100  0.00  0.00    +0.112 C 
ATOM     20  O   LIG    1       25.520 -29.590   4.996  0.00  0.00    -0.275 OA
BRANCH  18  21
ATOM     21  C   LIG    1       23.504 -31.427  10.331  0.00  0.00    -0.006 C 
ATOM     22  C   LIG    1       22.468 -30.380  10.784  0.00  0.00    +0.004 C 
ATOM     23  C   LIG    1       21.013 -30.819  10.624  0.00  0.00    +0.000 C 
ATOM     24  C   LIG    1       20.752 -32.151  11.316  0.00  0.00    +0.000 C 
ATOM     25  C   LIG    1       21.694 -33.227  10.793  0.00  0.00    +0.000 C 
ATOM     26  C   LIG    1       23.160 -32.814  10.928  0.00  0.00    +0.004 C 
ENDBRANCH  18  21
BRANCH  16  27
ATOM     27  C   LIG    1       24.784 -32.547   5.970  0.00  0.00    +0.326 C 
ATOM     28  O   LIG    1       25.396 -33.561   5.699  0.00  0.00    -0.249 OA
BRANCH  27  29
ATOM     29  O   LIG    1       23.620 -32.236   5.351  0.00  0.00    -0.479 OA
ATOM     30  H   LIG    1       22.867 -32.771   5.683  0.00  0.00    +0.295 HD
ENDBRANCH  27  29
ENDBRANCH  16  27
ENDBRANCH  13  14
ENDBRANCH   1  13
BRANCH   1  31
ATOM     31  C   LIG    1       26.652 -27.104   7.609  0.00  0.00    +0.098 C 
BRANCH  31  32
ATOM     32  C   LIG    1       25.989 -27.817   8.786  0.00  0.00    +0.010 C 
BRANCH  32  33
ATOM     33  C   LIG    1       26.961 -28.724   9.533  0.00  0.00    +0.005 C 
BRANCH  33  34
ATOM     34  C   LIG    1       26.330 -29.289  10.809  0.00  0.00    +0.035 C 
BRANCH  34  35
ATOM     35  C   LIG    1       26.021 -28.203  11.808  0.00  0.00    -0.047 A 
ATOM     36  C   LIG    1       26.936 -27.168  12.040  0.00  0.00    +0.003 A 
ATOM     37  C   LIG    1       26.644 -26.158  12.958  0.00  0.00    +0.000 A 
ATOM     38  C   LIG    1       25.433 -26.170  13.648  0.00  0.00    +0.000 A 
ATOM     39  C   LIG    1       24.513 -27.190  13.418  0.00  0.00    +0.000 A 
ATOM     40  C   LIG    1       24.803 -28.201  12.500  0.00  0.00    +0.003 A 
ENDBRANCH  34  35
ENDBRANCH  33  34
ENDBRANCH  32  33
ENDBRANCH  31  32
ENDBRANCH   1  31
TORSDOF 16
ENDMDL
MODEL 4
REMARK VINA RESULT:      -7.5      1.949      9.201
REMARK  Name = *****
REMARK                            x       y       z     vdW  Elec       q    Type
REMARK                         _______ _______ _______ _____ _____    ______ ____
ROOT
ATOM      1  P   LIG    1       28.440 -20.326   7.478  0.00  0.00    +0.216 P 
ATOM      2  O   LIG    1       28.237 -19.042   8.226  0.00  0.00    -0.290 OA
ENDROOT
BRANCH   1   3
ATOM      3  O   LIG    1       29.961 -20.882   7.587  0.00  0.00    -0.286 OA
BRANCH   3   4
ATOM      4  C   LIG    1       30.746 -20.440   8.693  0.00  0.00    +0.320 C 
BRANCH   4   5
ATOM      5  C   LIG    1       31.407 -21.674   9.367  0.00  0.00    +0.052 C 
ATOM      6  C   LIG    1       31.941 -22.670   8.328  0.00  0.00    +0.013 C 
ATOM      7  C   LIG    1       30.466 -22.409  10.331  0.00  0.00    +0.013 C 
ENDBRANCH   4   5
BRANCH   4   8
ATOM      8  O   LIG    1       31.781 -19.568   8.244  0.00  0.00    -0.434 OA
BRANCH   8   9
ATOM      9  C   LIG    1       31.785 -18.293   8.732  0.00  0.00    +0.309 C 
ATOM     10  O   LIG    1       32.256 -17.320   8.174  0.00  0.00    -0.251 OA
BRANCH   9  12
ATOM     11  C   LIG    1       30.456 -16.873  10.339  0.00  0.00    +0.015 C 
ATOM     12  C   LIG    1       31.092 -18.232  10.082  0.00  0.00    +0.117 C 
ENDBRANCH   9  12
ENDBRANCH   8   9
ENDBRANCH   4   8
ENDBRANCH   3   4
ENDBRANCH   1   3
BRANCH   1  13
ATOM     13  C   LIG    1       27.488 -21.711   8.093  0.00  0.00    +0.193 C 
BRANCH  13  14
ATOM     14  C   LIG    1       26.131 -21.810   7.454  0.00  0.00    +0.226 C 
ATOM     15  N   LIG    1       25.669 -23.046   7.068  0.00  0.00    -0.287 N 
ATOM     16  C   LIG    1       24.492 -23.150   6.194  0.00  0.00    +0.185 C 
ATOM     17  C   LIG    1       24.666 -24.511   5.519  0.00  0.00    +0.039 C 
ATOM     18  C   LIG    1       25.342 -25.372   6.603  0.00  0.00    +0.012 C 
ATOM     19  C   LIG    1       26.316 -24.351   7.227  0.00  0.00    +0.112 C 
ATOM     20  O   LIG    1       25.402 -20.833   7.313  0.00  0.00    -0.275 OA
BRANCH  18  21
ATOM     21  C   LIG    1       26.003 -26.656   6.033  0.00  0.00    -0.006 C 
ATOM     22  C   LIG    1       26.379 -27.688   7.114  0.00  0.00    +0.004 C 
ATOM     23  C   LIG    1       25.216 -28.557   7.591  0.00  0.00    +0.000 C 
ATOM     24  C   LIG    1       24.517 -29.246   6.426  0.00  0.00    +0.000 C 
ATOM     25  C   LIG    1       24.035 -28.225   5.403  0.00  0.00    +0.000 C 
ATOM     26  C   LIG    1       25.174 -27.331   4.913  0.00  0.00    +0.004 C 
ENDBRANCH  18  21
BRANCH  16  27
ATOM     27  C   LIG    1       23.139 -23.063   6.931  0.00  0.00    +0.326 C 
ATOM     28  O   LIG    1       22.248 -23.878   6.803  0.00  0.00    -0.249 OA
BRANCH  27  29
ATOM     29  O   LIG    1       22.978 -21.948   7.684  0.00  0.00    -0.479 OA
ATOM     30  H   LIG    1       22.183 -21.999   8.258  0.00  0.00    +0.295 HD
ENDBRANCH  27  29
ENDBRANCH  16  27
ENDBRANCH  13  14
ENDBRANCH   1  13
BRANCH   1  31
ATOM     31  C   LIG    1       28.148 -20.208   5.708  0.00  0.00    +0.098 C 
BRANCH  31  32
ATOM     32  C   LIG    1       28.128 -18.797   5.124  0.00  0.00    +0.010 C 
BRANCH  32  33
ATOM     33  C   LIG    1       26.927 -18.567   4.213  0.00  0.00    +0.005 C 
BRANCH  33  34
ATOM     34  C   LIG    1       26.026 -19.806   4.154  0.00  0.00    +0.035 C 
BRANCH  34  35
ATOM     35  C   LIG    1       24.567 -19.440   4.236  0.00  0.00    -0.047 A 
ATOM     36  C   LIG    1       24.133 -18.154   3.888  0.00  0.00    +0.003 A 
ATOM     37  C   LIG    1       22.779 -17.821   3.955  0.00  0.00    +0.000 A 
ATOM     38  C   LIG    1       21.845 -18.772   4.363  0.00  0.00    +0.000 A 
ATOM     39  C   LIG    1       22.265 -20.056   4.702  0.00  0.00    +0.000 A 
ATOM     40  C   LIG    1       23.618 -20.391   4.637  0.00  0.00    +0.003 A 
ENDBRANCH  34  35
ENDBRANCH  33  34
ENDBRANCH  32  33
ENDBRANCH  31  32
ENDBRANCH   1  31
TORSDOF 16
ENDMDL
MODEL 5
REMARK VINA RESULT:      -7.5      6.455     11.109
REMARK  Name = *****
REMARK                            x       y       z     vdW  Elec       q    Type
REMARK                         _______ _______ _______ _____ _____    ______ ____
ROOT
ATOM      1  P   LIG    1       25.495 -29.802   8.806  0.00  0.00    +0.216 P 
ATOM      2  O   LIG    1       26.316 -31.035   8.572  0.00  0.00    -0.290 OA
ENDROOT
BRANCH   1   3
ATOM      3  O   LIG    1       24.014 -30.134   9.380  0.00  0.00    -0.286 OA
BRANCH   3   4
ATOM      4  C   LIG    1       23.629 -31.505   9.455  0.00  0.00    +0.320 C 
BRANCH   4   5
ATOM      5  C   LIG    1       22.457 -31.644  10.466  0.00  0.00    +0.052 C 
ATOM      6  C   LIG    1       21.704 -30.320  10.648  0.00  0.00    +0.013 C 
ATOM      7  C   LIG    1       22.905 -32.161  11.838  0.00  0.00    +0.013 C 
ENDBRANCH   4   5
BRANCH   4   8
ATOM      8  O   LIG    1       23.177 -31.958   8.180  0.00  0.00    -0.434 OA
BRANCH   8   9
ATOM      9  C   LIG    1       23.671 -33.146   7.724  0.00  0.00    +0.309 C 
ATOM     10  O   LIG    1       24.514 -33.825   8.278  0.00  0.00    -0.251 OA
BRANCH   9  12
ATOM     11  C   LIG    1       23.594 -32.791   5.227  0.00  0.00    +0.015 C 
ATOM     12  C   LIG    1       23.006 -33.538   6.416  0.00  0.00    +0.117 C 
ENDBRANCH   9  12
ENDBRANCH   8   9
ENDBRANCH   4   8
ENDBRANCH   3   4
ENDBRANCH   1   3
BRANCH   1  13
ATOM     13  C   LIG    1       26.143 -28.694  10.053  0.00  0.00    +0.193 C 
BRANCH  13  14
ATOM     14  C   LIG    1       26.735 -29.426  11.227  0.00  0.00    +0.226 C 
ATOM     15  N   LIG    1       25.998 -29.528  12.383  0.00  0.00    -0.287 N 
ATOM     16  C   LIG    1       26.642 -29.976  13.626  0.00  0.00    +0.185 C 
ATOM     17  C   LIG    1       25.752 -29.389  14.721  0.00  0.00    +0.039 C 
ATOM     18  C   LIG    1       24.339 -29.432  14.107  0.00  0.00    +0.012 C 
ATOM     19  C   LIG    1       24.642 -29.041  12.645  0.00  0.00    +0.112 C 
ATOM     20  O   LIG    1       27.830 -29.977  11.169  0.00  0.00    -0.275 OA
BRANCH  18  21
ATOM     21  C   LIG    1       23.329 -28.512  14.843  0.00  0.00    -0.006 C 
ATOM     22  C   LIG    1       23.798 -27.049  14.959  0.00  0.00    +0.004 C 
ATOM     23  C   LIG    1       23.571 -26.210  13.702  0.00  0.00    +0.000 C 
ATOM     24  C   LIG    1       22.118 -26.263  13.249  0.00  0.00    +0.000 C 
ATOM     25  C   LIG    1       21.674 -27.701  13.017  0.00  0.00    +0.000 C 
ATOM     26  C   LIG    1       21.898 -28.571  14.254  0.00  0.00    +0.004 C 
ENDBRANCH  18  21
BRANCH  16  27
ATOM     27  C   LIG    1       26.761 -31.508  13.767  0.00  0.00    +0.326 C 
ATOM     28  O   LIG    1       26.159 -32.299  13.069  0.00  0.00    -0.249 OA
BRANCH  27  29
ATOM     29  O   LIG    1       27.536 -31.921  14.798  0.00  0.00    -0.479 OA
ATOM     30  H   LIG    1       27.307 -32.828  15.096  0.00  0.00    +0.295 HD
ENDBRANCH  27  29
ENDBRANCH  16  27
ENDBRANCH  13  14
ENDBRANCH   1  13
BRANCH   1  31
ATOM     31  C   LIG    1       25.178 -28.830   7.327  0.00  0.00    +0.098 C 
BRANCH  31  32
ATOM     32  C   LIG    1       25.843 -27.456   7.271  0.00  0.00    +0.010 C 
BRANCH  32  33
ATOM     33  C   LIG    1       25.128 -26.508   6.315  0.00  0.00    +0.005 C 
BRANCH  33  34
ATOM     34  C   LIG    1       25.864 -25.169   6.201  0.00  0.00    +0.035 C 
BRANCH  34  35
ATOM     35  C   LIG    1       25.010 -24.019   6.668  0.00  0.00    -0.047 A 
ATOM     36  C   LIG    1       25.597 -22.875   7.225  0.00  0.00    +0.003 A 
ATOM     37  C   LIG    1       24.803 -21.807   7.647  0.00  0.00    +0.000 A 
ATOM     38  C   LIG    1       23.417 -21.870   7.513  0.00  0.00    +0.000 A 
ATOM     39  C   LIG    1       22.825 -23.000   6.954  0.00  0.00    +0.000 A 
ATOM     40  C   LIG    1       23.616 -24.069   6.530  0.00  0.00    +0.003 A 
ENDBRANCH  34  35
ENDBRANCH  33  34
ENDBRANCH  32  33
ENDBRANCH  31  32
ENDBRANCH   1  31
TORSDOF 16
ENDMDL
MODEL 6
REMARK VINA RESULT:      -7.5      3.441      8.982
REMARK  Name = *****
REMARK                            x       y       z     vdW  Elec       q    Type
REMARK                         _______ _______ _______ _____ _____    ______ ____
ROOT
ATOM      1  P   LIG    1       24.875 -24.548   6.017  0.00  0.00    +0.216 P 
ATOM      2  O   LIG    1       25.069 -24.796   4.551  0.00  0.00    -0.290 OA
ENDROOT
BRANCH   1   3
ATOM      3  O   LIG    1       23.671 -23.503   6.322  0.00  0.00    -0.286 OA
BRANCH   3   4
ATOM      4  C   LIG    1       23.500 -22.414   5.418  0.00  0.00    +0.320 C 
BRANCH   4   5
ATOM      5  C   LIG    1       22.651 -21.313   6.112  0.00  0.00    +0.052 C 
ATOM      6  C   LIG    1       22.062 -20.325   5.095  0.00  0.00    +0.013 C 
ATOM      7  C   LIG    1       23.431 -20.532   7.177  0.00  0.00    +0.013 C 
ENDBRANCH   4   5
BRANCH   4   8
ATOM      8  O   LIG    1       24.766 -21.854   5.077  0.00  0.00    -0.434 OA
BRANCH   8   9
ATOM      9  C   LIG    1       24.817 -21.027   3.992  0.00  0.00    +0.309 C 
ATOM     10  O   LIG    1       24.255 -21.214   2.930  0.00  0.00    -0.251 OA
BRANCH   9  12
ATOM     11  C   LIG    1       25.212 -18.585   3.499  0.00  0.00    +0.015 C 
ATOM     12  C   LIG    1       25.667 -19.804   4.288  0.00  0.00    +0.117 C 
ENDBRANCH   9  12
ENDBRANCH   8   9
ENDBRANCH   4   8
ENDBRANCH   3   4
ENDBRANCH   1   3
BRANCH   1  13
ATOM     13  C   LIG    1       24.376 -25.984   6.961  0.00  0.00    +0.193 C 
BRANCH  13  14
ATOM     14  C   LIG    1       24.622 -27.274   6.228  0.00  0.00    +0.226 C 
ATOM     15  N   LIG    1       24.879 -28.411   6.956  0.00  0.00    -0.287 N 
ATOM     16  C   LIG    1       25.401 -29.610   6.285  0.00  0.00    +0.185 C 
ATOM     17  C   LIG    1       26.110 -30.368   7.407  0.00  0.00    +0.039 C 
ATOM     18  C   LIG    1       25.258 -30.057   8.653  0.00  0.00    +0.012 C 
ATOM     19  C   LIG    1       24.914 -28.572   8.411  0.00  0.00    +0.112 C 
ATOM     20  O   LIG    1       24.551 -27.354   5.005  0.00  0.00    -0.275 OA
BRANCH  18  21
ATOM     21  C   LIG    1       25.998 -30.358   9.984  0.00  0.00    -0.006 C 
ATOM     22  C   LIG    1       27.181 -29.409  10.260  0.00  0.00    +0.004 C 
ATOM     23  C   LIG    1       26.783 -28.054  10.843  0.00  0.00    +0.000 C 
ATOM     24  C   LIG    1       25.932 -28.213  12.096  0.00  0.00    +0.000 C 
ATOM     25  C   LIG    1       24.695 -29.053  11.809  0.00  0.00    +0.000 C 
ATOM     26  C   LIG    1       25.058 -30.414  11.213  0.00  0.00    +0.004 C 
ENDBRANCH  18  21
BRANCH  16  27
ATOM     27  C   LIG    1       24.322 -30.487   5.615  0.00  0.00    +0.326 C 
ATOM     28  O   LIG    1       24.544 -31.582   5.138  0.00  0.00    -0.249 OA
BRANCH  27  29
ATOM     29  O   LIG    1       23.103 -29.906   5.518  0.00  0.00    -0.479 OA
ATOM     30  H   LIG    1       22.627 -29.895   6.377  0.00  0.00    +0.295 HD
ENDBRANCH  27  29
ENDBRANCH  16  27
ENDBRANCH  13  14
ENDBRANCH   1  13
BRANCH   1  31
ATOM     31  C   LIG    1       26.298 -23.822   6.841  0.00  0.00    +0.098 C 
BRANCH  31  32
ATOM     32  C   LIG    1       26.001 -23.011   8.101  0.00  0.00    +0.010 C 
BRANCH  32  33
ATOM     33  C   LIG    1       26.792 -21.707   8.146  0.00  0.00    +0.005 C 
BRANCH  33  34
ATOM     34  C   LIG    1       27.520 -21.450   6.823  0.00  0.00    +0.035 C 
BRANCH  34  35
ATOM     35  C   LIG    1       28.780 -20.649   7.025  0.00  0.00    -0.047 A 
ATOM     36  C   LIG    1       29.014 -19.487   6.277  0.00  0.00    +0.003 A 
ATOM     37  C   LIG    1       30.177 -18.741   6.473  0.00  0.00    +0.000 A 
ATOM     38  C   LIG    1       31.115 -19.145   7.422  0.00  0.00    +0.000 A 
ATOM     39  C   LIG    1       30.888 -20.294   8.178  0.00  0.00    +0.000 A 
ATOM     40  C   LIG    1       29.725 -21.041   7.983  0.00  0.00    +0.003 A 
ENDBRANCH  34  35
ENDBRANCH  33  34
ENDBRANCH  32  33
ENDBRANCH  31  32
ENDBRANCH   1  31
TORSDOF 16
ENDMDL
MODEL 7
REMARK VINA RESULT:      -7.5      3.327      9.343
REMARK  Name = *****
REMARK                            x       y       z     vdW  Elec       q    Type
REMARK                         _______ _______ _______ _____ _____    ______ ____
ROOT
ATOM      1  P   LIG    1       25.011 -24.604   6.361  0.00  0.00    +0.216 P 
ATOM      2  O   LIG    1       23.641 -25.161   6.611  0.00  0.00    -0.290 OA
ENDROOT
BRANCH   1   3
ATOM      3  O   LIG    1       25.577 -23.745   7.616  0.00  0.00    -0.286 OA
BRANCH   3   4
ATOM      4  C   LIG    1       25.915 -22.380   7.381  0.00  0.00    +0.320 C 
BRANCH   4   5
ATOM      5  C   LIG    1       25.061 -21.480   8.316  0.00  0.00    +0.052 C 
ATOM      6  C   LIG    1       23.979 -20.719   7.538  0.00  0.00    +0.013 C 
ATOM      7  C   LIG    1       25.900 -20.479   9.120  0.00  0.00    +0.013 C 
ENDBRANCH   4   5
BRANCH   4   8
ATOM      8  O   LIG    1       27.292 -22.156   7.678  0.00  0.00    -0.434 OA
BRANCH   8   9
ATOM      9  C   LIG    1       27.942 -21.194   6.962  0.00  0.00    +0.309 C 
ATOM     10  O   LIG    1       27.498 -20.607   5.993  0.00  0.00    -0.251 OA
BRANCH   9  12
ATOM     11  C   LIG    1       29.481 -19.468   7.972  0.00  0.00    +0.015 C 
ATOM     12  C   LIG    1       29.315 -20.921   7.550  0.00  0.00    +0.117 C 
ENDBRANCH   9  12
ENDBRANCH   8   9
ENDBRANCH   4   8
ENDBRANCH   3   4
ENDBRANCH   1   3
BRANCH   1  13
ATOM     13  C   LIG    1       26.291 -25.833   6.138  0.00  0.00    +0.193 C 
BRANCH  13  14
ATOM     14  C   LIG    1       25.749 -27.159   5.681  0.00  0.00    +0.226 C 
ATOM     15  N   LIG    1       25.594 -28.166   6.604  0.00  0.00    -0.287 N 
ATOM     16  C   LIG    1       25.343 -29.542   6.154  0.00  0.00    +0.185 C 
ATOM     17  C   LIG    1       25.836 -30.396   7.322  0.00  0.00    +0.039 C 
ATOM     18  C   LIG    1       25.511 -29.541   8.562  0.00  0.00    +0.012 C 
ATOM     19  C   LIG    1       25.855 -28.129   8.045  0.00  0.00    +0.112 C 
ATOM     20  O   LIG    1       25.392 -27.355   4.523  0.00  0.00    -0.275 OA
BRANCH  18  21
ATOM     21  C   LIG    1       26.288 -29.990   9.829  0.00  0.00    -0.006 C 
ATOM     22  C   LIG    1       27.283 -28.934  10.349  0.00  0.00    +0.004 C 
ATOM     23  C   LIG    1       26.648 -27.826  11.189  0.00  0.00    +0.000 C 
ATOM     24  C   LIG    1       25.834 -28.397  12.344  0.00  0.00    +0.000 C 
ATOM     25  C   LIG    1       24.767 -29.355  11.833  0.00  0.00    +0.000 C 
ATOM     26  C   LIG    1       25.368 -30.471  10.978  0.00  0.00    +0.004 C 
ENDBRANCH  18  21
BRANCH  16  27
ATOM     27  C   LIG    1       23.867 -29.848   5.825  0.00  0.00    +0.326 C 
ATOM     28  O   LIG    1       23.284 -30.845   6.201  0.00  0.00    -0.249 OA
BRANCH  27  29
ATOM     29  O   LIG    1       23.275 -28.950   5.001  0.00  0.00    -0.479 OA
ATOM     30  H   LIG    1       22.429 -29.285   4.633  0.00  0.00    +0.295 HD
ENDBRANCH  27  29
ENDBRANCH  16  27
ENDBRANCH  13  14
ENDBRANCH   1  13
BRANCH   1  31
ATOM     31  C   LIG    1       25.106 -23.461   4.976  0.00  0.00    +0.098 C 
BRANCH  31  32
ATOM     32  C   LIG    1       23.971 -22.444   4.867  0.00  0.00    +0.010 C 
BRANCH  32  33
ATOM     33  C   LIG    1       24.025 -21.660   3.560  0.00  0.00    +0.005 C 
BRANCH  33  34
ATOM     34  C   LIG    1       24.948 -20.443   3.676  0.00  0.00    +0.035 C 
BRANCH  34  35
ATOM     35  C   LIG    1       24.172 -19.172   3.907  0.00  0.00    -0.047 A 
ATOM     36  C   LIG    1       22.863 -19.217   4.403  0.00  0.00    +0.003 A 
ATOM     37  C   LIG    1       22.150 -18.037   4.625  0.00  0.00    +0.000 A 
ATOM     38  C   LIG    1       22.740 -16.803   4.360  0.00  0.00    +0.000 A 
ATOM     39  C   LIG    1       24.045 -16.748   3.875  0.00  0.00    +0.000 A 
ATOM     40  C   LIG    1       24.760 -17.926   3.652  0.00  0.00    +0.003 A 
ENDBRANCH  34  35
ENDBRANCH  33  34
ENDBRANCH  32  33
ENDBRANCH  31  32
ENDBRANCH   1  31
TORSDOF 16
ENDMDL
MODEL 8
REMARK VINA RESULT:      -7.3      6.983     12.231
REMARK  Name = *****
REMARK                            x       y       z     vdW  Elec       q    Type
REMARK                         _______ _______ _______ _____ _____    ______ ____
ROOT
ATOM      1  P   LIG    1       25.089 -30.850   9.553  0.00  0.00    +0.216 P 
ATOM      2  O   LIG    1       25.429 -30.742  11.009  0.00  0.00    -0.290 OA
ENDROOT
BRANCH   1   3
ATOM      3  O   LIG    1       25.408 -32.320   8.942  0.00  0.00    -0.286 OA
BRANCH   3   4
ATOM      4  C   LIG    1       25.913 -32.383   7.610  0.00  0.00    +0.320 C 
BRANCH   4   5
ATOM      5  C   LIG    1       26.994 -33.497   7.533  0.00  0.00    +0.052 C 
ATOM      6  C   LIG    1       27.579 -33.815   8.915  0.00  0.00    +0.013 C 
ATOM      7  C   LIG    1       28.137 -33.160   6.568  0.00  0.00    +0.013 C 
ENDBRANCH   4   5
BRANCH   4   8
ATOM      8  O   LIG    1       24.864 -32.714   6.702  0.00  0.00    -0.434 OA
BRANCH   8   9
ATOM      9  C   LIG    1       24.443 -31.739   5.845  0.00  0.00    +0.309 C 
ATOM     10  O   LIG    1       23.344 -31.218   5.845  0.00  0.00    -0.251 OA
BRANCH   9  12
ATOM     11  C   LIG    1       25.772 -32.422   3.812  0.00  0.00    +0.015 C 
ATOM     12  C   LIG    1       25.551 -31.359   4.878  0.00  0.00    +0.117 C 
ENDBRANCH   9  12
ENDBRANCH   8   9
ENDBRANCH   4   8
ENDBRANCH   3   4
ENDBRANCH   1   3
BRANCH   1  13
ATOM     13  C   LIG    1       23.352 -30.654   9.171  0.00  0.00    +0.193 C 
BRANCH  13  14
ATOM     14  C   LIG    1       22.486 -31.661   9.876  0.00  0.00    +0.226 C 
ATOM     15  N   LIG    1       21.796 -31.271  11.000  0.00  0.00    -0.287 N 
ATOM     16  C   LIG    1       21.177 -32.281  11.869  0.00  0.00    +0.185 C 
ATOM     17  C   LIG    1       21.080 -31.578  13.223  0.00  0.00    +0.039 C 
ATOM     18  C   LIG    1       20.824 -30.104  12.851  0.00  0.00    +0.012 C 
ATOM     19  C   LIG    1       21.745 -29.946  11.623  0.00  0.00    +0.112 C 
ATOM     20  O   LIG    1       22.335 -32.803   9.454  0.00  0.00    -0.275 OA
BRANCH  18  21
ATOM     21  C   LIG    1       21.108 -29.125  14.022  0.00  0.00    -0.006 C 
ATOM     22  C   LIG    1       22.596 -28.752  14.167  0.00  0.00    +0.004 C 
ATOM     23  C   LIG    1       23.072 -27.664  13.206  0.00  0.00    +0.000 C 
ATOM     24  C   LIG    1       22.204 -26.415  13.300  0.00  0.00    +0.000 C 
ATOM     25  C   LIG    1       20.742 -26.751  13.042  0.00  0.00    +0.000 C 
ATOM     26  C   LIG    1       20.236 -27.846  13.982  0.00  0.00    +0.004 C 
ENDBRANCH  18  21
BRANCH  16  27
ATOM     27  C   LIG    1       19.792 -32.770  11.394  0.00  0.00    +0.326 C 
ATOM     28  O   LIG    1       19.434 -32.759  10.234  0.00  0.00    -0.249 OA
BRANCH  27  29
ATOM     29  O   LIG    1       18.953 -33.141  12.391  0.00  0.00    -0.479 OA
ATOM     30  H   LIG    1       19.165 -32.697  13.240  0.00  0.00    +0.295 HD
ENDBRANCH  27  29
ENDBRANCH  16  27
ENDBRANCH  13  14
ENDBRANCH   1  13
BRANCH   1  31
ATOM     31  C   LIG    1       26.010 -29.730   8.491  0.00  0.00    +0.098 C 
BRANCH  31  32
ATOM     32  C   LIG    1       25.176 -28.761   7.654  0.00  0.00    +0.010 C 
BRANCH  32  33
ATOM     33  C   LIG    1       25.923 -27.463   7.361  0.00  0.00    +0.005 C 
BRANCH  33  34
ATOM     34  C   LIG    1       25.303 -26.719   6.174  0.00  0.00    +0.035 C 
BRANCH  34  35
ATOM     35  C   LIG    1       24.955 -25.296   6.527  0.00  0.00    -0.047 A 
ATOM     36  C   LIG    1       25.948 -24.403   6.951  0.00  0.00    +0.003 A 
ATOM     37  C   LIG    1       25.624 -23.083   7.268  0.00  0.00    +0.000 A 
ATOM     38  C   LIG    1       24.307 -22.640   7.157  0.00  0.00    +0.000 A 
ATOM     39  C   LIG    1       23.313 -23.518   6.728  0.00  0.00    +0.000 A 
ATOM     40  C   LIG    1       23.635 -24.839   6.412  0.00  0.00    +0.003 A 
ENDBRANCH  34  35
ENDBRANCH  33  34
ENDBRANCH  32  33
ENDBRANCH  31  32
ENDBRANCH   1  31
TORSDOF 16
ENDMDL
MODEL 9
REMARK VINA RESULT:      -7.3      5.161      9.327
REMARK  Name = *****
REMARK                            x       y       z     vdW  Elec       q    Type
REMARK                         _______ _______ _______ _____ _____    ______ ____
ROOT
ATOM      1  P   LIG    1       25.768 -29.397   9.208  0.00  0.00    +0.216 P 
ATOM      2  O   LIG    1       24.270 -29.463   9.212  0.00  0.00    -0.290 OA
ENDROOT
BRANCH   1   3
ATOM      3  O   LIG    1       26.447 -30.606   8.364  0.00  0.00    -0.286 OA
BRANCH   3   4
ATOM      4  C   LIG    1       25.584 -31.427   7.581  0.00  0.00    +0.320 C 
BRANCH   4   5
ATOM      5  C   LIG    1       26.330 -31.850   6.285  0.00  0.00    +0.052 C 
ATOM      6  C   LIG    1       25.364 -32.410   5.231  0.00  0.00    +0.013 C 
ATOM      7  C   LIG    1       27.445 -32.872   6.538  0.00  0.00    +0.013 C 
ENDBRANCH   4   5
BRANCH   4   8
ATOM      8  O   LIG    1       25.238 -32.607   8.304  0.00  0.00    -0.434 OA
BRANCH   8   9
ATOM      9  C   LIG    1       23.933 -32.758   8.673  0.00  0.00    +0.309 C 
ATOM     10  O   LIG    1       22.965 -32.435   8.012  0.00  0.00    -0.251 OA
BRANCH   9  12
ATOM     11  C   LIG    1       24.016 -32.417  11.172  0.00  0.00    +0.015 C 
ATOM     12  C   LIG    1       23.834 -33.416  10.038  0.00  0.00    +0.117 C 
ENDBRANCH   9  12
ENDBRANCH   8   9
ENDBRANCH   4   8
ENDBRANCH   3   4
ENDBRANCH   1   3
BRANCH   1  13
ATOM     13  C   LIG    1       26.454 -27.950   8.411  0.00  0.00    +0.193 C 
BRANCH  13  14
ATOM     14  C   LIG    1       25.711 -27.572   7.159  0.00  0.00    +0.226 C 
ATOM     15  N   LIG    1       25.492 -26.241   6.894  0.00  0.00    -0.287 N 
ATOM     16  C   LIG    1       24.537 -25.848   5.849  0.00  0.00    +0.185 C 
ATOM     17  C   LIG    1       24.117 -24.436   6.260  0.00  0.00    +0.039 C 
ATOM     18  C   LIG    1       25.389 -23.849   6.901  0.00  0.00    +0.012 C 
ATOM     19  C   LIG    1       25.926 -25.075   7.668  0.00  0.00    +0.112 C 
ATOM     20  O   LIG    1       25.340 -28.409   6.341  0.00  0.00    -0.275 OA
BRANCH  18  21
ATOM     21  C   LIG    1       25.106 -22.595   7.771  0.00  0.00    -0.006 C 
ATOM     22  C   LIG    1       26.281 -22.203   8.689  0.00  0.00    +0.004 C 
ATOM     23  C   LIG    1       27.389 -21.412   7.995  0.00  0.00    +0.000 C 
ATOM     24  C   LIG    1       26.839 -20.180   7.289  0.00  0.00    +0.000 C 
ATOM     25  C   LIG    1       25.756 -20.565   6.291  0.00  0.00    +0.000 C 
ATOM     26  C   LIG    1       24.635 -21.368   6.951  0.00  0.00    +0.004 C 
ENDBRANCH  18  21
BRANCH  16  27
ATOM     27  C   LIG    1       25.115 -25.862   4.418  0.00  0.00    +0.326 C 
ATOM     28  O   LIG    1       25.873 -26.717   4.005  0.00  0.00    -0.249 OA
BRANCH  27  29
ATOM     29  O   LIG    1       24.780 -24.788   3.663  0.00  0.00    -0.479 OA
ATOM     30  H   LIG    1       23.810 -24.717   3.528  0.00  0.00    +0.295 HD
ENDBRANCH  27  29
ENDBRANCH  16  27
ENDBRANCH  13  14
ENDBRANCH   1  13
BRANCH   1  31
ATOM     31  C   LIG    1       26.521 -29.530  10.836  0.00  0.00    +0.098 C 
BRANCH  31  32
ATOM     32  C   LIG    1       26.701 -28.220  11.601  0.00  0.00    +0.010 C 
BRANCH  32  33
ATOM     33  C   LIG    1       26.070 -28.272  12.989  0.00  0.00    +0.005 C 
BRANCH  33  34
ATOM     34  C   LIG    1       25.189 -27.046  13.248  0.00  0.00    +0.035 C 
BRANCH  34  35
ATOM     35  C   LIG    1       23.725 -27.366  13.090  0.00  0.00    -0.047 A 
ATOM     36  C   LIG    1       23.315 -28.639  12.672  0.00  0.00    +0.003 A 
ATOM     37  C   LIG    1       21.957 -28.936  12.536  0.00  0.00    +0.000 A 
ATOM     38  C   LIG    1       20.998 -27.967  12.822  0.00  0.00    +0.000 A 
ATOM     39  C   LIG    1       21.396 -26.700  13.245  0.00  0.00    +0.000 A 
ATOM     40  C   LIG    1       22.752 -26.401  13.382  0.00  0.00    +0.003 A 
ENDBRANCH  34  35
ENDBRANCH  33  34
ENDBRANCH  32  33
ENDBRANCH  31  32
ENDBRANCH   1  31
TORSDOF 16
ENDMDL
