MODEL 1
REMARK VINA RESULT:      -6.6      0.000      0.000
REMARK  Name = *****
REMARK                            x       y       z     vdW  Elec       q    Type
REMARK                         _______ _______ _______ _____ _____    ______ ____
ROOT
ATOM      1  N   LIG    1       25.935 -27.712   7.679  0.00  0.00    -0.279 NA
ATOM      2  C   LIG    1       25.506 -28.588   8.515  0.00  0.00    +0.082 C 
ATOM      3  C   LIG    1       24.551 -29.759   8.361  0.00  0.00    +0.059 C 
ATOM      4  C   LIG    1       24.263 -30.472   9.456  0.00  0.00    +0.055 C 
ATOM      5  C   LIG    1       24.915 -30.293  10.769  0.00  0.00    +0.090 C 
ATOM      6  C   LIG    1       25.735 -29.063  11.005  0.00  0.00    +0.075 C 
ATOM      7  N   LIG    1       26.158 -28.841  12.355  0.00  0.00    -0.306 N 
ATOM      8  C   LIG    1       26.302 -30.056  13.129  0.00  0.00    +0.072 C 
ATOM      9  C   LIG    1       25.577 -31.215  12.766  0.00  0.00    +0.088 C 
ATOM     10  C   LIG    1       25.697 -32.396  13.500  0.00  0.00    +0.030 C 
ATOM     11  C   LIG    1       26.559 -32.471  14.589  0.00  0.00    +0.002 C 
ATOM     12  C   LIG    1       27.323 -31.357  14.933  0.00  0.00    +0.002 C 
ATOM     13  C   LIG    1       27.203 -30.163  14.208  0.00  0.00    +0.028 C 
ATOM     14  N   LIG    1       24.773 -31.264  11.613  0.00  0.00    -0.244 NA
ATOM     15  C   LIG    1       26.044 -28.379   9.896  0.00  0.00    +0.057 C 
ENDROOT
BRANCH   7  16
ATOM     16  C   LIG    1       26.016 -27.528  12.976  0.00  0.00    +0.047 A 
ATOM     17  C   LIG    1       27.080 -26.619  13.140  0.00  0.00    +0.027 A 
ATOM     18  C   LIG    1       26.919 -25.341  13.697  0.00  0.00    +0.022 A 
ATOM     19  C   LIG    1       25.669 -24.922  14.117  0.00  0.00    +0.041 A 
ATOM     20 CL   LIG    1       25.475 -23.355  14.796  0.00  0.00    -0.084 Cl
ATOM     21  C   LIG    1       24.583 -25.772  13.976  0.00  0.00    +0.022 A 
ATOM     22  C   LIG    1       24.753 -27.050  13.409  0.00  0.00    +0.027 A 
ENDBRANCH   7  16
BRANCH   1  24
ATOM     23  C   LIG    1       24.389 -26.827   6.007  0.00  0.00    +0.032 C 
ATOM     24  C   LIG    1       25.678 -27.605   6.252  0.00  0.00    +0.100 C 
ATOM     25  C   LIG    1       26.836 -26.800   5.646  0.00  0.00    +0.032 C 
ENDBRANCH   1  24
BRANCH   3  26
ATOM     26  N   LIG    1       23.995 -30.003   7.101  0.00  0.00    -0.313 N 
ATOM     27  H   LIG    1       22.991 -29.879   7.105  0.00  0.00    +0.152 HD
BRANCH  26  28
ATOM     28  C   LIG    1       24.442 -30.957   6.158  0.00  0.00    +0.031 A 
ATOM     29  C   LIG    1       23.797 -32.189   5.976  0.00  0.00    +0.024 A 
ATOM     30  C   LIG    1       24.208 -33.079   4.976  0.00  0.00    +0.022 A 
ATOM     31  C   LIG    1       25.297 -32.758   4.171  0.00  0.00    +0.041 A 
ATOM     32 CL   LIG    1       25.779 -33.825   2.909  0.00  0.00    -0.084 Cl
ATOM     33  C   LIG    1       25.995 -31.573   4.381  0.00  0.00    +0.022 A 
ATOM     34  C   LIG    1       25.570 -30.677   5.370  0.00  0.00    +0.024 A 
ENDBRANCH  26  28
ENDBRANCH   3  26
TORSDOF 4
ENDMDL
MODEL 2
REMARK VINA RESULT:      -6.5      2.931      8.025
REMARK  Name = *****
REMARK                            x       y       z     vdW  Elec       q    Type
REMARK                         _______ _______ _______ _____ _____    ______ ____
ROOT
ATOM      1  N   LIG    1       24.616 -28.068  12.566  0.00  0.00    -0.279 NA
ATOM      2  C   LIG    1       25.399 -28.877  11.947  0.00  0.00    +0.082 C 
ATOM      3  C   LIG    1       26.610 -29.670  12.406  0.00  0.00    +0.059 C 
ATOM      4  C   LIG    1       27.253 -30.403  11.490  0.00  0.00    +0.055 C 
ATOM      5  C   LIG    1       26.789 -30.611  10.104  0.00  0.00    +0.090 C 
ATOM      6  C   LIG    1       25.701 -29.731   9.568  0.00  0.00    +0.075 C 
ATOM      7  N   LIG    1       25.447 -29.833   8.164  0.00  0.00    -0.306 N 
ATOM      8  C   LIG    1       25.774 -31.127   7.603  0.00  0.00    +0.072 C 
ATOM      9  C   LIG    1       26.732 -31.951   8.240  0.00  0.00    +0.088 C 
ATOM     10  C   LIG    1       27.066 -33.200   7.714  0.00  0.00    +0.030 C 
ATOM     11  C   LIG    1       26.439 -33.681   6.569  0.00  0.00    +0.002 C 
ATOM     12  C   LIG    1       25.454 -32.909   5.956  0.00  0.00    +0.002 C 
ATOM     13  C   LIG    1       25.118 -31.648   6.469  0.00  0.00    +0.028 C 
ATOM     14  N   LIG    1       27.328 -31.597   9.462  0.00  0.00    -0.244 NA
ATOM     15  C   LIG    1       25.044 -29.030  10.502  0.00  0.00    +0.057 C 
ENDROOT
BRANCH   7  16
ATOM     16  C   LIG    1       25.306 -28.636   7.341  0.00  0.00    +0.047 A 
ATOM     17  C   LIG    1       26.101 -27.483   7.491  0.00  0.00    +0.027 A 
ATOM     18  C   LIG    1       25.985 -26.357   6.661  0.00  0.00    +0.022 A 
ATOM     19  C   LIG    1       25.056 -26.345   5.637  0.00  0.00    +0.041 A 
ATOM     20 CL   LIG    1       24.918 -24.966   4.621  0.00  0.00    -0.084 Cl
ATOM     21  C   LIG    1       24.248 -27.454   5.438  0.00  0.00    +0.022 A 
ATOM     22  C   LIG    1       24.377 -28.582   6.271  0.00  0.00    +0.027 A 
ENDBRANCH   7  16
BRANCH   1  24
ATOM     23  C   LIG    1       24.742 -26.184  14.116  0.00  0.00    +0.032 C 
ATOM     24  C   LIG    1       24.609 -27.696  13.971  0.00  0.00    +0.100 C 
ATOM     25  C   LIG    1       23.241 -28.105  14.537  0.00  0.00    +0.032 C 
ENDBRANCH   1  24
BRANCH   3  26
ATOM     26  N   LIG    1       27.010 -29.561  13.741  0.00  0.00    -0.313 N 
ATOM     27  H   LIG    1       26.227 -29.364  14.351  0.00  0.00    +0.152 HD
BRANCH  26  28
ATOM     28  C   LIG    1       28.236 -29.034  14.210  0.00  0.00    +0.031 A 
ATOM     29  C   LIG    1       29.459 -29.692  14.012  0.00  0.00    +0.024 A 
ATOM     30  C   LIG    1       30.667 -29.107  14.412  0.00  0.00    +0.022 A 
ATOM     31  C   LIG    1       30.658 -27.870  15.049  0.00  0.00    +0.041 A 
ATOM     32 CL   LIG    1       32.141 -27.123  15.499  0.00  0.00    -0.084 Cl
ATOM     33  C   LIG    1       29.451 -27.232  15.318  0.00  0.00    +0.022 A 
ATOM     34  C   LIG    1       28.246 -27.812  14.901  0.00  0.00    +0.024 A 
ENDBRANCH  26  28
ENDBRANCH   3  26
TORSDOF 4
ENDMDL
MODEL 3
REMARK VINA RESULT:      -6.1      3.869      7.696
REMARK  Name = *****
REMARK                            x       y       z     vdW  Elec       q    Type
REMARK                         _______ _______ _______ _____ _____    ______ ____
ROOT
ATOM      1  N   LIG    1       22.072 -29.612  11.220  0.00  0.00    -0.279 NA
ATOM      2  C   LIG    1       23.210 -30.161  10.988  0.00  0.00    +0.082 C 
ATOM      3  C   LIG    1       24.215 -30.845  11.899  0.00  0.00    +0.059 C 
ATOM      4  C   LIG    1       25.353 -31.282  11.348  0.00  0.00    +0.055 C 
ATOM      5  C   LIG    1       25.640 -31.277   9.900  0.00  0.00    +0.090 C 
ATOM      6  C   LIG    1       24.758 -30.477   8.992  0.00  0.00    +0.075 C 
ATOM      7  N   LIG    1       25.210 -30.337   7.642  0.00  0.00    -0.306 N 
ATOM      8  C   LIG    1       26.038 -31.434   7.186  0.00  0.00    +0.072 C 
ATOM      9  C   LIG    1       26.749 -32.219   8.122  0.00  0.00    +0.088 C 
ATOM     10  C   LIG    1       27.556 -33.278   7.705  0.00  0.00    +0.030 C 
ATOM     11  C   LIG    1       27.654 -33.610   6.358  0.00  0.00    +0.002 C 
ATOM     12  C   LIG    1       26.920 -32.883   5.422  0.00  0.00    +0.002 C 
ATOM     13  C   LIG    1       26.114 -31.811   5.829  0.00  0.00    +0.028 C 
ATOM     14  N   LIG    1       26.618 -32.030   9.509  0.00  0.00    -0.244 NA
ATOM     15  C   LIG    1       23.606 -30.077   9.548  0.00  0.00    +0.057 C 
ENDROOT
BRANCH   7  16
ATOM     16  C   LIG    1       25.203 -29.034   6.982  0.00  0.00    +0.047 A 
ATOM     17  C   LIG    1       24.446 -28.742   5.832  0.00  0.00    +0.027 A 
ATOM     18  C   LIG    1       24.412 -27.471   5.237  0.00  0.00    +0.022 A 
ATOM     19  C   LIG    1       25.148 -26.434   5.780  0.00  0.00    +0.041 A 
ATOM     20 CL   LIG    1       25.103 -24.878   5.051  0.00  0.00    -0.084 Cl
ATOM     21  C   LIG    1       25.910 -26.661   6.916  0.00  0.00    +0.022 A 
ATOM     22  C   LIG    1       25.930 -27.937   7.511  0.00  0.00    +0.027 A 
ENDBRANCH   7  16
BRANCH   1  24
ATOM     23  C   LIG    1       21.149 -28.071  12.876  0.00  0.00    +0.032 C 
ATOM     24  C   LIG    1       21.334 -29.529  12.471  0.00  0.00    +0.100 C 
ATOM     25  C   LIG    1       19.943 -30.127  12.212  0.00  0.00    +0.032 C 
ENDBRANCH   1  24
BRANCH   3  26
ATOM     26  N   LIG    1       23.917 -30.944  13.261  0.00  0.00    -0.313 N 
ATOM     27  H   LIG    1       24.756 -30.964  13.826  0.00  0.00    +0.152 HD
BRANCH  26  28
ATOM     28  C   LIG    1       22.834 -31.649  13.835  0.00  0.00    +0.031 A 
ATOM     29  C   LIG    1       22.189 -31.212  15.001  0.00  0.00    +0.024 A 
ATOM     30  C   LIG    1       21.065 -31.882  15.500  0.00  0.00    +0.022 A 
ATOM     31  C   LIG    1       20.599 -33.023  14.854  0.00  0.00    +0.041 A 
ATOM     32 CL   LIG    1       19.190 -33.825  15.433  0.00  0.00    -0.084 Cl
ATOM     33  C   LIG    1       21.266 -33.515  13.737  0.00  0.00    +0.022 A 
ATOM     34  C   LIG    1       22.379 -32.832  13.230  0.00  0.00    +0.024 A 
ENDBRANCH  26  28
ENDBRANCH   3  26
TORSDOF 4
ENDMDL
MODEL 4
REMARK VINA RESULT:      -5.6      4.065      7.965
REMARK  Name = *****
REMARK                            x       y       z     vdW  Elec       q    Type
REMARK                         _______ _______ _______ _____ _____    ______ ____
ROOT
ATOM      1  N   LIG    1       20.806 -31.525   9.836  0.00  0.00    -0.279 NA
ATOM      2  C   LIG    1       22.046 -31.776  10.056  0.00  0.00    +0.082 C 
ATOM      3  C   LIG    1       22.784 -32.250  11.297  0.00  0.00    +0.059 C 
ATOM      4  C   LIG    1       24.113 -32.376  11.216  0.00  0.00    +0.055 C 
ATOM      5  C   LIG    1       24.897 -32.227   9.974  0.00  0.00    +0.090 C 
ATOM      6  C   LIG    1       24.241 -31.611   8.777  0.00  0.00    +0.075 C 
ATOM      7  N   LIG    1       25.105 -31.295   7.681  0.00  0.00    -0.306 N 
ATOM      8  C   LIG    1       26.278 -32.140   7.601  0.00  0.00    +0.072 C 
ATOM      9  C   LIG    1       26.767 -32.783   8.762  0.00  0.00    +0.088 C 
ATOM     10  C   LIG    1       27.899 -33.598   8.708  0.00  0.00    +0.030 C 
ATOM     11  C   LIG    1       28.555 -33.825   7.503  0.00  0.00    +0.002 C 
ATOM     12  C   LIG    1       28.060 -33.244   6.337  0.00  0.00    +0.002 C 
ATOM     13  C   LIG    1       26.930 -32.416   6.381  0.00  0.00    +0.028 C 
ATOM     14  N   LIG    1       26.100 -32.704   9.997  0.00  0.00    -0.244 NA
ATOM     15  C   LIG    1       22.906 -31.524   8.858  0.00  0.00    +0.057 C 
ENDROOT
BRANCH   7  16
ATOM     16  C   LIG    1       25.026 -29.998   7.016  0.00  0.00    +0.047 A 
ATOM     17  C   LIG    1       24.426 -29.798   5.758  0.00  0.00    +0.027 A 
ATOM     18  C   LIG    1       24.316 -28.537   5.151  0.00  0.00    +0.022 A 
ATOM     19  C   LIG    1       24.811 -27.416   5.792  0.00  0.00    +0.041 A 
ATOM     20 CL   LIG    1       24.672 -25.873   5.050  0.00  0.00    -0.084 Cl
ATOM     21  C   LIG    1       25.408 -27.551   7.037  0.00  0.00    +0.022 A 
ATOM     22  C   LIG    1       25.507 -28.820   7.640  0.00  0.00    +0.027 A 
ENDBRANCH   7  16
BRANCH   1  24
ATOM     23  C   LIG    1       18.501 -30.829  10.248  0.00  0.00    +0.032 C 
ATOM     24  C   LIG    1       19.668 -31.686  10.726  0.00  0.00    +0.100 C 
ATOM     25  C   LIG    1       19.236 -33.157  10.643  0.00  0.00    +0.032 C 
ENDBRANCH   1  24
BRANCH   3  26
ATOM     26  N   LIG    1       22.045 -32.489  12.459  0.00  0.00    -0.313 N 
ATOM     27  H   LIG    1       21.582 -33.388  12.429  0.00  0.00    +0.152 HD
BRANCH  26  28
ATOM     28  C   LIG    1       21.353 -31.524  13.227  0.00  0.00    +0.031 A 
ATOM     29  C   LIG    1       21.708 -30.167  13.222  0.00  0.00    +0.024 A 
ATOM     30  C   LIG    1       20.954 -29.220  13.925  0.00  0.00    +0.022 A 
ATOM     31  C   LIG    1       19.854 -29.630  14.673  0.00  0.00    +0.041 A 
ATOM     32 CL   LIG    1       18.893 -28.466  15.500  0.00  0.00    -0.084 Cl
ATOM     33  C   LIG    1       19.525 -30.979  14.748  0.00  0.00    +0.022 A 
ATOM     34  C   LIG    1       20.272 -31.922  14.030  0.00  0.00    +0.024 A 
ENDBRANCH  26  28
ENDBRANCH   3  26
TORSDOF 4
ENDMDL
MODEL 5
REMARK VINA RESULT:      -5.1      3.851      4.754
REMARK  Name = *****
REMARK                            x       y       z     vdW  Elec       q    Type
REMARK                         _______ _______ _______ _____ _____    ______ ____
ROOT
ATOM      1  N   LIG    1       24.542 -29.381   7.982  0.00  0.00    -0.279 NA
ATOM      2  C   LIG    1       24.865 -30.393   8.704  0.00  0.00    +0.082 C 
ATOM      3  C   LIG    1       25.941 -31.453   8.548  0.00  0.00    +0.059 C 
ATOM      4  C   LIG    1       25.993 -32.423   9.467  0.00  0.00    +0.055 C 
ATOM      5  C   LIG    1       25.176 -32.460  10.697  0.00  0.00    +0.090 C 
ATOM      6  C   LIG    1       24.005 -31.533  10.812  0.00  0.00    +0.075 C 
ATOM      7  N   LIG    1       23.129 -31.763  11.920  0.00  0.00    -0.306 N 
ATOM      8  C   LIG    1       23.781 -32.371  13.062  0.00  0.00    +0.072 C 
ATOM      9  C   LIG    1       24.956 -33.136  12.881  0.00  0.00    +0.088 C 
ATOM     10  C   LIG    1       25.597 -33.734  13.966  0.00  0.00    +0.030 C 
ATOM     11  C   LIG    1       25.115 -33.563  15.260  0.00  0.00    +0.002 C 
ATOM     12  C   LIG    1       23.989 -32.769  15.468  0.00  0.00    +0.002 C 
ATOM     13  C   LIG    1       23.331 -32.172  14.384  0.00  0.00    +0.028 C 
ATOM     14  N   LIG    1       25.578 -33.265  11.626  0.00  0.00    -0.244 NA
ATOM     15  C   LIG    1       23.986 -30.546   9.906  0.00  0.00    +0.057 C 
ENDROOT
BRANCH   7  16
ATOM     16  C   LIG    1       21.681 -31.793  11.737  0.00  0.00    +0.047 A 
ATOM     17  C   LIG    1       20.780 -31.019  12.491  0.00  0.00    +0.027 A 
ATOM     18  C   LIG    1       19.393 -31.023  12.271  0.00  0.00    +0.022 A 
ATOM     19  C   LIG    1       18.853 -31.815  11.275  0.00  0.00    +0.041 A 
ATOM     20 CL   LIG    1       17.156 -31.816  11.005  0.00  0.00    -0.084 Cl
ATOM     21  C   LIG    1       19.694 -32.596  10.495  0.00  0.00    +0.022 A 
ATOM     22  C   LIG    1       21.084 -32.579  10.718  0.00  0.00    +0.027 A 
ENDBRANCH   7  16
BRANCH   1  24
ATOM     23  C   LIG    1       24.126 -28.622   5.697  0.00  0.00    +0.032 C 
ATOM     24  C   LIG    1       25.176 -28.881   6.773  0.00  0.00    +0.100 C 
ATOM     25  C   LIG    1       25.825 -27.536   7.130  0.00  0.00    +0.032 C 
ENDBRANCH   1  24
BRANCH   3  26
ATOM     26  N   LIG    1       26.788 -31.382   7.438  0.00  0.00    -0.313 N 
ATOM     27  H   LIG    1       27.237 -30.478   7.368  0.00  0.00    +0.152 HD
BRANCH  26  28
ATOM     28  C   LIG    1       26.587 -32.010   6.187  0.00  0.00    +0.031 A 
ATOM     29  C   LIG    1       25.383 -31.897   5.477  0.00  0.00    +0.024 A 
ATOM     30  C   LIG    1       25.241 -32.459   4.202  0.00  0.00    +0.022 A 
ATOM     31  C   LIG    1       26.295 -33.173   3.641  0.00  0.00    +0.041 A 
ATOM     32 CL   LIG    1       26.145 -33.824   2.055  0.00  0.00    -0.084 Cl
ATOM     33  C   LIG    1       27.473 -33.357   4.356  0.00  0.00    +0.022 A 
ATOM     34  C   LIG    1       27.618 -32.779   5.624  0.00  0.00    +0.024 A 
ENDBRANCH  26  28
ENDBRANCH   3  26
TORSDOF 4
ENDMDL
MODEL 6
REMARK VINA RESULT:      -5.0      2.983      8.043
REMARK  Name = *****
REMARK                            x       y       z     vdW  Elec       q    Type
REMARK                         _______ _______ _______ _____ _____    ______ ____
ROOT
ATOM      1  N   LIG    1       25.314 -27.192  13.204  0.00  0.00    -0.279 NA
ATOM      2  C   LIG    1       25.812 -28.246  12.665  0.00  0.00    +0.082 C 
ATOM      3  C   LIG    1       26.836 -29.254  13.156  0.00  0.00    +0.059 C 
ATOM      4  C   LIG    1       27.186 -30.239  12.322  0.00  0.00    +0.055 C 
ATOM      5  C   LIG    1       26.547 -30.500  11.017  0.00  0.00    +0.090 C 
ATOM      6  C   LIG    1       25.655 -29.451  10.428  0.00  0.00    +0.075 C 
ATOM      7  N   LIG    1       25.241 -29.667   9.075  0.00  0.00    -0.306 N 
ATOM      8  C   LIG    1       25.188 -31.064   8.697  0.00  0.00    +0.072 C 
ATOM      9  C   LIG    1       25.978 -32.013   9.385  0.00  0.00    +0.088 C 
ATOM     10  C   LIG    1       25.945 -33.364   9.034  0.00  0.00    +0.030 C 
ATOM     11  C   LIG    1       25.108 -33.815   8.019  0.00  0.00    +0.002 C 
ATOM     12  C   LIG    1       24.281 -32.905   7.362  0.00  0.00    +0.002 C 
ATOM     13  C   LIG    1       24.313 -31.545   7.700  0.00  0.00    +0.028 C 
ATOM     14  N   LIG    1       26.764 -31.666  10.498  0.00  0.00    -0.244 NA
ATOM     15  C   LIG    1       25.285 -28.491  11.286  0.00  0.00    +0.057 C 
ENDROOT
BRANCH   7  16
ATOM     16  C   LIG    1       25.310 -28.591   8.091  0.00  0.00    +0.047 A 
ATOM     17  C   LIG    1       24.418 -28.460   7.010  0.00  0.00    +0.027 A 
ATOM     18  C   LIG    1       24.467 -27.393   6.099  0.00  0.00    +0.022 A 
ATOM     19  C   LIG    1       25.427 -26.407   6.240  0.00  0.00    +0.041 A 
ATOM     20 CL   LIG    1       25.483 -25.100   5.125  0.00  0.00    -0.084 Cl
ATOM     21  C   LIG    1       26.330 -26.481   7.289  0.00  0.00    +0.022 A 
ATOM     22  C   LIG    1       26.267 -27.551   8.203  0.00  0.00    +0.027 A 
ENDBRANCH   7  16
BRANCH   1  24
ATOM     23  C   LIG    1       25.686 -25.134  14.467  0.00  0.00    +0.032 C 
ATOM     24  C   LIG    1       25.540 -26.651  14.534  0.00  0.00    +0.100 C 
ATOM     25  C   LIG    1       24.289 -26.967  15.366  0.00  0.00    +0.032 C 
ENDBRANCH   1  24
BRANCH   3  26
ATOM     26  N   LIG    1       27.385 -29.077  14.430  0.00  0.00    -0.313 N 
ATOM     27  H   LIG    1       26.678 -28.828  15.110  0.00  0.00    +0.152 HD
BRANCH  26  28
ATOM     28  C   LIG    1       28.663 -28.550  14.728  0.00  0.00    +0.031 A 
ATOM     29  C   LIG    1       29.832 -29.318  14.625  0.00  0.00    +0.024 A 
ATOM     30  C   LIG    1       31.092 -28.749  14.844  0.00  0.00    +0.022 A 
ATOM     31  C   LIG    1       31.191 -27.409  15.206  0.00  0.00    +0.041 A 
ATOM     32 CL   LIG    1       32.739 -26.690  15.429  0.00  0.00    -0.084 Cl
ATOM     33  C   LIG    1       30.041 -26.647  15.382  0.00  0.00    +0.022 A 
ATOM     34  C   LIG    1       28.783 -27.215  15.145  0.00  0.00    +0.024 A 
ENDBRANCH  26  28
ENDBRANCH   3  26
TORSDOF 4
ENDMDL
MODEL 7
REMARK VINA RESULT:      -4.9      3.618      7.250
REMARK  Name = *****
REMARK                            x       y       z     vdW  Elec       q    Type
REMARK                         _______ _______ _______ _____ _____    ______ ____
ROOT
ATOM      1  N   LIG    1       26.109 -24.594   7.518  0.00  0.00    -0.279 NA
ATOM      2  C   LIG    1       25.740 -25.598   6.807  0.00  0.00    +0.082 C 
ATOM      3  C   LIG    1       25.205 -25.699   5.388  0.00  0.00    +0.059 C 
ATOM      4  C   LIG    1       24.860 -26.912   4.941  0.00  0.00    +0.055 C 
ATOM      5  C   LIG    1       25.094 -28.174   5.671  0.00  0.00    +0.090 C 
ATOM      6  C   LIG    1       25.467 -28.110   7.121  0.00  0.00    +0.075 C 
ATOM      7  N   LIG    1       25.467 -29.356   7.824  0.00  0.00    -0.306 N 
ATOM      8  C   LIG    1       25.738 -30.502   6.981  0.00  0.00    +0.072 C 
ATOM      9  C   LIG    1       25.467 -30.439   5.594  0.00  0.00    +0.088 C 
ATOM     10  C   LIG    1       25.716 -31.533   4.764  0.00  0.00    +0.030 C 
ATOM     11  C   LIG    1       26.270 -32.702   5.275  0.00  0.00    +0.002 C 
ATOM     12  C   LIG    1       26.595 -32.768   6.629  0.00  0.00    +0.002 C 
ATOM     13  C   LIG    1       26.339 -31.678   7.474  0.00  0.00    +0.028 C 
ATOM     14  N   LIG    1       25.017 -29.261   4.973  0.00  0.00    -0.244 NA
ATOM     15  C   LIG    1       25.843 -26.896   7.545  0.00  0.00    +0.057 C 
ENDROOT
BRANCH   7  16
ATOM     16  C   LIG    1       24.827 -29.478   9.130  0.00  0.00    +0.047 A 
ATOM     17  C   LIG    1       23.538 -30.011   9.324  0.00  0.00    +0.027 A 
ATOM     18  C   LIG    1       22.953 -30.165  10.591  0.00  0.00    +0.022 A 
ATOM     19  C   LIG    1       23.649 -29.786  11.725  0.00  0.00    +0.041 A 
ATOM     20 CL   LIG    1       22.933 -29.980  13.274  0.00  0.00    -0.084 Cl
ATOM     21  C   LIG    1       24.926 -29.260  11.596  0.00  0.00    +0.022 A 
ATOM     22  C   LIG    1       25.507 -29.116  10.320  0.00  0.00    +0.027 A 
ENDBRANCH   7  16
BRANCH   1  24
ATOM     23  C   LIG    1       25.753 -22.311   8.311  0.00  0.00    +0.032 C 
ATOM     24  C   LIG    1       26.193 -23.191   7.146  0.00  0.00    +0.100 C 
ATOM     25  C   LIG    1       27.671 -22.890   6.860  0.00  0.00    +0.032 C 
ENDBRANCH   1  24
BRANCH   3  26
ATOM     26  N   LIG    1       25.066 -24.523   4.645  0.00  0.00    -0.313 N 
ATOM     27  H   LIG    1       25.883 -24.341   4.077  0.00  0.00    +0.152 HD
BRANCH  26  28
ATOM     28  C   LIG    1       24.388 -23.350   5.050  0.00  0.00    +0.031 A 
ATOM     29  C   LIG    1       23.341 -23.374   5.983  0.00  0.00    +0.024 A 
ATOM     30  C   LIG    1       22.743 -22.189   6.429  0.00  0.00    +0.022 A 
ATOM     31  C   LIG    1       23.166 -20.967   5.916  0.00  0.00    +0.041 A 
ATOM     32 CL   LIG    1       22.471 -19.503   6.495  0.00  0.00    -0.084 Cl
ATOM     33  C   LIG    1       24.155 -20.924   4.938  0.00  0.00    +0.022 A 
ATOM     34  C   LIG    1       24.762 -22.111   4.507  0.00  0.00    +0.024 A 
ENDBRANCH  26  28
ENDBRANCH   3  26
TORSDOF 4
ENDMDL
MODEL 8
REMARK VINA RESULT:      -4.4      5.384      7.186
REMARK  Name = *****
REMARK                            x       y       z     vdW  Elec       q    Type
REMARK                         _______ _______ _______ _____ _____    ______ ____
ROOT
ATOM      1  N   LIG    1       23.529 -28.392  14.351  0.00  0.00    -0.279 NA
ATOM      2  C   LIG    1       22.860 -29.062  13.483  0.00  0.00    +0.082 C 
ATOM      3  C   LIG    1       23.225 -29.598  12.110  0.00  0.00    +0.059 C 
ATOM      4  C   LIG    1       22.271 -30.231  11.418  0.00  0.00    +0.055 C 
ATOM      5  C   LIG    1       20.935 -30.570  11.947  0.00  0.00    +0.090 C 
ATOM      6  C   LIG    1       20.481 -29.929  13.223  0.00  0.00    +0.075 C 
ATOM      7  N   LIG    1       19.106 -30.127  13.569  0.00  0.00    -0.306 N 
ATOM      8  C   LIG    1       18.545 -31.356  13.050  0.00  0.00    +0.072 C 
ATOM      9  C   LIG    1       19.110 -31.963  11.905  0.00  0.00    +0.088 C 
ATOM     10  C   LIG    1       18.581 -33.146  11.385  0.00  0.00    +0.030 C 
ATOM     11  C   LIG    1       17.505 -33.776  12.002  0.00  0.00    +0.002 C 
ATOM     12  C   LIG    1       16.966 -33.224  13.163  0.00  0.00    +0.002 C 
ATOM     13  C   LIG    1       17.483 -32.030  13.687  0.00  0.00    +0.028 C 
ATOM     14  N   LIG    1       20.268 -31.461  11.287  0.00  0.00    -0.244 NA
ATOM     15  C   LIG    1       21.455 -29.331  13.921  0.00  0.00    +0.057 C 
ENDROOT
BRANCH   7  16
ATOM     16  C   LIG    1       18.276 -29.007  14.001  0.00  0.00    +0.047 A 
ATOM     17  C   LIG    1       16.965 -29.148  14.494  0.00  0.00    +0.027 A 
ATOM     18  C   LIG    1       16.195 -28.067  14.951  0.00  0.00    +0.022 A 
ATOM     19  C   LIG    1       16.719 -26.787  14.929  0.00  0.00    +0.041 A 
ATOM     20 CL   LIG    1       15.776 -25.465  15.491  0.00  0.00    -0.084 Cl
ATOM     21  C   LIG    1       18.008 -26.587  14.458  0.00  0.00    +0.022 A 
ATOM     22  C   LIG    1       18.775 -27.680  14.010  0.00  0.00    +0.027 A 
ENDBRANCH   7  16
BRANCH   1  24
ATOM     23  C   LIG    1       25.066 -26.562  14.857  0.00  0.00    +0.032 C 
ATOM     24  C   LIG    1       24.923 -27.979  14.312  0.00  0.00    +0.100 C 
ATOM     25  C   LIG    1       25.698 -28.922  15.244  0.00  0.00    +0.032 C 
ENDBRANCH   1  24
BRANCH   3  26
ATOM     26  N   LIG    1       24.518 -29.369  11.628  0.00  0.00    -0.313 N 
ATOM     27  H   LIG    1       24.783 -28.397  11.718  0.00  0.00    +0.152 HD
BRANCH  26  28
ATOM     28  C   LIG    1       25.136 -30.024  10.538  0.00  0.00    +0.031 A 
ATOM     29  C   LIG    1       25.763 -31.271  10.670  0.00  0.00    +0.024 A 
ATOM     30  C   LIG    1       26.292 -31.936   9.557  0.00  0.00    +0.022 A 
ATOM     31  C   LIG    1       26.231 -31.337   8.302  0.00  0.00    +0.041 A 
ATOM     32 CL   LIG    1       26.836 -32.169   6.922  0.00  0.00    -0.084 Cl
ATOM     33  C   LIG    1       25.677 -30.070   8.160  0.00  0.00    +0.022 A 
ATOM     34  C   LIG    1       25.133 -29.416   9.272  0.00  0.00    +0.024 A 
ENDBRANCH  26  28
ENDBRANCH   3  26
TORSDOF 4
ENDMDL
MODEL 9
REMARK VINA RESULT:      -4.2      2.981      8.087
REMARK  Name = *****
REMARK                            x       y       z     vdW  Elec       q    Type
REMARK                         _______ _______ _______ _____ _____    ______ ____
ROOT
ATOM      1  N   LIG    1       25.472 -27.215  12.708  0.00  0.00    -0.279 NA
ATOM      2  C   LIG    1       25.107 -28.425  12.940  0.00  0.00    +0.082 C 
ATOM      3  C   LIG    1       25.349 -29.352  14.118  0.00  0.00    +0.059 C 
ATOM      4  C   LIG    1       24.865 -30.596  14.037  0.00  0.00    +0.055 C 
ATOM      5  C   LIG    1       23.993 -31.088  12.951  0.00  0.00    +0.090 C 
ATOM      6  C   LIG    1       23.861 -30.269  11.704  0.00  0.00    +0.075 C 
ATOM      7  N   LIG    1       23.183 -30.895  10.611  0.00  0.00    -0.306 N 
ATOM      8  C   LIG    1       22.210 -31.888  11.019  0.00  0.00    +0.072 C 
ATOM      9  C   LIG    1       22.342 -32.533  12.271  0.00  0.00    +0.088 C 
ATOM     10  C   LIG    1       21.419 -33.496  12.682  0.00  0.00    +0.030 C 
ATOM     11  C   LIG    1       20.327 -33.821  11.884  0.00  0.00    +0.002 C 
ATOM     12  C   LIG    1       20.148 -33.159  10.670  0.00  0.00    +0.002 C 
ATOM     13  C   LIG    1       21.075 -32.197  10.243  0.00  0.00    +0.028 C 
ATOM     14  N   LIG    1       23.347 -32.184  13.190  0.00  0.00    -0.244 NA
ATOM     15  C   LIG    1       24.319 -29.015  11.813  0.00  0.00    +0.057 C 
ENDROOT
BRANCH   7  16
ATOM     16  C   LIG    1       23.738 -30.850   9.262  0.00  0.00    +0.047 A 
ATOM     17  C   LIG    1       24.027 -29.657   8.573  0.00  0.00    +0.027 A 
ATOM     18  C   LIG    1       24.605 -29.629   7.294  0.00  0.00    +0.022 A 
ATOM     19  C   LIG    1       24.916 -30.813   6.650  0.00  0.00    +0.041 A 
ATOM     20 CL   LIG    1       25.626 -30.776   5.085  0.00  0.00    -0.084 Cl
ATOM     21  C   LIG    1       24.658 -32.020   7.281  0.00  0.00    +0.022 A 
ATOM     22  C   LIG    1       24.086 -32.037   8.568  0.00  0.00    +0.027 A 
ENDBRANCH   7  16
BRANCH   1  24
ATOM     23  C   LIG    1       27.148 -25.438  12.734  0.00  0.00    +0.032 C 
ATOM     24  C   LIG    1       26.206 -26.300  13.567  0.00  0.00    +0.100 C 
ATOM     25  C   LIG    1       25.172 -25.371  14.220  0.00  0.00    +0.032 C 
ENDBRANCH   1  24
BRANCH   3  26
ATOM     26  N   LIG    1       26.093 -28.873  15.200  0.00  0.00    -0.313 N 
ATOM     27  H   LIG    1       25.679 -28.041  15.600  0.00  0.00    +0.152 HD
BRANCH  26  28
ATOM     28  C   LIG    1       27.500 -28.923  15.339  0.00  0.00    +0.031 A 
ATOM     29  C   LIG    1       28.203 -30.135  15.402  0.00  0.00    +0.024 A 
ATOM     30  C   LIG    1       29.602 -30.157  15.455  0.00  0.00    +0.022 A 
ATOM     31  C   LIG    1       30.311 -28.959  15.483  0.00  0.00    +0.041 A 
ATOM     32 CL   LIG    1       32.032 -28.977  15.498  0.00  0.00    -0.084 Cl
ATOM     33  C   LIG    1       29.631 -27.746  15.492  0.00  0.00    +0.022 A 
ATOM     34  C   LIG    1       28.232 -27.728  15.422  0.00  0.00    +0.024 A 
ENDBRANCH  26  28
ENDBRANCH   3  26
TORSDOF 4
ENDMDL
