MODEL 1
REMARK VINA RESULT:      -3.9      0.000      0.000
REMARK  Name = *****
REMARK                            x       y       z     vdW  Elec       q    Type
REMARK                         _______ _______ _______ _____ _____    ______ ____
ROOT
ATOM      1  C   LIG    1       26.393 -19.779   5.422  0.00  0.00    +0.176 C 
ENDROOT
BRANCH   1   2
ATOM      2  O   LIG    1       26.233 -20.535   4.209  0.00  0.00    -0.387 OA
ATOM      3  H   LIG    1       26.430 -21.470   4.435  0.00  0.00    +0.210 HD
ENDBRANCH   1   2
BRANCH   1   4
ATOM      4  C   LIG    1       25.844 -20.653   6.585  0.00  0.00    +0.173 C 
BRANCH   4   5
ATOM      5  O   LIG    1       26.844 -21.567   7.053  0.00  0.00    -0.387 OA
ATOM      6  H   LIG    1       26.450 -22.023   7.823  0.00  0.00    +0.210 HD
ENDBRANCH   4   5
BRANCH   4   7
ATOM      7  C   LIG    1       24.623 -21.505   6.201  0.00  0.00    +0.227 C 
BRANCH   7   8
ATOM      8  O   LIG    1       23.410 -20.761   6.202  0.00  0.00    -0.236 OA
BRANCH   8  10
ATOM      9  C   LIG    1       22.390 -18.884   4.765  0.00  0.00    +0.228 C 
ATOM     10  S   LIG    1       22.654 -20.639   4.756  0.00  0.00    +0.079 S 
ATOM     11  O   LIG    1       23.601 -20.950   3.707  0.00  0.00    -0.147 OA
ATOM     12  O   LIG    1       21.367 -21.294   4.849  0.00  0.00    -0.147 OA
ENDBRANCH   8  10
ENDBRANCH   7   8
ENDBRANCH   4   7
ENDBRANCH   1   4
BRANCH   1  13
ATOM     13  C   LIG    1       27.898 -19.383   5.597  0.00  0.00    +0.176 C 
BRANCH  13  14
ATOM     14  O   LIG    1       28.737 -20.530   5.401  0.00  0.00    -0.387 OA
ATOM     15  H   LIG    1       29.603 -20.193   5.099  0.00  0.00    +0.210 HD
ENDBRANCH  13  14
BRANCH  13  16
ATOM     16  C   LIG    1       28.356 -18.272   4.606  0.00  0.00    +0.173 C 
BRANCH  16  17
ATOM     17  O   LIG    1       29.342 -17.455   5.269  0.00  0.00    -0.387 OA
ATOM     18  H   LIG    1       29.459 -17.807   6.172  0.00  0.00    +0.210 HD
ENDBRANCH  16  17
BRANCH  16  19
ATOM     19  C   LIG    1       27.186 -17.396   4.087  0.00  0.00    +0.227 C 
BRANCH  19  20
ATOM     20  O   LIG    1       27.606 -16.025   3.962  0.00  0.00    -0.236 OA
BRANCH  20  21
ATOM     21  S   LIG    1       26.487 -14.956   3.413  0.00  0.00    +0.079 S 
ATOM     22  O   LIG    1       25.165 -15.504   3.681  0.00  0.00    -0.147 OA
ATOM     23  O   LIG    1       26.878 -14.513   2.100  0.00  0.00    -0.147 OA
ATOM     24  C   LIG    1       26.780 -13.628   4.568  0.00  0.00    +0.228 C 
ENDBRANCH  20  21
ENDBRANCH  19  20
ENDBRANCH  16  19
ENDBRANCH  13  16
ENDBRANCH   1  13
TORSDOF 13
ENDMDL
MODEL 2
REMARK VINA RESULT:      -3.8      0.106      5.675
REMARK  Name = *****
REMARK                            x       y       z     vdW  Elec       q    Type
REMARK                         _______ _______ _______ _____ _____    ______ ____
ROOT
ATOM      1  C   LIG    1       27.909 -19.400   5.617  0.00  0.00    +0.176 C 
ENDROOT
BRANCH   1   2
ATOM      2  O   LIG    1       28.745 -20.542   5.358  0.00  0.00    -0.387 OA
ATOM      3  H   LIG    1       29.584 -20.389   5.845  0.00  0.00    +0.210 HD
ENDBRANCH   1   2
BRANCH   1   4
ATOM      4  C   LIG    1       28.362 -18.270   4.652  0.00  0.00    +0.173 C 
BRANCH   4   5
ATOM      5  O   LIG    1       29.322 -17.413   5.283  0.00  0.00    -0.387 OA
ATOM      6  H   LIG    1       28.950 -16.511   5.233  0.00  0.00    +0.210 HD
ENDBRANCH   4   5
BRANCH   4   7
ATOM      7  C   LIG    1       27.216 -17.360   4.176  0.00  0.00    +0.227 C 
BRANCH   7   8
ATOM      8  O   LIG    1       27.671 -16.084   3.741  0.00  0.00    -0.236 OA
BRANCH   8  10
ATOM      9  C   LIG    1       26.836 -13.802   4.591  0.00  0.00    +0.228 C 
ATOM     10  S   LIG    1       26.500 -15.014   3.340  0.00  0.00    +0.079 S 
ATOM     11  O   LIG    1       26.817 -14.438   2.052  0.00  0.00    -0.147 OA
ATOM     12  O   LIG    1       25.211 -15.613   3.618  0.00  0.00    -0.147 OA
ENDBRANCH   8  10
ENDBRANCH   7   8
ENDBRANCH   4   7
ENDBRANCH   1   4
BRANCH   1  13
ATOM     13  C   LIG    1       26.406 -19.803   5.445  0.00  0.00    +0.176 C 
BRANCH  13  14
ATOM     14  O   LIG    1       26.228 -20.544   4.229  0.00  0.00    -0.387 OA
ATOM     15  H   LIG    1       27.122 -20.781   3.915  0.00  0.00    +0.210 HD
ENDBRANCH  13  14
BRANCH  13  16
ATOM     16  C   LIG    1       25.866 -20.668   6.622  0.00  0.00    +0.173 C 
BRANCH  16  17
ATOM     17  O   LIG    1       26.924 -21.544   7.062  0.00  0.00    -0.387 OA
ATOM     18  H   LIG    1       27.070 -21.376   8.012  0.00  0.00    +0.210 HD
ENDBRANCH  16  17
BRANCH  16  19
ATOM     19  C   LIG    1       24.603 -21.489   6.248  0.00  0.00    +0.227 C 
BRANCH  19  20
ATOM     20  O   LIG    1       23.455 -20.626   6.158  0.00  0.00    -0.236 OA
BRANCH  20  21
ATOM     21  S   LIG    1       22.686 -20.568   4.709  0.00  0.00    +0.079 S 
ATOM     22  O   LIG    1       21.399 -21.236   4.850  0.00  0.00    -0.147 OA
ATOM     23  O   LIG    1       23.622 -20.926   3.675  0.00  0.00    -0.147 OA
ATOM     24  C   LIG    1       22.391 -18.811   4.619  0.00  0.00    +0.228 C 
ENDBRANCH  20  21
ENDBRANCH  19  20
ENDBRANCH  16  19
ENDBRANCH  13  16
ENDBRANCH   1  13
TORSDOF 13
ENDMDL
MODEL 3
REMARK VINA RESULT:      -3.8      2.120      3.413
REMARK  Name = *****
REMARK                            x       y       z     vdW  Elec       q    Type
REMARK                         _______ _______ _______ _____ _____    ______ ____
ROOT
ATOM      1  C   LIG    1       26.488 -17.701   3.290  0.00  0.00    +0.176 C 
ENDROOT
BRANCH   1   2
ATOM      2  O   LIG    1       27.735 -17.555   3.992  0.00  0.00    -0.387 OA
ATOM      3  H   LIG    1       27.702 -18.178   4.751  0.00  0.00    +0.210 HD
ENDBRANCH   1   2
BRANCH   1   4
ATOM      4  C   LIG    1       25.603 -18.671   4.121  0.00  0.00    +0.173 C 
BRANCH   4   5
ATOM      5  O   LIG    1       26.339 -19.845   4.488  0.00  0.00    -0.387 OA
ATOM      6  H   LIG    1       25.682 -20.568   4.538  0.00  0.00    +0.210 HD
ENDBRANCH   4   5
BRANCH   4   7
ATOM      7  C   LIG    1       24.348 -19.160   3.379  0.00  0.00    +0.227 C 
BRANCH   7   8
ATOM      8  O   LIG    1       23.808 -20.353   3.936  0.00  0.00    -0.236 OA
BRANCH   8  10
ATOM      9  C   LIG    1       23.487 -20.604   6.478  0.00  0.00    +0.228 C 
ATOM     10  S   LIG    1       22.595 -20.145   5.014  0.00  0.00    +0.079 S 
ATOM     11  O   LIG    1       22.282 -18.735   5.096  0.00  0.00    -0.147 OA
ATOM     12  O   LIG    1       21.578 -21.145   4.766  0.00  0.00    -0.147 OA
ENDBRANCH   8  10
ENDBRANCH   7   8
ENDBRANCH   4   7
ENDBRANCH   1   4
BRANCH   1  13
ATOM     13  C   LIG    1       25.839 -16.291   3.078  0.00  0.00    +0.176 C 
BRANCH  13  14
ATOM     14  O   LIG    1       24.836 -16.054   4.076  0.00  0.00    -0.387 OA
ATOM     15  H   LIG    1       24.371 -16.903   4.210  0.00  0.00    +0.210 HD
ENDBRANCH  13  14
BRANCH  13  16
ATOM     16  C   LIG    1       26.871 -15.127   3.143  0.00  0.00    +0.173 C 
BRANCH  16  17
ATOM     17  O   LIG    1       27.207 -14.898   4.527  0.00  0.00    -0.387 OA
ATOM     18  H   LIG    1       26.650 -14.163   4.848  0.00  0.00    +0.210 HD
ENDBRANCH  16  17
BRANCH  16  19
ATOM     19  C   LIG    1       26.358 -13.819   2.485  0.00  0.00    +0.227 C 
BRANCH  19  20
ATOM     20  O   LIG    1       25.748 -12.969   3.474  0.00  0.00    -0.236 OA
BRANCH  20  21
ATOM     21  S   LIG    1       24.180 -12.550   3.223  0.00  0.00    +0.079 S 
ATOM     22  O   LIG    1       23.384 -13.769   3.188  0.00  0.00    -0.147 OA
ATOM     23  O   LIG    1       24.128 -11.573   2.167  0.00  0.00    -0.147 OA
ATOM     24  C   LIG    1       23.861 -11.724   4.772  0.00  0.00    +0.228 C 
ENDBRANCH  20  21
ENDBRANCH  19  20
ENDBRANCH  16  19
ENDBRANCH  13  16
ENDBRANCH   1  13
TORSDOF 13
ENDMDL
MODEL 4
REMARK VINA RESULT:      -3.7      2.130      6.549
REMARK  Name = *****
REMARK                            x       y       z     vdW  Elec       q    Type
REMARK                         _______ _______ _______ _____ _____    ______ ____
ROOT
ATOM      1  C   LIG    1       25.762 -16.368   3.067  0.00  0.00    +0.176 C 
ENDROOT
BRANCH   1   2
ATOM      2  O   LIG    1       24.715 -16.183   4.036  0.00  0.00    -0.387 OA
ATOM      3  H   LIG    1       23.867 -16.276   3.550  0.00  0.00    +0.210 HD
ENDBRANCH   1   2
BRANCH   1   4
ATOM      4  C   LIG    1       26.734 -15.163   3.203  0.00  0.00    +0.173 C 
BRANCH   4   5
ATOM      5  O   LIG    1       26.886 -14.783   4.576  0.00  0.00    -0.387 OA
ATOM      6  H   LIG    1       27.008 -15.616   5.072  0.00  0.00    +0.210 HD
ENDBRANCH   4   5
BRANCH   4   7
ATOM      7  C   LIG    1       26.274 -13.903   2.452  0.00  0.00    +0.227 C 
BRANCH   7   8
ATOM      8  O   LIG    1       25.782 -12.891   3.323  0.00  0.00    -0.236 OA
BRANCH   8  10
ATOM      9  C   LIG    1       23.953 -11.789   4.760  0.00  0.00    +0.228 C 
ATOM     10  S   LIG    1       24.192 -12.536   3.169  0.00  0.00    +0.079 S 
ATOM     11  O   LIG    1       24.040 -11.512   2.159  0.00  0.00    -0.147 OA
ATOM     12  O   LIG    1       23.443 -13.774   3.128  0.00  0.00    -0.147 OA
ENDBRANCH   8  10
ENDBRANCH   7   8
ENDBRANCH   4   7
ENDBRANCH   1   4
BRANCH   1  13
ATOM     13  C   LIG    1       26.451 -17.755   3.300  0.00  0.00    +0.176 C 
BRANCH  13  14
ATOM     14  O   LIG    1       27.691 -17.580   3.999  0.00  0.00    -0.387 OA
ATOM     15  H   LIG    1       27.468 -17.510   4.947  0.00  0.00    +0.210 HD
ENDBRANCH  13  14
BRANCH  13  16
ATOM     16  C   LIG    1       25.570 -18.746   4.116  0.00  0.00    +0.173 C 
BRANCH  16  17
ATOM     17  O   LIG    1       26.407 -19.831   4.564  0.00  0.00    -0.387 OA
ATOM     18  H   LIG    1       27.319 -19.640   4.273  0.00  0.00    +0.210 HD
ENDBRANCH  16  17
BRANCH  16  19
ATOM     19  C   LIG    1       24.359 -19.291   3.314  0.00  0.00    +0.227 C 
BRANCH  19  20
ATOM     20  O   LIG    1       23.814 -20.456   3.961  0.00  0.00    -0.236 OA
BRANCH  20  21
ATOM     21  S   LIG    1       22.602 -20.204   5.039  0.00  0.00    +0.079 S 
ATOM     22  O   LIG    1       21.565 -21.197   4.797  0.00  0.00    -0.147 OA
ATOM     23  O   LIG    1       22.313 -18.794   5.086  0.00  0.00    -0.147 OA
ATOM     24  C   LIG    1       23.462 -20.654   6.536  0.00  0.00    +0.228 C 
ENDBRANCH  20  21
ENDBRANCH  19  20
ENDBRANCH  16  19
ENDBRANCH  13  16
ENDBRANCH   1  13
TORSDOF 13
ENDMDL
MODEL 5
REMARK VINA RESULT:      -3.4      1.943      2.906
REMARK  Name = *****
REMARK                            x       y       z     vdW  Elec       q    Type
REMARK                         _______ _______ _______ _____ _____    ______ ____
ROOT
ATOM      1  C   LIG    1       25.424 -18.612   3.683  0.00  0.00    +0.176 C 
ENDROOT
BRANCH   1   2
ATOM      2  O   LIG    1       25.740 -19.140   2.382  0.00  0.00    -0.387 OA
ATOM      3  H   LIG    1       26.720 -19.146   2.315  0.00  0.00    +0.210 HD
ENDBRANCH   1   2
BRANCH   1   4
ATOM      4  C   LIG    1       25.767 -19.714   4.723  0.00  0.00    +0.173 C 
BRANCH   4   5
ATOM      5  O   LIG    1       27.145 -20.099   4.623  0.00  0.00    -0.387 OA
ATOM      6  H   LIG    1       27.639 -19.470   5.185  0.00  0.00    +0.210 HD
ENDBRANCH   4   5
BRANCH   4   7
ATOM      7  C   LIG    1       24.944 -21.002   4.562  0.00  0.00    +0.227 C 
BRANCH   7   8
ATOM      8  O   LIG    1       23.657 -20.767   4.002  0.00  0.00    -0.236 OA
BRANCH   8  10
ATOM      9  C   LIG    1       23.208 -21.299   6.480  0.00  0.00    +0.228 C 
ATOM     10  S   LIG    1       22.451 -20.517   5.079  0.00  0.00    +0.079 S 
ATOM     11  O   LIG    1       22.354 -19.099   5.349  0.00  0.00    -0.147 OA
ATOM     12  O   LIG    1       21.303 -21.304   4.681  0.00  0.00    -0.147 OA
ENDBRANCH   8  10
ENDBRANCH   7   8
ENDBRANCH   4   7
ENDBRANCH   1   4
BRANCH   1  13
ATOM     13  C   LIG    1       26.206 -17.274   3.909  0.00  0.00    +0.176 C 
BRANCH  13  14
ATOM     14  O   LIG    1       27.558 -17.409   3.451  0.00  0.00    -0.387 OA
ATOM     15  H   LIG    1       27.523 -17.932   2.627  0.00  0.00    +0.210 HD
ENDBRANCH  13  14
BRANCH  13  16
ATOM     16  C   LIG    1       25.565 -16.059   3.174  0.00  0.00    +0.173 C 
BRANCH  16  17
ATOM     17  O   LIG    1       26.627 -15.242   2.643  0.00  0.00    -0.387 OA
ATOM     18  H   LIG    1       26.772 -14.504   3.265  0.00  0.00    +0.210 HD
ENDBRANCH  16  17
BRANCH  16  19
ATOM     19  C   LIG    1       24.635 -15.215   4.086  0.00  0.00    +0.227 C 
BRANCH  19  20
ATOM     20  O   LIG    1       23.984 -14.186   3.319  0.00  0.00    -0.236 OA
BRANCH  20  21
ATOM     21  S   LIG    1       24.649 -12.686   3.381  0.00  0.00    +0.079 S 
ATOM     22  O   LIG    1       23.576 -11.722   3.582  0.00  0.00    -0.147 OA
ATOM     23  O   LIG    1       25.598 -12.559   2.306  0.00  0.00    -0.147 OA
ATOM     24  C   LIG    1       25.549 -12.842   4.913  0.00  0.00    +0.228 C 
ENDBRANCH  20  21
ENDBRANCH  19  20
ENDBRANCH  16  19
ENDBRANCH  13  16
ENDBRANCH   1  13
TORSDOF 13
ENDMDL
MODEL 6
REMARK VINA RESULT:      -3.4      1.850      6.415
REMARK  Name = *****
REMARK                            x       y       z     vdW  Elec       q    Type
REMARK                         _______ _______ _______ _____ _____    ______ ____
ROOT
ATOM      1  C   LIG    1       26.277 -17.247   3.916  0.00  0.00    +0.176 C 
ENDROOT
BRANCH   1   2
ATOM      2  O   LIG    1       27.648 -17.371   3.499  0.00  0.00    -0.387 OA
ATOM      3  H   LIG    1       27.858 -16.559   2.987  0.00  0.00    +0.210 HD
ENDBRANCH   1   2
BRANCH   1   4
ATOM      4  C   LIG    1       25.673 -16.034   3.154  0.00  0.00    +0.173 C 
BRANCH   4   5
ATOM      5  O   LIG    1       26.708 -15.187   2.640  0.00  0.00    -0.387 OA
ATOM      6  H   LIG    1       26.848 -14.495   3.316  0.00  0.00    +0.210 HD
ENDBRANCH   4   5
BRANCH   4   7
ATOM      7  C   LIG    1       24.771 -15.139   4.022  0.00  0.00    +0.227 C 
BRANCH   7   8
ATOM      8  O   LIG    1       24.076 -14.157   3.263  0.00  0.00    -0.236 OA
BRANCH   8  10
ATOM      9  C   LIG    1       25.546 -12.804   4.886  0.00  0.00    +0.228 C 
ATOM     10  S   LIG    1       24.681 -12.639   3.345  0.00  0.00    +0.079 S 
ATOM     11  O   LIG    1       25.658 -12.469   2.292  0.00  0.00    -0.147 OA
ATOM     12  O   LIG    1       23.585 -11.713   3.534  0.00  0.00    -0.147 OA
ENDBRANCH   8  10
ENDBRANCH   7   8
ENDBRANCH   4   7
ENDBRANCH   1   4
BRANCH   1  13
ATOM     13  C   LIG    1       25.523 -18.592   3.644  0.00  0.00    +0.176 C 
BRANCH  13  14
ATOM     14  O   LIG    1       25.892 -19.115   2.361  0.00  0.00    -0.387 OA
ATOM     15  H   LIG    1       25.295 -18.699   1.709  0.00  0.00    +0.210 HD
ENDBRANCH  13  14
BRANCH  13  16
ATOM     16  C   LIG    1       25.817 -19.684   4.715  0.00  0.00    +0.173 C 
BRANCH  16  17
ATOM     17  O   LIG    1       27.223 -20.002   4.662  0.00  0.00    -0.387 OA
ATOM     18  H   LIG    1       27.684 -19.405   5.281  0.00  0.00    +0.210 HD
ENDBRANCH  16  17
BRANCH  16  19
ATOM     19  C   LIG    1       24.964 -20.967   4.530  0.00  0.00    +0.227 C 
BRANCH  19  20
ATOM     20  O   LIG    1       23.679 -20.636   3.971  0.00  0.00    -0.236 OA
BRANCH  20  21
ATOM     21  S   LIG    1       22.461 -20.354   5.035  0.00  0.00    +0.079 S 
ATOM     22  O   LIG    1       23.028 -20.317   6.376  0.00  0.00    -0.147 OA
ATOM     23  O   LIG    1       21.350 -21.206   4.699  0.00  0.00    -0.147 OA
ATOM     24  C   LIG    1       22.056 -18.683   4.559  0.00  0.00    +0.228 C 
ENDBRANCH  20  21
ENDBRANCH  19  20
ENDBRANCH  16  19
ENDBRANCH  13  16
ENDBRANCH   1  13
TORSDOF 13
ENDMDL
MODEL 7
REMARK VINA RESULT:      -2.8      2.018      6.778
REMARK  Name = *****
REMARK                            x       y       z     vdW  Elec       q    Type
REMARK                         _______ _______ _______ _____ _____    ______ ____
ROOT
ATOM      1  C   LIG    1       24.797 -16.863   3.213  0.00  0.00    +0.176 C 
ENDROOT
BRANCH   1   2
ATOM      2  O   LIG    1       23.689 -17.181   4.075  0.00  0.00    -0.387 OA
ATOM      3  H   LIG    1       23.516 -18.141   3.961  0.00  0.00    +0.210 HD
ENDBRANCH   1   2
BRANCH   1   4
ATOM      4  C   LIG    1       25.365 -15.494   3.681  0.00  0.00    +0.173 C 
BRANCH   4   5
ATOM      5  O   LIG    1       24.337 -14.691   4.276  0.00  0.00    -0.387 OA
ATOM      6  H   LIG    1       23.804 -15.302   4.821  0.00  0.00    +0.210 HD
ENDBRANCH   4   5
BRANCH   4   7
ATOM      7  C   LIG    1       25.973 -14.651   2.547  0.00  0.00    +0.227 C 
BRANCH   7   8
ATOM      8  O   LIG    1       26.661 -13.501   3.024  0.00  0.00    -0.236 OA
BRANCH   8  10
ATOM      9  C   LIG    1       28.833 -12.522   4.001  0.00  0.00    +0.228 C 
ATOM     10  S   LIG    1       27.582 -13.729   4.357  0.00  0.00    +0.079 S 
ATOM     11  O   LIG    1       26.841 -13.286   5.517  0.00  0.00    -0.147 OA
ATOM     12  O   LIG    1       28.183 -15.044   4.285  0.00  0.00    -0.147 OA
ENDBRANCH   8  10
ENDBRANCH   7   8
ENDBRANCH   4   7
ENDBRANCH   1   4
BRANCH   1  13
ATOM     13  C   LIG    1       25.847 -18.023   3.260  0.00  0.00    +0.176 C 
BRANCH  13  14
ATOM     14  O   LIG    1       27.083 -17.549   3.811  0.00  0.00    -0.387 OA
ATOM     15  H   LIG    1       27.715 -17.492   3.068  0.00  0.00    +0.210 HD
ENDBRANCH  13  14
BRANCH  13  16
ATOM     16  C   LIG    1       25.375 -19.242   4.106  0.00  0.00    +0.173 C 
BRANCH  16  17
ATOM     17  O   LIG    1       26.531 -20.040   4.432  0.00  0.00    -0.387 OA
ATOM     18  H   LIG    1       26.488 -20.247   5.385  0.00  0.00    +0.210 HD
ENDBRANCH  16  17
BRANCH  16  19
ATOM     19  C   LIG    1       24.304 -20.106   3.390  0.00  0.00    +0.227 C 
BRANCH  19  20
ATOM     20  O   LIG    1       23.807 -21.123   4.278  0.00  0.00    -0.236 OA
BRANCH  20  21
ATOM     21  S   LIG    1       22.553 -20.707   5.252  0.00  0.00    +0.079 S 
ATOM     22  O   LIG    1       21.424 -21.571   4.935  0.00  0.00    -0.147 OA
ATOM     23  O   LIG    1       22.436 -19.272   5.265  0.00  0.00    -0.147 OA
ATOM     24  C   LIG    1       23.229 -21.233   6.817  0.00  0.00    +0.228 C 
ENDBRANCH  20  21
ENDBRANCH  19  20
ENDBRANCH  16  19
ENDBRANCH  13  16
ENDBRANCH   1  13
TORSDOF 13
ENDMDL
MODEL 8
REMARK VINA RESULT:      -2.5      2.886      7.463
REMARK  Name = *****
REMARK                            x       y       z     vdW  Elec       q    Type
REMARK                         _______ _______ _______ _____ _____    ______ ____
ROOT
ATOM      1  C   LIG    1       24.038 -14.016   4.101  0.00  0.00    +0.176 C 
ENDROOT
BRANCH   1   2
ATOM      2  O   LIG    1       24.995 -13.987   5.175  0.00  0.00    -0.387 OA
ATOM      3  H   LIG    1       25.861 -14.233   4.783  0.00  0.00    +0.210 HD
ENDBRANCH   1   2
BRANCH   1   4
ATOM      4  C   LIG    1       24.592 -13.107   2.967  0.00  0.00    +0.173 C 
BRANCH   4   5
ATOM      5  O   LIG    1       23.700 -13.090   1.846  0.00  0.00    -0.387 OA
ATOM      6  H   LIG    1       23.411 -14.015   1.720  0.00  0.00    +0.210 HD
ENDBRANCH   4   5
BRANCH   4   7
ATOM      7  C   LIG    1       25.962 -13.550   2.426  0.00  0.00    +0.227 C 
BRANCH   7   8
ATOM      8  O   LIG    1       27.036 -12.778   2.950  0.00  0.00    -0.236 OA
BRANCH   8  10
ATOM      9  C   LIG    1       27.894 -12.753   5.376  0.00  0.00    +0.228 C 
ATOM     10  S   LIG    1       28.134 -13.604   3.838  0.00  0.00    +0.079 S 
ATOM     11  O   LIG    1       27.674 -14.966   3.997  0.00  0.00    -0.147 OA
ATOM     12  O   LIG    1       29.459 -13.292   3.345  0.00  0.00    -0.147 OA
ENDBRANCH   8  10
ENDBRANCH   7   8
ENDBRANCH   4   7
ENDBRANCH   1   4
BRANCH   1  13
ATOM     13  C   LIG    1       23.799 -15.497   3.652  0.00  0.00    +0.176 C 
BRANCH  13  14
ATOM     14  O   LIG    1       24.965 -16.289   3.919  0.00  0.00    -0.387 OA
ATOM     15  H   LIG    1       25.610 -16.079   3.217  0.00  0.00    +0.210 HD
ENDBRANCH  13  14
BRANCH  13  16
ATOM     16  C   LIG    1       22.586 -16.163   4.367  0.00  0.00    +0.173 C 
BRANCH  16  17
ATOM     17  O   LIG    1       22.300 -15.413   5.564  0.00  0.00    -0.387 OA
ATOM     18  H   LIG    1       22.486 -14.474   5.376  0.00  0.00    +0.210 HD
ENDBRANCH  16  17
BRANCH  16  19
ATOM     19  C   LIG    1       22.824 -17.658   4.707  0.00  0.00    +0.227 C 
BRANCH  19  20
ATOM     20  O   LIG    1       23.288 -18.368   3.544  0.00  0.00    -0.236 OA
BRANCH  20  21
ATOM     21  S   LIG    1       24.254 -19.669   3.807  0.00  0.00    +0.079 S 
ATOM     22  O   LIG    1       25.605 -19.188   4.061  0.00  0.00    -0.147 OA
ATOM     23  O   LIG    1       23.973 -20.662   2.802  0.00  0.00    -0.147 OA
ATOM     24  C   LIG    1       23.562 -20.221   5.356  0.00  0.00    +0.228 C 
ENDBRANCH  20  21
ENDBRANCH  19  20
ENDBRANCH  16  19
ENDBRANCH  13  16
ENDBRANCH   1  13
TORSDOF 13
ENDMDL
MODEL 9
REMARK VINA RESULT:      -2.4      2.952      4.921
REMARK  Name = *****
REMARK                            x       y       z     vdW  Elec       q    Type
REMARK                         _______ _______ _______ _____ _____    ______ ____
ROOT
ATOM      1  C   LIG    1       23.568 -15.228   3.602  0.00  0.00    +0.176 C 
ENDROOT
BRANCH   1   2
ATOM      2  O   LIG    1       24.881 -15.810   3.702  0.00  0.00    -0.387 OA
ATOM      3  H   LIG    1       24.908 -16.549   3.056  0.00  0.00    +0.210 HD
ENDBRANCH   1   2
BRANCH   1   4
ATOM      4  C   LIG    1       22.580 -16.196   4.310  0.00  0.00    +0.173 C 
BRANCH   4   5
ATOM      5  O   LIG    1       22.318 -15.766   5.652  0.00  0.00    -0.387 OA
ATOM      6  H   LIG    1       22.344 -16.574   6.201  0.00  0.00    +0.210 HD
ENDBRANCH   4   5
BRANCH   4   7
ATOM      7  C   LIG    1       23.089 -17.644   4.410  0.00  0.00    +0.227 C 
BRANCH   7   8
ATOM      8  O   LIG    1       22.077 -18.556   4.821  0.00  0.00    -0.236 OA
BRANCH   8  10
ATOM      9  C   LIG    1       23.938 -20.137   4.005  0.00  0.00    +0.228 C 
ATOM     10  S   LIG    1       22.586 -20.075   5.152  0.00  0.00    +0.079 S 
ATOM     11  O   LIG    1       23.127 -20.103   6.493  0.00  0.00    -0.147 OA
ATOM     12  O   LIG    1       21.571 -21.010   4.713  0.00  0.00    -0.147 OA
ENDBRANCH   8  10
ENDBRANCH   7   8
ENDBRANCH   4   7
ENDBRANCH   1   4
BRANCH   1  13
ATOM     13  C   LIG    1       23.585 -13.790   4.220  0.00  0.00    +0.176 C 
BRANCH  13  14
ATOM     14  O   LIG    1       24.431 -13.760   5.378  0.00  0.00    -0.387 OA
ATOM     15  H   LIG    1       25.313 -14.058   5.086  0.00  0.00    +0.210 HD
ENDBRANCH  13  14
BRANCH  13  16
ATOM     16  C   LIG    1       24.086 -12.702   3.225  0.00  0.00    +0.173 C 
BRANCH  16  17
ATOM     17  O   LIG    1       23.901 -13.197   1.884  0.00  0.00    -0.387 OA
ATOM     18  H   LIG    1       24.158 -14.138   1.878  0.00  0.00    +0.210 HD
ENDBRANCH  16  17
BRANCH  16  19
ATOM     19  C   LIG    1       25.567 -12.299   3.456  0.00  0.00    +0.227 C 
BRANCH  19  20
ATOM     20  O   LIG    1       26.442 -13.374   3.071  0.00  0.00    -0.236 OA
BRANCH  20  21
ATOM     21  S   LIG    1       27.516 -13.893   4.199  0.00  0.00    +0.079 S 
ATOM     22  O   LIG    1       27.777 -15.306   3.962  0.00  0.00    -0.147 OA
ATOM     23  O   LIG    1       27.106 -13.398   5.487  0.00  0.00    -0.147 OA
ATOM     24  C   LIG    1       28.947 -12.969   3.668  0.00  0.00    +0.228 C 
ENDBRANCH  20  21
ENDBRANCH  19  20
ENDBRANCH  16  19
ENDBRANCH  13  16
ENDBRANCH   1  13
TORSDOF 13
ENDMDL
