MODEL 1
REMARK VINA RESULT:      -5.0      0.000      0.000
REMARK  Name = *****
REMARK                            x       y       z     vdW  Elec       q    Type
REMARK                         _______ _______ _______ _____ _____    ______ ____
ROOT
ATOM      1  C   LIG    1       24.781 -20.244   4.572  0.00  0.00    +0.190 C 
ENDROOT
BRANCH   1   2
ATOM      2  C   LIG    1       23.575 -19.674   5.414  0.00  0.00    +0.036 C 
ATOM      3  C   LIG    1       22.605 -18.727   4.657  0.00  0.00    +0.007 C 
ATOM      4  C   LIG    1       21.518 -19.386   3.799  0.00  0.00    +0.000 C 
ATOM      5  C   LIG    1       20.847 -20.607   4.421  0.00  0.00    +0.000 C 
ATOM      6  C   LIG    1       21.815 -21.527   5.146  0.00  0.00    +0.000 C 
ATOM      7  C   LIG    1       22.700 -20.742   6.109  0.00  0.00    +0.007 C 
ENDBRANCH   1   2
BRANCH   1   8
ATOM      8  C   LIG    1       26.099 -20.330   5.390  0.00  0.00    -0.005 A 
ATOM      9  C   LIG    1       27.170 -19.468   5.086  0.00  0.00    +0.007 A 
ATOM     10  C   LIG    1       28.425 -19.616   5.683  0.00  0.00    +0.000 A 
ATOM     11  C   LIG    1       28.621 -20.581   6.662  0.00  0.00    +0.000 A 
ATOM     12  C   LIG    1       27.553 -21.379   7.061  0.00  0.00    +0.000 A 
ATOM     13  C   LIG    1       26.308 -21.270   6.421  0.00  0.00    +0.007 A 
ENDBRANCH   1   8
BRANCH   1  14
ATOM     14  C   LIG    1       25.025 -19.399   3.285  0.00  0.00    +0.345 C 
ATOM     15  O   LIG    1       24.943 -19.798   2.131  0.00  0.00    -0.247 OA
BRANCH  14  16
ATOM     16  O   LIG    1       25.222 -18.091   3.658  0.00  0.00    -0.450 OA
BRANCH  16  17
ATOM     17  C   LIG    1       26.371 -17.451   3.100  0.00  0.00    +0.321 C 
BRANCH  17  19
ATOM     18  C   LIG    1       26.254 -14.865   3.690  0.00  0.00    -0.083 C 
ATOM     19  C   LIG    1       26.347 -16.018   3.405  0.00  0.00    -0.060 C 
BRANCH  18  20
ATOM     20  C   LIG    1       26.080 -13.453   4.073  0.00  0.00    +0.174 C 
BRANCH  20  21
ATOM     21  N   LIG    1       24.677 -13.100   4.382  0.00  0.00    -0.292 NA
BRANCH  21  23
ATOM     22  C   LIG    1       24.154 -11.689   2.330  0.00  0.00    +0.020 C 
ATOM     23  C   LIG    1       24.346 -11.764   3.844  0.00  0.00    +0.082 C 
ENDBRANCH  21  23
BRANCH  21  24
ATOM     24  C   LIG    1       23.745 -14.126   3.854  0.00  0.00    +0.082 C 
ATOM     25  C   LIG    1       22.938 -14.864   4.922  0.00  0.00    +0.020 C 
ENDBRANCH  21  24
ENDBRANCH  20  21
ENDBRANCH  18  20
ENDBRANCH  17  19
ENDBRANCH  16  17
ENDBRANCH  14  16
ENDBRANCH   1  14
BRANCH   1  26
ATOM     26  O   LIG    1       24.453 -21.572   4.123  0.00  0.00    -0.373 OA
ATOM     27  H   LIG    1       23.896 -21.948   4.831  0.00  0.00    +0.211 HD
ENDBRANCH   1  26
TORSDOF 11
ENDMDL
MODEL 2
REMARK VINA RESULT:      -3.8      2.539      7.775
REMARK  Name = *****
REMARK                            x       y       z     vdW  Elec       q    Type
REMARK                         _______ _______ _______ _____ _____    ______ ____
ROOT
ATOM      1  C   LIG    1       26.255 -14.793   3.303  0.00  0.00    +0.190 C 
ENDROOT
BRANCH   1   2
ATOM      2  C   LIG    1       27.445 -14.781   4.339  0.00  0.00    +0.036 C 
ATOM      3  C   LIG    1       28.837 -14.391   3.772  0.00  0.00    +0.007 C 
ATOM      4  C   LIG    1       29.132 -12.894   3.621  0.00  0.00    +0.000 C 
ATOM      5  C   LIG    1       28.654 -12.016   4.774  0.00  0.00    +0.000 C 
ATOM      6  C   LIG    1       27.286 -12.405   5.307  0.00  0.00    +0.000 C 
ATOM      7  C   LIG    1       27.214 -13.903   5.591  0.00  0.00    +0.007 C 
ENDBRANCH   1   2
BRANCH   1   8
ATOM      8  C   LIG    1       25.333 -13.549   3.431  0.00  0.00    -0.005 A 
ATOM      9  C   LIG    1       24.573 -13.357   4.601  0.00  0.00    +0.007 A 
ATOM     10  C   LIG    1       23.613 -12.346   4.697  0.00  0.00    +0.000 A 
ATOM     11  C   LIG    1       23.443 -11.447   3.653  0.00  0.00    +0.000 A 
ATOM     12  C   LIG    1       24.253 -11.545   2.525  0.00  0.00    +0.000 A 
ATOM     13  C   LIG    1       25.177 -12.595   2.405  0.00  0.00    +0.007 A 
ENDBRANCH   1   8
BRANCH   1  14
ATOM     14  C   LIG    1       25.398 -16.088   3.438  0.00  0.00    +0.345 C 
ATOM     15  O   LIG    1       24.250 -16.156   3.856  0.00  0.00    -0.247 OA
BRANCH  14  16
ATOM     16  O   LIG    1       26.101 -17.130   2.882  0.00  0.00    -0.450 OA
BRANCH  16  17
ATOM     17  C   LIG    1       26.518 -18.153   3.790  0.00  0.00    +0.321 C 
BRANCH  17  19
ATOM     18  C   LIG    1       24.682 -20.059   3.990  0.00  0.00    -0.083 C 
ATOM     19  C   LIG    1       25.507 -19.211   3.855  0.00  0.00    -0.060 C 
BRANCH  18  20
ATOM     20  C   LIG    1       23.660 -21.096   4.224  0.00  0.00    +0.174 C 
BRANCH  20  21
ATOM     21  N   LIG    1       22.704 -20.742   5.296  0.00  0.00    -0.292 NA
BRANCH  21  23
ATOM     22  C   LIG    1       24.639 -21.149   6.898  0.00  0.00    +0.020 C 
ATOM     23  C   LIG    1       23.149 -21.295   6.592  0.00  0.00    +0.082 C 
ENDBRANCH  21  23
BRANCH  21  24
ATOM     24  C   LIG    1       22.526 -19.273   5.383  0.00  0.00    +0.082 C 
ATOM     25  C   LIG    1       21.775 -18.651   4.206  0.00  0.00    +0.020 C 
ENDBRANCH  21  24
ENDBRANCH  20  21
ENDBRANCH  18  20
ENDBRANCH  17  19
ENDBRANCH  16  17
ENDBRANCH  14  16
ENDBRANCH   1  14
BRANCH   1  26
ATOM     26  O   LIG    1       26.795 -14.807   1.970  0.00  0.00    -0.373 OA
ATOM     27  H   LIG    1       27.760 -14.707   2.086  0.00  0.00    +0.211 HD
ENDBRANCH   1  26
TORSDOF 11
ENDMDL
MODEL 3
REMARK VINA RESULT:      -3.3      1.462      2.861
REMARK  Name = *****
REMARK                            x       y       z     vdW  Elec       q    Type
REMARK                         _______ _______ _______ _____ _____    ______ ____
ROOT
ATOM      1  C   LIG    1       24.923 -20.046   3.591  0.00  0.00    +0.190 C 
ENDROOT
BRANCH   1   2
ATOM      2  C   LIG    1       24.588 -21.325   4.452  0.00  0.00    +0.036 C 
ATOM      3  C   LIG    1       25.296 -21.421   5.831  0.00  0.00    +0.007 C 
ATOM      4  C   LIG    1       24.667 -20.641   6.992  0.00  0.00    +0.000 C 
ATOM      5  C   LIG    1       23.144 -20.692   7.062  0.00  0.00    +0.000 C 
ATOM      6  C   LIG    1       22.469 -20.584   5.705  0.00  0.00    +0.000 C 
ATOM      7  C   LIG    1       23.082 -21.565   4.709  0.00  0.00    +0.007 C 
ENDBRANCH   1   2
BRANCH   1   8
ATOM      8  C   LIG    1       26.137 -19.250   4.142  0.00  0.00    -0.005 A 
ATOM      9  C   LIG    1       26.382 -17.940   3.686  0.00  0.00    +0.007 A 
ATOM     10  C   LIG    1       27.547 -17.248   4.029  0.00  0.00    +0.000 A 
ATOM     11  C   LIG    1       28.462 -17.817   4.904  0.00  0.00    +0.000 A 
ATOM     12  C   LIG    1       28.198 -19.067   5.456  0.00  0.00    +0.000 A 
ATOM     13  C   LIG    1       27.057 -19.787   5.067  0.00  0.00    +0.007 A 
ENDBRANCH   1   8
BRANCH   1  14
ATOM     14  C   LIG    1       23.690 -19.098   3.478  0.00  0.00    +0.345 C 
ATOM     15  O   LIG    1       22.695 -19.283   2.790  0.00  0.00    -0.247 OA
BRANCH  14  16
ATOM     16  O   LIG    1       23.847 -18.077   4.385  0.00  0.00    -0.450 OA
BRANCH  16  17
ATOM     17  C   LIG    1       22.771 -17.139   4.458  0.00  0.00    +0.321 C 
BRANCH  17  19
ATOM     18  C   LIG    1       23.640 -14.631   4.418  0.00  0.00    -0.083 C 
ATOM     19  C   LIG    1       23.293 -15.771   4.425  0.00  0.00    -0.060 C 
BRANCH  18  20
ATOM     20  C   LIG    1       24.008 -13.204   4.425  0.00  0.00    +0.174 C 
BRANCH  20  21
ATOM     21  N   LIG    1       25.401 -12.958   3.991  0.00  0.00    -0.292 NA
BRANCH  21  23
ATOM     22  C   LIG    1       27.589 -13.018   5.288  0.00  0.00    +0.020 C 
ATOM     23  C   LIG    1       26.346 -13.760   4.795  0.00  0.00    +0.082 C 
ENDBRANCH  21  23
BRANCH  21  24
ATOM     24  C   LIG    1       25.564 -13.246   2.545  0.00  0.00    +0.082 C 
ATOM     25  C   LIG    1       26.708 -14.201   2.210  0.00  0.00    +0.020 C 
ENDBRANCH  21  24
ENDBRANCH  20  21
ENDBRANCH  18  20
ENDBRANCH  17  19
ENDBRANCH  16  17
ENDBRANCH  14  16
ENDBRANCH   1  14
BRANCH   1  26
ATOM     26  O   LIG    1       25.236 -20.456   2.247  0.00  0.00    -0.373 OA
ATOM     27  H   LIG    1       24.487 -21.018   1.972  0.00  0.00    +0.211 HD
ENDBRANCH   1  26
TORSDOF 11
ENDMDL
MODEL 4
REMARK VINA RESULT:      -2.7      2.567      7.153
REMARK  Name = *****
REMARK                            x       y       z     vdW  Elec       q    Type
REMARK                         _______ _______ _______ _____ _____    ______ ____
ROOT
ATOM      1  C   LIG    1       25.941 -14.904   3.961  0.00  0.00    +0.190 C 
ENDROOT
BRANCH   1   2
ATOM      2  C   LIG    1       24.997 -14.443   2.783  0.00  0.00    +0.036 C 
ATOM      3  C   LIG    1       23.611 -13.882   3.203  0.00  0.00    +0.007 C 
ATOM      4  C   LIG    1       23.559 -12.413   3.639  0.00  0.00    +0.000 C 
ATOM      5  C   LIG    1       24.398 -11.454   2.801  0.00  0.00    +0.000 C 
ATOM      6  C   LIG    1       25.755 -12.016   2.412  0.00  0.00    +0.000 C 
ATOM      7  C   LIG    1       25.618 -13.413   1.813  0.00  0.00    +0.007 C 
ENDBRANCH   1   2
BRANCH   1   8
ATOM      8  C   LIG    1       27.139 -13.942   4.183  0.00  0.00    -0.005 A 
ATOM      9  C   LIG    1       27.234 -13.205   5.380  0.00  0.00    +0.007 A 
ATOM     10  C   LIG    1       28.201 -12.212   5.558  0.00  0.00    +0.000 A 
ATOM     11  C   LIG    1       29.152 -11.983   4.573  0.00  0.00    +0.000 A 
ATOM     12  C   LIG    1       29.150 -12.766   3.422  0.00  0.00    +0.000 A 
ATOM     13  C   LIG    1       28.145 -13.724   3.219  0.00  0.00    +0.007 A 
ENDBRANCH   1   8
BRANCH   1  14
ATOM     14  C   LIG    1       26.474 -16.351   3.728  0.00  0.00    +0.345 C 
ATOM     15  O   LIG    1       27.607 -16.750   3.961  0.00  0.00    -0.247 OA
BRANCH  14  16
ATOM     16  O   LIG    1       25.420 -17.142   3.338  0.00  0.00    -0.450 OA
BRANCH  16  17
ATOM     17  C   LIG    1       25.768 -18.367   2.689  0.00  0.00    +0.321 C 
BRANCH  17  19
ATOM     18  C   LIG    1       24.678 -20.428   3.958  0.00  0.00    -0.083 C 
ATOM     19  C   LIG    1       25.201 -19.503   3.420  0.00  0.00    -0.060 C 
BRANCH  18  20
ATOM     20  C   LIG    1       23.983 -21.570   4.578  0.00  0.00    +0.174 C 
BRANCH  20  21
ATOM     21  N   LIG    1       22.832 -21.168   5.416  0.00  0.00    -0.292 NA
BRANCH  21  23
ATOM     22  C   LIG    1       24.794 -20.768   6.987  0.00  0.00    +0.020 C 
ATOM     23  C   LIG    1       23.295 -20.637   6.715  0.00  0.00    +0.082 C 
ENDBRANCH  21  23
BRANCH  21  24
ATOM     24  C   LIG    1       21.985 -20.175   4.712  0.00  0.00    +0.082 C 
ATOM     25  C   LIG    1       22.275 -18.719   5.074  0.00  0.00    +0.020 C 
ENDBRANCH  21  24
ENDBRANCH  20  21
ENDBRANCH  18  20
ENDBRANCH  17  19
ENDBRANCH  16  17
ENDBRANCH  14  16
ENDBRANCH   1  14
BRANCH   1  26
ATOM     26  O   LIG    1       25.179 -14.950   5.181  0.00  0.00    -0.373 OA
ATOM     27  H   LIG    1       25.563 -14.253   5.746  0.00  0.00    +0.211 HD
ENDBRANCH   1  26
TORSDOF 11
ENDMDL
