MODEL 1
REMARK VINA RESULT:       2.0      0.000      0.000
REMARK  Name = *****
REMARK                            x       y       z     vdW  Elec       q    Type
REMARK                         _______ _______ _______ _____ _____    ______ ____
ROOT
ATOM      1  C   LIG    1       22.831 -16.465   4.914  0.00  0.00    -0.000 C 
ATOM      2  C   LIG    1       22.228 -17.580   4.458  0.00  0.00    -0.066 C 
ATOM      3  C   LIG    1       22.036 -18.840   5.301  0.00  0.00    +0.021 C 
ATOM      4  C   LIG    1       22.705 -18.895   6.683  0.00  0.00    +0.009 C 
ATOM      5  C   LIG    1       23.038 -20.358   6.920  0.00  0.00    +0.005 C 
ATOM      6  C   LIG    1       23.446 -20.914   5.539  0.00  0.00    -0.002 C 
ATOM      7  C   LIG    1       22.458 -20.162   4.562  0.00  0.00    -0.022 C 
ATOM      8  C   LIG    1       21.173 -21.035   4.418  0.00  0.00    +0.012 C 
ATOM      9  C   LIG    1       22.993 -19.903   3.142  0.00  0.00    +0.008 C 
ATOM     10  C   LIG    1       22.151 -18.940   2.306  0.00  0.00    +0.005 C 
ATOM     11  C   LIG    1       21.625 -17.730   3.076  0.00  0.00    +0.031 C 
ENDROOT
BRANCH   1  19
ATOM     12  C   LIG    1       25.640 -16.661   3.020  0.00  0.00    +0.015 C 
ATOM     13  C   LIG    1       25.471 -15.507   3.681  0.00  0.00    -0.023 C 
ATOM     14  C   LIG    1       26.540 -14.757   4.454  0.00  0.00    +0.147 C 
ATOM     15  C   LIG    1       26.719 -13.342   3.889  0.00  0.00    +0.067 C 
ATOM     16  C   LIG    1       25.394 -12.586   3.755  0.00  0.00    +0.122 C 
ATOM     17  C   LIG    1       24.305 -13.413   3.051  0.00  0.00    +0.067 C 
ATOM     18  C   LIG    1       24.192 -14.796   3.660  0.00  0.00    -0.040 C 
ATOM     19  C   LIG    1       23.037 -15.229   4.187  0.00  0.00    +0.004 C 
BRANCH  14  20
ATOM     20  O   LIG    1       27.793 -15.435   4.417  0.00  0.00    -0.387 OA
ATOM     21  H   LIG    1       27.635 -16.311   4.027  0.00  0.00    +0.210 HD
ENDBRANCH  14  20
BRANCH  16  22
ATOM     22  O   LIG    1       24.943 -12.156   5.041  0.00  0.00    -0.391 OA
ATOM     23  H   LIG    1       25.383 -12.696   5.721  0.00  0.00    +0.210 HD
ENDBRANCH  16  22
ENDBRANCH   1  19
BRANCH   6  24
ATOM     24  C   LIG    1       25.013 -20.882   5.346  0.00  0.00    -0.010 C 
ATOM     25  C   LIG    1       25.496 -21.360   3.974  0.00  0.00    +0.008 C 
BRANCH  24  26
ATOM     26  C   LIG    1       25.787 -21.555   6.509  0.00  0.00    +0.004 C 
BRANCH  26  27
ATOM     27  C   LIG    1       27.029 -20.820   7.060  0.00  0.00    +0.003 C 
BRANCH  27  28
ATOM     28  C   LIG    1       27.265 -19.392   6.544  0.00  0.00    +0.034 C 
BRANCH  28  29
ATOM     29  C   LIG    1       28.697 -19.148   5.994  0.00  0.00    +0.060 C 
ATOM     30  C   LIG    1       29.474 -20.452   5.785  0.00  0.00    +0.041 C 
ATOM     31  C   LIG    1       29.475 -18.210   6.929  0.00  0.00    +0.041 C 
BRANCH  29  32
ATOM     32  O   LIG    1       28.589 -18.496   4.725  0.00  0.00    -0.389 OA
ATOM     33  H   LIG    1       28.313 -17.575   4.885  0.00  0.00    +0.210 HD
ENDBRANCH  29  32
ENDBRANCH  28  29
ENDBRANCH  27  28
ENDBRANCH  26  27
ENDBRANCH  24  26
ENDBRANCH   6  24
TORSDOF 9
ENDMDL
MODEL 2
REMARK VINA RESULT:       4.7      1.900      5.272
REMARK  Name = *****
REMARK                            x       y       z     vdW  Elec       q    Type
REMARK                         _______ _______ _______ _____ _____    ______ ____
ROOT
ATOM      1  C   LIG    1       27.295 -16.896   4.339  0.00  0.00    -0.000 C 
ATOM      2  C   LIG    1       27.857 -18.024   4.813  0.00  0.00    -0.066 C 
ATOM      3  C   LIG    1       27.403 -19.427   4.411  0.00  0.00    +0.021 C 
ATOM      4  C   LIG    1       26.138 -19.558   3.548  0.00  0.00    +0.009 C 
ATOM      5  C   LIG    1       25.503 -20.878   3.949  0.00  0.00    +0.005 C 
ATOM      6  C   LIG    1       25.750 -21.007   5.467  0.00  0.00    -0.002 C 
ATOM      7  C   LIG    1       27.198 -20.396   5.631  0.00  0.00    -0.022 C 
ATOM      8  C   LIG    1       28.227 -21.557   5.471  0.00  0.00    +0.012 C 
ATOM      9  C   LIG    1       27.485 -19.717   6.983  0.00  0.00    +0.008 C 
ATOM     10  C   LIG    1       28.772 -18.894   7.025  0.00  0.00    +0.005 C 
ATOM     11  C   LIG    1       29.033 -18.066   5.768  0.00  0.00    +0.031 C 
ENDROOT
BRANCH   1  19
ATOM     12  C   LIG    1       24.563 -14.882   4.383  0.00  0.00    +0.015 C 
ATOM     13  C   LIG    1       25.644 -14.373   3.773  0.00  0.00    -0.023 C 
ATOM     14  C   LIG    1       25.655 -13.637   2.447  0.00  0.00    +0.147 C 
ATOM     15  C   LIG    1       26.225 -12.224   2.621  0.00  0.00    +0.067 C 
ATOM     16  C   LIG    1       27.569 -12.214   3.357  0.00  0.00    +0.122 C 
ATOM     17  C   LIG    1       27.547 -13.049   4.647  0.00  0.00    +0.067 C 
ATOM     18  C   LIG    1       26.967 -14.426   4.397  0.00  0.00    -0.040 C 
ATOM     19  C   LIG    1       27.677 -15.535   4.656  0.00  0.00    +0.004 C 
BRANCH  14  20
ATOM     20  O   LIG    1       24.350 -13.546   1.881  0.00  0.00    -0.387 OA
ATOM     21  H   LIG    1       23.790 -14.192   2.343  0.00  0.00    +0.210 HD
ENDBRANCH  14  20
BRANCH  16  22
ATOM     22  O   LIG    1       28.608 -12.666   2.485  0.00  0.00    -0.391 OA
ATOM     23  H   LIG    1       28.419 -12.348   1.585  0.00  0.00    +0.210 HD
ENDBRANCH  16  22
ENDBRANCH   1  19
BRANCH   6  24
ATOM     24  C   LIG    1       24.513 -20.484   6.298  0.00  0.00    -0.010 C 
ATOM     25  C   LIG    1       23.752 -21.571   7.062  0.00  0.00    +0.008 C 
BRANCH  24  26
ATOM     26  C   LIG    1       23.566 -19.571   5.476  0.00  0.00    +0.004 C 
BRANCH  26  27
ATOM     27  C   LIG    1       22.071 -19.959   5.418  0.00  0.00    +0.003 C 
BRANCH  27  28
ATOM     28  C   LIG    1       21.345 -19.687   4.091  0.00  0.00    +0.034 C 
BRANCH  28  29
ATOM     29  C   LIG    1       21.522 -18.238   3.561  0.00  0.00    +0.060 C 
ATOM     30  C   LIG    1       21.772 -17.228   4.686  0.00  0.00    +0.041 C 
ATOM     31  C   LIG    1       20.298 -17.819   2.733  0.00  0.00    +0.041 C 
BRANCH  29  32
ATOM     32  O   LIG    1       22.657 -18.210   2.690  0.00  0.00    -0.389 OA
ATOM     33  H   LIG    1       22.330 -18.163   1.774  0.00  0.00    +0.210 HD
ENDBRANCH  29  32
ENDBRANCH  28  29
ENDBRANCH  27  28
ENDBRANCH  26  27
ENDBRANCH  24  26
ENDBRANCH   6  24
TORSDOF 9
ENDMDL
