MODEL 1
REMARK VINA RESULT:      -8.4      0.000      0.000
REMARK  Name = *****
REMARK                            x       y       z     vdW  Elec       q    Type
REMARK                         _______ _______ _______ _____ _____    ______ ____
ROOT
ATOM      1  C   LIG    1       25.328 -21.551   6.849  0.00  0.00    +0.197 C 
ENDROOT
BRANCH   1   2
ATOM      2  C   LIG    1       25.047 -23.055   6.699  0.00  0.00    -0.013 A 
ATOM      3  C   LIG    1       26.123 -23.965   6.694  0.00  0.00    +0.008 A 
ATOM      4  C   LIG    1       25.901 -25.339   6.556  0.00  0.00    +0.020 A 
ATOM      5  C   LIG    1       24.604 -25.818   6.404  0.00  0.00    +0.041 A 
ATOM      6 CL   LIG    1       24.332 -27.505   6.193  0.00  0.00    -0.084 Cl
ATOM      7  C   LIG    1       23.523 -24.939   6.416  0.00  0.00    +0.020 A 
ATOM      8  C   LIG    1       23.745 -23.566   6.574  0.00  0.00    +0.008 A 
ENDBRANCH   1   2
BRANCH   1   9
ATOM      9  C   LIG    1       24.534 -20.680   5.879  0.00  0.00    +0.074 A 
ATOM     10  N   LIG    1       25.159 -20.328   4.728  0.00  0.00    -0.257 NA
ATOM     11  C   LIG    1       24.471 -19.578   3.839  0.00  0.00    +0.111 A 
ATOM     12  C   LIG    1       23.178 -19.132   4.060  0.00  0.00    +0.020 A 
ATOM     13  C   LIG    1       22.543 -19.505   5.231  0.00  0.00    +0.003 A 
ATOM     14  C   LIG    1       23.210 -20.314   6.150  0.00  0.00    +0.026 A 
ENDBRANCH   1   9
BRANCH   1  15
ATOM     15  O   LIG    1       26.735 -21.280   6.715  0.00  0.00    -0.365 OA
BRANCH  15  16
ATOM     16  C   LIG    1       27.236 -20.403   7.735  0.00  0.00    +0.176 C 
BRANCH  16  17
ATOM     17  C   LIG    1       28.661 -19.918   7.410  0.00  0.00    +0.112 C 
BRANCH  17  19
ATOM     18  C   LIG    1       30.742 -20.663   8.418  0.00  0.00    +0.104 C 
ATOM     19  N   LIG    1       29.578 -19.788   8.565  0.00  0.00    -0.306 NA
ATOM     20  C   LIG    1       29.999 -18.392   8.708  0.00  0.00    +0.104 C 
ENDBRANCH  17  19
ENDBRANCH  16  17
ENDBRANCH  15  16
ENDBRANCH   1  15
TORSDOF 6
ENDMDL
MODEL 2
REMARK VINA RESULT:      -8.4      0.229      1.104
REMARK  Name = *****
REMARK                            x       y       z     vdW  Elec       q    Type
REMARK                         _______ _______ _______ _____ _____    ______ ____
ROOT
ATOM      1  C   LIG    1       25.358 -21.772   6.927  0.00  0.00    +0.197 C 
ENDROOT
BRANCH   1   2
ATOM      2  C   LIG    1       25.118 -23.276   6.713  0.00  0.00    -0.013 A 
ATOM      3  C   LIG    1       23.803 -23.753   6.546  0.00  0.00    +0.008 A 
ATOM      4  C   LIG    1       23.552 -25.116   6.354  0.00  0.00    +0.020 A 
ATOM      5  C   LIG    1       24.610 -26.019   6.343  0.00  0.00    +0.041 A 
ATOM      6 CL   LIG    1       24.299 -27.700   6.146  0.00  0.00    -0.084 Cl
ATOM      7  C   LIG    1       25.920 -25.569   6.495  0.00  0.00    +0.020 A 
ATOM      8  C   LIG    1       26.172 -24.204   6.669  0.00  0.00    +0.008 A 
ENDBRANCH   1   2
BRANCH   1   9
ATOM      9  C   LIG    1       24.577 -20.884   5.963  0.00  0.00    +0.074 A 
ATOM     10  N   LIG    1       25.169 -20.611   4.774  0.00  0.00    -0.257 NA
ATOM     11  C   LIG    1       24.489 -19.847   3.890  0.00  0.00    +0.111 A 
ATOM     12  C   LIG    1       23.237 -19.312   4.152  0.00  0.00    +0.020 A 
ATOM     13  C   LIG    1       22.635 -19.606   5.361  0.00  0.00    +0.003 A 
ATOM     14  C   LIG    1       23.292 -20.425   6.278  0.00  0.00    +0.026 A 
ENDBRANCH   1   9
BRANCH   1  15
ATOM     15  O   LIG    1       26.761 -21.465   6.852  0.00  0.00    -0.365 OA
BRANCH  15  16
ATOM     16  C   LIG    1       27.172 -20.484   7.816  0.00  0.00    +0.176 C 
BRANCH  16  17
ATOM     17  C   LIG    1       28.491 -19.805   7.402  0.00  0.00    +0.112 C 
BRANCH  17  19
ATOM     18  C   LIG    1       30.515 -20.773   8.334  0.00  0.00    +0.104 C 
ATOM     19  N   LIG    1       29.524 -19.703   8.458  0.00  0.00    -0.306 NA
ATOM     20  C   LIG    1       30.173 -18.392   8.389  0.00  0.00    +0.104 C 
ENDBRANCH  17  19
ENDBRANCH  16  17
ENDBRANCH  15  16
ENDBRANCH   1  15
TORSDOF 6
ENDMDL
MODEL 3
REMARK VINA RESULT:      -8.0      2.625      4.747
REMARK  Name = *****
REMARK                            x       y       z     vdW  Elec       q    Type
REMARK                         _______ _______ _______ _____ _____    ______ ____
ROOT
ATOM      1  C   LIG    1       25.730 -22.417   6.681  0.00  0.00    +0.197 C 
ENDROOT
BRANCH   1   2
ATOM      2  C   LIG    1       24.737 -21.435   6.039  0.00  0.00    -0.013 A 
ATOM      3  C   LIG    1       24.942 -21.005   4.713  0.00  0.00    +0.008 A 
ATOM      4  C   LIG    1       24.059 -20.108   4.103  0.00  0.00    +0.020 A 
ATOM      5  C   LIG    1       22.970 -19.618   4.816  0.00  0.00    +0.041 A 
ATOM      6 CL   LIG    1       21.905 -18.483   4.080  0.00  0.00    -0.084 Cl
ATOM      7  C   LIG    1       22.740 -20.036   6.125  0.00  0.00    +0.020 A 
ATOM      8  C   LIG    1       23.614 -20.947   6.728  0.00  0.00    +0.008 A 
ENDBRANCH   1   2
BRANCH   1   9
ATOM      9  C   LIG    1       25.400 -23.883   6.415  0.00  0.00    +0.074 A 
ATOM     10  N   LIG    1       26.453 -24.723   6.254  0.00  0.00    -0.257 NA
ATOM     11  C   LIG    1       26.190 -26.032   6.043  0.00  0.00    +0.111 A 
ATOM     12  C   LIG    1       24.905 -26.545   5.956  0.00  0.00    +0.020 A 
ATOM     13  C   LIG    1       23.838 -25.684   6.133  0.00  0.00    +0.003 A 
ATOM     14  C   LIG    1       24.075 -24.336   6.394  0.00  0.00    +0.026 A 
ENDBRANCH   1   9
BRANCH   1  15
ATOM     15  O   LIG    1       25.833 -22.185   8.097  0.00  0.00    -0.365 OA
BRANCH  15  16
ATOM     16  C   LIG    1       26.744 -21.125   8.426  0.00  0.00    +0.176 C 
BRANCH  16  17
ATOM     17  C   LIG    1       28.075 -21.272   7.666  0.00  0.00    +0.112 C 
BRANCH  17  19
ATOM     18  C   LIG    1       30.132 -20.033   7.294  0.00  0.00    +0.104 C 
ATOM     19  N   LIG    1       28.675 -20.014   7.164  0.00  0.00    -0.306 NA
ATOM     20  C   LIG    1       28.286 -19.805   5.767  0.00  0.00    +0.104 C 
ENDBRANCH  17  19
ENDBRANCH  16  17
ENDBRANCH  15  16
ENDBRANCH   1  15
TORSDOF 6
ENDMDL
MODEL 4
REMARK VINA RESULT:      -8.0      3.046      5.462
REMARK  Name = *****
REMARK                            x       y       z     vdW  Elec       q    Type
REMARK                         _______ _______ _______ _____ _____    ______ ____
ROOT
ATOM      1  C   LIG    1       25.566 -21.407   6.027  0.00  0.00    +0.197 C 
ENDROOT
BRANCH   1   2
ATOM      2  C   LIG    1       26.847 -20.683   6.472  0.00  0.00    -0.013 A 
ATOM      3  C   LIG    1       27.172 -20.622   7.842  0.00  0.00    +0.008 A 
ATOM      4  C   LIG    1       28.328 -19.967   8.278  0.00  0.00    +0.020 A 
ATOM      5  C   LIG    1       29.165 -19.352   7.353  0.00  0.00    +0.041 A 
ATOM      6 CL   LIG    1       30.567 -18.511   7.893  0.00  0.00    -0.084 Cl
ATOM      7  C   LIG    1       28.871 -19.407   5.993  0.00  0.00    +0.020 A 
ATOM      8  C   LIG    1       27.724 -20.079   5.555  0.00  0.00    +0.008 A 
ENDBRANCH   1   2
BRANCH   1   9
ATOM      9  C   LIG    1       24.537 -20.487   5.376  0.00  0.00    +0.074 A 
ATOM     10  N   LIG    1       24.884 -19.934   4.187  0.00  0.00    -0.257 NA
ATOM     11  C   LIG    1       23.982 -19.135   3.575  0.00  0.00    +0.111 A 
ATOM     12  C   LIG    1       22.741 -18.836   4.115  0.00  0.00    +0.020 A 
ATOM     13  C   LIG    1       22.391 -19.413   5.322  0.00  0.00    +0.003 A 
ATOM     14  C   LIG    1       23.282 -20.275   5.958  0.00  0.00    +0.026 A 
ENDBRANCH   1   9
BRANCH   1  15
ATOM     15  O   LIG    1       24.969 -22.108   7.133  0.00  0.00    -0.365 OA
BRANCH  15  16
ATOM     16  C   LIG    1       24.627 -23.466   6.815  0.00  0.00    +0.176 C 
BRANCH  16  17
ATOM     17  C   LIG    1       25.885 -24.321   6.575  0.00  0.00    +0.112 C 
BRANCH  17  19
ATOM     18  C   LIG    1       26.585 -26.549   5.905  0.00  0.00    +0.104 C 
ATOM     19  N   LIG    1       25.753 -25.394   5.563  0.00  0.00    -0.306 NA
ATOM     20  C   LIG    1       24.348 -25.790   5.443  0.00  0.00    +0.104 C 
ENDBRANCH  17  19
ENDBRANCH  16  17
ENDBRANCH  15  16
ENDBRANCH   1  15
TORSDOF 6
ENDMDL
MODEL 5
REMARK VINA RESULT:      -7.6      2.735      5.996
REMARK  Name = *****
REMARK                            x       y       z     vdW  Elec       q    Type
REMARK                         _______ _______ _______ _____ _____    ______ ____
ROOT
ATOM      1  C   LIG    1       26.323 -21.782   7.172  0.00  0.00    +0.197 C 
ENDROOT
BRANCH   1   2
ATOM      2  C   LIG    1       25.208 -21.057   6.400  0.00  0.00    -0.013 A 
ATOM      3  C   LIG    1       23.991 -20.767   7.048  0.00  0.00    +0.008 A 
ATOM      4  C   LIG    1       22.955 -20.112   6.372  0.00  0.00    +0.020 A 
ATOM      5  C   LIG    1       23.118 -19.754   5.038  0.00  0.00    +0.041 A 
ATOM      6 CL   LIG    1       21.830 -18.985   4.194  0.00  0.00    -0.084 Cl
ATOM      7  C   LIG    1       24.316 -20.020   4.380  0.00  0.00    +0.020 A 
ATOM      8  C   LIG    1       25.359 -20.659   5.062  0.00  0.00    +0.008 A 
ENDBRANCH   1   2
BRANCH   1   9
ATOM      9  C   LIG    1       27.659 -21.044   7.155  0.00  0.00    +0.074 A 
ATOM     10  N   LIG    1       28.566 -21.410   8.094  0.00  0.00    -0.257 NA
ATOM     11  C   LIG    1       29.768 -20.791   8.088  0.00  0.00    +0.111 A 
ATOM     12  C   LIG    1       30.101 -19.788   7.191  0.00  0.00    +0.020 A 
ATOM     13  C   LIG    1       29.175 -19.429   6.229  0.00  0.00    +0.003 A 
ATOM     14  C   LIG    1       27.942 -20.078   6.182  0.00  0.00    +0.026 A 
ENDBRANCH   1   9
BRANCH   1  15
ATOM     15  O   LIG    1       26.495 -23.122   6.677  0.00  0.00    -0.365 OA
BRANCH  15  16
ATOM     16  C   LIG    1       25.293 -23.903   6.747  0.00  0.00    +0.176 C 
BRANCH  16  17
ATOM     17  C   LIG    1       25.222 -24.931   5.603  0.00  0.00    +0.112 C 
BRANCH  17  19
ATOM     18  C   LIG    1       26.077 -26.750   6.968  0.00  0.00    +0.104 C 
ATOM     19  N   LIG    1       26.182 -26.056   5.684  0.00  0.00    -0.306 NA
ATOM     20  C   LIG    1       25.948 -26.986   4.576  0.00  0.00    +0.104 C 
ENDBRANCH  17  19
ENDBRANCH  16  17
ENDBRANCH  15  16
ENDBRANCH   1  15
TORSDOF 6
ENDMDL
MODEL 6
REMARK VINA RESULT:      -7.3      3.226      6.219
REMARK  Name = *****
REMARK                            x       y       z     vdW  Elec       q    Type
REMARK                         _______ _______ _______ _____ _____    ______ ____
ROOT
ATOM      1  C   LIG    1       25.020 -22.422   6.464  0.00  0.00    +0.197 C 
ENDROOT
BRANCH   1   2
ATOM      2  C   LIG    1       26.324 -21.615   6.573  0.00  0.00    -0.013 A 
ATOM      3  C   LIG    1       26.565 -20.560   5.670  0.00  0.00    +0.008 A 
ATOM      4  C   LIG    1       27.744 -19.809   5.740  0.00  0.00    +0.020 A 
ATOM      5  C   LIG    1       28.701 -20.114   6.702  0.00  0.00    +0.041 A 
ATOM      6 CL   LIG    1       30.170 -19.217   6.763  0.00  0.00    -0.084 Cl
ATOM      7  C   LIG    1       28.481 -21.145   7.612  0.00  0.00    +0.020 A 
ATOM      8  C   LIG    1       27.293 -21.884   7.552  0.00  0.00    +0.008 A 
ENDBRANCH   1   2
BRANCH   1   9
ATOM      9  C   LIG    1       25.240 -23.905   6.178  0.00  0.00    +0.074 A 
ATOM     10  N   LIG    1       24.979 -24.325   4.916  0.00  0.00    -0.257 NA
ATOM     11  C   LIG    1       25.189 -25.629   4.627  0.00  0.00    +0.111 A 
ATOM     12  C   LIG    1       25.628 -26.553   5.563  0.00  0.00    +0.020 A 
ATOM     13  C   LIG    1       25.903 -26.114   6.845  0.00  0.00    +0.003 A 
ATOM     14  C   LIG    1       25.737 -24.767   7.163  0.00  0.00    +0.026 A 
ENDBRANCH   1   9
BRANCH   1  15
ATOM     15  O   LIG    1       24.151 -21.853   5.469  0.00  0.00    -0.365 OA
BRANCH  15  16
ATOM     16  C   LIG    1       22.944 -21.309   6.024  0.00  0.00    +0.176 C 
BRANCH  16  17
ATOM     17  C   LIG    1       22.832 -19.797   5.755  0.00  0.00    +0.112 C 
BRANCH  17  19
ATOM     18  C   LIG    1       21.753 -18.263   4.209  0.00  0.00    +0.104 C 
ATOM     19  N   LIG    1       22.661 -19.404   4.337  0.00  0.00    -0.306 NA
ATOM     20  C   LIG    1       23.966 -19.091   3.750  0.00  0.00    +0.104 C 
ENDBRANCH  17  19
ENDBRANCH  16  17
ENDBRANCH  15  16
ENDBRANCH   1  15
TORSDOF 6
ENDMDL
MODEL 7
REMARK VINA RESULT:      -7.3      1.756      4.577
REMARK  Name = *****
REMARK                            x       y       z     vdW  Elec       q    Type
REMARK                         _______ _______ _______ _____ _____    ______ ____
ROOT
ATOM      1  C   LIG    1       25.188 -22.132   6.327  0.00  0.00    +0.197 C 
ENDROOT
BRANCH   1   2
ATOM      2  C   LIG    1       25.297 -23.650   6.114  0.00  0.00    -0.013 A 
ATOM      3  C   LIG    1       24.931 -24.206   4.872  0.00  0.00    +0.008 A 
ATOM      4  C   LIG    1       25.015 -25.584   4.648  0.00  0.00    +0.020 A 
ATOM      5  C   LIG    1       25.449 -26.425   5.667  0.00  0.00    +0.041 A 
ATOM      6 CL   LIG    1       25.514 -28.125   5.406  0.00  0.00    -0.084 Cl
ATOM      7  C   LIG    1       25.826 -25.898   6.901  0.00  0.00    +0.020 A 
ATOM      8  C   LIG    1       25.760 -24.517   7.118  0.00  0.00    +0.008 A 
ENDBRANCH   1   2
BRANCH   1   9
ATOM      9  C   LIG    1       26.533 -21.447   6.555  0.00  0.00    +0.074 A 
ATOM     10  N   LIG    1       26.871 -20.467   5.680  0.00  0.00    -0.257 NA
ATOM     11  C   LIG    1       28.045 -19.826   5.872  0.00  0.00    +0.111 A 
ATOM     12  C   LIG    1       28.924 -20.141   6.897  0.00  0.00    +0.020 A 
ATOM     13  C   LIG    1       28.567 -21.132   7.792  0.00  0.00    +0.003 A 
ATOM     14  C   LIG    1       27.343 -21.784   7.646  0.00  0.00    +0.026 A 
ENDBRANCH   1   9
BRANCH   1  15
ATOM     15  O   LIG    1       24.294 -21.833   7.415  0.00  0.00    -0.365 OA
BRANCH  15  16
ATOM     16  C   LIG    1       23.391 -20.758   7.118  0.00  0.00    +0.176 C 
BRANCH  16  17
ATOM     17  C   LIG    1       22.960 -20.777   5.640  0.00  0.00    +0.112 C 
BRANCH  17  19
ATOM     18  C   LIG    1       24.021 -20.040   3.583  0.00  0.00    +0.104 C 
ATOM     19  N   LIG    1       23.382 -19.613   4.828  0.00  0.00    -0.306 NA
ATOM     20  C   LIG    1       22.225 -18.760   4.547  0.00  0.00    +0.104 C 
ENDBRANCH  17  19
ENDBRANCH  16  17
ENDBRANCH  15  16
ENDBRANCH   1  15
TORSDOF 6
ENDMDL
MODEL 8
REMARK VINA RESULT:      -5.9      6.727     10.250
REMARK  Name = *****
REMARK                            x       y       z     vdW  Elec       q    Type
REMARK                         _______ _______ _______ _____ _____    ______ ____
ROOT
ATOM      1  C   LIG    1       24.785 -29.932   7.534  0.00  0.00    +0.197 C 
ENDROOT
BRANCH   1   2
ATOM      2  C   LIG    1       24.905 -28.526   6.925  0.00  0.00    -0.013 A 
ATOM      3  C   LIG    1       25.829 -27.610   7.467  0.00  0.00    +0.008 A 
ATOM      4  C   LIG    1       25.958 -26.322   6.938  0.00  0.00    +0.020 A 
ATOM      5  C   LIG    1       25.155 -25.928   5.873  0.00  0.00    +0.041 A 
ATOM      6 CL   LIG    1       25.286 -24.329   5.247  0.00  0.00    -0.084 Cl
ATOM      7  C   LIG    1       24.242 -26.818   5.313  0.00  0.00    +0.020 A 
ATOM      8  C   LIG    1       24.126 -28.113   5.832  0.00  0.00    +0.008 A 
ENDBRANCH   1   2
BRANCH   1   9
ATOM      9  C   LIG    1       24.770 -31.051   6.496  0.00  0.00    +0.074 A 
ATOM     10  N   LIG    1       23.638 -31.794   6.421  0.00  0.00    -0.257 NA
ATOM     11  C   LIG    1       23.587 -32.775   5.492  0.00  0.00    +0.111 A 
ATOM     12  C   LIG    1       24.639 -33.071   4.641  0.00  0.00    +0.020 A 
ATOM     13  C   LIG    1       25.785 -32.301   4.716  0.00  0.00    +0.003 A 
ATOM     14  C   LIG    1       25.854 -31.254   5.633  0.00  0.00    +0.026 A 
ENDBRANCH   1   9
BRANCH   1  15
ATOM     15  O   LIG    1       23.621 -30.025   8.375  0.00  0.00    -0.365 OA
BRANCH  15  16
ATOM     16  C   LIG    1       23.943 -30.270   9.752  0.00  0.00    +0.176 C 
BRANCH  16  17
ATOM     17  C   LIG    1       22.672 -30.390  10.614  0.00  0.00    +0.112 C 
BRANCH  17  19
ATOM     18  C   LIG    1       21.701 -32.514   9.945  0.00  0.00    +0.104 C 
ATOM     19  N   LIG    1       21.519 -31.063   9.974  0.00  0.00    -0.306 NA
ATOM     20  C   LIG    1       20.286 -30.714  10.685  0.00  0.00    +0.104 C 
ENDBRANCH  17  19
ENDBRANCH  16  17
ENDBRANCH  15  16
ENDBRANCH   1  15
TORSDOF 6
ENDMDL
MODEL 9
REMARK VINA RESULT:      -5.8      6.119      8.964
REMARK  Name = *****
REMARK                            x       y       z     vdW  Elec       q    Type
REMARK                         _______ _______ _______ _____ _____    ______ ____
ROOT
ATOM      1  C   LIG    1       25.057 -29.337   6.899  0.00  0.00    +0.197 C 
ENDROOT
BRANCH   1   2
ATOM      2  C   LIG    1       25.337 -29.229   8.406  0.00  0.00    -0.013 A 
ATOM      3  C   LIG    1       24.506 -29.909   9.318  0.00  0.00    +0.008 A 
ATOM      4  C   LIG    1       24.733 -29.827  10.696  0.00  0.00    +0.020 A 
ATOM      5  C   LIG    1       25.781 -29.053  11.180  0.00  0.00    +0.041 A 
ATOM      6 CL   LIG    1       26.037 -28.919  12.877  0.00  0.00    -0.084 Cl
ATOM      7  C   LIG    1       26.624 -28.380  10.298  0.00  0.00    +0.020 A 
ATOM      8  C   LIG    1       26.407 -28.477   8.918  0.00  0.00    +0.008 A 
ENDBRANCH   1   2
BRANCH   1   9
ATOM      9  C   LIG    1       25.039 -27.990   6.181  0.00  0.00    +0.074 A 
ATOM     10  N   LIG    1       24.123 -27.087   6.607  0.00  0.00    -0.257 NA
ATOM     11  C   LIG    1       24.101 -25.876   6.006  0.00  0.00    +0.111 A 
ATOM     12  C   LIG    1       24.948 -25.530   4.964  0.00  0.00    +0.020 A 
ATOM     13  C   LIG    1       25.888 -26.452   4.544  0.00  0.00    +0.003 A 
ATOM     14  C   LIG    1       25.964 -27.695   5.171  0.00  0.00    +0.026 A 
ENDBRANCH   1   9
BRANCH   1  15
ATOM     15  O   LIG    1       23.823 -30.038   6.660  0.00  0.00    -0.365 OA
BRANCH  15  16
ATOM     16  C   LIG    1       24.015 -31.306   6.016  0.00  0.00    +0.176 C 
BRANCH  16  17
ATOM     17  C   LIG    1       25.473 -31.486   5.551  0.00  0.00    +0.112 C 
BRANCH  17  19
ATOM     18  C   LIG    1       26.882 -33.350   4.887  0.00  0.00    +0.104 C 
ATOM     19  N   LIG    1       26.141 -32.733   5.988  0.00  0.00    -0.306 NA
ATOM     20  C   LIG    1       27.035 -32.446   7.112  0.00  0.00    +0.104 C 
ENDBRANCH  17  19
ENDBRANCH  16  17
ENDBRANCH  15  16
ENDBRANCH   1  15
TORSDOF 6
ENDMDL
