MODEL 1
REMARK VINA RESULT:       5.6      0.000      0.000
REMARK  Name = *****
REMARK                            x       y       z     vdW  Elec       q    Type
REMARK                         _______ _______ _______ _____ _____    ______ ____
ROOT
ATOM      1  C   LIG    1       25.340 -14.292   4.063  0.00  0.00    +0.072 A 
ATOM      2  C   LIG    1       25.939 -13.055   4.281  0.00  0.00    +0.136 A 
ATOM      3  F   LIG    1       25.215 -11.951   4.520  0.00  0.00    -0.205 F 
ATOM      4  C   LIG    1       27.324 -12.918   4.296  0.00  0.00    +0.039 A 
ATOM      5  C   LIG    1       28.143 -14.044   4.219  0.00  0.00    +0.007 A 
ATOM      6  C   LIG    1       27.582 -15.320   4.069  0.00  0.00    -0.041 A 
ATOM      7  C   LIG    1       26.177 -15.426   3.962  0.00  0.00    +0.020 A 
ENDROOT
BRANCH   1   9
ATOM      8  O   LIG    1       23.183 -13.558   4.518  0.00  0.00    -0.270 OA
ATOM      9  C   LIG    1       23.859 -14.490   4.076  0.00  0.00    +0.249 C 
ATOM     10  N   LIG    1       23.259 -15.667   3.611  0.00  0.00    -0.294 N 
ATOM     11  C   LIG    1       23.905 -16.991   3.595  0.00  0.00    +0.127 C 
ATOM     12  C   LIG    1       23.461 -17.797   4.822  0.00  0.00    +0.127 C 
ATOM     13  N   LIG    1       22.003 -17.943   4.797  0.00  0.00    -0.298 N 
ATOM     14  C   LIG    1       21.391 -19.055   4.248  0.00  0.00    +0.219 C 
ATOM     15  O   LIG    1       20.267 -19.003   3.725  0.00  0.00    -0.275 OA
ATOM     16  C   LIG    1       21.293 -16.650   4.778  0.00  0.00    +0.127 C 
ATOM     17  C   LIG    1       21.783 -15.760   3.614  0.00  0.00    +0.127 C 
BRANCH  14  18
ATOM     18  C   LIG    1       22.093 -20.370   4.332  0.00  0.00    +0.075 C 
ATOM     19  C   LIG    1       22.714 -20.802   5.641  0.00  0.00    +0.013 C 
ATOM     20  C   LIG    1       21.522 -21.541   5.108  0.00  0.00    +0.013 C 
ENDBRANCH  14  18
ENDBRANCH   1   9
BRANCH   6  21
ATOM     21  C   LIG    1       28.429 -16.579   4.170  0.00  0.00    +0.092 C 
BRANCH  21  22
ATOM     22  C   LIG    1       27.642 -17.881   4.275  0.00  0.00    +0.074 C 
ATOM     23  C   LIG    1       28.042 -18.911   5.268  0.00  0.00    +0.011 A 
ATOM     24  C   LIG    1       27.268 -20.068   5.329  0.00  0.00    +0.050 A 
ATOM     25  C   LIG    1       27.587 -21.094   6.226  0.00  0.00    +0.014 A 
ATOM     26  C   LIG    1       28.695 -20.964   7.062  0.00  0.00    +0.001 A 
ATOM     27  C   LIG    1       29.475 -19.809   7.004  0.00  0.00    +0.001 A 
ATOM     28  C   LIG    1       26.112 -20.211   4.431  0.00  0.00    +0.273 C 
ATOM     29  O   LIG    1       25.389 -21.201   4.470  0.00  0.00    -0.266 OA
ATOM     30  N   LIG    1       25.898 -19.177   3.554  0.00  0.00    -0.242 N 
ATOM     31  H   LIG    1       25.113 -19.266   2.916  0.00  0.00    +0.192 HD
ATOM     32  C   LIG    1       29.148 -18.781   6.117  0.00  0.00    +0.010 A 
ATOM     33  N   LIG    1       26.629 -18.033   3.471  0.00  0.00    -0.175 NA
ENDBRANCH  21  22
ENDBRANCH   6  21
TORSDOF 4
ENDMDL
MODEL 2
REMARK VINA RESULT:       5.8      2.366      5.795
REMARK  Name = *****
REMARK                            x       y       z     vdW  Elec       q    Type
REMARK                         _______ _______ _______ _____ _____    ______ ____
ROOT
ATOM      1  C   LIG    1       21.965 -18.058   4.824  0.00  0.00    +0.072 A 
ATOM      2  C   LIG    1       21.469 -18.525   3.610  0.00  0.00    +0.136 A 
ATOM      3  F   LIG    1       20.968 -17.693   2.684  0.00  0.00    -0.205 F 
ATOM      4  C   LIG    1       21.505 -19.879   3.289  0.00  0.00    +0.039 A 
ATOM      5  C   LIG    1       22.156 -20.783   4.128  0.00  0.00    +0.007 A 
ATOM      6  C   LIG    1       22.733 -20.348   5.329  0.00  0.00    -0.041 A 
ATOM      7  C   LIG    1       22.603 -18.985   5.679  0.00  0.00    +0.020 A 
ENDROOT
BRANCH   1   9
ATOM      8  O   LIG    1       20.889 -16.096   5.451  0.00  0.00    -0.270 OA
ATOM      9  C   LIG    1       21.980 -16.610   5.192  0.00  0.00    +0.249 C 
ATOM     10  N   LIG    1       23.166 -15.867   5.243  0.00  0.00    -0.294 N 
ATOM     11  C   LIG    1       24.379 -16.161   4.462  0.00  0.00    +0.127 C 
ATOM     12  C   LIG    1       24.418 -15.270   3.214  0.00  0.00    +0.127 C 
ATOM     13  N   LIG    1       24.411 -13.865   3.629  0.00  0.00    -0.298 N 
ATOM     14  C   LIG    1       25.580 -13.144   3.785  0.00  0.00    +0.219 C 
ATOM     15  O   LIG    1       25.684 -12.214   4.600  0.00  0.00    -0.275 OA
ATOM     16  C   LIG    1       23.235 -13.510   4.447  0.00  0.00    +0.127 C 
ATOM     17  C   LIG    1       23.097 -14.450   5.664  0.00  0.00    +0.127 C 
BRANCH  14  18
ATOM     18  C   LIG    1       26.742 -13.471   2.905  0.00  0.00    +0.075 C 
ATOM     19  C   LIG    1       28.135 -13.056   3.324  0.00  0.00    +0.013 C 
ATOM     20  C   LIG    1       27.776 -14.512   3.288  0.00  0.00    +0.013 C 
ENDBRANCH  14  18
ENDBRANCH   1   9
BRANCH   6  21
ATOM     21  C   LIG    1       23.607 -21.264   6.170  0.00  0.00    +0.092 C 
BRANCH  21  22
ATOM     22  C   LIG    1       25.095 -20.931   6.153  0.00  0.00    +0.074 C 
ATOM     23  C   LIG    1       25.631 -19.974   5.152  0.00  0.00    +0.011 A 
ATOM     24  C   LIG    1       26.995 -19.696   5.206  0.00  0.00    +0.050 A 
ATOM     25  C   LIG    1       27.582 -18.816   4.288  0.00  0.00    +0.014 A 
ATOM     26  C   LIG    1       26.797 -18.218   3.304  0.00  0.00    +0.001 A 
ATOM     27  C   LIG    1       25.431 -18.493   3.244  0.00  0.00    +0.001 A 
ATOM     28  C   LIG    1       27.825 -20.346   6.232  0.00  0.00    +0.273 C 
ATOM     29  O   LIG    1       29.024 -20.110   6.331  0.00  0.00    -0.266 OA
ATOM     30  N   LIG    1       27.176 -21.226   7.062  0.00  0.00    -0.242 N 
ATOM     31  H   LIG    1       27.736 -21.696   7.767  0.00  0.00    +0.192 HD
ATOM     32  C   LIG    1       24.845 -19.361   4.168  0.00  0.00    +0.010 A 
ATOM     33  N   LIG    1       25.848 -21.516   7.041  0.00  0.00    -0.175 NA
ENDBRANCH  21  22
ENDBRANCH   6  21
TORSDOF 4
ENDMDL
MODEL 3
REMARK VINA RESULT:       6.3      2.593      6.548
REMARK  Name = *****
REMARK                            x       y       z     vdW  Elec       q    Type
REMARK                         _______ _______ _______ _____ _____    ______ ____
ROOT
ATOM      1  C   LIG    1       27.897 -18.347   4.864  0.00  0.00    +0.072 A 
ATOM      2  C   LIG    1       28.061 -19.136   6.000  0.00  0.00    +0.136 A 
ATOM      3  F   LIG    1       28.761 -18.710   7.062  0.00  0.00    -0.205 F 
ATOM      4  C   LIG    1       27.471 -20.393   6.095  0.00  0.00    +0.039 A 
ATOM      5  C   LIG    1       26.597 -20.837   5.103  0.00  0.00    +0.007 A 
ATOM      6  C   LIG    1       26.346 -20.046   3.973  0.00  0.00    -0.041 A 
ATOM      7  C   LIG    1       27.028 -18.814   3.852  0.00  0.00    +0.020 A 
ENDROOT
BRANCH   1   9
ATOM      8  O   LIG    1       29.438 -16.717   5.470  0.00  0.00    -0.270 OA
ATOM      9  C   LIG    1       28.481 -16.978   4.736  0.00  0.00    +0.249 C 
ATOM     10  N   LIG    1       27.977 -16.034   3.834  0.00  0.00    -0.294 N 
ATOM     11  C   LIG    1       26.589 -15.995   3.343  0.00  0.00    +0.127 C 
ATOM     12  C   LIG    1       25.785 -14.969   4.152  0.00  0.00    +0.127 C 
ATOM     13  N   LIG    1       26.409 -13.651   4.009  0.00  0.00    -0.298 N 
ATOM     14  C   LIG    1       25.991 -12.745   3.053  0.00  0.00    +0.219 C 
ATOM     15  O   LIG    1       26.760 -11.918   2.539  0.00  0.00    -0.275 OA
ATOM     16  C   LIG    1       27.817 -13.628   4.452  0.00  0.00    +0.127 C 
ATOM     17  C   LIG    1       28.646 -14.717   3.736  0.00  0.00    +0.127 C 
BRANCH  14  18
ATOM     18  C   LIG    1       24.549 -12.736   2.661  0.00  0.00    +0.075 C 
ATOM     19  C   LIG    1       23.509 -12.276   3.657  0.00  0.00    +0.013 C 
ATOM     20  C   LIG    1       23.783 -11.447   2.436  0.00  0.00    +0.013 C 
ENDBRANCH  14  18
ENDBRANCH   1   9
BRANCH   6  21
ATOM     21  C   LIG    1       25.263 -20.411   2.971  0.00  0.00    +0.092 C 
BRANCH  21  22
ATOM     22  C   LIG    1       23.841 -20.399   3.522  0.00  0.00    +0.074 C 
ATOM     23  C   LIG    1       23.187 -19.109   3.859  0.00  0.00    +0.011 A 
ATOM     24  C   LIG    1       21.879 -19.167   4.336  0.00  0.00    +0.050 A 
ATOM     25  C   LIG    1       21.196 -17.997   4.691  0.00  0.00    +0.014 A 
ATOM     26  C   LIG    1       21.832 -16.762   4.576  0.00  0.00    +0.001 A 
ATOM     27  C   LIG    1       23.141 -16.698   4.101  0.00  0.00    +0.001 A 
ATOM     28  C   LIG    1       21.218 -20.473   4.477  0.00  0.00    +0.273 C 
ATOM     29  O   LIG    1       20.060 -20.567   4.868  0.00  0.00    -0.266 OA
ATOM     30  N   LIG    1       21.976 -21.570   4.148  0.00  0.00    -0.242 N 
ATOM     31  H   LIG    1       21.541 -22.482   4.253  0.00  0.00    +0.192 HD
ATOM     32  C   LIG    1       23.817 -17.865   3.735  0.00  0.00    +0.010 A 
ATOM     33  N   LIG    1       23.251 -21.550   3.674  0.00  0.00    -0.175 NA
ENDBRANCH  21  22
ENDBRANCH   6  21
TORSDOF 4
ENDMDL
MODEL 4
REMARK VINA RESULT:       6.9      1.363      2.032
REMARK  Name = *****
REMARK                            x       y       z     vdW  Elec       q    Type
REMARK                         _______ _______ _______ _____ _____    ______ ____
ROOT
ATOM      1  C   LIG    1       25.534 -14.217   4.442  0.00  0.00    +0.072 A 
ATOM      2  C   LIG    1       26.156 -13.171   5.119  0.00  0.00    +0.136 A 
ATOM      3  F   LIG    1       25.451 -12.225   5.758  0.00  0.00    -0.205 F 
ATOM      4  C   LIG    1       27.542 -13.082   5.189  0.00  0.00    +0.039 A 
ATOM      5  C   LIG    1       28.339 -14.112   4.690  0.00  0.00    +0.007 A 
ATOM      6  C   LIG    1       27.755 -15.221   4.062  0.00  0.00    -0.041 A 
ATOM      7  C   LIG    1       26.350 -15.246   3.919  0.00  0.00    +0.020 A 
ENDROOT
BRANCH   1   9
ATOM      8  O   LIG    1       23.378 -13.439   4.824  0.00  0.00    -0.270 OA
ATOM      9  C   LIG    1       24.049 -14.371   4.374  0.00  0.00    +0.249 C 
ATOM     10  N   LIG    1       23.441 -15.508   3.828  0.00  0.00    -0.294 N 
ATOM     11  C   LIG    1       24.050 -16.849   3.784  0.00  0.00    +0.127 C 
ATOM     12  C   LIG    1       23.523 -17.693   4.951  0.00  0.00    +0.127 C 
ATOM     13  N   LIG    1       22.065 -17.795   4.848  0.00  0.00    -0.298 N 
ATOM     14  C   LIG    1       21.450 -18.863   4.221  0.00  0.00    +0.219 C 
ATOM     15  O   LIG    1       20.356 -18.755   3.646  0.00  0.00    -0.275 OA
ATOM     16  C   LIG    1       21.393 -16.482   4.852  0.00  0.00    +0.127 C 
ATOM     17  C   LIG    1       21.964 -15.557   3.755  0.00  0.00    +0.127 C 
BRANCH  14  18
ATOM     18  C   LIG    1       22.111 -20.201   4.280  0.00  0.00    +0.075 C 
ATOM     19  C   LIG    1       22.453 -20.805   5.624  0.00  0.00    +0.013 C 
ATOM     20  C   LIG    1       21.386 -21.437   4.778  0.00  0.00    +0.013 C 
ENDBRANCH  14  18
ENDBRANCH   1   9
BRANCH   6  21
ATOM     21  C   LIG    1       28.575 -16.442   3.677  0.00  0.00    +0.092 C 
BRANCH  21  22
ATOM     22  C   LIG    1       28.409 -17.648   4.595  0.00  0.00    +0.074 C 
ATOM     23  C   LIG    1       27.322 -18.628   4.342  0.00  0.00    +0.011 A 
ATOM     24  C   LIG    1       27.239 -19.720   5.204  0.00  0.00    +0.050 A 
ATOM     25  C   LIG    1       26.234 -20.681   5.044  0.00  0.00    +0.014 A 
ATOM     26  C   LIG    1       25.299 -20.542   4.020  0.00  0.00    +0.001 A 
ATOM     27  C   LIG    1       25.375 -19.451   3.156  0.00  0.00    +0.001 A 
ATOM     28  C   LIG    1       28.214 -19.853   6.297  0.00  0.00    +0.273 C 
ATOM     29  O   LIG    1       28.193 -20.812   7.061  0.00  0.00    -0.266 OA
ATOM     30  N   LIG    1       29.138 -18.844   6.406  0.00  0.00    -0.242 N 
ATOM     31  H   LIG    1       29.810 -18.911   7.165  0.00  0.00    +0.192 HD
ATOM     32  C   LIG    1       26.386 -18.499   3.309  0.00  0.00    +0.010 A 
ATOM     33  N   LIG    1       29.250 -17.768   5.581  0.00  0.00    -0.175 NA
ENDBRANCH  21  22
ENDBRANCH   6  21
TORSDOF 4
ENDMDL
MODEL 5
REMARK VINA RESULT:       8.2      2.332      5.770
REMARK  Name = *****
REMARK                            x       y       z     vdW  Elec       q    Type
REMARK                         _______ _______ _______ _____ _____    ______ ____
ROOT
ATOM      1  C   LIG    1       22.026 -18.531   4.271  0.00  0.00    +0.072 A 
ATOM      2  C   LIG    1       20.977 -19.441   4.374  0.00  0.00    +0.136 A 
ATOM      3  F   LIG    1       19.700 -19.040   4.470  0.00  0.00    -0.205 F 
ATOM      4  C   LIG    1       21.207 -20.813   4.345  0.00  0.00    +0.039 A 
ATOM      5  C   LIG    1       22.486 -21.306   4.085  0.00  0.00    +0.007 A 
ATOM      6  C   LIG    1       23.562 -20.426   3.904  0.00  0.00    -0.041 A 
ATOM      7  C   LIG    1       23.323 -19.039   4.030  0.00  0.00    +0.020 A 
ENDROOT
BRANCH   1   9
ATOM      8  O   LIG    1       20.753 -16.649   3.786  0.00  0.00    -0.270 OA
ATOM      9  C   LIG    1       21.819 -17.052   4.260  0.00  0.00    +0.249 C 
ATOM     10  N   LIG    1       22.777 -16.161   4.759  0.00  0.00    -0.294 N 
ATOM     11  C   LIG    1       24.224 -16.427   4.819  0.00  0.00    +0.127 C 
ATOM     12  C   LIG    1       24.919 -15.776   3.616  0.00  0.00    +0.127 C 
ATOM     13  N   LIG    1       24.668 -14.333   3.642  0.00  0.00    -0.298 N 
ATOM     14  C   LIG    1       25.556 -13.448   4.223  0.00  0.00    +0.219 C 
ATOM     15  O   LIG    1       25.189 -12.382   4.741  0.00  0.00    -0.275 OA
ATOM     16  C   LIG    1       23.231 -13.996   3.618  0.00  0.00    +0.127 C 
ATOM     17  C   LIG    1       22.470 -14.713   4.755  0.00  0.00    +0.127 C 
BRANCH  14  18
ATOM     18  C   LIG    1       27.014 -13.771   4.183  0.00  0.00    +0.075 C 
ATOM     19  C   LIG    1       27.728 -13.828   2.852  0.00  0.00    +0.013 C 
ATOM     20  C   LIG    1       28.060 -12.733   3.823  0.00  0.00    +0.013 C 
ENDBRANCH  14  18
ENDBRANCH   1   9
BRANCH   6  21
ATOM     21  C   LIG    1       24.922 -20.918   3.436  0.00  0.00    +0.092 C 
BRANCH  21  22
ATOM     22  C   LIG    1       26.076 -20.640   4.393  0.00  0.00    +0.074 C 
ATOM     23  C   LIG    1       26.803 -19.346   4.323  0.00  0.00    +0.011 A 
ATOM     24  C   LIG    1       27.831 -19.145   5.241  0.00  0.00    +0.050 A 
ATOM     25  C   LIG    1       28.576 -17.960   5.232  0.00  0.00    +0.014 A 
ATOM     26  C   LIG    1       28.293 -16.972   4.290  0.00  0.00    +0.001 A 
ATOM     27  C   LIG    1       27.266 -17.167   3.367  0.00  0.00    +0.001 A 
ATOM     28  C   LIG    1       28.141 -20.198   6.220  0.00  0.00    +0.273 C 
ATOM     29  O   LIG    1       29.021 -20.052   7.062  0.00  0.00    -0.266 OA
ATOM     30  N   LIG    1       27.391 -21.345   6.130  0.00  0.00    -0.242 N 
ATOM     31  H   LIG    1       27.601 -22.089   6.788  0.00  0.00    +0.192 HD
ATOM     32  C   LIG    1       26.516 -18.346   3.385  0.00  0.00    +0.010 A 
ATOM     33  N   LIG    1       26.378 -21.571   5.251  0.00  0.00    -0.175 NA
ENDBRANCH  21  22
ENDBRANCH   6  21
TORSDOF 4
ENDMDL
