MODEL 1
REMARK VINA RESULT:      -4.3      0.000      0.000
REMARK  Name = *****
REMARK                            x       y       z     vdW  Elec       q    Type
REMARK                         _______ _______ _______ _____ _____    ______ ____
ROOT
ATOM      1  C   LIG    1       23.896 -20.585   2.936  0.00  0.00    +0.029 C 
ATOM      2  C   LIG    1       24.800 -19.627   3.702  0.00  0.00    +0.137 C 
ENDROOT
BRANCH   2   3
ATOM      3  C   LIG    1       25.287 -20.109   5.076  0.00  0.00    +0.227 C 
ATOM      4  N   LIG    1       26.646 -20.099   5.290  0.00  0.00    -0.304 N 
ATOM      5  H   LIG    1       27.256 -19.706   4.581  0.00  0.00    +0.149 HD
ATOM      6  O   LIG    1       24.497 -20.527   5.922  0.00  0.00    -0.275 OA
BRANCH   4   7
ATOM      7  C   LIG    1       27.248 -20.558   6.537  0.00  0.00    +0.224 C 
BRANCH   7   8
ATOM      8  C   LIG    1       28.753 -20.329   6.658  0.00  0.00    +0.322 C 
ATOM      9  O   LIG    1       29.284 -19.253   6.413  0.00  0.00    -0.249 OA
BRANCH   8  10
ATOM     10  O   LIG    1       29.474 -21.412   7.022  0.00  0.00    -0.479 OA
ATOM     11  H   LIG    1       29.595 -22.068   6.299  0.00  0.00    +0.295 HD
ENDBRANCH   8  10
ENDBRANCH   7   8
ENDBRANCH   4   7
ENDBRANCH   2   3
BRANCH   2  12
ATOM     12  S   LIG    1       24.080 -17.956   3.825  0.00  0.00    -0.070 S 
BRANCH  12  13
ATOM     13  C   LIG    1       25.463 -16.935   3.422  0.00  0.00    +0.227 C 
ATOM     14  O   LIG    1       26.501 -17.410   2.994  0.00  0.00    -0.279 OA
BRANCH  13  15
ATOM     15  C   LIG    1       25.211 -15.516   3.589  0.00  0.00    +0.066 A 
ATOM     16  S   LIG    1       26.420 -14.419   3.052  0.00  0.00    -0.093 S 
ATOM     17  C   LIG    1       25.476 -13.061   3.474  0.00  0.00    +0.046 A 
ATOM     18  C   LIG    1       24.285 -13.423   4.061  0.00  0.00    +0.008 A 
ATOM     19  C   LIG    1       24.133 -14.839   4.132  0.00  0.00    +0.020 A 
ENDBRANCH  13  15
ENDBRANCH  12  13
ENDBRANCH   2  12
TORSDOF 7
ENDMDL
MODEL 2
REMARK VINA RESULT:      -3.9      3.263      6.122
REMARK  Name = *****
REMARK                            x       y       z     vdW  Elec       q    Type
REMARK                         _______ _______ _______ _____ _____    ______ ____
ROOT
ATOM      1  C   LIG    1       27.120 -17.800   4.062  0.00  0.00    +0.029 C 
ATOM      2  C   LIG    1       26.020 -17.058   3.312  0.00  0.00    +0.137 C 
ENDROOT
BRANCH   2   3
ATOM      3  C   LIG    1       26.029 -15.527   3.436  0.00  0.00    +0.227 C 
ATOM      4  N   LIG    1       27.223 -14.892   3.181  0.00  0.00    -0.304 N 
ATOM      5  H   LIG    1       28.012 -15.437   2.848  0.00  0.00    +0.149 HD
ATOM      6  O   LIG    1       25.026 -14.911   3.794  0.00  0.00    -0.275 OA
BRANCH   4   7
ATOM      7  C   LIG    1       27.383 -13.447   3.291  0.00  0.00    +0.224 C 
BRANCH   7   8
ATOM      8  C   LIG    1       27.778 -12.937   4.675  0.00  0.00    +0.322 C 
ATOM      9  O   LIG    1       28.789 -12.275   4.877  0.00  0.00    -0.249 OA
BRANCH   8  10
ATOM     10  O   LIG    1       26.951 -13.299   5.681  0.00  0.00    -0.479 OA
ATOM     11  H   LIG    1       26.425 -14.107   5.489  0.00  0.00    +0.295 HD
ENDBRANCH   8  10
ENDBRANCH   7   8
ENDBRANCH   4   7
ENDBRANCH   2   3
BRANCH   2  12
ATOM     12  S   LIG    1       24.364 -17.723   3.690  0.00  0.00    -0.070 S 
BRANCH  12  13
ATOM     13  C   LIG    1       24.669 -19.462   3.714  0.00  0.00    +0.227 C 
ATOM     14  O   LIG    1       25.213 -20.025   2.780  0.00  0.00    -0.279 OA
BRANCH  13  15
ATOM     15  C   LIG    1       24.275 -20.108   4.952  0.00  0.00    +0.066 A 
ATOM     16  S   LIG    1       25.462 -21.025   5.790  0.00  0.00    -0.093 S 
ATOM     17  C   LIG    1       24.383 -21.390   7.062  0.00  0.00    +0.046 A 
ATOM     18  C   LIG    1       23.128 -20.873   6.838  0.00  0.00    +0.008 A 
ATOM     19  C   LIG    1       23.063 -20.138   5.619  0.00  0.00    +0.020 A 
ENDBRANCH  13  15
ENDBRANCH  12  13
ENDBRANCH   2  12
TORSDOF 7
ENDMDL
MODEL 3
REMARK VINA RESULT:      -3.9      3.173      6.700
REMARK  Name = *****
REMARK                            x       y       z     vdW  Elec       q    Type
REMARK                         _______ _______ _______ _____ _____    ______ ____
ROOT
ATOM      1  C   LIG    1       27.178 -17.705   4.060  0.00  0.00    +0.029 C 
ATOM      2  C   LIG    1       26.093 -16.968   3.283  0.00  0.00    +0.137 C 
ENDROOT
BRANCH   2   3
ATOM      3  C   LIG    1       26.166 -15.433   3.310  0.00  0.00    +0.227 C 
ATOM      4  N   LIG    1       25.320 -14.788   4.183  0.00  0.00    -0.304 N 
ATOM      5  H   LIG    1       24.754 -15.338   4.821  0.00  0.00    +0.149 HD
ATOM      6  O   LIG    1       26.912 -14.818   2.549  0.00  0.00    -0.275 OA
BRANCH   4   7
ATOM      7  C   LIG    1       25.262 -13.335   4.290  0.00  0.00    +0.224 C 
BRANCH   7   8
ATOM      8  C   LIG    1       24.091 -12.674   3.566  0.00  0.00    +0.322 C 
ATOM      9  O   LIG    1       23.643 -11.580   3.886  0.00  0.00    -0.249 OA
BRANCH   8  10
ATOM     10  O   LIG    1       23.552 -13.397   2.561  0.00  0.00    -0.479 OA
ATOM     11  H   LIG    1       22.696 -13.823   2.794  0.00  0.00    +0.295 HD
ENDBRANCH   8  10
ENDBRANCH   7   8
ENDBRANCH   4   7
ENDBRANCH   2   3
BRANCH   2  12
ATOM     12  S   LIG    1       24.421 -17.539   3.731  0.00  0.00    -0.070 S 
BRANCH  12  13
ATOM     13  C   LIG    1       24.617 -19.293   3.700  0.00  0.00    +0.227 C 
ATOM     14  O   LIG    1       25.081 -19.864   2.728  0.00  0.00    -0.279 OA
BRANCH  13  15
ATOM     15  C   LIG    1       24.238 -19.947   4.938  0.00  0.00    +0.066 A 
ATOM     16  S   LIG    1       25.458 -20.797   5.800  0.00  0.00    -0.093 S 
ATOM     17  C   LIG    1       24.382 -21.203   7.062  0.00  0.00    +0.046 A 
ATOM     18  C   LIG    1       23.107 -20.750   6.818  0.00  0.00    +0.008 A 
ATOM     19  C   LIG    1       23.021 -20.030   5.591  0.00  0.00    +0.020 A 
ENDBRANCH  13  15
ENDBRANCH  12  13
ENDBRANCH   2  12
TORSDOF 7
ENDMDL
MODEL 4
REMARK VINA RESULT:      -3.8      2.986      5.927
REMARK  Name = *****
REMARK                            x       y       z     vdW  Elec       q    Type
REMARK                         _______ _______ _______ _____ _____    ______ ____
ROOT
ATOM      1  C   LIG    1       22.438 -17.547   4.054  0.00  0.00    +0.029 C 
ATOM      2  C   LIG    1       23.890 -17.994   4.175  0.00  0.00    +0.137 C 
ENDROOT
BRANCH   2   3
ATOM      3  C   LIG    1       24.944 -17.032   3.607  0.00  0.00    +0.227 C 
ATOM      4  N   LIG    1       24.709 -15.687   3.775  0.00  0.00    -0.304 N 
ATOM      5  H   LIG    1       23.911 -15.389   4.327  0.00  0.00    +0.149 HD
ATOM      6  O   LIG    1       25.923 -17.452   2.991  0.00  0.00    -0.275 OA
BRANCH   4   7
ATOM      7  C   LIG    1       25.610 -14.662   3.260  0.00  0.00    +0.224 C 
BRANCH   7   8
ATOM      8  C   LIG    1       26.748 -14.263   4.197  0.00  0.00    +0.322 C 
ATOM      9  O   LIG    1       26.620 -13.425   5.081  0.00  0.00    -0.249 OA
BRANCH   8  10
ATOM     10  O   LIG    1       27.930 -14.874   3.962  0.00  0.00    -0.479 OA
ATOM     11  H   LIG    1       28.085 -15.667   4.523  0.00  0.00    +0.295 HD
ENDBRANCH   8  10
ENDBRANCH   7   8
ENDBRANCH   4   7
ENDBRANCH   2   3
BRANCH   2  12
ATOM     12  S   LIG    1       24.144 -19.680   3.528  0.00  0.00    -0.070 S 
BRANCH  12  13
ATOM     13  C   LIG    1       24.268 -20.624   5.015  0.00  0.00    +0.227 C 
ATOM     14  O   LIG    1       23.315 -21.241   5.458  0.00  0.00    -0.279 OA
BRANCH  13  15
ATOM     15  C   LIG    1       25.600 -20.636   5.591  0.00  0.00    +0.066 A 
ATOM     16  S   LIG    1       25.846 -21.557   7.020  0.00  0.00    -0.093 S 
ATOM     17  C   LIG    1       27.510 -21.180   7.062  0.00  0.00    +0.046 A 
ATOM     18  C   LIG    1       27.871 -20.329   6.044  0.00  0.00    +0.008 A 
ATOM     19  C   LIG    1       26.769 -20.010   5.197  0.00  0.00    +0.020 A 
ENDBRANCH  13  15
ENDBRANCH  12  13
ENDBRANCH   2  12
TORSDOF 7
ENDMDL
MODEL 5
REMARK VINA RESULT:      -3.6      3.081      6.079
REMARK  Name = *****
REMARK                            x       y       z     vdW  Elec       q    Type
REMARK                         _______ _______ _______ _____ _____    ______ ____
ROOT
ATOM      1  C   LIG    1       21.551 -18.452   3.801  0.00  0.00    +0.029 C 
ATOM      2  C   LIG    1       22.875 -18.006   4.411  0.00  0.00    +0.137 C 
ENDROOT
BRANCH   2   3
ATOM      3  C   LIG    1       23.123 -16.491   4.458  0.00  0.00    +0.227 C 
ATOM      4  N   LIG    1       24.283 -16.036   3.873  0.00  0.00    -0.304 N 
ATOM      5  H   LIG    1       24.875 -16.690   3.373  0.00  0.00    +0.149 HD
ATOM      6  O   LIG    1       22.342 -15.735   5.034  0.00  0.00    -0.275 OA
BRANCH   4   7
ATOM      7  C   LIG    1       24.660 -14.627   3.871  0.00  0.00    +0.224 C 
BRANCH   7   8
ATOM      8  C   LIG    1       26.053 -14.325   3.323  0.00  0.00    +0.322 C 
ATOM      9  O   LIG    1       26.375 -14.551   2.163  0.00  0.00    -0.249 OA
BRANCH   8  10
ATOM     10  O   LIG    1       26.928 -13.820   4.220  0.00  0.00    -0.479 OA
ATOM     11  H   LIG    1       27.489 -13.096   3.861  0.00  0.00    +0.295 HD
ENDBRANCH   8  10
ENDBRANCH   7   8
ENDBRANCH   4   7
ENDBRANCH   2   3
BRANCH   2  12
ATOM     12  S   LIG    1       24.298 -18.868   3.664  0.00  0.00    -0.070 S 
BRANCH  12  13
ATOM     13  C   LIG    1       24.376 -20.344   4.630  0.00  0.00    +0.227 C 
ATOM     14  O   LIG    1       23.487 -21.177   4.590  0.00  0.00    -0.279 OA
BRANCH  13  15
ATOM     15  C   LIG    1       25.601 -20.478   5.395  0.00  0.00    +0.066 A 
ATOM     16  S   LIG    1       25.601 -21.572   6.721  0.00  0.00    -0.093 S 
ATOM     17  C   LIG    1       27.247 -21.271   7.060  0.00  0.00    +0.046 A 
ATOM     18  C   LIG    1       27.781 -20.320   6.221  0.00  0.00    +0.008 A 
ATOM     19  C   LIG    1       26.831 -19.859   5.263  0.00  0.00    +0.020 A 
ENDBRANCH  13  15
ENDBRANCH  12  13
ENDBRANCH   2  12
TORSDOF 7
ENDMDL
MODEL 6
REMARK VINA RESULT:      -3.3      3.126      6.094
REMARK  Name = *****
REMARK                            x       y       z     vdW  Elec       q    Type
REMARK                         _______ _______ _______ _____ _____    ______ ____
ROOT
ATOM      1  C   LIG    1       22.641 -17.798   3.988  0.00  0.00    +0.029 C 
ATOM      2  C   LIG    1       24.061 -17.278   4.179  0.00  0.00    +0.137 C 
ENDROOT
BRANCH   2   3
ATOM      3  C   LIG    1       24.264 -15.771   3.961  0.00  0.00    +0.227 C 
ATOM      4  N   LIG    1       25.520 -15.366   3.570  0.00  0.00    -0.304 N 
ATOM      5  H   LIG    1       26.225 -16.067   3.365  0.00  0.00    +0.149 HD
ATOM      6  O   LIG    1       23.357 -14.968   4.174  0.00  0.00    -0.275 OA
BRANCH   4   7
ATOM      7  C   LIG    1       25.862 -13.964   3.357  0.00  0.00    +0.224 C 
BRANCH   7   8
ATOM      8  C   LIG    1       27.196 -13.520   3.953  0.00  0.00    +0.322 C 
ATOM      9  O   LIG    1       27.343 -13.269   5.143  0.00  0.00    -0.249 OA
BRANCH   8  10
ATOM     10  O   LIG    1       28.207 -13.386   3.067  0.00  0.00    -0.479 OA
ATOM     11  H   LIG    1       28.986 -12.904   3.426  0.00  0.00    +0.295 HD
ENDBRANCH   8  10
ENDBRANCH   7   8
ENDBRANCH   4   7
ENDBRANCH   2   3
BRANCH   2  12
ATOM     12  S   LIG    1       25.277 -18.236   3.216  0.00  0.00    -0.070 S 
BRANCH  12  13
ATOM     13  C   LIG    1       24.909 -19.890   3.712  0.00  0.00    +0.227 C 
ATOM     14  O   LIG    1       24.188 -20.610   3.041  0.00  0.00    -0.279 OA
BRANCH  13  15
ATOM     15  C   LIG    1       25.588 -20.303   4.925  0.00  0.00    +0.066 A 
ATOM     16  S   LIG    1       24.751 -21.358   5.993  0.00  0.00    -0.093 S 
ATOM     17  C   LIG    1       26.080 -21.448   7.059  0.00  0.00    +0.046 A 
ATOM     18  C   LIG    1       27.126 -20.654   6.649  0.00  0.00    +0.008 A 
ATOM     19  C   LIG    1       26.842 -19.989   5.420  0.00  0.00    +0.020 A 
ENDBRANCH  13  15
ENDBRANCH  12  13
ENDBRANCH   2  12
TORSDOF 7
ENDMDL
MODEL 7
REMARK VINA RESULT:      -3.3      3.365      6.226
REMARK  Name = *****
REMARK                            x       y       z     vdW  Elec       q    Type
REMARK                         _______ _______ _______ _____ _____    ______ ____
ROOT
ATOM      1  C   LIG    1       23.099 -15.803   4.064  0.00  0.00    +0.029 C 
ATOM      2  C   LIG    1       24.422 -16.561   4.062  0.00  0.00    +0.137 C 
ENDROOT
BRANCH   2   3
ATOM      3  C   LIG    1       25.626 -15.817   3.466  0.00  0.00    +0.227 C 
ATOM      4  N   LIG    1       25.585 -14.442   3.500  0.00  0.00    -0.304 N 
ATOM      5  H   LIG    1       24.818 -13.982   3.981  0.00  0.00    +0.149 HD
ATOM      6  O   LIG    1       26.557 -16.428   2.942  0.00  0.00    -0.275 OA
BRANCH   4   7
ATOM      7  C   LIG    1       26.645 -13.610   2.943  0.00  0.00    +0.224 C 
BRANCH   7   8
ATOM      8  C   LIG    1       27.818 -13.334   3.881  0.00  0.00    +0.322 C 
ATOM      9  O   LIG    1       27.672 -13.028   5.058  0.00  0.00    -0.249 OA
BRANCH   8  10
ATOM     10  O   LIG    1       29.042 -13.413   3.314  0.00  0.00    -0.479 OA
ATOM     11  H   LIG    1       29.086 -13.024   2.411  0.00  0.00    +0.295 HD
ENDBRANCH   8  10
ENDBRANCH   7   8
ENDBRANCH   4   7
ENDBRANCH   2   3
BRANCH   2  12
ATOM     12  S   LIG    1       24.260 -18.219   3.321  0.00  0.00    -0.070 S 
BRANCH  12  13
ATOM     13  C   LIG    1       23.045 -18.964   4.363  0.00  0.00    +0.227 C 
ATOM     14  O   LIG    1       21.862 -18.690   4.256  0.00  0.00    -0.279 OA
BRANCH  13  15
ATOM     15  C   LIG    1       23.584 -19.951   5.279  0.00  0.00    +0.066 A 
ATOM     16  S   LIG    1       25.115 -20.638   4.906  0.00  0.00    -0.093 S 
ATOM     17  C   LIG    1       25.122 -21.572   6.335  0.00  0.00    +0.046 A 
ATOM     18  C   LIG    1       23.966 -21.412   7.062  0.00  0.00    +0.008 A 
ATOM     19  C   LIG    1       23.075 -20.481   6.451  0.00  0.00    +0.020 A 
ENDBRANCH  13  15
ENDBRANCH  12  13
ENDBRANCH   2  12
TORSDOF 7
ENDMDL
MODEL 8
REMARK VINA RESULT:      -3.3      2.924      6.001
REMARK  Name = *****
REMARK                            x       y       z     vdW  Elec       q    Type
REMARK                         _______ _______ _______ _____ _____    ______ ____
ROOT
ATOM      1  C   LIG    1       22.776 -17.451   4.162  0.00  0.00    +0.029 C 
ATOM      2  C   LIG    1       24.290 -17.272   4.169  0.00  0.00    +0.137 C 
ENDROOT
BRANCH   2   3
ATOM      3  C   LIG    1       24.811 -15.894   3.734  0.00  0.00    +0.227 C 
ATOM      4  N   LIG    1       26.105 -15.840   3.270  0.00  0.00    -0.304 N 
ATOM      5  H   LIG    1       26.627 -16.703   3.156  0.00  0.00    +0.149 HD
ATOM      6  O   LIG    1       24.114 -14.886   3.844  0.00  0.00    -0.275 OA
BRANCH   4   7
ATOM      7  C   LIG    1       26.738 -14.594   2.853  0.00  0.00    +0.224 C 
BRANCH   7   8
ATOM      8  C   LIG    1       27.561 -13.888   3.928  0.00  0.00    +0.322 C 
ATOM      9  O   LIG    1       27.203 -13.812   5.097  0.00  0.00    -0.249 OA
BRANCH   8  10
ATOM     10  O   LIG    1       28.705 -13.314   3.495  0.00  0.00    -0.479 OA
ATOM     11  H   LIG    1       28.563 -12.488   2.980  0.00  0.00    +0.295 HD
ENDBRANCH   8  10
ENDBRANCH   7   8
ENDBRANCH   4   7
ENDBRANCH   2   3
BRANCH   2  12
ATOM     12  S   LIG    1       25.140 -18.599   3.252  0.00  0.00    -0.070 S 
BRANCH  12  13
ATOM     13  C   LIG    1       25.688 -19.650   4.560  0.00  0.00    +0.227 C 
ATOM     14  O   LIG    1       26.858 -19.683   4.902  0.00  0.00    -0.279 OA
BRANCH  13  15
ATOM     15  C   LIG    1       24.619 -20.392   5.202  0.00  0.00    +0.066 A 
ATOM     16  S   LIG    1       24.842 -20.862   6.840  0.00  0.00    -0.093 S 
ATOM     17  C   LIG    1       23.289 -21.565   6.923  0.00  0.00    +0.046 A 
ATOM     18  C   LIG    1       22.627 -21.496   5.719  0.00  0.00    +0.008 A 
ATOM     19  C   LIG    1       23.395 -20.824   4.724  0.00  0.00    +0.020 A 
ENDBRANCH  13  15
ENDBRANCH  12  13
ENDBRANCH   2  12
TORSDOF 7
ENDMDL
MODEL 9
REMARK VINA RESULT:      -3.3      1.938      2.406
REMARK  Name = *****
REMARK                            x       y       z     vdW  Elec       q    Type
REMARK                         _______ _______ _______ _____ _____    ______ ____
ROOT
ATOM      1  C   LIG    1       21.046 -18.626   3.714  0.00  0.00    +0.029 C 
ATOM      2  C   LIG    1       22.559 -18.556   3.882  0.00  0.00    +0.137 C 
ENDROOT
BRANCH   2   3
ATOM      3  C   LIG    1       23.182 -19.586   4.836  0.00  0.00    +0.227 C 
ATOM      4  N   LIG    1       24.208 -20.354   4.335  0.00  0.00    -0.304 N 
ATOM      5  H   LIG    1       24.562 -20.159   3.404  0.00  0.00    +0.149 HD
ATOM      6  O   LIG    1       22.747 -19.744   5.976  0.00  0.00    -0.275 OA
BRANCH   4   7
ATOM      7  C   LIG    1       24.870 -21.390   5.119  0.00  0.00    +0.224 C 
BRANCH   7   8
ATOM      8  C   LIG    1       26.187 -20.973   5.772  0.00  0.00    +0.322 C 
ATOM      9  O   LIG    1       26.519 -21.340   6.892  0.00  0.00    -0.249 OA
BRANCH   8  10
ATOM     10  O   LIG    1       26.953 -20.135   5.041  0.00  0.00    -0.479 OA
ATOM     11  H   LIG    1       26.489 -19.313   4.765  0.00  0.00    +0.295 HD
ENDBRANCH   8  10
ENDBRANCH   7   8
ENDBRANCH   4   7
ENDBRANCH   2   3
BRANCH   2  12
ATOM     12  S   LIG    1       23.126 -16.873   4.295  0.00  0.00    -0.070 S 
BRANCH  12  13
ATOM     13  C   LIG    1       24.781 -16.887   3.680  0.00  0.00    +0.227 C 
ATOM     14  O   LIG    1       25.328 -17.925   3.350  0.00  0.00    -0.279 OA
BRANCH  13  15
ATOM     15  C   LIG    1       25.369 -15.567   3.554  0.00  0.00    +0.066 A 
ATOM     16  S   LIG    1       24.361 -14.208   3.854  0.00  0.00    -0.093 S 
ATOM     17  C   LIG    1       25.645 -13.111   3.603  0.00  0.00    +0.046 A 
ATOM     18  C   LIG    1       26.808 -13.752   3.246  0.00  0.00    +0.008 A 
ATOM     19  C   LIG    1       26.650 -15.169   3.213  0.00  0.00    +0.020 A 
ENDBRANCH  13  15
ENDBRANCH  12  13
ENDBRANCH   2  12
TORSDOF 7
ENDMDL
