MODEL 1
REMARK VINA RESULT:      -9.0      0.000      0.000
REMARK  Name = *****
REMARK                            x       y       z     vdW  Elec       q    Type
REMARK                         _______ _______ _______ _____ _____    ______ ____
ROOT
ATOM      1  C   LIG    1       25.666 -22.449   6.575  0.00  0.00    +0.053 C 
ENDROOT
BRANCH   1   8
ATOM      2  C   LIG    1       22.226 -18.492   3.681  0.00  0.00    +0.048 C 
ATOM      3  C   LIG    1       23.174 -19.462   4.323  0.00  0.00    +0.003 C 
ATOM      4  C   LIG    1       22.512 -20.561   5.058  0.00  0.00    +0.185 C 
ATOM      5  O   LIG    1       21.291 -20.548   5.194  0.00  0.00    -0.287 OA
ATOM      6  C   LIG    1       23.346 -21.652   5.665  0.00  0.00    +0.004 C 
ATOM      7  C   LIG    1       22.466 -22.782   6.139  0.00  0.00    +0.048 C 
ATOM      8  C   LIG    1       24.699 -21.563   5.727  0.00  0.00    +0.013 C 
ATOM      9  C   LIG    1       25.330 -20.515   4.860  0.00  0.00    +0.186 C 
ATOM     10  O   LIG    1       26.505 -20.581   4.520  0.00  0.00    -0.287 OA
ATOM     11  C   LIG    1       24.510 -19.433   4.253  0.00  0.00    +0.003 C 
ATOM     12  C   LIG    1       25.327 -18.397   3.536  0.00  0.00    +0.048 C 
ENDBRANCH   1   8
BRANCH   1  13
ATOM     13  C   LIG    1       25.552 -23.989   6.312  0.00  0.00    -0.040 A 
ATOM     14  C   LIG    1       25.174 -24.469   5.053  0.00  0.00    +0.004 A 
ATOM     15  C   LIG    1       25.065 -25.807   4.687  0.00  0.00    +0.000 A 
ATOM     16  C   LIG    1       25.382 -26.776   5.598  0.00  0.00    +0.000 A 
ATOM     17  C   LIG    1       25.765 -26.368   6.884  0.00  0.00    +0.000 A 
ATOM     18  C   LIG    1       25.848 -24.996   7.237  0.00  0.00    +0.004 A 
ENDBRANCH   1  13
BRANCH   1  19
ATOM     19  C   LIG    1       25.765 -22.076   8.118  0.00  0.00    +0.013 C 
BRANCH  19  20
ATOM     20  C   LIG    1       26.390 -20.719   8.485  0.00  0.00    +0.001 C 
BRANCH  20  21
ATOM     21  C   LIG    1       27.680 -20.302   7.781  0.00  0.00    +0.001 C 
BRANCH  21  22
ATOM     22  C   LIG    1       28.764 -21.417   7.875  0.00  0.00    +0.011 C 
BRANCH  22  23
ATOM     23  C   LIG    1       30.214 -21.008   8.235  0.00  0.00    +0.120 C 
BRANCH  23  24
ATOM     24  C   LIG    1       31.062 -21.837   9.150  0.00  0.00    +0.305 C 
ATOM     25  O   LIG    1       30.710 -22.134  10.296  0.00  0.00    -0.251 OA
BRANCH  24  26
ATOM     26  O   LIG    1       32.140 -22.413   8.558  0.00  0.00    -0.481 OA
ATOM     27  H   LIG    1       32.937 -22.456   9.117  0.00  0.00    +0.295 HD
ENDBRANCH  24  26
ENDBRANCH  23  24
ENDBRANCH  22  23
ENDBRANCH  21  22
ENDBRANCH  20  21
ENDBRANCH  19  20
ENDBRANCH   1  19
TORSDOF 9
ENDMDL
MODEL 2
REMARK VINA RESULT:      -8.7      0.939      2.374
REMARK  Name = *****
REMARK                            x       y       z     vdW  Elec       q    Type
REMARK                         _______ _______ _______ _____ _____    ______ ____
ROOT
ATOM      1  C   LIG    1       26.006 -22.612   6.545  0.00  0.00    +0.053 C 
ENDROOT
BRANCH   1   8
ATOM      2  C   LIG    1       22.581 -18.898   3.331  0.00  0.00    +0.048 C 
ATOM      3  C   LIG    1       23.344 -19.846   4.210  0.00  0.00    +0.003 C 
ATOM      4  C   LIG    1       24.803 -19.612   4.230  0.00  0.00    +0.185 C 
ATOM      5  O   LIG    1       25.293 -18.778   3.471  0.00  0.00    -0.287 OA
ATOM      6  C   LIG    1       25.671 -20.430   5.143  0.00  0.00    +0.004 C 
ATOM      7  C   LIG    1       27.068 -19.862   5.186  0.00  0.00    +0.048 C 
ATOM      8  C   LIG    1       25.184 -21.506   5.811  0.00  0.00    +0.013 C 
ATOM      9  C   LIG    1       23.691 -21.624   5.871  0.00  0.00    +0.186 C 
ATOM     10  O   LIG    1       23.131 -22.285   6.738  0.00  0.00    -0.287 OA
ATOM     11  C   LIG    1       22.825 -20.815   4.973  0.00  0.00    +0.003 C 
ATOM     12  C   LIG    1       21.369 -21.166   5.074  0.00  0.00    +0.048 C 
ENDBRANCH   1   8
BRANCH   1  13
ATOM     13  C   LIG    1       25.625 -24.082   6.162  0.00  0.00    -0.040 A 
ATOM     14  C   LIG    1       25.845 -25.131   7.062  0.00  0.00    +0.004 A 
ATOM     15  C   LIG    1       25.525 -26.469   6.852  0.00  0.00    +0.000 A 
ATOM     16  C   LIG    1       24.904 -26.833   5.690  0.00  0.00    +0.000 A 
ATOM     17  C   LIG    1       24.655 -25.833   4.738  0.00  0.00    +0.000 A 
ATOM     18  C   LIG    1       25.011 -24.479   4.969  0.00  0.00    +0.004 A 
ENDBRANCH   1  13
BRANCH   1  19
ATOM     19  C   LIG    1       26.206 -22.398   8.109  0.00  0.00    +0.013 C 
BRANCH  19  20
ATOM     20  C   LIG    1       26.370 -20.954   8.615  0.00  0.00    +0.001 C 
BRANCH  20  21
ATOM     21  C   LIG    1       27.729 -20.276   8.441  0.00  0.00    +0.001 C 
BRANCH  21  22
ATOM     22  C   LIG    1       28.805 -21.283   7.939  0.00  0.00    +0.011 C 
BRANCH  22  23
ATOM     23  C   LIG    1       30.294 -20.989   8.251  0.00  0.00    +0.120 C 
BRANCH  23  24
ATOM     24  C   LIG    1       31.094 -21.862   9.168  0.00  0.00    +0.305 C 
ATOM     25  O   LIG    1       30.754 -22.090  10.333  0.00  0.00    -0.251 OA
BRANCH  24  26
ATOM     26  O   LIG    1       32.097 -22.549   8.565  0.00  0.00    -0.481 OA
ATOM     27  H   LIG    1       31.813 -23.123   7.832  0.00  0.00    +0.295 HD
ENDBRANCH  24  26
ENDBRANCH  23  24
ENDBRANCH  22  23
ENDBRANCH  21  22
ENDBRANCH  20  21
ENDBRANCH  19  20
ENDBRANCH   1  19
TORSDOF 9
ENDMDL
MODEL 3
REMARK VINA RESULT:      -8.5      1.221      1.404
REMARK  Name = *****
REMARK                            x       y       z     vdW  Elec       q    Type
REMARK                         _______ _______ _______ _____ _____    ______ ____
ROOT
ATOM      1  C   LIG    1       25.645 -22.613   6.641  0.00  0.00    +0.053 C 
ENDROOT
BRANCH   1   8
ATOM      2  C   LIG    1       22.200 -18.624   3.798  0.00  0.00    +0.048 C 
ATOM      3  C   LIG    1       23.149 -19.602   4.427  0.00  0.00    +0.003 C 
ATOM      4  C   LIG    1       22.488 -20.704   5.158  0.00  0.00    +0.185 C 
ATOM      5  O   LIG    1       21.268 -20.687   5.301  0.00  0.00    -0.287 OA
ATOM      6  C   LIG    1       23.322 -21.802   5.752  0.00  0.00    +0.004 C 
ATOM      7  C   LIG    1       22.441 -22.932   6.224  0.00  0.00    +0.048 C 
ATOM      8  C   LIG    1       24.676 -21.717   5.806  0.00  0.00    +0.013 C 
ATOM      9  C   LIG    1       25.304 -20.665   4.943  0.00  0.00    +0.186 C 
ATOM     10  O   LIG    1       26.477 -20.733   4.595  0.00  0.00    -0.287 OA
ATOM     11  C   LIG    1       24.485 -19.577   4.348  0.00  0.00    +0.003 C 
ATOM     12  C   LIG    1       25.301 -18.538   3.634  0.00  0.00    +0.048 C 
ENDBRANCH   1   8
BRANCH   1  13
ATOM     13  C   LIG    1       25.566 -24.144   6.325  0.00  0.00    -0.040 A 
ATOM     14  C   LIG    1       25.241 -24.589   5.039  0.00  0.00    +0.004 A 
ATOM     15  C   LIG    1       25.168 -25.917   4.627  0.00  0.00    +0.000 A 
ATOM     16  C   LIG    1       25.468 -26.909   5.517  0.00  0.00    +0.000 A 
ATOM     17  C   LIG    1       25.799 -26.538   6.828  0.00  0.00    +0.000 A 
ATOM     18  C   LIG    1       25.846 -25.177   7.228  0.00  0.00    +0.004 A 
ENDBRANCH   1  13
BRANCH   1  19
ATOM     19  C   LIG    1       25.710 -22.290   8.198  0.00  0.00    +0.013 C 
BRANCH  19  20
ATOM     20  C   LIG    1       25.939 -20.827   8.614  0.00  0.00    +0.001 C 
BRANCH  20  21
ATOM     21  C   LIG    1       27.114 -20.073   7.992  0.00  0.00    +0.001 C 
BRANCH  21  22
ATOM     22  C   LIG    1       28.358 -20.997   7.829  0.00  0.00    +0.011 C 
BRANCH  22  23
ATOM     23  C   LIG    1       29.372 -20.675   6.703  0.00  0.00    +0.120 C 
BRANCH  23  24
ATOM     24  C   LIG    1       30.353 -19.549   6.824  0.00  0.00    +0.305 C 
ATOM     25  O   LIG    1       30.010 -18.363   6.797  0.00  0.00    -0.251 OA
BRANCH  24  26
ATOM     26  O   LIG    1       31.608 -19.926   7.178  0.00  0.00    -0.481 OA
ATOM     27  H   LIG    1       31.715 -20.152   8.119  0.00  0.00    +0.295 HD
ENDBRANCH  24  26
ENDBRANCH  23  24
ENDBRANCH  22  23
ENDBRANCH  21  22
ENDBRANCH  20  21
ENDBRANCH  19  20
ENDBRANCH   1  19
TORSDOF 9
ENDMDL
MODEL 4
REMARK VINA RESULT:      -8.3      2.929      6.623
REMARK  Name = *****
REMARK                            x       y       z     vdW  Elec       q    Type
REMARK                         _______ _______ _______ _____ _____    ______ ____
ROOT
ATOM      1  C   LIG    1       25.274 -21.657   5.319  0.00  0.00    +0.053 C 
ENDROOT
BRANCH   1   8
ATOM      2  C   LIG    1       30.282 -19.847   8.059  0.00  0.00    +0.048 C 
ATOM      3  C   LIG    1       29.022 -20.191   7.319  0.00  0.00    +0.003 C 
ATOM      4  C   LIG    1       28.175 -21.194   7.999  0.00  0.00    +0.185 C 
ATOM      5  O   LIG    1       28.589 -21.746   9.016  0.00  0.00    -0.287 OA
ATOM      6  C   LIG    1       26.841 -21.555   7.411  0.00  0.00    +0.004 C 
ATOM      7  C   LIG    1       26.049 -22.393   8.385  0.00  0.00    +0.048 C 
ATOM      8  C   LIG    1       26.470 -21.134   6.176  0.00  0.00    +0.013 C 
ATOM      9  C   LIG    1       27.287 -20.023   5.587  0.00  0.00    +0.186 C 
ATOM     10  O   LIG    1       26.848 -19.301   4.700  0.00  0.00    -0.287 OA
ATOM     11  C   LIG    1       28.607 -19.657   6.165  0.00  0.00    +0.003 C 
ATOM     12  C   LIG    1       29.343 -18.622   5.363  0.00  0.00    +0.048 C 
ENDBRANCH   1   8
BRANCH   1  13
ATOM     13  C   LIG    1       24.248 -20.560   4.878  0.00  0.00    -0.040 A 
ATOM     14  C   LIG    1       23.206 -20.178   5.730  0.00  0.00    +0.004 A 
ATOM     15  C   LIG    1       22.251 -19.199   5.466  0.00  0.00    +0.000 A 
ATOM     16  C   LIG    1       22.321 -18.497   4.296  0.00  0.00    +0.000 A 
ATOM     17  C   LIG    1       23.339 -18.829   3.390  0.00  0.00    +0.000 A 
ATOM     18  C   LIG    1       24.287 -19.846   3.675  0.00  0.00    +0.004 A 
ENDBRANCH   1  13
BRANCH   1  19
ATOM     19  C   LIG    1       24.586 -22.994   5.842  0.00  0.00    +0.013 C 
BRANCH  19  20
ATOM     20  C   LIG    1       25.153 -24.332   5.337  0.00  0.00    +0.001 C 
BRANCH  20  21
ATOM     21  C   LIG    1       25.866 -25.240   6.338  0.00  0.00    +0.001 C 
BRANCH  21  22
ATOM     22  C   LIG    1       25.864 -26.723   5.859  0.00  0.00    +0.011 C 
BRANCH  22  23
ATOM     23  C   LIG    1       24.500 -27.433   5.665  0.00  0.00    +0.120 C 
BRANCH  23  24
ATOM     24  C   LIG    1       24.342 -28.907   5.881  0.00  0.00    +0.305 C 
ATOM     25  O   LIG    1       25.103 -29.558   6.604  0.00  0.00    -0.251 OA
BRANCH  24  26
ATOM     26  O   LIG    1       23.185 -29.429   5.401  0.00  0.00    -0.481 OA
ATOM     27  H   LIG    1       23.299 -30.198   4.813  0.00  0.00    +0.295 HD
ENDBRANCH  24  26
ENDBRANCH  23  24
ENDBRANCH  22  23
ENDBRANCH  21  22
ENDBRANCH  20  21
ENDBRANCH  19  20
ENDBRANCH   1  19
TORSDOF 9
ENDMDL
MODEL 5
REMARK VINA RESULT:      -7.8      1.806      6.072
REMARK  Name = *****
REMARK                            x       y       z     vdW  Elec       q    Type
REMARK                         _______ _______ _______ _____ _____    ______ ____
ROOT
ATOM      1  C   LIG    1       25.797 -21.803   7.352  0.00  0.00    +0.053 C 
ENDROOT
BRANCH   1   8
ATOM      2  C   LIG    1       30.742 -18.547   6.454  0.00  0.00    +0.048 C 
ATOM      3  C   LIG    1       29.573 -19.446   6.732  0.00  0.00    +0.003 C 
ATOM      4  C   LIG    1       28.456 -19.303   5.774  0.00  0.00    +0.185 C 
ATOM      5  O   LIG    1       28.499 -18.417   4.924  0.00  0.00    -0.287 OA
ATOM      6  C   LIG    1       27.267 -20.213   5.884  0.00  0.00    +0.004 C 
ATOM      7  C   LIG    1       26.379 -20.063   4.674  0.00  0.00    +0.048 C 
ATOM      8  C   LIG    1       27.096 -21.035   6.950  0.00  0.00    +0.013 C 
ATOM      9  C   LIG    1       28.301 -21.248   7.816  0.00  0.00    +0.186 C 
ATOM     10  O   LIG    1       28.408 -22.230   8.542  0.00  0.00    -0.287 OA
ATOM     11  C   LIG    1       29.484 -20.354   7.711  0.00  0.00    +0.003 C 
ATOM     12  C   LIG    1       30.534 -20.629   8.749  0.00  0.00    +0.048 C 
ENDBRANCH   1   8
BRANCH   1  13
ATOM     13  C   LIG    1       25.612 -23.196   6.660  0.00  0.00    -0.040 A 
ATOM     14  C   LIG    1       25.872 -24.378   7.362  0.00  0.00    +0.004 A 
ATOM     15  C   LIG    1       25.719 -25.671   6.871  0.00  0.00    +0.000 A 
ATOM     16  C   LIG    1       25.238 -25.851   5.604  0.00  0.00    +0.000 A 
ATOM     17  C   LIG    1       24.960 -24.710   4.839  0.00  0.00    +0.000 A 
ATOM     18  C   LIG    1       25.145 -23.401   5.357  0.00  0.00    +0.004 A 
ENDBRANCH   1  13
BRANCH   1  19
ATOM     19  C   LIG    1       24.466 -20.932   7.387  0.00  0.00    +0.013 C 
BRANCH  19  20
ATOM     20  C   LIG    1       23.124 -21.683   7.433  0.00  0.00    +0.001 C 
BRANCH  20  21
ATOM     21  C   LIG    1       22.357 -21.875   6.125  0.00  0.00    +0.001 C 
BRANCH  21  22
ATOM     22  C   LIG    1       22.820 -20.857   5.041  0.00  0.00    +0.011 C 
BRANCH  22  23
ATOM     23  C   LIG    1       21.965 -19.587   4.809  0.00  0.00    +0.120 C 
BRANCH  23  24
ATOM     24  C   LIG    1       22.574 -18.304   4.329  0.00  0.00    +0.305 C 
ATOM     25  O   LIG    1       22.177 -17.198   4.709  0.00  0.00    -0.251 OA
BRANCH  24  26
ATOM     26  O   LIG    1       23.722 -18.452   3.621  0.00  0.00    -0.481 OA
ATOM     27  H   LIG    1       23.835 -17.815   2.892  0.00  0.00    +0.295 HD
ENDBRANCH  24  26
ENDBRANCH  23  24
ENDBRANCH  22  23
ENDBRANCH  21  22
ENDBRANCH  20  21
ENDBRANCH  19  20
ENDBRANCH   1  19
TORSDOF 9
ENDMDL
MODEL 6
REMARK VINA RESULT:      -7.4      2.476      5.554
REMARK  Name = *****
REMARK                            x       y       z     vdW  Elec       q    Type
REMARK                         _______ _______ _______ _____ _____    ______ ____
ROOT
ATOM      1  C   LIG    1       26.600 -21.240   7.815  0.00  0.00    +0.053 C 
ENDROOT
BRANCH   1   8
ATOM      2  C   LIG    1       23.473 -19.550   2.995  0.00  0.00    +0.048 C 
ATOM      3  C   LIG    1       24.160 -19.944   4.270  0.00  0.00    +0.003 C 
ATOM      4  C   LIG    1       25.632 -19.814   4.231  0.00  0.00    +0.185 C 
ATOM      5  O   LIG    1       26.185 -19.521   3.174  0.00  0.00    -0.287 OA
ATOM      6  C   LIG    1       26.431 -20.086   5.473  0.00  0.00    +0.004 C 
ATOM      7  C   LIG    1       27.864 -19.654   5.279  0.00  0.00    +0.048 C 
ATOM      8  C   LIG    1       25.864 -20.632   6.579  0.00  0.00    +0.013 C 
ATOM      9  C   LIG    1       24.366 -20.620   6.625  0.00  0.00    +0.186 C 
ATOM     10  O   LIG    1       23.752 -20.704   7.682  0.00  0.00    -0.287 OA
ATOM     11  C   LIG    1       23.568 -20.348   5.400  0.00  0.00    +0.003 C 
ATOM     12  C   LIG    1       22.089 -20.516   5.603  0.00  0.00    +0.048 C 
ENDBRANCH   1   8
BRANCH   1  13
ATOM     13  C   LIG    1       28.095 -20.802   7.974  0.00  0.00    -0.040 A 
ATOM     14  C   LIG    1       28.418 -19.476   8.283  0.00  0.00    +0.004 A 
ATOM     15  C   LIG    1       29.701 -18.971   8.478  0.00  0.00    +0.000 A 
ATOM     16  C   LIG    1       30.770 -19.819   8.408  0.00  0.00    +0.000 A 
ATOM     17  C   LIG    1       30.522 -21.164   8.098  0.00  0.00    +0.000 A 
ATOM     18  C   LIG    1       29.205 -21.649   7.882  0.00  0.00    +0.004 A 
ENDBRANCH   1  13
BRANCH   1  19
ATOM     19  C   LIG    1       26.367 -22.795   8.058  0.00  0.00    +0.013 C 
BRANCH  19  20
ATOM     20  C   LIG    1       25.927 -23.647   6.854  0.00  0.00    +0.001 C 
BRANCH  20  21
ATOM     21  C   LIG    1       24.452 -24.026   6.736  0.00  0.00    +0.001 C 
BRANCH  21  22
ATOM     22  C   LIG    1       24.280 -25.455   6.139  0.00  0.00    +0.011 C 
BRANCH  22  23
ATOM     23  C   LIG    1       25.275 -25.922   5.047  0.00  0.00    +0.120 C 
BRANCH  23  24
ATOM     24  C   LIG    1       26.106 -27.157   5.215  0.00  0.00    +0.305 C 
ATOM     25  O   LIG    1       25.625 -28.293   5.168  0.00  0.00    -0.251 OA
BRANCH  24  26
ATOM     26  O   LIG    1       27.446 -26.944   5.209  0.00  0.00    -0.481 OA
ATOM     27  H   LIG    1       27.866 -26.965   6.088  0.00  0.00    +0.295 HD
ENDBRANCH  24  26
ENDBRANCH  23  24
ENDBRANCH  22  23
ENDBRANCH  21  22
ENDBRANCH  20  21
ENDBRANCH  19  20
ENDBRANCH   1  19
TORSDOF 9
ENDMDL
MODEL 7
REMARK VINA RESULT:      -7.0      2.716      5.551
REMARK  Name = *****
REMARK                            x       y       z     vdW  Elec       q    Type
REMARK                         _______ _______ _______ _____ _____    ______ ____
ROOT
ATOM      1  C   LIG    1       26.072 -21.692   7.652  0.00  0.00    +0.053 C 
ENDROOT
BRANCH   1   8
ATOM      2  C   LIG    1       22.988 -18.724   3.463  0.00  0.00    +0.048 C 
ATOM      3  C   LIG    1       23.853 -19.476   4.433  0.00  0.00    +0.003 C 
ATOM      4  C   LIG    1       23.099 -20.273   5.425  0.00  0.00    +0.185 C 
ATOM      5  O   LIG    1       21.875 -20.181   5.469  0.00  0.00    -0.287 OA
ATOM      6  C   LIG    1       23.845 -21.147   6.392  0.00  0.00    +0.004 C 
ATOM      7  C   LIG    1       22.887 -22.047   7.131  0.00  0.00    +0.048 C 
ATOM      8  C   LIG    1       25.196 -21.084   6.512  0.00  0.00    +0.013 C 
ATOM      9  C   LIG    1       25.922 -20.375   5.408  0.00  0.00    +0.186 C 
ATOM     10  O   LIG    1       27.109 -20.579   5.183  0.00  0.00    -0.287 OA
ATOM     11  C   LIG    1       25.190 -19.511   4.445  0.00  0.00    +0.003 C 
ATOM     12  C   LIG    1       26.094 -18.772   3.500  0.00  0.00    +0.048 C 
ENDBRANCH   1   8
BRANCH   1  13
ATOM     13  C   LIG    1       27.483 -21.035   7.824  0.00  0.00    -0.040 A 
ATOM     14  C   LIG    1       28.645 -21.762   7.543  0.00  0.00    +0.004 A 
ATOM     15  C   LIG    1       29.949 -21.284   7.628  0.00  0.00    +0.000 A 
ATOM     16  C   LIG    1       30.161 -19.981   7.979  0.00  0.00    +0.000 A 
ATOM     17  C   LIG    1       29.041 -19.192   8.279  0.00  0.00    +0.000 A 
ATOM     18  C   LIG    1       27.722 -19.710   8.205  0.00  0.00    +0.004 A 
ENDBRANCH   1  13
BRANCH   1  19
ATOM     19  C   LIG    1       26.101 -23.281   7.724  0.00  0.00    +0.013 C 
BRANCH  19  20
ATOM     20  C   LIG    1       25.854 -24.058   6.419  0.00  0.00    +0.001 C 
BRANCH  20  21
ATOM     21  C   LIG    1       24.629 -24.967   6.338  0.00  0.00    +0.001 C 
BRANCH  21  22
ATOM     22  C   LIG    1       24.962 -26.305   5.613  0.00  0.00    +0.011 C 
BRANCH  22  23
ATOM     23  C   LIG    1       24.628 -27.637   6.332  0.00  0.00    +0.120 C 
BRANCH  23  24
ATOM     24  C   LIG    1       24.481 -28.923   5.578  0.00  0.00    +0.305 C 
ATOM     25  O   LIG    1       25.443 -29.651   5.313  0.00  0.00    -0.251 OA
BRANCH  24  26
ATOM     26  O   LIG    1       23.199 -29.332   5.398  0.00  0.00    -0.481 OA
ATOM     27  H   LIG    1       22.897 -29.326   4.472  0.00  0.00    +0.295 HD
ENDBRANCH  24  26
ENDBRANCH  23  24
ENDBRANCH  22  23
ENDBRANCH  21  22
ENDBRANCH  20  21
ENDBRANCH  19  20
ENDBRANCH   1  19
TORSDOF 9
ENDMDL
MODEL 8
REMARK VINA RESULT:      -7.0      5.263      9.348
REMARK  Name = *****
REMARK                            x       y       z     vdW  Elec       q    Type
REMARK                         _______ _______ _______ _____ _____    ______ ____
ROOT
ATOM      1  C   LIG    1       24.830 -29.571   7.504  0.00  0.00    +0.053 C 
ENDROOT
BRANCH   1   8
ATOM      2  C   LIG    1       23.581 -29.677  13.359  0.00  0.00    +0.048 C 
ATOM      3  C   LIG    1       23.820 -29.747  11.879  0.00  0.00    +0.003 C 
ATOM      4  C   LIG    1       25.136 -29.224  11.453  0.00  0.00    +0.185 C 
ATOM      5  O   LIG    1       25.867 -28.682  12.278  0.00  0.00    -0.287 OA
ATOM      6  C   LIG    1       25.538 -29.324  10.009  0.00  0.00    +0.004 C 
ATOM      7  C   LIG    1       26.995 -28.966   9.846  0.00  0.00    +0.048 C 
ATOM      8  C   LIG    1       24.657 -29.704   9.050  0.00  0.00    +0.013 C 
ATOM      9  C   LIG    1       23.393 -30.349   9.535  0.00  0.00    +0.186 C 
ATOM     10  O   LIG    1       22.721 -31.073   8.811  0.00  0.00    -0.287 OA
ATOM     11  C   LIG    1       22.990 -30.258  10.962  0.00  0.00    +0.003 C 
ATOM     12  C   LIG    1       21.632 -30.837  11.237  0.00  0.00    +0.048 C 
ENDBRANCH   1   8
BRANCH   1  13
ATOM     13  C   LIG    1       25.510 -30.798   6.807  0.00  0.00    -0.040 A 
ATOM     14  C   LIG    1       25.405 -30.978   5.423  0.00  0.00    +0.004 A 
ATOM     15  C   LIG    1       25.985 -32.007   4.686  0.00  0.00    +0.000 A 
ATOM     16  C   LIG    1       26.768 -32.927   5.326  0.00  0.00    +0.000 A 
ATOM     17  C   LIG    1       26.915 -32.811   6.715  0.00  0.00    +0.000 A 
ATOM     18  C   LIG    1       26.295 -31.764   7.446  0.00  0.00    +0.004 A 
ENDBRANCH   1  13
BRANCH   1  19
ATOM     19  C   LIG    1       25.378 -28.168   6.990  0.00  0.00    +0.013 C 
BRANCH  19  20
ATOM     20  C   LIG    1       24.419 -27.284   6.175  0.00  0.00    +0.001 C 
BRANCH  20  21
ATOM     21  C   LIG    1       25.013 -26.151   5.339  0.00  0.00    +0.001 C 
BRANCH  21  22
ATOM     22  C   LIG    1       25.801 -25.143   6.228  0.00  0.00    +0.011 C 
BRANCH  22  23
ATOM     23  C   LIG    1       25.025 -23.968   6.875  0.00  0.00    +0.120 C 
BRANCH  23  24
ATOM     24  C   LIG    1       23.657 -23.575   6.407  0.00  0.00    +0.305 C 
ATOM     25  O   LIG    1       22.629 -24.101   6.844  0.00  0.00    -0.251 OA
BRANCH  24  26
ATOM     26  O   LIG    1       23.621 -22.459   5.635  0.00  0.00    -0.481 OA
ATOM     27  H   LIG    1       22.812 -22.360   5.101  0.00  0.00    +0.295 HD
ENDBRANCH  24  26
ENDBRANCH  23  24
ENDBRANCH  22  23
ENDBRANCH  21  22
ENDBRANCH  20  21
ENDBRANCH  19  20
ENDBRANCH   1  19
TORSDOF 9
ENDMDL
MODEL 9
REMARK VINA RESULT:      -6.5      5.284      9.416
REMARK  Name = *****
REMARK                            x       y       z     vdW  Elec       q    Type
REMARK                         _______ _______ _______ _____ _____    ______ ____
ROOT
ATOM      1  C   LIG    1       25.011 -29.621   7.718  0.00  0.00    +0.053 C 
ENDROOT
BRANCH   1   8
ATOM      2  C   LIG    1       26.100 -30.757  13.495  0.00  0.00    +0.048 C 
ATOM      3  C   LIG    1       25.906 -30.380  12.056  0.00  0.00    +0.003 C 
ATOM      4  C   LIG    1       24.578 -30.731  11.511  0.00  0.00    +0.185 C 
ATOM      5  O   LIG    1       23.796 -31.385  12.198  0.00  0.00    -0.287 OA
ATOM      6  C   LIG    1       24.221 -30.323  10.110  0.00  0.00    +0.004 C 
ATOM      7  C   LIG    1       22.753 -30.557   9.854  0.00  0.00    +0.048 C 
ATOM      8  C   LIG    1       25.147 -29.809   9.262  0.00  0.00    +0.013 C 
ATOM      9  C   LIG    1       26.429 -29.347   9.887  0.00  0.00    +0.186 C 
ATOM     10  O   LIG    1       27.159 -28.532   9.335  0.00  0.00    -0.287 OA
ATOM     11  C   LIG    1       26.787 -29.744  11.274  0.00  0.00    +0.003 C 
ATOM     12  C   LIG    1       28.165 -29.309  11.682  0.00  0.00    +0.048 C 
ENDBRANCH   1   8
BRANCH   1  13
ATOM     13  C   LIG    1       25.579 -30.798   6.856  0.00  0.00    -0.040 A 
ATOM     14  C   LIG    1       25.313 -30.867   5.484  0.00  0.00    +0.004 A 
ATOM     15  C   LIG    1       25.782 -31.843   4.608  0.00  0.00    +0.000 A 
ATOM     16  C   LIG    1       26.610 -32.822   5.081  0.00  0.00    +0.000 A 
ATOM     17  C   LIG    1       26.917 -32.818   6.449  0.00  0.00    +0.000 A 
ATOM     18  C   LIG    1       26.408 -31.823   7.325  0.00  0.00    +0.004 A 
ENDBRANCH   1  13
BRANCH   1  19
ATOM     19  C   LIG    1       25.405 -28.183   7.162  0.00  0.00    +0.013 C 
BRANCH  19  20
ATOM     20  C   LIG    1       24.416 -27.490   6.209  0.00  0.00    +0.001 C 
BRANCH  20  21
ATOM     21  C   LIG    1       24.904 -26.284   5.409  0.00  0.00    +0.001 C 
BRANCH  21  22
ATOM     22  C   LIG    1       25.751 -25.322   6.294  0.00  0.00    +0.011 C 
BRANCH  22  23
ATOM     23  C   LIG    1       25.082 -24.030   6.828  0.00  0.00    +0.120 C 
BRANCH  23  24
ATOM     24  C   LIG    1       23.709 -23.617   6.394  0.00  0.00    +0.305 C 
ATOM     25  O   LIG    1       22.684 -24.135   6.847  0.00  0.00    -0.251 OA
BRANCH  24  26
ATOM     26  O   LIG    1       23.670 -22.494   5.632  0.00  0.00    -0.481 OA
ATOM     27  H   LIG    1       24.389 -21.859   5.805  0.00  0.00    +0.295 HD
ENDBRANCH  24  26
ENDBRANCH  23  24
ENDBRANCH  22  23
ENDBRANCH  21  22
ENDBRANCH  20  21
ENDBRANCH  19  20
ENDBRANCH   1  19
TORSDOF 9
ENDMDL
