MODEL 1
REMARK VINA RESULT:      17.1      0.000      0.000
REMARK  Name = *****
REMARK                            x       y       z     vdW  Elec       q    Type
REMARK                         _______ _______ _______ _____ _____    ______ ____
ROOT
ATOM      1  O   LIG    1       24.176 -16.869   4.296  0.00  0.00    -0.340 OA
ENDROOT
BRANCH   1   7
ATOM      2  C   LIG    1       24.927 -12.509   5.043  0.00  0.00    +0.039 C 
ATOM      3  C   LIG    1       25.008 -13.939   4.500  0.00  0.00    +0.138 C 
ATOM      4  C   LIG    1       24.405 -13.977   3.062  0.00  0.00    +0.114 C 
ATOM      5  C   LIG    1       22.925 -14.554   3.119  0.00  0.00    +0.167 C 
ATOM      6  C   LIG    1       22.506 -15.001   4.538  0.00  0.00    +0.200 C 
ATOM      7  C   LIG    1       23.635 -15.834   5.133  0.00  0.00    +0.282 C 
ATOM      8  O   LIG    1       24.623 -14.881   5.504  0.00  0.00    -0.344 OA
BRANCH   6   9
ATOM      9  O   LIG    1       21.240 -15.670   4.564  0.00  0.00    -0.384 OA
ATOM     10  H   LIG    1       20.607 -15.042   4.966  0.00  0.00    +0.210 HD
ENDBRANCH   6   9
BRANCH   5  11
ATOM     11  O   LIG    1       21.983 -13.518   2.746  0.00  0.00    -0.387 OA
ATOM     12  H   LIG    1       22.487 -12.679   2.750  0.00  0.00    +0.210 HD
ENDBRANCH   5  11
BRANCH   4  13
ATOM     13  N   LIG    1       25.392 -14.468   2.014  0.00  0.00    -0.300 NA
ATOM     14  H   LIG    1       25.150 -15.384   1.650  0.00  0.00    +0.123 HD
BRANCH  13  15
ATOM     15  C   LIG    1       26.861 -14.309   2.321  0.00  0.00    +0.109 C 
ATOM     16  C   LIG    1       27.582 -15.424   3.168  0.00  0.00    +0.166 C 
ATOM     17  C   LIG    1       27.671 -15.218   4.713  0.00  0.00    +0.177 C 
ATOM     18  C   LIG    1       27.361 -13.788   5.200  0.00  0.00    +0.173 C 
ATOM     19  C   LIG    1       27.639 -12.745   4.182  0.00  0.00    -0.016 C 
ATOM     20  C   LIG    1       27.354 -13.006   2.847  0.00  0.00    -0.002 C 
BRANCH  18  21
ATOM     21  O   LIG    1       28.147 -13.537   6.389  0.00  0.00    -0.385 OA
ATOM     22  H   LIG    1       28.694 -12.745   6.196  0.00  0.00    +0.210 HD
ENDBRANCH  18  21
BRANCH  17  23
ATOM     23  O   LIG    1       29.008 -15.596   5.153  0.00  0.00    -0.386 OA
ATOM     24  H   LIG    1       28.894 -16.333   5.786  0.00  0.00    +0.210 HD
ENDBRANCH  17  23
BRANCH  16  25
ATOM     25  O   LIG    1       27.085 -16.727   2.889  0.00  0.00    -0.387 OA
ATOM     26  H   LIG    1       27.670 -17.097   2.201  0.00  0.00    +0.210 HD
ENDBRANCH  16  25
BRANCH  19  27
ATOM     27  C   LIG    1       28.251 -11.450   4.541  0.00  0.00    +0.189 C 
BRANCH  27  28
ATOM     28  O   LIG    1       29.360 -11.686   5.405  0.00  0.00    -0.391 OA
ATOM     29  H   LIG    1       29.416 -12.651   5.512  0.00  0.00    +0.210 HD
ENDBRANCH  27  28
ENDBRANCH  19  27
ENDBRANCH  13  15
ENDBRANCH   4  13
ENDBRANCH   1   7
BRANCH   1  30
ATOM     30  C   LIG    1       23.257 -17.909   3.836  0.00  0.00    +0.183 C 
ATOM     31  C   LIG    1       22.137 -18.214   4.854  0.00  0.00    +0.178 C 
ATOM     32  O   LIG    1       22.537 -19.052   5.965  0.00  0.00    -0.341 OA
ATOM     33  C   LIG    1       23.445 -20.168   5.749  0.00  0.00    +0.282 C 
ATOM     34  C   LIG    1       23.629 -20.446   4.250  0.00  0.00    +0.201 C 
ATOM     35  C   LIG    1       24.104 -19.172   3.541  0.00  0.00    +0.179 C 
BRANCH  35  36
ATOM     36  O   LIG    1       24.135 -19.413   2.123  0.00  0.00    -0.386 OA
ATOM     37  H   LIG    1       24.099 -18.541   1.682  0.00  0.00    +0.210 HD
ENDBRANCH  35  36
BRANCH  34  38
ATOM     38  O   LIG    1       24.492 -21.546   3.947  0.00  0.00    -0.384 OA
ATOM     39  H   LIG    1       24.849 -21.413   3.054  0.00  0.00    +0.210 HD
ENDBRANCH  34  38
BRANCH  31  40
ATOM     40  C   LIG    1       20.796 -18.621   4.170  0.00  0.00    +0.190 C 
BRANCH  40  41
ATOM     41  O   LIG    1       20.409 -17.830   3.064  0.00  0.00    -0.392 OA
ATOM     42  H   LIG    1       19.706 -18.311   2.593  0.00  0.00    +0.209 HD
ENDBRANCH  40  41
ENDBRANCH  31  40
BRANCH  33  43
ATOM     43  O   LIG    1       24.700 -19.949   6.463  0.00  0.00    -0.340 OA
BRANCH  43  44
ATOM     44  C   LIG    1       25.882 -20.758   6.125  0.00  0.00    +0.183 C 
ATOM     45  C   LIG    1       27.098 -20.528   7.059  0.00  0.00    +0.178 C 
ATOM     46  O   LIG    1       27.663 -19.206   6.955  0.00  0.00    -0.341 OA
ATOM     47  C   LIG    1       27.189 -18.424   5.865  0.00  0.00    +0.279 C 
ATOM     48  C   LIG    1       27.193 -19.199   4.542  0.00  0.00    +0.201 C 
ATOM     49  C   LIG    1       26.311 -20.452   4.656  0.00  0.00    +0.179 C 
BRANCH  49  50
ATOM     50  O   LIG    1       27.032 -21.571   4.095  0.00  0.00    -0.386 OA
ATOM     51  H   LIG    1       27.605 -21.215   3.389  0.00  0.00    +0.210 HD
ENDBRANCH  49  50
BRANCH  48  52
ATOM     52  O   LIG    1       26.711 -18.397   3.449  0.00  0.00    -0.384 OA
ATOM     53  H   LIG    1       26.424 -17.549   3.842  0.00  0.00    +0.210 HD
ENDBRANCH  48  52
BRANCH  47  54
ATOM     54  O   LIG    1       28.056 -17.304   5.713  0.00  0.00    -0.365 OA
ATOM     55  H   LIG    1       28.828 -17.657   5.237  0.00  0.00    +0.213 HD
ENDBRANCH  47  54
BRANCH  45  56
ATOM     56  C   LIG    1       28.233 -21.571   6.881  0.00  0.00    +0.190 C 
BRANCH  56  57
ATOM     57  O   LIG    1       29.342 -21.015   6.182  0.00  0.00    -0.392 OA
ATOM     58  H   LIG    1       29.996 -21.728   6.061  0.00  0.00    +0.209 HD
ENDBRANCH  56  57
ENDBRANCH  45  56
ENDBRANCH  43  44
ENDBRANCH  33  43
ENDBRANCH   1  30
TORSDOF 22
ENDMDL
