MODEL 1
REMARK VINA RESULT:      -6.1      0.000      0.000
REMARK  Name = *****
REMARK                            x       y       z     vdW  Elec       q    Type
REMARK                         _______ _______ _______ _____ _____    ______ ____
ROOT
ATOM      1  C   LIG    1       24.094 -25.563   6.098  0.00  0.00    +0.069 C 
ATOM      2  C   LIG    1       24.574 -24.224   6.576  0.00  0.00    +0.080 A 
ATOM      3  C   LIG    1       23.712 -23.132   6.629  0.00  0.00    +0.148 A 
ATOM      4  C   LIG    1       24.208 -21.904   7.095  0.00  0.00    +0.064 A 
ATOM      5  C   LIG    1       25.550 -21.793   7.491  0.00  0.00    +0.010 A 
ATOM      6  C   LIG    1       26.325 -22.944   7.388  0.00  0.00    +0.117 A 
ATOM      7  N   LIG    1       25.874 -24.140   6.952  0.00  0.00    -0.256 NA
ENDROOT
BRANCH   3   8
ATOM      8  O   LIG    1       22.412 -23.307   6.231  0.00  0.00    -0.504 OA
ATOM      9  H   LIG    1       21.834 -22.775   6.824  0.00  0.00    +0.292 HD
ENDBRANCH   3   8
BRANCH   4  10
ATOM     10  C   LIG    1       23.298 -20.738   7.172  0.00  0.00    +0.262 C 
ATOM     11  O   LIG    1       22.873 -20.203   6.149  0.00  0.00    -0.296 OA
ENDBRANCH   4  10
BRANCH   5  12
ATOM     12  C   LIG    1       26.175 -20.541   8.023  0.00  0.00    +0.193 C 
BRANCH  12  13
ATOM     13  O   LIG    1       25.956 -20.469   9.422  0.00  0.00    -0.390 OA
ATOM     14  H   LIG    1       26.652 -20.998   9.850  0.00  0.00    +0.210 HD
ENDBRANCH  12  13
ENDBRANCH   5  12
TORSDOF 4
ENDMDL
MODEL 2
REMARK VINA RESULT:      -6.1      2.666      3.723
REMARK  Name = *****
REMARK                            x       y       z     vdW  Elec       q    Type
REMARK                         _______ _______ _______ _____ _____    ______ ____
ROOT
ATOM      1  C   LIG    1       22.384 -20.691   5.268  0.00  0.00    +0.069 C 
ATOM      2  C   LIG    1       23.848 -20.563   5.567  0.00  0.00    +0.080 A 
ATOM      3  C   LIG    1       24.349 -20.859   6.832  0.00  0.00    +0.148 A 
ATOM      4  C   LIG    1       25.729 -20.735   7.057  0.00  0.00    +0.064 A 
ATOM      5  C   LIG    1       26.575 -20.313   6.019  0.00  0.00    +0.010 A 
ATOM      6  C   LIG    1       25.968 -20.034   4.799  0.00  0.00    +0.117 A 
ATOM      7  N   LIG    1       24.646 -20.153   4.551  0.00  0.00    -0.256 NA
ENDROOT
BRANCH   3   8
ATOM      8  O   LIG    1       23.470 -21.270   7.802  0.00  0.00    -0.504 OA
ATOM      9  H   LIG    1       22.892 -20.508   8.035  0.00  0.00    +0.292 HD
ENDBRANCH   3   8
BRANCH   4  10
ATOM     10  C   LIG    1       26.277 -21.063   8.394  0.00  0.00    +0.262 C 
ATOM     11  O   LIG    1       25.873 -20.481   9.399  0.00  0.00    -0.296 OA
ENDBRANCH   4  10
BRANCH   5  12
ATOM     12  C   LIG    1       28.060 -20.168   6.144  0.00  0.00    +0.193 C 
BRANCH  12  13
ATOM     13  O   LIG    1       28.511 -19.192   5.221  0.00  0.00    -0.390 OA
ATOM     14  H   LIG    1       29.471 -19.316   5.116  0.00  0.00    +0.210 HD
ENDBRANCH  12  13
ENDBRANCH   5  12
TORSDOF 4
ENDMDL
MODEL 3
REMARK VINA RESULT:      -5.9      5.439      6.672
REMARK  Name = *****
REMARK                            x       y       z     vdW  Elec       q    Type
REMARK                         _______ _______ _______ _____ _____    ______ ____
ROOT
ATOM      1  C   LIG    1       27.418 -19.668   5.259  0.00  0.00    +0.069 C 
ATOM      2  C   LIG    1       28.462 -20.055   6.265  0.00  0.00    +0.080 A 
ATOM      3  C   LIG    1       29.597 -19.271   6.456  0.00  0.00    +0.148 A 
ATOM      4  C   LIG    1       30.538 -19.671   7.418  0.00  0.00    +0.064 A 
ATOM      5  C   LIG    1       30.328 -20.843   8.161  0.00  0.00    +0.010 A 
ATOM      6  C   LIG    1       29.166 -21.556   7.882  0.00  0.00    +0.117 A 
ATOM      7  N   LIG    1       28.240 -21.192   6.970  0.00  0.00    -0.256 NA
ENDROOT
BRANCH   3   8
ATOM      8  O   LIG    1       29.740 -18.136   5.700  0.00  0.00    -0.504 OA
ATOM      9  H   LIG    1       29.247 -17.408   6.143  0.00  0.00    +0.292 HD
ENDBRANCH   3   8
BRANCH   4  10
ATOM     10  C   LIG    1       31.742 -18.837   7.643  0.00  0.00    +0.262 C 
ATOM     11  O   LIG    1       31.640 -17.691   8.076  0.00  0.00    -0.296 OA
ENDBRANCH   4  10
BRANCH   5  12
ATOM     12  C   LIG    1       31.254 -21.348   9.224  0.00  0.00    +0.193 C 
BRANCH  12  13
ATOM     13  O   LIG    1       32.017 -22.423   8.705  0.00  0.00    -0.390 OA
ATOM     14  H   LIG    1       32.216 -22.213   7.775  0.00  0.00    +0.210 HD
ENDBRANCH  12  13
ENDBRANCH   5  12
TORSDOF 4
ENDMDL
MODEL 4
REMARK VINA RESULT:      -5.8      2.735      4.295
REMARK  Name = *****
REMARK                            x       y       z     vdW  Elec       q    Type
REMARK                         _______ _______ _______ _____ _____    ______ ____
ROOT
ATOM      1  C   LIG    1       29.179 -20.018   7.557  0.00  0.00    +0.069 C 
ATOM      2  C   LIG    1       27.708 -20.273   7.399  0.00  0.00    +0.080 A 
ATOM      3  C   LIG    1       27.120 -20.311   6.138  0.00  0.00    +0.148 A 
ATOM      4  C   LIG    1       25.742 -20.565   6.045  0.00  0.00    +0.064 A 
ATOM      5  C   LIG    1       24.985 -20.769   7.209  0.00  0.00    +0.010 A 
ATOM      6  C   LIG    1       25.672 -20.698   8.417  0.00  0.00    +0.117 A 
ATOM      7  N   LIG    1       26.996 -20.464   8.537  0.00  0.00    -0.256 NA
ENDROOT
BRANCH   3   8
ATOM      8  O   LIG    1       27.916 -20.109   5.041  0.00  0.00    -0.504 OA
ATOM      9  H   LIG    1       28.115 -19.146   4.978  0.00  0.00    +0.292 HD
ENDBRANCH   3   8
BRANCH   4  10
ATOM     10  C   LIG    1       25.106 -20.626   4.708  0.00  0.00    +0.262 C 
ATOM     11  O   LIG    1       25.324 -19.754   3.869  0.00  0.00    -0.296 OA
ENDBRANCH   4  10
BRANCH   5  12
ATOM     12  C   LIG    1       23.518 -21.068   7.223  0.00  0.00    +0.193 C 
BRANCH  12  13
ATOM     13  O   LIG    1       23.330 -22.472   7.264  0.00  0.00    -0.390 OA
ATOM     14  H   LIG    1       22.409 -22.648   7.000  0.00  0.00    +0.210 HD
ENDBRANCH  12  13
ENDBRANCH   5  12
TORSDOF 4
ENDMDL
MODEL 5
REMARK VINA RESULT:      -5.7      2.775      4.385
REMARK  Name = *****
REMARK                            x       y       z     vdW  Elec       q    Type
REMARK                         _______ _______ _______ _____ _____    ______ ____
ROOT
ATOM      1  C   LIG    1       26.969 -20.946   8.195  0.00  0.00    +0.069 C 
ATOM      2  C   LIG    1       25.776 -20.771   7.301  0.00  0.00    +0.080 A 
ATOM      3  C   LIG    1       25.930 -20.457   5.954  0.00  0.00    +0.148 A 
ATOM      4  C   LIG    1       24.782 -20.315   5.159  0.00  0.00    +0.064 A 
ATOM      5  C   LIG    1       23.509 -20.484   5.727  0.00  0.00    +0.010 A 
ATOM      6  C   LIG    1       23.470 -20.785   7.084  0.00  0.00    +0.117 A 
ATOM      7  N   LIG    1       24.557 -20.936   7.871  0.00  0.00    -0.256 NA
ENDROOT
BRANCH   3   8
ATOM      8  O   LIG    1       27.201 -20.309   5.460  0.00  0.00    -0.504 OA
ATOM      9  H   LIG    1       27.423 -21.114   4.938  0.00  0.00    +0.292 HD
ENDBRANCH   3   8
BRANCH   4  10
ATOM     10  C   LIG    1       24.932 -19.998   3.720  0.00  0.00    +0.262 C 
ATOM     11  O   LIG    1       25.390 -18.915   3.359  0.00  0.00    -0.296 OA
ENDBRANCH   4  10
BRANCH   5  12
ATOM     12  C   LIG    1       22.223 -20.378   4.968  0.00  0.00    +0.193 C 
BRANCH  12  13
ATOM     13  O   LIG    1       21.600 -21.650   4.928  0.00  0.00    -0.390 OA
ATOM     14  H   LIG    1       21.989 -22.184   5.643  0.00  0.00    +0.210 HD
ENDBRANCH  12  13
ENDBRANCH   5  12
TORSDOF 4
ENDMDL
MODEL 6
REMARK VINA RESULT:      -5.7      2.272      3.119
REMARK  Name = *****
REMARK                            x       y       z     vdW  Elec       q    Type
REMARK                         _______ _______ _______ _____ _____    ______ ____
ROOT
ATOM      1  C   LIG    1       24.732 -19.813   3.206  0.00  0.00    +0.069 C 
ATOM      2  C   LIG    1       24.952 -20.332   4.597  0.00  0.00    +0.080 A 
ATOM      3  C   LIG    1       23.962 -21.057   5.256  0.00  0.00    +0.148 A 
ATOM      4  C   LIG    1       24.223 -21.530   6.551  0.00  0.00    +0.064 A 
ATOM      5  C   LIG    1       25.459 -21.264   7.160  0.00  0.00    +0.010 A 
ATOM      6  C   LIG    1       26.371 -20.522   6.416  0.00  0.00    +0.117 A 
ATOM      7  N   LIG    1       26.152 -20.062   5.166  0.00  0.00    -0.256 NA
ENDROOT
BRANCH   3   8
ATOM      8  O   LIG    1       22.778 -21.285   4.604  0.00  0.00    -0.504 OA
ATOM      9  H   LIG    1       22.897 -21.047   3.656  0.00  0.00    +0.292 HD
ENDBRANCH   3   8
BRANCH   4  10
ATOM     10  C   LIG    1       23.185 -22.317   7.257  0.00  0.00    +0.262 C 
ATOM     11  O   LIG    1       22.814 -23.403   6.819  0.00  0.00    -0.296 OA
ENDBRANCH   4  10
BRANCH   5  12
ATOM     12  C   LIG    1       25.850 -21.739   8.526  0.00  0.00    +0.193 C 
BRANCH  12  13
ATOM     13  O   LIG    1       25.907 -20.629   9.405  0.00  0.00    -0.390 OA
ATOM     14  H   LIG    1       25.094 -20.110   9.269  0.00  0.00    +0.210 HD
ENDBRANCH  12  13
ENDBRANCH   5  12
TORSDOF 4
ENDMDL
MODEL 7
REMARK VINA RESULT:      -5.5      3.109      4.000
REMARK  Name = *****
REMARK                            x       y       z     vdW  Elec       q    Type
REMARK                         _______ _______ _______ _____ _____    ______ ____
ROOT
ATOM      1  C   LIG    1       23.652 -19.668   3.651  0.00  0.00    +0.069 C 
ATOM      2  C   LIG    1       24.205 -20.168   4.954  0.00  0.00    +0.080 A 
ATOM      3  C   LIG    1       25.579 -20.280   5.152  0.00  0.00    +0.148 A 
ATOM      4  C   LIG    1       26.045 -20.742   6.394  0.00  0.00    +0.064 A 
ATOM      5  C   LIG    1       25.132 -21.085   7.403  0.00  0.00    +0.010 A 
ATOM      6  C   LIG    1       23.783 -20.945   7.094  0.00  0.00    +0.117 A 
ATOM      7  N   LIG    1       23.306 -20.495   5.914  0.00  0.00    -0.256 NA
ENDROOT
BRANCH   3   8
ATOM      8  O   LIG    1       26.417 -19.925   4.127  0.00  0.00    -0.504 OA
ATOM      9  H   LIG    1       27.098 -19.311   4.485  0.00  0.00    +0.292 HD
ENDBRANCH   3   8
BRANCH   4  10
ATOM     10  C   LIG    1       27.504 -20.850   6.624  0.00  0.00    +0.262 C 
ATOM     11  O   LIG    1       28.146 -19.891   7.049  0.00  0.00    -0.296 OA
ENDBRANCH   4  10
BRANCH   5  12
ATOM     12  C   LIG    1       25.520 -21.565   8.767  0.00  0.00    +0.193 C 
BRANCH  12  13
ATOM     13  O   LIG    1       25.979 -20.465   9.535  0.00  0.00    -0.390 OA
ATOM     14  H   LIG    1       25.989 -20.748  10.467  0.00  0.00    +0.210 HD
ENDBRANCH  12  13
ENDBRANCH   5  12
TORSDOF 4
ENDMDL
MODEL 8
REMARK VINA RESULT:      -5.5      4.276      5.445
REMARK  Name = *****
REMARK                            x       y       z     vdW  Elec       q    Type
REMARK                         _______ _______ _______ _____ _____    ______ ____
ROOT
ATOM      1  C   LIG    1       26.718 -22.186   7.108  0.00  0.00    +0.069 C 
ATOM      2  C   LIG    1       27.945 -21.332   7.240  0.00  0.00    +0.080 A 
ATOM      3  C   LIG    1       28.234 -20.343   6.303  0.00  0.00    +0.148 A 
ATOM      4  C   LIG    1       29.388 -19.564   6.480  0.00  0.00    +0.064 A 
ATOM      5  C   LIG    1       30.228 -19.792   7.581  0.00  0.00    +0.010 A 
ATOM      6  C   LIG    1       29.851 -20.812   8.449  0.00  0.00    +0.117 A 
ATOM      7  N   LIG    1       28.743 -21.571   8.310  0.00  0.00    -0.256 NA
ENDROOT
BRANCH   3   8
ATOM      8  O   LIG    1       27.371 -20.168   5.253  0.00  0.00    -0.504 OA
ATOM      9  H   LIG    1       26.661 -20.847   5.320  0.00  0.00    +0.292 HD
ENDBRANCH   3   8
BRANCH   4  10
ATOM     10  C   LIG    1       29.698 -18.497   5.500  0.00  0.00    +0.262 C 
ATOM     11  O   LIG    1       28.797 -17.861   4.957  0.00  0.00    -0.296 OA
ENDBRANCH   4  10
BRANCH   5  12
ATOM     12  C   LIG    1       31.468 -19.007   7.877  0.00  0.00    +0.193 C 
BRANCH  12  13
ATOM     13  O   LIG    1       32.032 -19.468   9.092  0.00  0.00    -0.390 OA
ATOM     14  H   LIG    1       32.990 -19.569   8.947  0.00  0.00    +0.210 HD
ENDBRANCH  12  13
ENDBRANCH   5  12
TORSDOF 4
ENDMDL
MODEL 9
REMARK VINA RESULT:      -5.4      1.865      3.072
REMARK  Name = *****
REMARK                            x       y       z     vdW  Elec       q    Type
REMARK                         _______ _______ _______ _____ _____    ______ ____
ROOT
ATOM      1  C   LIG    1       24.277 -26.415   6.047  0.00  0.00    +0.069 C 
ATOM      2  C   LIG    1       24.151 -24.953   6.358  0.00  0.00    +0.080 A 
ATOM      3  C   LIG    1       25.270 -24.125   6.370  0.00  0.00    +0.148 A 
ATOM      4  C   LIG    1       25.096 -22.761   6.655  0.00  0.00    +0.064 A 
ATOM      5  C   LIG    1       23.815 -22.258   6.927  0.00  0.00    +0.010 A 
ATOM      6  C   LIG    1       22.769 -23.175   6.899  0.00  0.00    +0.117 A 
ATOM      7  N   LIG    1       22.904 -24.489   6.620  0.00  0.00    -0.256 NA
ENDROOT
BRANCH   3   8
ATOM      8  O   LIG    1       26.494 -24.677   6.092  0.00  0.00    -0.504 OA
ATOM      9  H   LIG    1       27.180 -23.982   6.214  0.00  0.00    +0.292 HD
ENDBRANCH   3   8
BRANCH   4  10
ATOM     10  C   LIG    1       26.276 -21.865   6.654  0.00  0.00    +0.262 C 
ATOM     11  O   LIG    1       27.213 -22.059   7.426  0.00  0.00    -0.296 OA
ENDBRANCH   4  10
BRANCH   5  12
ATOM     12  C   LIG    1       23.514 -20.821   7.220  0.00  0.00    +0.193 C 
BRANCH  12  13
ATOM     13  O   LIG    1       22.947 -20.219   6.069  0.00  0.00    -0.390 OA
ATOM     14  H   LIG    1       23.107 -20.822   5.320  0.00  0.00    +0.210 HD
ENDBRANCH  12  13
ENDBRANCH   5  12
TORSDOF 4
ENDMDL
