MODEL 1
REMARK VINA RESULT:      -8.1      0.000      0.000
REMARK  Name = *****
REMARK                            x       y       z     vdW  Elec       q    Type
REMARK                         _______ _______ _______ _____ _____    ______ ____
ROOT
ATOM      1  C   LIG    1       29.485 -19.555   5.625  0.00  0.00    +0.088 C 
ATOM      2  C   LIG    1       28.660 -19.717   6.845  0.00  0.00    +0.135 A 
ATOM      3  N   LIG    1       27.362 -20.199   6.902  0.00  0.00    -0.281 N 
ATOM      4  C   LIG    1       26.425 -20.426   5.860  0.00  0.00    +0.059 A 
ATOM      5  C   LIG    1       25.429 -21.416   5.976  0.00  0.00    +0.026 A 
ATOM      6  C   LIG    1       25.401 -22.435   7.075  0.00  0.00    +0.075 C 
ATOM      7  N   LIG    1       25.543 -22.170   8.330  0.00  0.00    -0.275 NA
ATOM      8  C   LIG    1       25.800 -20.805   8.768  0.00  0.00    +0.218 C 
ATOM      9  C   LIG    1       24.441 -21.522   4.981  0.00  0.00    +0.032 A 
ATOM     10  C   LIG    1       24.469 -20.684   3.870  0.00  0.00    +0.042 A 
ATOM     11 CL   LIG    1       23.262 -20.836   2.654  0.00  0.00    -0.084 Cl
ATOM     12  C   LIG    1       25.467 -19.726   3.736  0.00  0.00    +0.022 A 
ATOM     13  C   LIG    1       26.440 -19.591   4.730  0.00  0.00    +0.028 A 
ATOM     14  C   LIG    1       27.104 -20.336   8.249  0.00  0.00    +0.160 A 
ATOM     15  N   LIG    1       28.133 -19.908   8.948  0.00  0.00    -0.132 NA
ATOM     16  N   LIG    1       29.106 -19.521   8.070  0.00  0.00    -0.134 NA
ENDROOT
BRANCH   6  17
ATOM     17  C   LIG    1       25.196 -23.876   6.709  0.00  0.00    +0.001 A 
ATOM     18  C   LIG    1       23.912 -24.409   6.538  0.00  0.00    +0.010 A 
ATOM     19  C   LIG    1       23.754 -25.754   6.193  0.00  0.00    +0.001 A 
ATOM     20  C   LIG    1       24.874 -26.563   6.003  0.00  0.00    +0.000 A 
ATOM     21  C   LIG    1       26.155 -26.031   6.150  0.00  0.00    +0.001 A 
ATOM     22  C   LIG    1       26.317 -24.689   6.497  0.00  0.00    +0.010 A 
ENDBRANCH   6  17
TORSDOF 1
ENDMDL
MODEL 2
REMARK VINA RESULT:      -7.6      1.203      1.653
REMARK  Name = *****
REMARK                            x       y       z     vdW  Elec       q    Type
REMARK                         _______ _______ _______ _____ _____    ______ ____
ROOT
ATOM      1  C   LIG    1       27.986 -19.258   4.884  0.00  0.00    +0.088 C 
ATOM      2  C   LIG    1       27.835 -19.802   6.253  0.00  0.00    +0.135 A 
ATOM      3  N   LIG    1       26.778 -20.567   6.722  0.00  0.00    -0.281 N 
ATOM      4  C   LIG    1       25.507 -20.822   6.144  0.00  0.00    +0.059 A 
ATOM      5  C   LIG    1       24.807 -22.015   6.412  0.00  0.00    +0.026 A 
ATOM      6  C   LIG    1       25.412 -23.184   7.131  0.00  0.00    +0.075 C 
ATOM      7  N   LIG    1       26.075 -23.106   8.235  0.00  0.00    -0.275 NA
ATOM      8  C   LIG    1       26.327 -21.811   8.853  0.00  0.00    +0.218 C 
ATOM      9  C   LIG    1       23.497 -22.173   5.926  0.00  0.00    +0.032 A 
ATOM     10  C   LIG    1       22.910 -21.177   5.152  0.00  0.00    +0.042 A 
ATOM     11 CL   LIG    1       21.312 -21.390   4.551  0.00  0.00    -0.084 Cl
ATOM     12  C   LIG    1       23.607 -20.011   4.858  0.00  0.00    +0.022 A 
ATOM     13  C   LIG    1       24.900 -19.827   5.357  0.00  0.00    +0.028 A 
ATOM     14  C   LIG    1       27.181 -20.982   7.973  0.00  0.00    +0.160 A 
ATOM     15  N   LIG    1       28.351 -20.456   8.264  0.00  0.00    -0.132 NA
ATOM     16  N   LIG    1       28.760 -19.720   7.188  0.00  0.00    -0.134 NA
ENDROOT
BRANCH   6  17
ATOM     17  C   LIG    1       25.248 -24.552   6.537  0.00  0.00    +0.001 A 
ATOM     18  C   LIG    1       26.357 -25.355   6.240  0.00  0.00    +0.010 A 
ATOM     19  C   LIG    1       26.172 -26.626   5.692  0.00  0.00    +0.001 A 
ATOM     20  C   LIG    1       24.883 -27.104   5.451  0.00  0.00    +0.000 A 
ATOM     21  C   LIG    1       23.776 -26.316   5.765  0.00  0.00    +0.001 A 
ATOM     22  C   LIG    1       23.957 -25.044   6.312  0.00  0.00    +0.010 A 
ENDBRANCH   6  17
TORSDOF 1
ENDMDL
MODEL 3
REMARK VINA RESULT:      -7.2      6.543     10.029
REMARK  Name = *****
REMARK                            x       y       z     vdW  Elec       q    Type
REMARK                         _______ _______ _______ _____ _____    ______ ____
ROOT
ATOM      1  C   LIG    1       28.203 -33.153   6.482  0.00  0.00    +0.088 C 
ATOM      2  C   LIG    1       26.743 -33.039   6.257  0.00  0.00    +0.135 A 
ATOM      3  N   LIG    1       25.910 -32.045   6.747  0.00  0.00    -0.281 N 
ATOM      4  C   LIG    1       26.150 -31.059   7.739  0.00  0.00    +0.059 A 
ATOM      5  C   LIG    1       25.482 -29.818   7.715  0.00  0.00    +0.026 A 
ATOM      6  C   LIG    1       24.649 -29.352   6.559  0.00  0.00    +0.075 C 
ATOM      7  N   LIG    1       23.746 -30.060   5.968  0.00  0.00    -0.275 NA
ATOM      8  C   LIG    1       23.505 -31.436   6.379  0.00  0.00    +0.218 C 
ATOM      9  C   LIG    1       25.648 -28.922   8.786  0.00  0.00    +0.032 A 
ATOM     10  C   LIG    1       26.498 -29.237   9.841  0.00  0.00    +0.042 A 
ATOM     11 CL   LIG    1       26.703 -28.124  11.136  0.00  0.00    -0.084 Cl
ATOM     12  C   LIG    1       27.183 -30.447   9.855  0.00  0.00    +0.022 A 
ATOM     13  C   LIG    1       27.007 -31.360   8.812  0.00  0.00    +0.028 A 
ATOM     14  C   LIG    1       24.703 -32.265   6.120  0.00  0.00    +0.160 A 
ATOM     15  N   LIG    1       24.779 -33.342   5.368  0.00  0.00    -0.132 NA
ATOM     16  N   LIG    1       26.055 -33.825   5.454  0.00  0.00    -0.134 NA
ENDROOT
BRANCH   6  17
ATOM     17  C   LIG    1       24.869 -27.963   6.033  0.00  0.00    +0.001 A 
ATOM     18  C   LIG    1       25.812 -27.704   5.031  0.00  0.00    +0.010 A 
ATOM     19  C   LIG    1       25.990 -26.401   4.559  0.00  0.00    +0.001 A 
ATOM     20  C   LIG    1       25.220 -25.359   5.075  0.00  0.00    +0.000 A 
ATOM     21  C   LIG    1       24.265 -25.616   6.058  0.00  0.00    +0.001 A 
ATOM     22  C   LIG    1       24.085 -26.916   6.533  0.00  0.00    +0.010 A 
ENDBRANCH   6  17
TORSDOF 1
ENDMDL
MODEL 4
REMARK VINA RESULT:      -6.6      2.750      5.306
REMARK  Name = *****
REMARK                            x       y       z     vdW  Elec       q    Type
REMARK                         _______ _______ _______ _____ _____    ______ ____
ROOT
ATOM      1  C   LIG    1       23.527 -21.344   2.828  0.00  0.00    +0.088 C 
ATOM      2  C   LIG    1       23.269 -20.869   4.207  0.00  0.00    +0.135 A 
ATOM      3  N   LIG    1       23.866 -21.341   5.365  0.00  0.00    -0.281 N 
ATOM      4  C   LIG    1       24.654 -22.502   5.579  0.00  0.00    +0.059 A 
ATOM      5  C   LIG    1       25.634 -22.545   6.591  0.00  0.00    +0.026 A 
ATOM      6  C   LIG    1       26.074 -21.340   7.366  0.00  0.00    +0.075 C 
ATOM      7  N   LIG    1       25.278 -20.487   7.916  0.00  0.00    -0.275 NA
ATOM      8  C   LIG    1       23.835 -20.626   7.769  0.00  0.00    +0.218 C 
ATOM      9  C   LIG    1       26.302 -23.755   6.856  0.00  0.00    +0.032 A 
ATOM     10  C   LIG    1       26.028 -24.889   6.099  0.00  0.00    +0.042 A 
ATOM     11 CL   LIG    1       26.864 -26.357   6.424  0.00  0.00    -0.084 Cl
ATOM     12  C   LIG    1       25.085 -24.844   5.078  0.00  0.00    +0.022 A 
ATOM     13  C   LIG    1       24.393 -23.657   4.821  0.00  0.00    +0.028 A 
ATOM     14  C   LIG    1       23.448 -20.471   6.349  0.00  0.00    +0.160 A 
ATOM     15  N   LIG    1       22.614 -19.589   5.842  0.00  0.00    -0.132 NA
ATOM     16  N   LIG    1       22.503 -19.838   4.503  0.00  0.00    -0.134 NA
ENDROOT
BRANCH   6  17
ATOM     17  C   LIG    1       27.545 -21.088   7.522  0.00  0.00    +0.001 A 
ATOM     18  C   LIG    1       28.299 -21.752   8.497  0.00  0.00    +0.010 A 
ATOM     19  C   LIG    1       29.668 -21.500   8.614  0.00  0.00    +0.001 A 
ATOM     20  C   LIG    1       30.289 -20.597   7.751  0.00  0.00    +0.000 A 
ATOM     21  C   LIG    1       29.547 -19.950   6.764  0.00  0.00    +0.001 A 
ATOM     22  C   LIG    1       28.178 -20.198   6.645  0.00  0.00    +0.010 A 
ENDBRANCH   6  17
TORSDOF 1
ENDMDL
MODEL 5
REMARK VINA RESULT:      -6.5      2.965      5.864
REMARK  Name = *****
REMARK                            x       y       z     vdW  Elec       q    Type
REMARK                         _______ _______ _______ _____ _____    ______ ____
ROOT
ATOM      1  C   LIG    1       26.319 -25.626   5.389  0.00  0.00    +0.088 C 
ATOM      2  C   LIG    1       25.049 -25.198   6.020  0.00  0.00    +0.135 A 
ATOM      3  N   LIG    1       24.764 -23.938   6.524  0.00  0.00    -0.281 N 
ATOM      4  C   LIG    1       25.629 -22.844   6.790  0.00  0.00    +0.059 A 
ATOM      5  C   LIG    1       25.165 -21.515   6.733  0.00  0.00    +0.026 A 
ATOM      6  C   LIG    1       23.820 -21.132   6.190  0.00  0.00    +0.075 C 
ATOM      7  N   LIG    1       22.708 -21.702   6.508  0.00  0.00    -0.275 NA
ATOM      8  C   LIG    1       22.698 -22.837   7.421  0.00  0.00    +0.218 C 
ATOM      9  C   LIG    1       26.016 -20.468   7.130  0.00  0.00    +0.032 A 
ATOM     10  C   LIG    1       27.318 -20.736   7.537  0.00  0.00    +0.042 A 
ATOM     11 CL   LIG    1       28.352 -19.444   8.005  0.00  0.00    -0.084 Cl
ATOM     12  C   LIG    1       27.791 -22.044   7.566  0.00  0.00    +0.022 A 
ATOM     13  C   LIG    1       26.949 -23.097   7.201  0.00  0.00    +0.028 A 
ATOM     14  C   LIG    1       23.420 -23.982   6.823  0.00  0.00    +0.160 A 
ATOM     15  N   LIG    1       22.947 -25.186   6.586  0.00  0.00    -0.132 NA
ATOM     16  N   LIG    1       23.965 -25.946   6.083  0.00  0.00    -0.134 NA
ENDROOT
BRANCH   6  17
ATOM     17  C   LIG    1       23.744 -20.007   5.200  0.00  0.00    +0.001 A 
ATOM     18  C   LIG    1       24.798 -19.738   4.319  0.00  0.00    +0.010 A 
ATOM     19  C   LIG    1       24.695 -18.686   3.405  0.00  0.00    +0.001 A 
ATOM     20  C   LIG    1       23.536 -17.911   3.358  0.00  0.00    +0.000 A 
ATOM     21  C   LIG    1       22.475 -18.189   4.219  0.00  0.00    +0.001 A 
ATOM     22  C   LIG    1       22.575 -19.238   5.135  0.00  0.00    +0.010 A 
ENDBRANCH   6  17
TORSDOF 1
ENDMDL
MODEL 6
REMARK VINA RESULT:      -6.3      8.487     10.403
REMARK  Name = *****
REMARK                            x       y       z     vdW  Elec       q    Type
REMARK                         _______ _______ _______ _____ _____    ______ ____
ROOT
ATOM      1  C   LIG    1       26.704 -28.593   9.950  0.00  0.00    +0.088 C 
ATOM      2  C   LIG    1       26.393 -29.434  11.129  0.00  0.00    +0.135 A 
ATOM      3  N   LIG    1       25.881 -28.995  12.340  0.00  0.00    -0.281 N 
ATOM      4  C   LIG    1       25.751 -27.678  12.854  0.00  0.00    +0.059 A 
ATOM      5  C   LIG    1       24.735 -27.348  13.772  0.00  0.00    +0.026 A 
ATOM      6  C   LIG    1       23.600 -28.268  14.114  0.00  0.00    +0.075 C 
ATOM      7  N   LIG    1       23.729 -29.514  14.421  0.00  0.00    -0.275 NA
ATOM      8  C   LIG    1       25.042 -30.143  14.406  0.00  0.00    +0.218 C 
ATOM      9  C   LIG    1       24.719 -26.069  14.357  0.00  0.00    +0.032 A 
ATOM     10  C   LIG    1       25.674 -25.122  14.001  0.00  0.00    +0.042 A 
ATOM     11 CL   LIG    1       25.633 -23.557  14.713  0.00  0.00    -0.084 Cl
ATOM     12  C   LIG    1       26.661 -25.432  13.072  0.00  0.00    +0.022 A 
ATOM     13  C   LIG    1       26.706 -26.708  12.504  0.00  0.00    +0.028 A 
ATOM     14  C   LIG    1       25.591 -30.151  13.032  0.00  0.00    +0.160 A 
ATOM     15  N   LIG    1       25.960 -31.199  12.328  0.00  0.00    -0.132 NA
ATOM     16  N   LIG    1       26.461 -30.750  11.138  0.00  0.00    -0.134 NA
ENDROOT
BRANCH   6  17
ATOM     17  C   LIG    1       22.205 -27.716  14.101  0.00  0.00    +0.001 A 
ATOM     18  C   LIG    1       21.619 -27.244  12.919  0.00  0.00    +0.010 A 
ATOM     19  C   LIG    1       20.316 -26.741  12.938  0.00  0.00    +0.001 A 
ATOM     20  C   LIG    1       19.591 -26.721  14.129  0.00  0.00    +0.000 A 
ATOM     21  C   LIG    1       20.162 -27.210  15.304  0.00  0.00    +0.001 A 
ATOM     22  C   LIG    1       21.464 -27.712  15.290  0.00  0.00    +0.010 A 
ENDBRANCH   6  17
TORSDOF 1
ENDMDL
MODEL 7
REMARK VINA RESULT:      -6.3      5.977      9.649
REMARK  Name = *****
REMARK                            x       y       z     vdW  Elec       q    Type
REMARK                         _______ _______ _______ _____ _____    ______ ____
ROOT
ATOM      1  C   LIG    1       21.542 -31.367  10.250  0.00  0.00    +0.088 C 
ATOM      2  C   LIG    1       22.868 -30.858  10.671  0.00  0.00    +0.135 A 
ATOM      3  N   LIG    1       23.960 -30.629   9.848  0.00  0.00    -0.281 N 
ATOM      4  C   LIG    1       24.189 -31.022   8.504  0.00  0.00    +0.059 A 
ATOM      5  C   LIG    1       25.015 -30.263   7.650  0.00  0.00    +0.026 A 
ATOM      6  C   LIG    1       25.535 -28.901   8.001  0.00  0.00    +0.075 C 
ATOM      7  N   LIG    1       26.093 -28.592   9.122  0.00  0.00    -0.275 NA
ATOM      8  C   LIG    1       26.215 -29.583  10.182  0.00  0.00    +0.218 C 
ATOM      9  C   LIG    1       25.322 -30.754   6.369  0.00  0.00    +0.032 A 
ATOM     10  C   LIG    1       24.783 -31.959   5.929  0.00  0.00    +0.042 A 
ATOM     11 CL   LIG    1       25.155 -32.539   4.354  0.00  0.00    -0.084 Cl
ATOM     12  C   LIG    1       23.942 -32.696   6.756  0.00  0.00    +0.022 A 
ATOM     13  C   LIG    1       23.650 -32.235   8.042  0.00  0.00    +0.028 A 
ATOM     14  C   LIG    1       24.874 -29.991  10.658  0.00  0.00    +0.160 A 
ATOM     15  N   LIG    1       24.404 -29.904  11.883  0.00  0.00    -0.132 NA
ATOM     16  N   LIG    1       23.149 -30.446  11.890  0.00  0.00    -0.134 NA
ENDROOT
BRANCH   6  17
ATOM     17  C   LIG    1       25.401 -27.802   6.987  0.00  0.00    +0.001 A 
ATOM     18  C   LIG    1       24.400 -27.832   6.009  0.00  0.00    +0.010 A 
ATOM     19  C   LIG    1       24.298 -26.792   5.081  0.00  0.00    +0.001 A 
ATOM     20  C   LIG    1       25.184 -25.715   5.137  0.00  0.00    +0.000 A 
ATOM     21  C   LIG    1       26.169 -25.672   6.123  0.00  0.00    +0.001 A 
ATOM     22  C   LIG    1       26.275 -26.710   7.051  0.00  0.00    +0.010 A 
ENDBRANCH   6  17
TORSDOF 1
ENDMDL
MODEL 8
REMARK VINA RESULT:      -6.3      7.037      9.945
REMARK  Name = *****
REMARK                            x       y       z     vdW  Elec       q    Type
REMARK                         _______ _______ _______ _____ _____    ______ ____
ROOT
ATOM      1  C   LIG    1       25.636 -26.880   6.875  0.00  0.00    +0.088 C 
ATOM      2  C   LIG    1       25.166 -28.270   6.670  0.00  0.00    +0.135 A 
ATOM      3  N   LIG    1       25.002 -29.236   7.650  0.00  0.00    -0.281 N 
ATOM      4  C   LIG    1       25.444 -29.253   8.998  0.00  0.00    +0.059 A 
ATOM      5  C   LIG    1       24.743 -29.970   9.989  0.00  0.00    +0.026 A 
ATOM      6  C   LIG    1       23.391 -30.580   9.766  0.00  0.00    +0.075 C 
ATOM      7  N   LIG    1       23.069 -31.306   8.750  0.00  0.00    -0.275 NA
ATOM      8  C   LIG    1       24.032 -31.549   7.685  0.00  0.00    +0.218 C 
ATOM      9  C   LIG    1       25.284 -30.070  11.284  0.00  0.00    +0.032 A 
ATOM     10  C   LIG    1       26.480 -29.433  11.597  0.00  0.00    +0.042 A 
ATOM     11 CL   LIG    1       27.121 -29.551  13.188  0.00  0.00    -0.084 Cl
ATOM     12  C   LIG    1       27.160 -28.699  10.632  0.00  0.00    +0.022 A 
ATOM     13  C   LIG    1       26.650 -28.613   9.334  0.00  0.00    +0.028 A 
ATOM     14  C   LIG    1       24.375 -30.280   7.004  0.00  0.00    +0.160 A 
ATOM     15  N   LIG    1       24.233 -29.997   5.728  0.00  0.00    -0.132 NA
ATOM     16  N   LIG    1       24.727 -28.740   5.519  0.00  0.00    -0.134 NA
ENDROOT
BRANCH   6  17
ATOM     17  C   LIG    1       22.319 -30.335  10.788  0.00  0.00    +0.001 A 
ATOM     18  C   LIG    1       22.447 -29.325  11.750  0.00  0.00    +0.010 A 
ATOM     19  C   LIG    1       21.430 -29.119  12.685  0.00  0.00    +0.001 A 
ATOM     20  C   LIG    1       20.280 -29.908  12.654  0.00  0.00    +0.000 A 
ATOM     21  C   LIG    1       20.139 -30.900  11.684  0.00  0.00    +0.001 A 
ATOM     22  C   LIG    1       21.154 -31.110  10.749  0.00  0.00    +0.010 A 
ENDBRANCH   6  17
TORSDOF 1
ENDMDL
MODEL 9
REMARK VINA RESULT:      -6.2      8.226     10.427
REMARK  Name = *****
REMARK                            x       y       z     vdW  Elec       q    Type
REMARK                         _______ _______ _______ _____ _____    ______ ____
ROOT
ATOM      1  C   LIG    1       25.149 -28.593   7.103  0.00  0.00    +0.088 C 
ATOM      2  C   LIG    1       24.501 -29.756   7.754  0.00  0.00    +0.135 A 
ATOM      3  N   LIG    1       24.421 -29.997   9.116  0.00  0.00    -0.281 N 
ATOM      4  C   LIG    1       25.104 -29.378  10.195  0.00  0.00    +0.059 A 
ATOM      5  C   LIG    1       24.528 -29.304  11.479  0.00  0.00    +0.026 A 
ATOM      6  C   LIG    1       23.101 -29.663  11.766  0.00  0.00    +0.075 C 
ATOM      7  N   LIG    1       22.517 -30.741  11.363  0.00  0.00    -0.275 NA
ATOM      8  C   LIG    1       23.231 -31.696  10.527  0.00  0.00    +0.218 C 
ATOM      9  C   LIG    1       25.288 -28.801  12.550  0.00  0.00    +0.032 A 
ATOM     10  C   LIG    1       26.583 -28.341  12.338  0.00  0.00    +0.042 A 
ATOM     11 CL   LIG    1       27.495 -27.713  13.654  0.00  0.00    -0.084 Cl
ATOM     12  C   LIG    1       27.146 -28.382  11.067  0.00  0.00    +0.022 A 
ATOM     13  C   LIG    1       26.413 -28.905   9.998  0.00  0.00    +0.028 A 
ATOM     14  C   LIG    1       23.575 -31.079   9.226  0.00  0.00    +0.160 A 
ATOM     15  N   LIG    1       23.227 -31.500   8.029  0.00  0.00    -0.132 NA
ATOM     16  N   LIG    1       23.806 -30.671   7.109  0.00  0.00    -0.134 NA
ENDROOT
BRANCH   6  17
ATOM     17  C   LIG    1       22.273 -28.710  12.577  0.00  0.00    +0.001 A 
ATOM     18  C   LIG    1       22.757 -27.445  12.932  0.00  0.00    +0.010 A 
ATOM     19  C   LIG    1       21.961 -26.577  13.684  0.00  0.00    +0.001 A 
ATOM     20  C   LIG    1       20.677 -26.963  14.069  0.00  0.00    +0.000 A 
ATOM     21  C   LIG    1       20.182 -28.213  13.699  0.00  0.00    +0.001 A 
ATOM     22  C   LIG    1       20.976 -29.084  12.949  0.00  0.00    +0.010 A 
ENDBRANCH   6  17
TORSDOF 1
ENDMDL
