MODEL 1
REMARK VINA RESULT:      -7.0      0.000      0.000
REMARK  Name = *****
REMARK                            x       y       z     vdW  Elec       q    Type
REMARK                         _______ _______ _______ _____ _____    ______ ____
ROOT
ATOM      1  N   LIG    1       23.995 -20.455   5.681  0.00  0.00    -0.298 N 
ATOM      2  C   LIG    1       25.312 -20.392   5.175  0.00  0.00    +0.247 C 
ATOM      3  O   LIG    1       25.509 -20.250   3.967  0.00  0.00    -0.270 OA
ENDROOT
BRANCH   2   4
ATOM      4  C   LIG    1       26.562 -20.524   6.100  0.00  0.00    +0.037 A 
ATOM      5  C   LIG    1       27.670 -19.695   5.774  0.00  0.00    +0.016 A 
ATOM      6  C   LIG    1       28.906 -19.827   6.461  0.00  0.00    -0.050 A 
ATOM      7  C   LIG    1       30.077 -18.949   6.140  0.00  0.00    +0.044 C 
ATOM      8  C   LIG    1       29.076 -20.828   7.415  0.00  0.00    +0.003 A 
ATOM      9  C   LIG    1       27.997 -21.604   7.771  0.00  0.00    +0.001 A 
ATOM     10  C   LIG    1       26.758 -21.370   7.175  0.00  0.00    +0.013 A 
ENDBRANCH   2   4
BRANCH   1  12
ATOM     11  C   LIG    1       22.278 -18.889   4.625  0.00  0.00    +0.024 C 
ATOM     12  C   LIG    1       22.852 -20.304   4.728  0.00  0.00    +0.104 C 
ENDBRANCH   1  12
BRANCH   1  13
ATOM     13  C   LIG    1       23.556 -20.750   7.043  0.00  0.00    +0.104 C 
ATOM     14  C   LIG    1       23.191 -22.208   7.289  0.00  0.00    +0.024 C 
ENDBRANCH   1  13
TORSDOF 3
ENDMDL
MODEL 2
REMARK VINA RESULT:      -6.9      1.782      2.926
REMARK  Name = *****
REMARK                            x       y       z     vdW  Elec       q    Type
REMARK                         _______ _______ _______ _____ _____    ______ ____
ROOT
ATOM      1  N   LIG    1       24.595 -21.723   6.571  0.00  0.00    -0.298 N 
ATOM      2  C   LIG    1       25.487 -21.057   7.441  0.00  0.00    +0.247 C 
ATOM      3  O   LIG    1       25.121 -20.714   8.565  0.00  0.00    -0.270 OA
ENDROOT
BRANCH   2   4
ATOM      4  C   LIG    1       26.948 -20.705   7.018  0.00  0.00    +0.037 A 
ATOM      5  C   LIG    1       27.979 -21.198   7.865  0.00  0.00    +0.016 A 
ATOM      6  C   LIG    1       29.333 -20.827   7.655  0.00  0.00    -0.050 A 
ATOM      7  C   LIG    1       30.432 -21.351   8.529  0.00  0.00    +0.044 C 
ATOM      8  C   LIG    1       29.665 -19.909   6.660  0.00  0.00    +0.003 A 
ATOM      9  C   LIG    1       28.682 -19.464   5.806  0.00  0.00    +0.001 A 
ATOM     10  C   LIG    1       27.380 -19.942   5.950  0.00  0.00    +0.013 A 
ENDBRANCH   2   4
BRANCH   1  12
ATOM     11  C   LIG    1       22.737 -23.462   6.773  0.00  0.00    +0.024 C 
ATOM     12  C   LIG    1       23.217 -22.037   7.060  0.00  0.00    +0.104 C 
ENDBRANCH   1  12
BRANCH   1  13
ATOM     13  C   LIG    1       24.791 -22.088   5.170  0.00  0.00    +0.104 C 
ATOM     14  C   LIG    1       24.281 -21.058   4.170  0.00  0.00    +0.024 C 
ENDBRANCH   1  13
TORSDOF 3
ENDMDL
MODEL 3
REMARK VINA RESULT:      -6.9      2.307      5.458
REMARK  Name = *****
REMARK                            x       y       z     vdW  Elec       q    Type
REMARK                         _______ _______ _______ _____ _____    ______ ____
ROOT
ATOM      1  N   LIG    1       27.323 -20.293   7.510  0.00  0.00    -0.298 N 
ATOM      2  C   LIG    1       26.169 -20.602   8.264  0.00  0.00    +0.247 C 
ATOM      3  O   LIG    1       26.147 -20.405   9.479  0.00  0.00    -0.270 OA
ENDROOT
BRANCH   2   4
ATOM      4  C   LIG    1       24.894 -21.221   7.609  0.00  0.00    +0.037 A 
ATOM      5  C   LIG    1       24.914 -22.630   7.417  0.00  0.00    +0.016 A 
ATOM      6  C   LIG    1       23.870 -23.283   6.710  0.00  0.00    -0.050 A 
ATOM      7  C   LIG    1       23.868 -24.769   6.514  0.00  0.00    +0.044 C 
ATOM      8  C   LIG    1       22.847 -22.541   6.123  0.00  0.00    +0.003 A 
ATOM      9  C   LIG    1       22.794 -21.184   6.343  0.00  0.00    +0.001 A 
ATOM     10  C   LIG    1       23.758 -20.581   7.150  0.00  0.00    +0.013 A 
ENDBRANCH   2   4
BRANCH   1  12
ATOM     11  C   LIG    1       29.607 -19.174   7.291  0.00  0.00    +0.024 C 
ATOM     12  C   LIG    1       28.497 -19.687   8.212  0.00  0.00    +0.104 C 
ENDBRANCH   1  12
BRANCH   1  13
ATOM     13  C   LIG    1       27.593 -20.573   6.102  0.00  0.00    +0.104 C 
ATOM     14  C   LIG    1       26.669 -19.859   5.125  0.00  0.00    +0.024 C 
ENDBRANCH   1  13
TORSDOF 3
ENDMDL
MODEL 4
REMARK VINA RESULT:      -6.7      1.889      5.040
REMARK  Name = *****
REMARK                            x       y       z     vdW  Elec       q    Type
REMARK                         _______ _______ _______ _____ _____    ______ ____
ROOT
ATOM      1  N   LIG    1       27.055 -20.540   6.311  0.00  0.00    -0.298 N 
ATOM      2  C   LIG    1       25.890 -20.859   5.578  0.00  0.00    +0.247 C 
ATOM      3  O   LIG    1       25.687 -20.346   4.477  0.00  0.00    -0.270 OA
ENDROOT
BRANCH   2   4
ATOM      4  C   LIG    1       24.808 -21.840   6.129  0.00  0.00    +0.037 A 
ATOM      5  C   LIG    1       25.105 -23.226   6.012  0.00  0.00    +0.016 A 
ATOM      6  C   LIG    1       24.140 -24.209   6.354  0.00  0.00    -0.050 A 
ATOM      7  C   LIG    1       24.444 -25.673   6.252  0.00  0.00    +0.044 C 
ATOM      8  C   LIG    1       22.854 -23.829   6.737  0.00  0.00    +0.003 A 
ATOM      9  C   LIG    1       22.573 -22.492   6.900  0.00  0.00    +0.001 A 
ATOM     10  C   LIG    1       23.576 -21.548   6.682  0.00  0.00    +0.013 A 
ENDBRANCH   2   4
BRANCH   1  12
ATOM     11  C   LIG    1       29.297 -19.343   6.553  0.00  0.00    +0.024 C 
ATOM     12  C   LIG    1       28.050 -19.602   5.703  0.00  0.00    +0.104 C 
ENDBRANCH   1  12
BRANCH   1  13
ATOM     13  C   LIG    1       27.410 -20.931   7.673  0.00  0.00    +0.104 C 
ATOM     14  C   LIG    1       26.421 -20.481   8.739  0.00  0.00    +0.024 C 
ENDBRANCH   1  13
TORSDOF 3
ENDMDL
MODEL 5
REMARK VINA RESULT:      -6.7      2.096      5.465
REMARK  Name = *****
REMARK                            x       y       z     vdW  Elec       q    Type
REMARK                         _______ _______ _______ _____ _____    ______ ____
ROOT
ATOM      1  N   LIG    1       27.624 -20.295   7.205  0.00  0.00    -0.298 N 
ATOM      2  C   LIG    1       26.559 -20.896   7.913  0.00  0.00    +0.247 C 
ATOM      3  O   LIG    1       26.640 -21.071   9.129  0.00  0.00    -0.270 OA
ENDROOT
BRANCH   2   4
ATOM      4  C   LIG    1       25.260 -21.384   7.197  0.00  0.00    +0.037 A 
ATOM      5  C   LIG    1       24.532 -20.392   6.484  0.00  0.00    +0.016 A 
ATOM      6  C   LIG    1       23.267 -20.689   5.910  0.00  0.00    -0.050 A 
ATOM      7  C   LIG    1       22.496 -19.661   5.141  0.00  0.00    +0.044 C 
ATOM      8  C   LIG    1       22.684 -21.940   6.104  0.00  0.00    +0.003 A 
ATOM      9  C   LIG    1       23.401 -22.920   6.751  0.00  0.00    +0.001 A 
ATOM     10  C   LIG    1       24.694 -22.644   7.194  0.00  0.00    +0.013 A 
ENDBRANCH   2   4
BRANCH   1  12
ATOM     11  C   LIG    1       29.957 -20.871   8.065  0.00  0.00    +0.024 C 
ATOM     12  C   LIG    1       28.827 -19.842   7.968  0.00  0.00    +0.104 C 
ENDBRANCH   1  12
BRANCH   1  13
ATOM     13  C   LIG    1       27.777 -20.124   5.761  0.00  0.00    +0.104 C 
ATOM     14  C   LIG    1       28.587 -18.902   5.351  0.00  0.00    +0.024 C 
ENDBRANCH   1  13
TORSDOF 3
ENDMDL
MODEL 6
REMARK VINA RESULT:      -6.6      2.601      5.636
REMARK  Name = *****
REMARK                            x       y       z     vdW  Elec       q    Type
REMARK                         _______ _______ _______ _____ _____    ______ ____
ROOT
ATOM      1  N   LIG    1       28.577 -20.357   6.963  0.00  0.00    -0.298 N 
ATOM      2  C   LIG    1       27.864 -21.226   7.819  0.00  0.00    +0.247 C 
ATOM      3  O   LIG    1       28.435 -21.785   8.755  0.00  0.00    -0.270 OA
ENDROOT
BRANCH   2   4
ATOM      4  C   LIG    1       26.349 -21.536   7.608  0.00  0.00    +0.037 A 
ATOM      5  C   LIG    1       26.033 -22.864   7.206  0.00  0.00    +0.016 A 
ATOM      6  C   LIG    1       24.705 -23.222   6.854  0.00  0.00    -0.050 A 
ATOM      7  C   LIG    1       24.354 -24.620   6.446  0.00  0.00    +0.044 C 
ATOM      8  C   LIG    1       23.702 -22.255   6.821  0.00  0.00    +0.003 A 
ATOM      9  C   LIG    1       23.986 -20.980   7.253  0.00  0.00    +0.001 A 
ATOM     10  C   LIG    1       25.267 -20.682   7.717  0.00  0.00    +0.013 A 
ENDBRANCH   2   4
BRANCH   1  12
ATOM     11  C   LIG    1       30.297 -19.081   8.351  0.00  0.00    +0.024 C 
ATOM     12  C   LIG    1       30.024 -20.102   7.244  0.00  0.00    +0.104 C 
ENDBRANCH   1  12
BRANCH   1  13
ATOM     13  C   LIG    1       28.121 -19.712   5.733  0.00  0.00    +0.104 C 
ATOM     14  C   LIG    1       28.964 -18.524   5.291  0.00  0.00    +0.024 C 
ENDBRANCH   1  13
TORSDOF 3
ENDMDL
MODEL 7
REMARK VINA RESULT:      -6.6      2.746      5.267
REMARK  Name = *****
REMARK                            x       y       z     vdW  Elec       q    Type
REMARK                         _______ _______ _______ _____ _____    ______ ____
ROOT
ATOM      1  N   LIG    1       26.813 -20.792   6.726  0.00  0.00    -0.298 N 
ATOM      2  C   LIG    1       26.441 -21.781   7.664  0.00  0.00    +0.247 C 
ATOM      3  O   LIG    1       26.945 -21.795   8.788  0.00  0.00    -0.270 OA
ENDROOT
BRANCH   2   4
ATOM      4  C   LIG    1       25.409 -22.901   7.321  0.00  0.00    +0.037 A 
ATOM      5  C   LIG    1       25.956 -24.168   6.974  0.00  0.00    +0.016 A 
ATOM      6  C   LIG    1       25.121 -25.220   6.512  0.00  0.00    -0.050 A 
ATOM      7  C   LIG    1       25.680 -26.564   6.160  0.00  0.00    +0.044 C 
ATOM      8  C   LIG    1       23.758 -25.001   6.317  0.00  0.00    +0.003 A 
ATOM      9  C   LIG    1       23.213 -23.796   6.694  0.00  0.00    +0.001 A 
ATOM     10  C   LIG    1       24.031 -22.821   7.266  0.00  0.00    +0.013 A 
ENDBRANCH   2   4
BRANCH   1  12
ATOM     11  C   LIG    1       29.012 -19.599   6.220  0.00  0.00    +0.024 C 
ATOM     12  C   LIG    1       27.797 -19.745   7.141  0.00  0.00    +0.104 C 
ENDBRANCH   1  12
BRANCH   1  13
ATOM     13  C   LIG    1       26.437 -20.685   5.318  0.00  0.00    +0.104 C 
ATOM     14  C   LIG    1       25.070 -20.061   5.074  0.00  0.00    +0.024 C 
ENDBRANCH   1  13
TORSDOF 3
ENDMDL
MODEL 8
REMARK VINA RESULT:      -6.4      3.788      6.661
REMARK  Name = *****
REMARK                            x       y       z     vdW  Elec       q    Type
REMARK                         _______ _______ _______ _____ _____    ______ ____
ROOT
ATOM      1  N   LIG    1       31.021 -18.072   8.676  0.00  0.00    -0.298 N 
ATOM      2  C   LIG    1       30.826 -18.948   7.585  0.00  0.00    +0.247 C 
ATOM      3  O   LIG    1       31.791 -19.442   7.002  0.00  0.00    -0.270 OA
ENDROOT
BRANCH   2   4
ATOM      4  C   LIG    1       29.401 -19.306   7.056  0.00  0.00    +0.037 A 
ATOM      5  C   LIG    1       28.537 -19.952   7.983  0.00  0.00    +0.016 A 
ATOM      6  C   LIG    1       27.269 -20.445   7.574  0.00  0.00    -0.050 A 
ATOM      7  C   LIG    1       26.340 -21.112   8.542  0.00  0.00    +0.044 C 
ATOM      8  C   LIG    1       26.885 -20.373   6.236  0.00  0.00    +0.003 A 
ATOM      9  C   LIG    1       27.693 -19.708   5.343  0.00  0.00    +0.001 A 
ATOM     10  C   LIG    1       28.874 -19.119   5.793  0.00  0.00    +0.013 A 
ENDBRANCH   2   4
BRANCH   1  12
ATOM     11  C   LIG    1       32.729 -16.318   9.398  0.00  0.00    +0.024 C 
ATOM     12  C   LIG    1       32.419 -17.793   9.130  0.00  0.00    +0.104 C 
ENDBRANCH   1  12
BRANCH   1  13
ATOM     13  C   LIG    1       30.027 -17.287   9.404  0.00  0.00    +0.104 C 
ATOM     14  C   LIG    1       30.029 -17.503  10.912  0.00  0.00    +0.024 C 
ENDBRANCH   1  13
TORSDOF 3
ENDMDL
MODEL 9
REMARK VINA RESULT:      -6.4      2.343      5.710
REMARK  Name = *****
REMARK                            x       y       z     vdW  Elec       q    Type
REMARK                         _______ _______ _______ _____ _____    ______ ____
ROOT
ATOM      1  N   LIG    1       28.359 -19.935   7.333  0.00  0.00    -0.298 N 
ATOM      2  C   LIG    1       27.075 -20.330   7.770  0.00  0.00    +0.247 C 
ATOM      3  O   LIG    1       26.829 -20.425   8.973  0.00  0.00    -0.270 OA
ENDROOT
BRANCH   2   4
ATOM      4  C   LIG    1       25.931 -20.684   6.768  0.00  0.00    +0.037 A 
ATOM      5  C   LIG    1       24.965 -21.619   7.230  0.00  0.00    +0.016 A 
ATOM      6  C   LIG    1       23.959 -22.117   6.360  0.00  0.00    -0.050 A 
ATOM      7  C   LIG    1       22.923 -23.089   6.837  0.00  0.00    +0.044 C 
ATOM      8  C   LIG    1       23.953 -21.756   5.013  0.00  0.00    +0.003 A 
ATOM      9  C   LIG    1       24.855 -20.817   4.568  0.00  0.00    +0.001 A 
ATOM     10  C   LIG    1       25.750 -20.244   5.470  0.00  0.00    +0.013 A 
ENDBRANCH   2   4
BRANCH   1  12
ATOM     11  C   LIG    1       30.642 -20.485   8.333  0.00  0.00    +0.024 C 
ATOM     12  C   LIG    1       29.394 -19.599   8.358  0.00  0.00    +0.104 C 
ENDBRANCH   1  12
BRANCH   1  13
ATOM     13  C   LIG    1       28.884 -19.894   5.969  0.00  0.00    +0.104 C 
ATOM     14  C   LIG    1       29.211 -18.497   5.459  0.00  0.00    +0.024 C 
ENDBRANCH   1  13
TORSDOF 3
ENDMDL
