MODEL 1
REMARK VINA RESULT:      13.9      0.000      0.000
REMARK  Name = *****
REMARK                            x       y       z     vdW  Elec       q    Type
REMARK                         _______ _______ _______ _____ _____    ______ ____
ROOT
ATOM      1  C   LIG    1       27.719 -14.070   4.175  0.00  0.00    +0.129 C 
ATOM      2  C   LIG    1       26.824 -15.018   3.310  0.00  0.00    +0.007 C 
ATOM      3  C   LIG    1       26.863 -14.660   1.812  0.00  0.00    +0.014 C 
ATOM      4  C   LIG    1       25.431 -14.823   3.933  0.00  0.00    +0.005 C 
ATOM      5  C   LIG    1       24.356 -15.848   3.494  0.00  0.00    +0.021 C 
ATOM      6  C   LIG    1       24.786 -17.330   3.285  0.00  0.00    +0.007 C 
ATOM      7  C   LIG    1       26.267 -17.497   2.879  0.00  0.00    +0.005 C 
ATOM      8  C   LIG    1       24.240 -18.368   4.349  0.00  0.00    +0.001 C 
ATOM      9  C   LIG    1       24.950 -18.274   5.721  0.00  0.00    +0.017 C 
ATOM     10  C   LIG    1       22.738 -18.104   4.609  0.00  0.00    -0.020 C 
ATOM     11  C   LIG    1       21.814 -19.084   4.666  0.00  0.00    +0.052 C 
ATOM     12  C   LIG    1       22.113 -20.511   4.439  0.00  0.00    +0.160 C 
ATOM     13  O   LIG    1       21.268 -21.379   4.606  0.00  0.00    -0.292 OA
ATOM     14  C   LIG    1       23.460 -20.850   3.946  0.00  0.00    +0.064 C 
ATOM     15  C   LIG    1       23.893 -20.359   2.584  0.00  0.00    +0.016 C 
ATOM     16  C   LIG    1       22.363 -16.703   4.787  0.00  0.00    +0.041 C 
ATOM     17 CL   LIG    1       20.946 -16.296   5.708  0.00  0.00    -0.084 Cl
ATOM     18  C   LIG    1       24.526 -19.792   3.832  0.00  0.00    +0.011 C 
ATOM     19  C   LIG    1       23.092 -15.694   4.294  0.00  0.00    -0.003 C 
ATOM     20  C   LIG    1       25.708 -14.698   5.442  0.00  0.00    +0.008 C 
ATOM     21  C   LIG    1       27.246 -16.500   3.486  0.00  0.00    +0.010 C 
ATOM     22  C   LIG    1       27.164 -14.243   5.598  0.00  0.00    +0.043 C 
ENDROOT
BRANCH   1  24
ATOM     23  C   LIG    1       28.776 -11.687   4.372  0.00  0.00    +0.089 C 
ATOM     24  C   LIG    1       27.655 -12.550   3.843  0.00  0.00    +0.162 C 
ATOM     25  O   LIG    1       26.717 -12.033   3.236  0.00  0.00    -0.295 OA
ENDBRANCH   1  24
BRANCH   1  26
ATOM     26  O   LIG    1       29.078 -14.503   4.147  0.00  0.00    -0.381 OA
ATOM     27  H   LIG    1       29.101 -15.393   3.754  0.00  0.00    +0.211 HD
ENDBRANCH   1  26
TORSDOF 2
ENDMDL
MODEL 2
REMARK VINA RESULT:      15.1      2.026      7.073
REMARK  Name = *****
REMARK                            x       y       z     vdW  Elec       q    Type
REMARK                         _______ _______ _______ _____ _____    ______ ____
ROOT
ATOM      1  C   LIG    1       22.247 -19.398   4.831  0.00  0.00    +0.129 C 
ATOM      2  C   LIG    1       22.904 -18.460   3.763  0.00  0.00    +0.007 C 
ATOM      3  C   LIG    1       22.477 -18.814   2.326  0.00  0.00    +0.014 C 
ATOM      4  C   LIG    1       24.407 -18.678   4.009  0.00  0.00    +0.005 C 
ATOM      5  C   LIG    1       25.349 -17.667   3.306  0.00  0.00    +0.021 C 
ATOM      6  C   LIG    1       24.902 -16.180   3.213  0.00  0.00    +0.007 C 
ATOM      7  C   LIG    1       23.369 -15.989   3.201  0.00  0.00    +0.005 C 
ATOM      8  C   LIG    1       25.718 -15.152   4.101  0.00  0.00    +0.001 C 
ATOM      9  C   LIG    1       25.383 -15.240   5.609  0.00  0.00    +0.017 C 
ATOM     10  C   LIG    1       27.233 -15.439   3.966  0.00  0.00    -0.020 C 
ATOM     11  C   LIG    1       28.155 -14.473   3.782  0.00  0.00    +0.052 C 
ATOM     12  C   LIG    1       27.829 -13.041   3.638  0.00  0.00    +0.160 C 
ATOM     13  O   LIG    1       28.702 -12.187   3.582  0.00  0.00    -0.292 OA
ATOM     14  C   LIG    1       26.406 -12.681   3.508  0.00  0.00    +0.064 C 
ATOM     15  C   LIG    1       25.631 -13.162   2.303  0.00  0.00    +0.016 C 
ATOM     16  C   LIG    1       27.620 -16.845   4.043  0.00  0.00    +0.041 C 
ATOM     17 CL   LIG    1       29.220 -17.276   4.570  0.00  0.00    -0.084 Cl
ATOM     18  C   LIG    1       25.330 -13.723   3.672  0.00  0.00    +0.011 C 
ATOM     19  C   LIG    1       26.774 -17.843   3.755  0.00  0.00    -0.003 C 
ATOM     20  C   LIG    1       24.526 -18.803   5.538  0.00  0.00    +0.008 C 
ATOM     21  C   LIG    1       22.564 -16.973   4.041  0.00  0.00    +0.010 C 
ATOM     22  C   LIG    1       23.152 -19.237   6.064  0.00  0.00    +0.043 C 
ENDROOT
BRANCH   1  24
ATOM     23  C   LIG    1       23.505 -21.571   4.102  0.00  0.00    +0.089 C 
ATOM     24  C   LIG    1       22.201 -20.918   4.495  0.00  0.00    +0.162 C 
ATOM     25  O   LIG    1       21.157 -21.571   4.479  0.00  0.00    -0.295 OA
ENDBRANCH   1  24
BRANCH   1  26
ATOM     26  O   LIG    1       20.934 -18.945   5.152  0.00  0.00    -0.381 OA
ATOM     27  H   LIG    1       20.690 -18.252   4.513  0.00  0.00    +0.211 HD
ENDBRANCH   1  26
TORSDOF 2
ENDMDL
MODEL 3
REMARK VINA RESULT:      16.6      1.585      6.771
REMARK  Name = *****
REMARK                            x       y       z     vdW  Elec       q    Type
REMARK                         _______ _______ _______ _____ _____    ______ ____
ROOT
ATOM      1  C   LIG    1       23.143 -20.445   3.760  0.00  0.00    +0.129 C 
ATOM      2  C   LIG    1       24.135 -19.481   4.495  0.00  0.00    +0.007 C 
ATOM      3  C   LIG    1       24.537 -20.001   5.888  0.00  0.00    +0.014 C 
ATOM      4  C   LIG    1       23.338 -18.167   4.556  0.00  0.00    +0.005 C 
ATOM      5  C   LIG    1       24.152 -16.914   4.968  0.00  0.00    +0.021 C 
ATOM      6  C   LIG    1       25.613 -16.778   4.451  0.00  0.00    +0.007 C 
ATOM      7  C   LIG    1       26.307 -18.131   4.180  0.00  0.00    +0.005 C 
ATOM      8  C   LIG    1       25.868 -15.645   3.374  0.00  0.00    +0.001 C 
ATOM      9  C   LIG    1       25.321 -15.997   1.970  0.00  0.00    +0.017 C 
ATOM     10  C   LIG    1       25.155 -14.344   3.813  0.00  0.00    -0.020 C 
ATOM     11  C   LIG    1       25.736 -13.128   3.759  0.00  0.00    +0.052 C 
ATOM     12  C   LIG    1       27.129 -12.900   3.327  0.00  0.00    +0.160 C 
ATOM     13  O   LIG    1       27.582 -11.773   3.190  0.00  0.00    -0.292 OA
ATOM     14  C   LIG    1       27.976 -14.088   3.119  0.00  0.00    +0.064 C 
ATOM     15  C   LIG    1       28.298 -14.980   4.296  0.00  0.00    +0.016 C 
ATOM     16  C   LIG    1       23.789 -14.504   4.306  0.00  0.00    +0.041 C 
ATOM     17 CL   LIG    1       22.668 -13.181   4.199  0.00  0.00    -0.084 Cl
ATOM     18  C   LIG    1       27.389 -15.474   3.196  0.00  0.00    +0.011 C 
ATOM     19  C   LIG    1       23.339 -15.658   4.816  0.00  0.00    -0.003 C 
ATOM     20  C   LIG    1       22.596 -18.112   3.209  0.00  0.00    +0.008 C 
ATOM     21  C   LIG    1       25.416 -19.249   3.652  0.00  0.00    +0.010 C 
ATOM     22  C   LIG    1       22.492 -19.552   2.691  0.00  0.00    +0.043 C 
ENDROOT
BRANCH   1  24
ATOM     23  C   LIG    1       22.355 -21.572   5.983  0.00  0.00    +0.089 C 
ATOM     24  C   LIG    1       21.990 -21.048   4.614  0.00  0.00    +0.162 C 
ATOM     25  O   LIG    1       20.836 -21.167   4.199  0.00  0.00    -0.295 OA
ENDBRANCH   1  24
BRANCH   1  26
ATOM     26  O   LIG    1       23.856 -21.499   3.118  0.00  0.00    -0.381 OA
ATOM     27  H   LIG    1       24.753 -21.529   3.496  0.00  0.00    +0.211 HD
ENDBRANCH   1  26
TORSDOF 2
ENDMDL
