MODEL 1
REMARK VINA RESULT:      -6.2      0.000      0.000
REMARK  Name = *****
REMARK                            x       y       z     vdW  Elec       q    Type
REMARK                         _______ _______ _______ _____ _____    ______ ____
ROOT
ATOM      1  C   LIG    1       24.001 -19.501   4.223  0.00  0.00    -0.032 C 
ATOM      2  C   LIG    1       25.221 -18.937   3.808  0.00  0.00    +0.030 C 
ATOM      3  C   LIG    1       25.278 -17.552   3.623  0.00  0.00    +0.048 C 
ATOM      4  N   LIG    1       26.327 -16.758   3.224  0.00  0.00    -0.354 NA
ATOM      5  H   LIG    1       27.250 -17.099   2.999  0.00  0.00    +0.166 HD
ATOM      6  C   LIG    1       25.946 -15.439   3.156  0.00  0.00    +0.048 C 
ATOM      7  C   LIG    1       24.608 -15.378   3.544  0.00  0.00    +0.009 C 
ATOM      8  C   LIG    1       23.967 -14.122   3.567  0.00  0.00    +0.030 C 
ATOM      9  C   LIG    1       24.691 -12.986   3.194  0.00  0.00    +0.042 C 
ATOM     10 CL   LIG    1       23.916 -11.447   3.217  0.00  0.00    -0.084 Cl
ATOM     11  C   LIG    1       26.025 -13.075   2.805  0.00  0.00    +0.022 C 
ATOM     12  C   LIG    1       26.681 -14.309   2.779  0.00  0.00    +0.027 C 
ATOM     13  C   LIG    1       24.186 -16.714   3.837  0.00  0.00    +0.007 C 
ATOM     14  C   LIG    1       22.970 -17.289   4.256  0.00  0.00    +0.011 C 
ATOM     15  C   LIG    1       22.889 -18.675   4.443  0.00  0.00    +0.005 C 
ENDROOT
BRANCH   1  17
ATOM     16  C   LIG    1       25.226 -21.555   4.994  0.00  0.00    +0.024 C 
ATOM     17  C   LIG    1       23.891 -20.997   4.487  0.00  0.00    +0.124 C 
BRANCH  17  18
ATOM     18  C   LIG    1       22.759 -21.375   5.444  0.00  0.00    +0.312 C 
ATOM     19  O   LIG    1       22.921 -21.558   6.645  0.00  0.00    -0.250 OA
BRANCH  18  20
ATOM     20  O   LIG    1       21.549 -21.571   4.870  0.00  0.00    -0.480 OA
ATOM     21  H   LIG    1       20.970 -20.784   4.856  0.00  0.00    +0.295 HD
ENDBRANCH  18  20
ENDBRANCH  17  18
ENDBRANCH   1  17
TORSDOF 3
ENDMDL
MODEL 2
REMARK VINA RESULT:      -5.9      4.180      6.780
REMARK  Name = *****
REMARK                            x       y       z     vdW  Elec       q    Type
REMARK                         _______ _______ _______ _____ _____    ______ ____
ROOT
ATOM      1  C   LIG    1       25.806 -14.727   3.437  0.00  0.00    -0.032 C 
ATOM      2  C   LIG    1       26.443 -15.965   3.235  0.00  0.00    +0.030 C 
ATOM      3  C   LIG    1       25.704 -17.130   3.463  0.00  0.00    +0.048 C 
ATOM      4  N   LIG    1       26.078 -18.449   3.347  0.00  0.00    -0.354 NA
ATOM      5  H   LIG    1       26.996 -18.760   3.065  0.00  0.00    +0.166 HD
ATOM      6  C   LIG    1       25.041 -19.285   3.684  0.00  0.00    +0.048 C 
ATOM      7  C   LIG    1       23.952 -18.476   4.011  0.00  0.00    +0.009 C 
ATOM      8  C   LIG    1       22.743 -19.093   4.392  0.00  0.00    +0.030 C 
ATOM      9  C   LIG    1       22.679 -20.489   4.437  0.00  0.00    +0.042 C 
ATOM     10 CL   LIG    1       21.207 -21.251   4.905  0.00  0.00    -0.084 Cl
ATOM     11  C   LIG    1       23.784 -21.273   4.112  0.00  0.00    +0.022 C 
ATOM     12  C   LIG    1       24.991 -20.683   3.727  0.00  0.00    +0.027 C 
ATOM     13  C   LIG    1       24.373 -17.115   3.873  0.00  0.00    +0.007 C 
ATOM     14  C   LIG    1       23.744 -15.870   4.067  0.00  0.00    +0.011 C 
ATOM     15  C   LIG    1       24.467 -14.690   3.850  0.00  0.00    +0.005 C 
ENDROOT
BRANCH   1  17
ATOM     16  C   LIG    1       25.554 -12.267   2.990  0.00  0.00    +0.024 C 
ATOM     17  C   LIG    1       26.545 -13.424   3.159  0.00  0.00    +0.124 C 
BRANCH  17  18
ATOM     18  C   LIG    1       27.596 -13.073   4.213  0.00  0.00    +0.312 C 
ATOM     19  O   LIG    1       28.768 -12.833   3.948  0.00  0.00    -0.250 OA
BRANCH  18  20
ATOM     20  O   LIG    1       27.171 -13.110   5.498  0.00  0.00    -0.480 OA
ATOM     21  H   LIG    1       26.339 -13.602   5.641  0.00  0.00    +0.295 HD
ENDBRANCH  18  20
ENDBRANCH  17  18
ENDBRANCH   1  17
TORSDOF 3
ENDMDL
MODEL 3
REMARK VINA RESULT:      -5.0      4.256      6.752
REMARK  Name = *****
REMARK                            x       y       z     vdW  Elec       q    Type
REMARK                         _______ _______ _______ _____ _____    ______ ____
ROOT
ATOM      1  C   LIG    1       25.163 -14.691   3.720  0.00  0.00    -0.032 C 
ATOM      2  C   LIG    1       25.861 -15.872   3.406  0.00  0.00    +0.030 C 
ATOM      3  C   LIG    1       25.207 -17.093   3.596  0.00  0.00    +0.048 C 
ATOM      4  N   LIG    1       25.653 -18.376   3.377  0.00  0.00    -0.354 NA
ATOM      5  H   LIG    1       26.570 -18.611   3.028  0.00  0.00    +0.166 HD
ATOM      6  C   LIG    1       24.688 -19.295   3.713  0.00  0.00    +0.048 C 
ATOM      7  C   LIG    1       23.573 -18.579   4.148  0.00  0.00    +0.009 C 
ATOM      8  C   LIG    1       22.426 -19.293   4.552  0.00  0.00    +0.030 C 
ATOM      9  C   LIG    1       22.449 -20.690   4.510  0.00  0.00    +0.042 C 
ATOM     10 CL   LIG    1       21.054 -21.572   5.005  0.00  0.00    -0.084 Cl
ATOM     11  C   LIG    1       23.579 -21.382   4.078  0.00  0.00    +0.022 C 
ATOM     12  C   LIG    1       24.724 -20.694   3.668  0.00  0.00    +0.027 C 
ATOM     13  C   LIG    1       23.903 -17.188   4.076  0.00  0.00    +0.007 C 
ATOM     14  C   LIG    1       23.213 -16.000   4.383  0.00  0.00    +0.011 C 
ATOM     15  C   LIG    1       23.850 -14.764   4.205  0.00  0.00    +0.005 C 
ENDROOT
BRANCH   1  17
ATOM     16  C   LIG    1       25.694 -12.460   4.745  0.00  0.00    +0.024 C 
ATOM     17  C   LIG    1       25.806 -13.329   3.488  0.00  0.00    +0.124 C 
BRANCH  17  18
ATOM     18  C   LIG    1       27.260 -13.404   3.021  0.00  0.00    +0.312 C 
ATOM     19  O   LIG    1       28.192 -12.883   3.621  0.00  0.00    -0.250 OA
BRANCH  18  20
ATOM     20  O   LIG    1       27.464 -14.033   1.839  0.00  0.00    -0.480 OA
ATOM     21  H   LIG    1       26.657 -14.170   1.304  0.00  0.00    +0.295 HD
ENDBRANCH  18  20
ENDBRANCH  17  18
ENDBRANCH   1  17
TORSDOF 3
ENDMDL
MODEL 4
REMARK VINA RESULT:      -4.5      1.608      2.260
REMARK  Name = *****
REMARK                            x       y       z     vdW  Elec       q    Type
REMARK                         _______ _______ _______ _____ _____    ______ ____
ROOT
ATOM      1  C   LIG    1       23.957 -19.105   3.803  0.00  0.00    -0.032 C 
ATOM      2  C   LIG    1       23.305 -17.875   4.006  0.00  0.00    +0.030 C 
ATOM      3  C   LIG    1       24.066 -16.705   3.921  0.00  0.00    +0.048 C 
ATOM      4  N   LIG    1       23.687 -15.393   4.078  0.00  0.00    -0.354 NA
ATOM      5  H   LIG    1       22.747 -15.091   4.290  0.00  0.00    +0.166 HD
ATOM      6  C   LIG    1       24.761 -14.549   3.925  0.00  0.00    +0.048 C 
ATOM      7  C   LIG    1       25.870 -15.345   3.640  0.00  0.00    +0.009 C 
ATOM      8  C   LIG    1       27.115 -14.718   3.430  0.00  0.00    +0.030 C 
ATOM      9  C   LIG    1       27.197 -13.326   3.522  0.00  0.00    +0.042 C 
ATOM     10 CL   LIG    1       28.715 -12.551   3.271  0.00  0.00    -0.084 Cl
ATOM     11  C   LIG    1       26.075 -12.554   3.815  0.00  0.00    +0.022 C 
ATOM     12  C   LIG    1       24.829 -13.154   4.022  0.00  0.00    +0.027 C 
ATOM     13  C   LIG    1       25.430 -16.707   3.640  0.00  0.00    +0.007 C 
ATOM     14  C   LIG    1       26.071 -17.944   3.433  0.00  0.00    +0.011 C 
ATOM     15  C   LIG    1       25.330 -19.130   3.520  0.00  0.00    +0.005 C 
ENDROOT
BRANCH   1  17
ATOM     16  C   LIG    1       24.032 -21.572   3.327  0.00  0.00    +0.024 C 
ATOM     17  C   LIG    1       23.172 -20.410   3.837  0.00  0.00    +0.124 C 
BRANCH  17  18
ATOM     18  C   LIG    1       22.588 -20.745   5.210  0.00  0.00    +0.312 C 
ATOM     19  O   LIG    1       23.075 -20.358   6.266  0.00  0.00    -0.250 OA
BRANCH  18  20
ATOM     20  O   LIG    1       21.515 -21.572   5.205  0.00  0.00    -0.480 OA
ATOM     21  H   LIG    1       21.609 -22.360   4.634  0.00  0.00    +0.295 HD
ENDBRANCH  18  20
ENDBRANCH  17  18
ENDBRANCH   1  17
TORSDOF 3
ENDMDL
