MODEL 1
REMARK VINA RESULT:       5.6      0.000      0.000
REMARK  Name = *****
REMARK                            x       y       z     vdW  Elec       q    Type
REMARK                         _______ _______ _______ _____ _____    ______ ____
ROOT
ATOM      1  C   LIG    1       25.469 -19.238   4.203  0.00  0.00    +0.068 C 
ATOM      2  N   LIG    1       24.697 -20.136   3.298  0.00  0.00    -0.303 NA
ATOM      3  H   LIG    1       24.267 -19.547   2.581  0.00  0.00    +0.123 HD
ATOM      4  C   LIG    1       23.667 -20.950   3.959  0.00  0.00    +0.107 C 
ATOM      5  C   LIG    1       22.693 -20.195   4.908  0.00  0.00    +0.048 C 
ATOM      6  N   LIG    1       21.641 -19.549   4.157  0.00  0.00    -0.308 N 
ATOM      7  H   LIG    1       21.730 -18.718   3.591  0.00  0.00    +0.149 HD
ATOM      8  C   LIG    1       20.494 -20.324   4.049  0.00  0.00    +0.213 C 
ATOM      9  O   LIG    1       19.537 -20.066   3.358  0.00  0.00    -0.276 OA
ATOM     10  C   LIG    1       20.696 -21.571   4.894  0.00  0.00    +0.098 C 
ATOM     11  C   LIG    1       21.888 -21.188   5.766  0.00  0.00    +0.036 C 
ATOM     12  C   LIG    1       23.453 -19.210   5.799  0.00  0.00    +0.029 C 
ATOM     13  C   LIG    1       24.448 -18.371   4.994  0.00  0.00    +0.031 C 
ENDROOT
BRANCH   1  14
ATOM     14  C   LIG    1       26.459 -20.009   5.116  0.00  0.00    -0.025 A 
ATOM     15  C   LIG    1       27.852 -19.909   4.931  0.00  0.00    +0.005 A 
ATOM     16  C   LIG    1       28.753 -20.571   5.776  0.00  0.00    +0.000 A 
ATOM     17  C   LIG    1       28.285 -21.343   6.833  0.00  0.00    +0.000 A 
ATOM     18  C   LIG    1       26.917 -21.454   7.047  0.00  0.00    +0.000 A 
ATOM     19  C   LIG    1       26.018 -20.788   6.205  0.00  0.00    +0.005 A 
ENDBRANCH   1  14
BRANCH   1  20
ATOM     20  C   LIG    1       26.327 -18.292   3.278  0.00  0.00    +0.187 C 
BRANCH  20  21
ATOM     21  O   LIG    1       27.335 -17.581   4.038  0.00  0.00    -0.370 OA
BRANCH  21  23
ATOM     22  C   LIG    1       28.292 -15.481   4.745  0.00  0.00    +0.043 C 
ATOM     23  C   LIG    1       27.407 -16.179   3.711  0.00  0.00    +0.145 C 
BRANCH  23  24
ATOM     24  C   LIG    1       26.036 -15.525   3.693  0.00  0.00    -0.018 A 
ATOM     25  C   LIG    1       24.879 -16.319   3.725  0.00  0.00    +0.018 A 
ATOM     26  C   LIG    1       23.602 -15.737   3.793  0.00  0.00    +0.056 A 
ATOM     27  C   LIG    1       23.493 -14.338   3.797  0.00  0.00    +0.024 A 
ATOM     28  C   LIG    1       24.635 -13.523   3.723  0.00  0.00    +0.056 A 
ATOM     29  C   LIG    1       25.898 -14.130   3.658  0.00  0.00    +0.018 A 
BRANCH  26  30
ATOM     30  C   LIG    1       22.386 -16.627   3.897  0.00  0.00    +0.417 C 
ATOM     31  F   LIG    1       22.589 -17.843   3.319  0.00  0.00    -0.166 F 
ATOM     32  F   LIG    1       21.297 -16.097   3.277  0.00  0.00    -0.166 F 
ATOM     33  F   LIG    1       22.003 -16.883   5.179  0.00  0.00    -0.166 F 
ENDBRANCH  26  30
BRANCH  28  34
ATOM     34  C   LIG    1       24.502 -12.019   3.743  0.00  0.00    +0.417 C 
ATOM     35  F   LIG    1       24.940 -11.447   2.588  0.00  0.00    -0.166 F 
ATOM     36  F   LIG    1       25.229 -11.447   4.742  0.00  0.00    -0.166 F 
ATOM     37  F   LIG    1       23.223 -11.583   3.914  0.00  0.00    -0.166 F 
ENDBRANCH  28  34
ENDBRANCH  23  24
ENDBRANCH  21  23
ENDBRANCH  20  21
ENDBRANCH   1  20
TORSDOF 7
ENDMDL
MODEL 2
REMARK VINA RESULT:       5.7      1.440      3.315
REMARK  Name = *****
REMARK                            x       y       z     vdW  Elec       q    Type
REMARK                         _______ _______ _______ _____ _____    ______ ____
ROOT
ATOM      1  C   LIG    1       25.291 -19.187   4.256  0.00  0.00    +0.068 C 
ATOM      2  N   LIG    1       24.575 -20.048   3.272  0.00  0.00    -0.303 NA
ATOM      3  H   LIG    1       24.197 -19.431   2.549  0.00  0.00    +0.123 HD
ATOM      4  C   LIG    1       23.498 -20.874   3.837  0.00  0.00    +0.107 C 
ATOM      5  C   LIG    1       22.469 -20.142   4.744  0.00  0.00    +0.048 C 
ATOM      6  N   LIG    1       21.473 -19.463   3.948  0.00  0.00    -0.308 N 
ATOM      7  H   LIG    1       21.604 -18.614   3.417  0.00  0.00    +0.149 HD
ATOM      8  C   LIG    1       20.331 -20.223   3.739  0.00  0.00    +0.213 C 
ATOM      9  O   LIG    1       19.423 -19.934   2.996  0.00  0.00    -0.276 OA
ATOM     10  C   LIG    1       20.468 -21.499   4.553  0.00  0.00    +0.098 C 
ATOM     11  C   LIG    1       21.602 -21.156   5.514  0.00  0.00    +0.036 C 
ATOM     12  C   LIG    1       23.175 -19.194   5.716  0.00  0.00    +0.029 C 
ATOM     13  C   LIG    1       24.226 -18.338   5.007  0.00  0.00    +0.031 C 
ENDROOT
BRANCH   1  14
ATOM     14  C   LIG    1       26.214 -19.996   5.205  0.00  0.00    -0.025 A 
ATOM     15  C   LIG    1       27.614 -19.842   5.171  0.00  0.00    +0.005 A 
ATOM     16  C   LIG    1       28.450 -20.540   6.051  0.00  0.00    +0.000 A 
ATOM     17  C   LIG    1       27.909 -21.404   6.996  0.00  0.00    +0.000 A 
ATOM     18  C   LIG    1       26.532 -21.572   7.061  0.00  0.00    +0.000 A 
ATOM     19  C   LIG    1       25.696 -20.870   6.184  0.00  0.00    +0.005 A 
ENDBRANCH   1  14
BRANCH   1  20
ATOM     20  C   LIG    1       26.215 -18.218   3.421  0.00  0.00    +0.187 C 
BRANCH  20  21
ATOM     21  O   LIG    1       27.618 -18.490   3.658  0.00  0.00    -0.370 OA
BRANCH  21  23
ATOM     22  C   LIG    1       29.224 -17.454   5.132  0.00  0.00    +0.043 C 
ATOM     23  C   LIG    1       28.402 -17.296   3.852  0.00  0.00    +0.145 C 
BRANCH  23  24
ATOM     24  C   LIG    1       27.534 -16.053   3.957  0.00  0.00    -0.018 A 
ATOM     25  C   LIG    1       28.128 -14.783   3.988  0.00  0.00    +0.018 A 
ATOM     26  C   LIG    1       27.346 -13.616   4.000  0.00  0.00    +0.056 A 
ATOM     27  C   LIG    1       25.948 -13.736   4.015  0.00  0.00    +0.024 A 
ATOM     28  C   LIG    1       25.331 -14.998   4.029  0.00  0.00    +0.056 A 
ATOM     29  C   LIG    1       26.136 -16.146   4.013  0.00  0.00    +0.018 A 
BRANCH  26  30
ATOM     30  C   LIG    1       28.024 -12.266   3.960  0.00  0.00    +0.417 C 
ATOM     31  F   LIG    1       29.382 -12.374   3.967  0.00  0.00    -0.166 F 
ATOM     32  F   LIG    1       27.707 -11.490   5.032  0.00  0.00    -0.166 F 
ATOM     33  F   LIG    1       27.715 -11.530   2.857  0.00  0.00    -0.166 F 
ENDBRANCH  26  30
BRANCH  28  34
ATOM     34  C   LIG    1       23.825 -15.111   4.030  0.00  0.00    +0.417 C 
ATOM     35  F   LIG    1       23.286 -14.807   5.243  0.00  0.00    -0.166 F 
ATOM     36  F   LIG    1       23.399 -16.371   3.738  0.00  0.00    -0.166 F 
ATOM     37  F   LIG    1       23.211 -14.291   3.133  0.00  0.00    -0.166 F 
ENDBRANCH  28  34
ENDBRANCH  23  24
ENDBRANCH  21  23
ENDBRANCH  20  21
ENDBRANCH   1  20
TORSDOF 7
ENDMDL
MODEL 3
REMARK VINA RESULT:       6.1      1.415      2.007
REMARK  Name = *****
REMARK                            x       y       z     vdW  Elec       q    Type
REMARK                         _______ _______ _______ _____ _____    ______ ____
ROOT
ATOM      1  C   LIG    1       25.306 -19.193   4.263  0.00  0.00    +0.068 C 
ATOM      2  N   LIG    1       24.602 -20.061   3.276  0.00  0.00    -0.303 NA
ATOM      3  H   LIG    1       24.218 -19.448   2.553  0.00  0.00    +0.123 HD
ATOM      4  C   LIG    1       23.535 -20.901   3.838  0.00  0.00    +0.107 C 
ATOM      5  C   LIG    1       22.495 -20.184   4.744  0.00  0.00    +0.048 C 
ATOM      6  N   LIG    1       21.492 -19.516   3.948  0.00  0.00    -0.308 N 
ATOM      7  H   LIG    1       21.614 -18.665   3.418  0.00  0.00    +0.149 HD
ATOM      8  C   LIG    1       20.360 -20.290   3.736  0.00  0.00    +0.213 C 
ATOM      9  O   LIG    1       19.450 -20.011   2.991  0.00  0.00    -0.276 OA
ATOM     10  C   LIG    1       20.511 -21.565   4.548  0.00  0.00    +0.098 C 
ATOM     11  C   LIG    1       21.639 -21.210   5.511  0.00  0.00    +0.036 C 
ATOM     12  C   LIG    1       23.187 -19.229   5.719  0.00  0.00    +0.029 C 
ATOM     13  C   LIG    1       24.229 -18.358   5.013  0.00  0.00    +0.031 C 
ENDROOT
BRANCH   1  14
ATOM     14  C   LIG    1       26.237 -19.991   5.212  0.00  0.00    -0.025 A 
ATOM     15  C   LIG    1       27.634 -19.814   5.186  0.00  0.00    +0.005 A 
ATOM     16  C   LIG    1       28.478 -20.503   6.067  0.00  0.00    +0.000 A 
ATOM     17  C   LIG    1       27.946 -21.382   7.005  0.00  0.00    +0.000 A 
ATOM     18  C   LIG    1       26.572 -21.572   7.062  0.00  0.00    +0.000 A 
ATOM     19  C   LIG    1       25.729 -20.879   6.184  0.00  0.00    +0.005 A 
ENDBRANCH   1  14
BRANCH   1  20
ATOM     20  C   LIG    1       26.219 -18.211   3.431  0.00  0.00    +0.187 C 
BRANCH  20  21
ATOM     21  O   LIG    1       27.625 -18.465   3.671  0.00  0.00    -0.370 OA
BRANCH  21  23
ATOM     22  C   LIG    1       29.316 -17.403   5.027  0.00  0.00    +0.043 C 
ATOM     23  C   LIG    1       28.403 -17.260   3.808  0.00  0.00    +0.145 C 
BRANCH  23  24
ATOM     24  C   LIG    1       27.527 -16.029   3.973  0.00  0.00    -0.018 A 
ATOM     25  C   LIG    1       26.148 -16.112   3.730  0.00  0.00    +0.018 A 
ATOM     26  C   LIG    1       25.304 -15.012   3.956  0.00  0.00    +0.056 A 
ATOM     27  C   LIG    1       25.867 -13.805   4.401  0.00  0.00    +0.024 A 
ATOM     28  C   LIG    1       27.251 -13.686   4.609  0.00  0.00    +0.056 A 
ATOM     29  C   LIG    1       28.069 -14.801   4.379  0.00  0.00    +0.018 A 
BRANCH  26  30
ATOM     30  C   LIG    1       23.815 -15.163   3.750  0.00  0.00    +0.417 C 
ATOM     31  F   LIG    1       23.328 -14.264   2.849  0.00  0.00    -0.166 F 
ATOM     32  F   LIG    1       23.107 -14.964   4.894  0.00  0.00    -0.166 F 
ATOM     33  F   LIG    1       23.448 -16.390   3.287  0.00  0.00    -0.166 F 
ENDBRANCH  26  30
BRANCH  28  34
ATOM     34  C   LIG    1       27.839 -12.385   5.102  0.00  0.00    +0.417 C 
ATOM     35  F   LIG    1       28.660 -12.565   6.174  0.00  0.00    -0.166 F 
ATOM     36  F   LIG    1       26.883 -11.504   5.507  0.00  0.00    -0.166 F 
ATOM     37  F   LIG    1       28.582 -11.729   4.169  0.00  0.00    -0.166 F 
ENDBRANCH  28  34
ENDBRANCH  23  24
ENDBRANCH  21  23
ENDBRANCH  20  21
ENDBRANCH   1  20
TORSDOF 7
ENDMDL
MODEL 4
REMARK VINA RESULT:       6.4      0.378      2.975
REMARK  Name = *****
REMARK                            x       y       z     vdW  Elec       q    Type
REMARK                         _______ _______ _______ _____ _____    ______ ____
ROOT
ATOM      1  C   LIG    1       25.453 -19.163   4.178  0.00  0.00    +0.068 C 
ATOM      2  N   LIG    1       24.681 -20.102   3.314  0.00  0.00    -0.303 NA
ATOM      3  H   LIG    1       24.224 -19.541   2.591  0.00  0.00    +0.123 HD
ATOM      4  C   LIG    1       23.683 -20.917   4.020  0.00  0.00    +0.107 C 
ATOM      5  C   LIG    1       22.713 -20.156   4.969  0.00  0.00    +0.048 C 
ATOM      6  N   LIG    1       21.633 -19.553   4.224  0.00  0.00    -0.308 N 
ATOM      7  H   LIG    1       21.692 -18.736   3.633  0.00  0.00    +0.149 HD
ATOM      8  C   LIG    1       20.500 -20.353   4.162  0.00  0.00    +0.213 C 
ATOM      9  O   LIG    1       19.523 -20.134   3.486  0.00  0.00    -0.276 OA
ATOM     10  C   LIG    1       20.745 -21.572   5.037  0.00  0.00    +0.098 C 
ATOM     11  C   LIG    1       21.947 -21.141   5.872  0.00  0.00    +0.036 C 
ATOM     12  C   LIG    1       23.472 -19.132   5.816  0.00  0.00    +0.029 C 
ATOM     13  C   LIG    1       24.431 -18.296   4.967  0.00  0.00    +0.031 C 
ENDROOT
BRANCH   1  14
ATOM     14  C   LIG    1       26.478 -19.888   5.089  0.00  0.00    -0.025 A 
ATOM     15  C   LIG    1       27.865 -19.714   4.912  0.00  0.00    +0.005 A 
ATOM     16  C   LIG    1       28.795 -20.334   5.756  0.00  0.00    +0.000 A 
ATOM     17  C   LIG    1       28.365 -21.138   6.805  0.00  0.00    +0.000 A 
ATOM     18  C   LIG    1       27.003 -21.323   7.011  0.00  0.00    +0.000 A 
ATOM     19  C   LIG    1       26.074 -20.698   6.171  0.00  0.00    +0.005 A 
ENDBRANCH   1  14
BRANCH   1  20
ATOM     20  C   LIG    1       26.272 -18.226   3.208  0.00  0.00    +0.187 C 
BRANCH  20  21
ATOM     21  O   LIG    1       27.255 -17.445   3.932  0.00  0.00    -0.370 OA
BRANCH  21  23
ATOM     22  C   LIG    1       28.085 -15.282   4.608  0.00  0.00    +0.043 C 
ATOM     23  C   LIG    1       27.216 -16.042   3.605  0.00  0.00    +0.145 C 
BRANCH  23  24
ATOM     24  C   LIG    1       25.802 -15.486   3.636  0.00  0.00    -0.018 A 
ATOM     25  C   LIG    1       25.591 -14.101   3.566  0.00  0.00    +0.018 A 
ATOM     26  C   LIG    1       24.293 -13.567   3.508  0.00  0.00    +0.056 A 
ATOM     27  C   LIG    1       23.196 -14.442   3.555  0.00  0.00    +0.024 A 
ATOM     28  C   LIG    1       23.383 -15.830   3.670  0.00  0.00    +0.056 A 
ATOM     29  C   LIG    1       24.689 -16.336   3.721  0.00  0.00    +0.018 A 
BRANCH  26  30
ATOM     30  C   LIG    1       24.109 -12.075   3.362  0.00  0.00    +0.417 C 
ATOM     31  F   LIG    1       23.128 -11.764   2.469  0.00  0.00    -0.166 F 
ATOM     32  F   LIG    1       25.232 -11.451   2.914  0.00  0.00    -0.166 F 
ATOM     33  F   LIG    1       23.767 -11.449   4.522  0.00  0.00    -0.166 F 
ENDBRANCH  26  30
BRANCH  28  34
ATOM     34  C   LIG    1       22.193 -16.760   3.704  0.00  0.00    +0.417 C 
ATOM     35  F   LIG    1       22.506 -18.013   3.272  0.00  0.00    -0.166 F 
ATOM     36  F   LIG    1       21.177 -16.332   2.904  0.00  0.00    -0.166 F 
ATOM     37  F   LIG    1       21.653 -16.916   4.944  0.00  0.00    -0.166 F 
ENDBRANCH  28  34
ENDBRANCH  23  24
ENDBRANCH  21  23
ENDBRANCH  20  21
ENDBRANCH   1  20
TORSDOF 7
ENDMDL
