MODEL 1
REMARK VINA RESULT:      -8.4      0.000      0.000
REMARK  Name = *****
REMARK                            x       y       z     vdW  Elec       q    Type
REMARK                         _______ _______ _______ _____ _____    ______ ____
ROOT
ATOM      1  C   LIG    1       24.446 -27.270   5.777  0.00  0.00    +0.053 C 
ENDROOT
BRANCH   1   2
ATOM      2  C   LIG    1       24.609 -28.581   6.536  0.00  0.00    -0.045 A 
ATOM      3  C   LIG    1       24.048 -29.769   6.012  0.00  0.00    +0.018 A 
ATOM      4  C   LIG    1       24.339 -31.031   6.559  0.00  0.00    +0.058 A 
ATOM      5  C   LIG    1       25.285 -31.086   7.586  0.00  0.00    +0.045 A 
ATOM      6  N   LIG    1       26.058 -32.250   8.013  0.00  0.00    -0.329 N 
ATOM      7  C   LIG    1       26.450 -31.783   9.381  0.00  0.00    +0.110 C 
ATOM      8  C   LIG    1       26.551 -30.243   9.388  0.00  0.00    +0.056 C 
ATOM      9  C   LIG    1       25.673 -29.909   8.234  0.00  0.00    -0.024 A 
ATOM     10  C   LIG    1       25.353 -28.656   7.724  0.00  0.00    +0.009 A 
BRANCH   4  11
ATOM     11  C   LIG    1       23.566 -32.213   6.113  0.00  0.00    +0.243 C 
ATOM     12  O   LIG    1       22.830 -32.844   6.900  0.00  0.00    -0.270 OA
ATOM     13  N   LIG    1       23.738 -32.645   4.837  0.00  0.00    -0.325 N 
ATOM     14  H   LIG    1       23.280 -33.494   4.531  0.00  0.00    +0.145 HD
ATOM     15  H   LIG    1       24.378 -32.149   4.225  0.00  0.00    +0.145 HD
ENDBRANCH   4  11
BRANCH   6  16
ATOM     16  C   LIG    1       27.218 -32.374   7.060  0.00  0.00    +0.107 C 
BRANCH  16  17
ATOM     17  C   LIG    1       27.367 -33.771   6.444  0.00  0.00    +0.046 C 
BRANCH  17  18
ATOM     18  C   LIG    1       27.087 -33.825   4.949  0.00  0.00    +0.157 C 
BRANCH  18  19
ATOM     19  O   LIG    1       26.696 -32.535   4.483  0.00  0.00    -0.395 OA
ATOM     20  H   LIG    1       25.807 -32.621   4.100  0.00  0.00    +0.209 HD
ENDBRANCH  18  19
ENDBRANCH  17  18
ENDBRANCH  16  17
ENDBRANCH   6  16
ENDBRANCH   1   2
BRANCH   1  22
ATOM     21  C   LIG    1       26.055 -25.327   6.089  0.00  0.00    +0.024 C 
ATOM     22  C   LIG    1       24.694 -25.926   6.519  0.00  0.00    +0.055 C 
BRANCH  22  23
ATOM     23  N   LIG    1       23.674 -24.897   6.263  0.00  0.00    -0.310 NA
ATOM     24  H   LIG    1       23.584 -24.722   5.261  0.00  0.00    +0.122 HD
BRANCH  23  25
ATOM     25  C   LIG    1       23.947 -23.616   6.919  0.00  0.00    +0.122 C 
BRANCH  25  26
ATOM     26  C   LIG    1       22.861 -22.572   6.652  0.00  0.00    +0.244 C 
BRANCH  26  27
ATOM     27  O   LIG    1       23.298 -21.235   6.919  0.00  0.00    -0.487 OA
BRANCH  27  28
ATOM     28  C   LIG    1       23.592 -20.484   5.796  0.00  0.00    +0.162 A 
ATOM     29  C   LIG    1       24.845 -20.384   5.161  0.00  0.00    +0.162 A 
ATOM     30  C   LIG    1       24.999 -19.550   4.046  0.00  0.00    +0.049 A 
ATOM     31  C   LIG    1       23.940 -18.778   3.585  0.00  0.00    +0.004 A 
ATOM     32  C   LIG    1       22.693 -18.887   4.191  0.00  0.00    +0.004 A 
ATOM     33  C   LIG    1       22.515 -19.752   5.277  0.00  0.00    +0.049 A 
BRANCH  29  34
ATOM     34  O   LIG    1       25.896 -21.117   5.644  0.00  0.00    -0.479 OA
BRANCH  34  35
ATOM     35  C   LIG    1       26.964 -20.396   6.273  0.00  0.00    +0.342 C 
BRANCH  35  36
ATOM     36  C   LIG    1       27.140 -20.569   7.787  0.00  0.00    +0.424 C 
ATOM     37  F   LIG    1       27.529 -21.839   8.067  0.00  0.00    -0.167 F 
ATOM     38  F   LIG    1       25.969 -20.364   8.434  0.00  0.00    -0.167 F 
ATOM     39  F   LIG    1       28.048 -19.739   8.339  0.00  0.00    -0.167 F 
ENDBRANCH  35  36
ENDBRANCH  34  35
ENDBRANCH  29  34
ENDBRANCH  27  28
ENDBRANCH  26  27
ENDBRANCH  25  26
ENDBRANCH  23  25
ENDBRANCH  22  23
ENDBRANCH   1  22
TORSDOF 15
ENDMDL
MODEL 2
REMARK VINA RESULT:      -8.4      3.560      5.372
REMARK  Name = *****
REMARK                            x       y       z     vdW  Elec       q    Type
REMARK                         _______ _______ _______ _____ _____    ______ ____
ROOT
ATOM      1  C   LIG    1       25.049 -28.711   6.752  0.00  0.00    +0.053 C 
ENDROOT
BRANCH   1   2
ATOM      2  C   LIG    1       25.112 -29.218   8.187  0.00  0.00    -0.045 A 
ATOM      3  C   LIG    1       26.213 -28.871   9.005  0.00  0.00    +0.018 A 
ATOM      4  C   LIG    1       26.225 -29.137  10.386  0.00  0.00    +0.058 A 
ATOM      5  C   LIG    1       25.064 -29.672  10.949  0.00  0.00    +0.045 A 
ATOM      6  N   LIG    1       24.667 -29.638  12.354  0.00  0.00    -0.329 N 
ATOM      7  C   LIG    1       23.672 -30.758  12.345  0.00  0.00    +0.110 C 
ATOM      8  C   LIG    1       23.024 -30.856  10.948  0.00  0.00    +0.056 C 
ATOM      9  C   LIG    1       24.071 -30.202  10.117  0.00  0.00    -0.024 A 
ATOM     10  C   LIG    1       24.074 -29.981   8.745  0.00  0.00    +0.009 A 
BRANCH   4  11
ATOM     11  C   LIG    1       27.478 -28.948  11.151  0.00  0.00    +0.243 C 
ATOM     12  O   LIG    1       28.368 -29.824  11.169  0.00  0.00    -0.270 OA
ATOM     13  N   LIG    1       27.605 -27.826  11.905  0.00  0.00    -0.325 N 
ATOM     14  H   LIG    1       28.418 -27.710  12.496  0.00  0.00    +0.145 HD
ATOM     15  H   LIG    1       26.851 -27.147  11.918  0.00  0.00    +0.145 HD
ENDBRANCH   4  11
BRANCH   6  16
ATOM     16  C   LIG    1       24.055 -28.285  12.600  0.00  0.00    +0.107 C 
BRANCH  16  17
ATOM     17  C   LIG    1       22.851 -28.314  13.551  0.00  0.00    +0.046 C 
BRANCH  17  18
ATOM     18  C   LIG    1       21.632 -27.562  13.034  0.00  0.00    +0.157 C 
BRANCH  18  19
ATOM     19  O   LIG    1       20.729 -28.474  12.411  0.00  0.00    -0.395 OA
ATOM     20  H   LIG    1       20.624 -28.194  11.486  0.00  0.00    +0.209 HD
ENDBRANCH  18  19
ENDBRANCH  17  18
ENDBRANCH  16  17
ENDBRANCH   6  16
ENDBRANCH   1   2
BRANCH   1  22
ATOM     21  C   LIG    1       26.363 -26.847   5.630  0.00  0.00    +0.024 C 
ATOM     22  C   LIG    1       25.115 -27.181   6.482  0.00  0.00    +0.055 C 
BRANCH  22  23
ATOM     23  N   LIG    1       23.950 -26.642   5.762  0.00  0.00    -0.310 NA
ATOM     24  H   LIG    1       23.818 -27.132   4.876  0.00  0.00    +0.122 HD
BRANCH  23  25
ATOM     25  C   LIG    1       24.042 -25.209   5.473  0.00  0.00    +0.122 C 
BRANCH  25  26
ATOM     26  C   LIG    1       23.801 -24.340   6.708  0.00  0.00    +0.244 C 
BRANCH  26  27
ATOM     27  O   LIG    1       23.542 -22.970   6.382  0.00  0.00    -0.487 OA
BRANCH  27  28
ATOM     28  C   LIG    1       24.596 -22.107   6.615  0.00  0.00    +0.162 A 
ATOM     29  C   LIG    1       25.147 -21.192   5.697  0.00  0.00    +0.162 A 
ATOM     30  C   LIG    1       26.243 -20.403   6.068  0.00  0.00    +0.049 A 
ATOM     31  C   LIG    1       26.831 -20.548   7.319  0.00  0.00    +0.004 A 
ATOM     32  C   LIG    1       26.282 -21.432   8.240  0.00  0.00    +0.004 A 
ATOM     33  C   LIG    1       25.157 -22.193   7.897  0.00  0.00    +0.049 A 
BRANCH  29  34
ATOM     34  O   LIG    1       24.588 -21.081   4.451  0.00  0.00    -0.479 OA
BRANCH  34  35
ATOM     35  C   LIG    1       23.838 -19.892   4.173  0.00  0.00    +0.342 C 
BRANCH  35  36
ATOM     36  C   LIG    1       22.487 -19.725   4.880  0.00  0.00    +0.424 C 
ATOM     37  F   LIG    1       21.771 -20.875   4.790  0.00  0.00    -0.167 F 
ATOM     38  F   LIG    1       21.751 -18.755   4.290  0.00  0.00    -0.167 F 
ATOM     39  F   LIG    1       22.581 -19.411   6.188  0.00  0.00    -0.167 F 
ENDBRANCH  35  36
ENDBRANCH  34  35
ENDBRANCH  29  34
ENDBRANCH  27  28
ENDBRANCH  26  27
ENDBRANCH  25  26
ENDBRANCH  23  25
ENDBRANCH  22  23
ENDBRANCH   1  22
TORSDOF 15
ENDMDL
MODEL 3
REMARK VINA RESULT:      -8.4      1.483      2.752
REMARK  Name = *****
REMARK                            x       y       z     vdW  Elec       q    Type
REMARK                         _______ _______ _______ _____ _____    ______ ____
ROOT
ATOM      1  C   LIG    1       24.391 -27.107   5.553  0.00  0.00    +0.053 C 
ENDROOT
BRANCH   1   2
ATOM      2  C   LIG    1       24.906 -28.479   5.973  0.00  0.00    -0.045 A 
ATOM      3  C   LIG    1       25.113 -28.761   7.343  0.00  0.00    +0.018 A 
ATOM      4  C   LIG    1       25.388 -30.062   7.800  0.00  0.00    +0.058 A 
ATOM      5  C   LIG    1       25.354 -31.096   6.860  0.00  0.00    +0.045 A 
ATOM      6  N   LIG    1       25.178 -32.522   7.122  0.00  0.00    -0.329 N 
ATOM      7  C   LIG    1       25.727 -33.066   5.838  0.00  0.00    +0.110 C 
ATOM      8  C   LIG    1       25.489 -32.046   4.706  0.00  0.00    +0.056 C 
ATOM      9  C   LIG    1       25.359 -30.790   5.494  0.00  0.00    -0.024 A 
ATOM     10  C   LIG    1       25.131 -29.499   5.035  0.00  0.00    +0.009 A 
BRANCH   4  11
ATOM     11  C   LIG    1       25.804 -30.266   9.206  0.00  0.00    +0.243 C 
ATOM     12  O   LIG    1       24.967 -30.482  10.108  0.00  0.00    -0.270 OA
ATOM     13  N   LIG    1       27.120 -30.133   9.509  0.00  0.00    -0.325 N 
ATOM     14  H   LIG    1       27.420 -30.192  10.474  0.00  0.00    +0.145 HD
ATOM     15  H   LIG    1       27.781 -29.908   8.772  0.00  0.00    +0.145 HD
ENDBRANCH   4  11
BRANCH   6  16
ATOM     16  C   LIG    1       23.700 -32.752   7.294  0.00  0.00    +0.107 C 
BRANCH  16  17
ATOM     17  C   LIG    1       23.344 -33.589   8.531  0.00  0.00    +0.046 C 
BRANCH  17  18
ATOM     18  C   LIG    1       22.521 -32.842   9.571  0.00  0.00    +0.157 C 
BRANCH  18  19
ATOM     19  O   LIG    1       22.405 -31.469   9.201  0.00  0.00    -0.395 OA
ATOM     20  H   LIG    1       22.999 -31.321   8.445  0.00  0.00    +0.209 HD
ENDBRANCH  18  19
ENDBRANCH  17  18
ENDBRANCH  16  17
ENDBRANCH   6  16
ENDBRANCH   1   2
BRANCH   1  22
ATOM     21  C   LIG    1       25.919 -25.287   6.455  0.00  0.00    +0.024 C 
ATOM     22  C   LIG    1       24.508 -25.916   6.546  0.00  0.00    +0.055 C 
BRANCH  22  23
ATOM     23  N   LIG    1       23.541 -24.832   6.306  0.00  0.00    -0.310 NA
ATOM     24  H   LIG    1       23.217 -24.848   5.338  0.00  0.00    +0.122 HD
BRANCH  23  25
ATOM     25  C   LIG    1       24.071 -23.494   6.580  0.00  0.00    +0.122 C 
BRANCH  25  26
ATOM     26  C   LIG    1       22.977 -22.487   6.939  0.00  0.00    +0.244 C 
BRANCH  26  27
ATOM     27  O   LIG    1       23.479 -21.157   7.104  0.00  0.00    -0.487 OA
BRANCH  27  28
ATOM     28  C   LIG    1       23.672 -20.457   5.928  0.00  0.00    +0.162 A 
ATOM     29  C   LIG    1       24.872 -20.362   5.197  0.00  0.00    +0.162 A 
ATOM     30  C   LIG    1       24.924 -19.582   4.035  0.00  0.00    +0.049 A 
ATOM     31  C   LIG    1       23.815 -18.857   3.616  0.00  0.00    +0.004 A 
ATOM     32  C   LIG    1       22.619 -18.962   4.317  0.00  0.00    +0.004 A 
ATOM     33  C   LIG    1       22.541 -19.775   5.455  0.00  0.00    +0.049 A 
BRANCH  29  34
ATOM     34  O   LIG    1       25.974 -21.047   5.636  0.00  0.00    -0.479 OA
BRANCH  34  35
ATOM     35  C   LIG    1       27.037 -20.279   6.214  0.00  0.00    +0.342 C 
BRANCH  35  36
ATOM     36  C   LIG    1       27.295 -20.445   7.717  0.00  0.00    +0.424 C 
ATOM     37  F   LIG    1       27.581 -21.742   7.998  0.00  0.00    -0.167 F 
ATOM     38  F   LIG    1       26.193 -20.120   8.433  0.00  0.00    -0.167 F 
ATOM     39  F   LIG    1       28.311 -19.697   8.191  0.00  0.00    -0.167 F 
ENDBRANCH  35  36
ENDBRANCH  34  35
ENDBRANCH  29  34
ENDBRANCH  27  28
ENDBRANCH  26  27
ENDBRANCH  25  26
ENDBRANCH  23  25
ENDBRANCH  22  23
ENDBRANCH   1  22
TORSDOF 15
ENDMDL
MODEL 4
REMARK VINA RESULT:      -8.4      4.276     10.521
REMARK  Name = *****
REMARK                            x       y       z     vdW  Elec       q    Type
REMARK                         _______ _______ _______ _____ _____    ______ ____
ROOT
ATOM      1  C   LIG    1       25.195 -26.184   6.678  0.00  0.00    +0.053 C 
ENDROOT
BRANCH   1   2
ATOM      2  C   LIG    1       25.007 -24.678   6.808  0.00  0.00    -0.045 A 
ATOM      3  C   LIG    1       26.121 -23.855   7.095  0.00  0.00    +0.018 A 
ATOM      4  C   LIG    1       26.046 -22.452   7.023  0.00  0.00    +0.058 A 
ATOM      5  C   LIG    1       24.852 -21.894   6.561  0.00  0.00    +0.045 A 
ATOM      6  N   LIG    1       24.660 -20.558   6.001  0.00  0.00    -0.329 N 
ATOM      7  C   LIG    1       23.180 -20.433   6.192  0.00  0.00    +0.110 C 
ATOM      8  C   LIG    1       22.535 -21.833   6.128  0.00  0.00    +0.056 C 
ATOM      9  C   LIG    1       23.701 -22.686   6.482  0.00  0.00    -0.024 A 
ATOM     10  C   LIG    1       23.760 -24.070   6.595  0.00  0.00    +0.009 A 
BRANCH   4  11
ATOM     11  C   LIG    1       27.171 -21.637   7.536  0.00  0.00    +0.243 C 
ATOM     12  O   LIG    1       27.261 -21.339   8.745  0.00  0.00    -0.270 OA
ATOM     13  N   LIG    1       28.067 -21.150   6.640  0.00  0.00    -0.325 N 
ATOM     14  H   LIG    1       28.801 -20.527   6.955  0.00  0.00    +0.145 HD
ATOM     15  H   LIG    1       27.952 -21.360   5.654  0.00  0.00    +0.145 HD
ENDBRANCH   4  11
BRANCH   6  16
ATOM     16  C   LIG    1       25.081 -20.629   4.557  0.00  0.00    +0.107 C 
BRANCH  16  17
ATOM     17  C   LIG    1       24.278 -19.704   3.632  0.00  0.00    +0.046 C 
BRANCH  17  18
ATOM     18  C   LIG    1       24.864 -18.305   3.492  0.00  0.00    +0.157 C 
BRANCH  18  19
ATOM     19  O   LIG    1       26.288 -18.375   3.487  0.00  0.00    -0.395 OA
ATOM     20  H   LIG    1       26.540 -19.193   3.950  0.00  0.00    +0.209 HD
ENDBRANCH  18  19
ENDBRANCH  17  18
ENDBRANCH  16  17
ENDBRANCH   6  16
ENDBRANCH   1   2
BRANCH   1  22
ATOM     21  C   LIG    1       26.362 -27.255   4.690  0.00  0.00    +0.024 C 
ATOM     22  C   LIG    1       24.992 -26.859   5.292  0.00  0.00    +0.055 C 
BRANCH  22  23
ATOM     23  N   LIG    1       24.172 -28.081   5.328  0.00  0.00    -0.310 NA
ATOM     24  H   LIG    1       23.672 -28.151   6.216  0.00  0.00    +0.122 HD
BRANCH  23  25
ATOM     25  C   LIG    1       24.939 -29.315   5.145  0.00  0.00    +0.122 C 
BRANCH  25  26
ATOM     26  C   LIG    1       24.690 -30.336   6.257  0.00  0.00    +0.244 C 
BRANCH  26  27
ATOM     27  O   LIG    1       23.762 -29.869   7.242  0.00  0.00    -0.487 OA
BRANCH  27  28
ATOM     28  C   LIG    1       24.247 -29.850   8.536  0.00  0.00    +0.162 A 
ATOM     29  C   LIG    1       23.588 -30.332   9.684  0.00  0.00    +0.162 A 
ATOM     30  C   LIG    1       24.195 -30.211  10.941  0.00  0.00    +0.049 A 
ATOM     31  C   LIG    1       25.423 -29.573  11.078  0.00  0.00    +0.004 A 
ATOM     32  C   LIG    1       26.091 -29.115   9.949  0.00  0.00    +0.004 A 
ATOM     33  C   LIG    1       25.516 -29.271   8.682  0.00  0.00    +0.049 A 
BRANCH  29  34
ATOM     34  O   LIG    1       22.361 -30.923   9.548  0.00  0.00    -0.479 OA
BRANCH  34  35
ATOM     35  C   LIG    1       21.704 -31.355  10.747  0.00  0.00    +0.342 C 
BRANCH  35  36
ATOM     36  C   LIG    1       20.456 -30.579  11.190  0.00  0.00    +0.424 C 
ATOM     37  F   LIG    1       19.641 -30.368  10.125  0.00  0.00    -0.167 F 
ATOM     38  F   LIG    1       20.793 -29.362  11.676  0.00  0.00    -0.167 F 
ATOM     39  F   LIG    1       19.726 -31.199  12.139  0.00  0.00    -0.167 F 
ENDBRANCH  35  36
ENDBRANCH  34  35
ENDBRANCH  29  34
ENDBRANCH  27  28
ENDBRANCH  26  27
ENDBRANCH  25  26
ENDBRANCH  23  25
ENDBRANCH  22  23
ENDBRANCH   1  22
TORSDOF 15
ENDMDL
MODEL 5
REMARK VINA RESULT:      -8.4      2.838      4.397
REMARK  Name = *****
REMARK                            x       y       z     vdW  Elec       q    Type
REMARK                         _______ _______ _______ _____ _____    ______ ____
ROOT
ATOM      1  C   LIG    1       25.119 -26.487   5.715  0.00  0.00    +0.053 C 
ENDROOT
BRANCH   1   2
ATOM      2  C   LIG    1       25.249 -27.799   6.480  0.00  0.00    -0.045 A 
ATOM      3  C   LIG    1       25.908 -27.818   7.731  0.00  0.00    +0.018 A 
ATOM      4  C   LIG    1       25.878 -28.948   8.568  0.00  0.00    +0.058 A 
ATOM      5  C   LIG    1       25.089 -30.028   8.165  0.00  0.00    +0.045 A 
ATOM      6  N   LIG    1       24.557 -31.096   9.008  0.00  0.00    -0.329 N 
ATOM      7  C   LIG    1       24.278 -32.116   7.947  0.00  0.00    +0.110 C 
ATOM      8  C   LIG    1       23.952 -31.399   6.621  0.00  0.00    +0.056 C 
ATOM      9  C   LIG    1       24.617 -30.089   6.849  0.00  0.00    -0.024 A 
ATOM     10  C   LIG    1       24.681 -28.990   6.000  0.00  0.00    +0.009 A 
BRANCH   4  11
ATOM     11  C   LIG    1       26.755 -28.991   9.761  0.00  0.00    +0.243 C 
ATOM     12  O   LIG    1       27.665 -29.839   9.870  0.00  0.00    -0.270 OA
ATOM     13  N   LIG    1       26.492 -28.132  10.779  0.00  0.00    -0.325 N 
ATOM     14  H   LIG    1       27.027 -28.193  11.636  0.00  0.00    +0.145 HD
ATOM     15  H   LIG    1       25.717 -27.482  10.695  0.00  0.00    +0.145 HD
ENDBRANCH   4  11
BRANCH   6  16
ATOM     16  C   LIG    1       23.317 -30.551   9.666  0.00  0.00    +0.107 C 
BRANCH  16  17
ATOM     17  C   LIG    1       23.366 -30.580  11.200  0.00  0.00    +0.046 C 
BRANCH  17  18
ATOM     18  C   LIG    1       24.429 -31.509  11.770  0.00  0.00    +0.157 C 
BRANCH  18  19
ATOM     19  O   LIG    1       25.586 -30.756  12.129  0.00  0.00    -0.395 OA
ATOM     20  H   LIG    1       26.331 -31.379  12.187  0.00  0.00    +0.209 HD
ENDBRANCH  18  19
ENDBRANCH  17  18
ENDBRANCH  16  17
ENDBRANCH   6  16
ENDBRANCH   1   2
BRANCH   1  22
ATOM     21  C   LIG    1       25.993 -24.258   6.568  0.00  0.00    +0.024 C 
ATOM     22  C   LIG    1       24.758 -25.188   6.490  0.00  0.00    +0.055 C 
BRANCH  22  23
ATOM     23  N   LIG    1       23.671 -24.404   5.883  0.00  0.00    -0.310 NA
ATOM     24  H   LIG    1       24.037 -23.780   5.163  0.00  0.00    +0.122 HD
BRANCH  23  25
ATOM     25  C   LIG    1       22.920 -23.590   6.842  0.00  0.00    +0.122 C 
BRANCH  25  26
ATOM     26  C   LIG    1       22.673 -22.166   6.343  0.00  0.00    +0.244 C 
BRANCH  26  27
ATOM     27  O   LIG    1       23.247 -21.170   7.196  0.00  0.00    -0.487 OA
BRANCH  27  28
ATOM     28  C   LIG    1       24.555 -20.836   6.904  0.00  0.00    +0.162 A 
ATOM     29  C   LIG    1       25.088 -20.577   5.625  0.00  0.00    +0.162 A 
ATOM     30  C   LIG    1       26.450 -20.284   5.481  0.00  0.00    +0.049 A 
ATOM     31  C   LIG    1       27.299 -20.294   6.582  0.00  0.00    +0.004 A 
ATOM     32  C   LIG    1       26.780 -20.526   7.850  0.00  0.00    +0.004 A 
ATOM     33  C   LIG    1       25.411 -20.775   8.013  0.00  0.00    +0.049 A 
BRANCH  29  34
ATOM     34  O   LIG    1       24.255 -20.608   4.539  0.00  0.00    -0.479 OA
BRANCH  34  35
ATOM     35  C   LIG    1       23.718 -19.357   4.090  0.00  0.00    +0.342 C 
BRANCH  35  36
ATOM     36  C   LIG    1       22.286 -19.006   4.515  0.00  0.00    +0.424 C 
ATOM     37  F   LIG    1       22.277 -18.578   5.803  0.00  0.00    -0.167 F 
ATOM     38  F   LIG    1       21.486 -20.096   4.456  0.00  0.00    -0.167 F 
ATOM     39  F   LIG    1       21.705 -18.046   3.767  0.00  0.00    -0.167 F 
ENDBRANCH  35  36
ENDBRANCH  34  35
ENDBRANCH  29  34
ENDBRANCH  27  28
ENDBRANCH  26  27
ENDBRANCH  25  26
ENDBRANCH  23  25
ENDBRANCH  22  23
ENDBRANCH   1  22
TORSDOF 15
ENDMDL
MODEL 6
REMARK VINA RESULT:      -8.3      1.364      2.216
REMARK  Name = *****
REMARK                            x       y       z     vdW  Elec       q    Type
REMARK                         _______ _______ _______ _____ _____    ______ ____
ROOT
ATOM      1  C   LIG    1       24.508 -27.186   5.343  0.00  0.00    +0.053 C 
ENDROOT
BRANCH   1   2
ATOM      2  C   LIG    1       24.515 -28.614   5.875  0.00  0.00    -0.045 A 
ATOM      3  C   LIG    1       25.154 -29.635   5.134  0.00  0.00    +0.018 A 
ATOM      4  C   LIG    1       25.368 -30.918   5.668  0.00  0.00    +0.058 A 
ATOM      5  C   LIG    1       25.013 -31.127   7.003  0.00  0.00    +0.045 A 
ATOM      6  N   LIG    1       25.503 -32.177   7.893  0.00  0.00    -0.329 N 
ATOM      7  C   LIG    1       24.412 -32.144   8.919  0.00  0.00    +0.110 C 
ATOM      8  C   LIG    1       23.828 -30.718   9.001  0.00  0.00    +0.056 C 
ATOM      9  C   LIG    1       24.200 -30.195   7.658  0.00  0.00    -0.024 A 
ATOM     10  C   LIG    1       23.948 -28.940   7.118  0.00  0.00    +0.009 A 
BRANCH   4  11
ATOM     11  C   LIG    1       25.846 -32.005   4.782  0.00  0.00    +0.243 C 
ATOM     12  O   LIG    1       26.867 -32.667   5.058  0.00  0.00    -0.270 OA
ATOM     13  N   LIG    1       25.187 -32.212   3.614  0.00  0.00    -0.325 N 
ATOM     14  H   LIG    1       25.538 -32.897   2.956  0.00  0.00    +0.145 HD
ATOM     15  H   LIG    1       24.387 -31.632   3.382  0.00  0.00    +0.145 HD
ENDBRANCH   4  11
BRANCH   6  16
ATOM     16  C   LIG    1       26.839 -31.715   8.414  0.00  0.00    +0.107 C 
BRANCH  16  17
ATOM     17  C   LIG    1       26.851 -31.433   9.923  0.00  0.00    +0.046 C 
BRANCH  17  18
ATOM     18  C   LIG    1       27.166 -29.987  10.282  0.00  0.00    +0.157 C 
BRANCH  18  19
ATOM     19  O   LIG    1       27.288 -29.209   9.093  0.00  0.00    -0.395 OA
ATOM     20  H   LIG    1       26.477 -28.679   9.008  0.00  0.00    +0.209 HD
ENDBRANCH  18  19
ENDBRANCH  17  18
ENDBRANCH  16  17
ENDBRANCH   6  16
ENDBRANCH   1   2
BRANCH   1  22
ATOM     21  C   LIG    1       25.999 -25.335   6.243  0.00  0.00    +0.024 C 
ATOM     22  C   LIG    1       24.606 -26.001   6.346  0.00  0.00    +0.055 C 
BRANCH  22  23
ATOM     23  N   LIG    1       23.608 -24.942   6.130  0.00  0.00    -0.310 NA
ATOM     24  H   LIG    1       23.538 -24.712   5.138  0.00  0.00    +0.122 HD
BRANCH  23  25
ATOM     25  C   LIG    1       23.891 -23.703   6.859  0.00  0.00    +0.122 C 
BRANCH  25  26
ATOM     26  C   LIG    1       22.800 -22.647   6.676  0.00  0.00    +0.244 C 
BRANCH  26  27
ATOM     27  O   LIG    1       23.257 -21.321   6.960  0.00  0.00    -0.487 OA
BRANCH  27  28
ATOM     28  C   LIG    1       23.592 -20.570   5.849  0.00  0.00    +0.162 A 
ATOM     29  C   LIG    1       24.874 -20.445   5.279  0.00  0.00    +0.162 A 
ATOM     30  C   LIG    1       25.067 -19.615   4.168  0.00  0.00    +0.049 A 
ATOM     31  C   LIG    1       24.017 -18.868   3.648  0.00  0.00    +0.004 A 
ATOM     32  C   LIG    1       22.743 -19.000   4.190  0.00  0.00    +0.004 A 
ATOM     33  C   LIG    1       22.527 -19.863   5.271  0.00  0.00    +0.049 A 
BRANCH  29  34
ATOM     34  O   LIG    1       25.914 -21.153   5.819  0.00  0.00    -0.479 OA
BRANCH  34  35
ATOM     35  C   LIG    1       27.072 -20.411   6.223  0.00  0.00    +0.342 C 
BRANCH  35  36
ATOM     36  C   LIG    1       27.862 -20.932   7.431  0.00  0.00    +0.424 C 
ATOM     37  F   LIG    1       28.304 -19.889   8.180  0.00  0.00    -0.167 F 
ATOM     38  F   LIG    1       28.955 -21.621   7.030  0.00  0.00    -0.167 F 
ATOM     39  F   LIG    1       27.157 -21.742   8.246  0.00  0.00    -0.167 F 
ENDBRANCH  35  36
ENDBRANCH  34  35
ENDBRANCH  29  34
ENDBRANCH  27  28
ENDBRANCH  26  27
ENDBRANCH  25  26
ENDBRANCH  23  25
ENDBRANCH  22  23
ENDBRANCH   1  22
TORSDOF 15
ENDMDL
MODEL 7
REMARK VINA RESULT:      -8.3      4.778     11.248
REMARK  Name = *****
REMARK                            x       y       z     vdW  Elec       q    Type
REMARK                         _______ _______ _______ _____ _____    ______ ____
ROOT
ATOM      1  C   LIG    1       25.438 -21.700   6.747  0.00  0.00    +0.053 C 
ENDROOT
BRANCH   1   2
ATOM      2  C   LIG    1       26.894 -21.260   6.828  0.00  0.00    -0.045 A 
ATOM      3  C   LIG    1       27.331 -20.140   6.083  0.00  0.00    +0.018 A 
ATOM      4  C   LIG    1       28.601 -19.570   6.275  0.00  0.00    +0.058 A 
ATOM      5  C   LIG    1       29.392 -20.089   7.303  0.00  0.00    +0.045 A 
ATOM      6  N   LIG    1       30.513 -19.434   7.972  0.00  0.00    -0.329 N 
ATOM      7  C   LIG    1       31.184 -20.644   8.547  0.00  0.00    +0.110 C 
ATOM      8  C   LIG    1       30.126 -21.731   8.829  0.00  0.00    +0.056 C 
ATOM      9  C   LIG    1       29.051 -21.314   7.888  0.00  0.00    -0.024 A 
ATOM     10  C   LIG    1       27.813 -21.907   7.670  0.00  0.00    +0.009 A 
BRANCH   4  11
ATOM     11  C   LIG    1       29.087 -18.539   5.328  0.00  0.00    +0.243 C 
ATOM     12  O   LIG    1       30.279 -18.168   5.326  0.00  0.00    -0.270 OA
ATOM     13  N   LIG    1       28.180 -17.946   4.510  0.00  0.00    -0.325 N 
ATOM     14  H   LIG    1       28.472 -17.186   3.909  0.00  0.00    +0.145 HD
ATOM     15  H   LIG    1       27.206 -18.224   4.560  0.00  0.00    +0.145 HD
ENDBRANCH   4  11
BRANCH   6  16
ATOM     16  C   LIG    1       29.923 -18.518   9.011  0.00  0.00    +0.107 C 
BRANCH  16  17
ATOM     17  C   LIG    1       30.612 -17.149   9.091  0.00  0.00    +0.046 C 
BRANCH  17  18
ATOM     18  C   LIG    1       32.132 -17.219   9.150  0.00  0.00    +0.157 C 
BRANCH  18  19
ATOM     19  O   LIG    1       32.687 -15.943   8.838  0.00  0.00    -0.395 OA
ATOM     20  H   LIG    1       32.118 -15.536   8.163  0.00  0.00    +0.209 HD
ENDBRANCH  18  19
ENDBRANCH  17  18
ENDBRANCH  16  17
ENDBRANCH   6  16
ENDBRANCH   1   2
BRANCH   1  22
ATOM     21  C   LIG    1       23.569 -23.423   6.785  0.00  0.00    +0.024 C 
ATOM     22  C   LIG    1       25.102 -23.219   6.731  0.00  0.00    +0.055 C 
BRANCH  22  23
ATOM     23  N   LIG    1       25.587 -23.932   5.538  0.00  0.00    -0.310 NA
ATOM     24  H   LIG    1       25.521 -23.336   4.712  0.00  0.00    +0.122 HD
BRANCH  23  25
ATOM     25  C   LIG    1       24.862 -25.173   5.254  0.00  0.00    +0.122 C 
BRANCH  25  26
ATOM     26  C   LIG    1       25.685 -26.424   5.566  0.00  0.00    +0.244 C 
BRANCH  26  27
ATOM     27  O   LIG    1       24.874 -27.584   5.778  0.00  0.00    -0.487 OA
BRANCH  27  28
ATOM     28  C   LIG    1       25.162 -28.293   6.929  0.00  0.00    +0.162 A 
ATOM     29  C   LIG    1       24.606 -29.530   7.311  0.00  0.00    +0.162 A 
ATOM     30  C   LIG    1       24.971 -30.113   8.531  0.00  0.00    +0.049 A 
ATOM     31  C   LIG    1       25.840 -29.462   9.398  0.00  0.00    +0.004 A 
ATOM     32  C   LIG    1       26.411 -28.252   9.020  0.00  0.00    +0.004 A 
ATOM     33  C   LIG    1       26.090 -27.681   7.782  0.00  0.00    +0.049 A 
BRANCH  29  34
ATOM     34  O   LIG    1       23.719 -30.149   6.471  0.00  0.00    -0.479 OA
BRANCH  34  35
ATOM     35  C   LIG    1       24.005 -31.504   6.100  0.00  0.00    +0.342 C 
BRANCH  35  36
ATOM     36  C   LIG    1       25.280 -31.762   5.286  0.00  0.00    +0.424 C 
ATOM     37  F   LIG    1       26.310 -32.055   6.119  0.00  0.00    -0.167 F 
ATOM     38  F   LIG    1       25.637 -30.658   4.589  0.00  0.00    -0.167 F 
ATOM     39  F   LIG    1       25.177 -32.774   4.401  0.00  0.00    -0.167 F 
ENDBRANCH  35  36
ENDBRANCH  34  35
ENDBRANCH  29  34
ENDBRANCH  27  28
ENDBRANCH  26  27
ENDBRANCH  25  26
ENDBRANCH  23  25
ENDBRANCH  22  23
ENDBRANCH   1  22
TORSDOF 15
ENDMDL
MODEL 8
REMARK VINA RESULT:      -8.2      2.263      3.667
REMARK  Name = *****
REMARK                            x       y       z     vdW  Elec       q    Type
REMARK                         _______ _______ _______ _____ _____    ______ ____
ROOT
ATOM      1  C   LIG    1       25.268 -26.512   5.906  0.00  0.00    +0.053 C 
ENDROOT
BRANCH   1   2
ATOM      2  C   LIG    1       25.364 -27.827   6.670  0.00  0.00    -0.045 A 
ATOM      3  C   LIG    1       26.022 -27.864   7.922  0.00  0.00    +0.018 A 
ATOM      4  C   LIG    1       25.963 -28.993   8.758  0.00  0.00    +0.058 A 
ATOM      5  C   LIG    1       25.147 -30.052   8.354  0.00  0.00    +0.045 A 
ATOM      6  N   LIG    1       24.587 -31.106   9.196  0.00  0.00    -0.329 N 
ATOM      7  C   LIG    1       24.282 -32.119   8.135  0.00  0.00    +0.110 C 
ATOM      8  C   LIG    1       23.975 -31.393   6.808  0.00  0.00    +0.056 C 
ATOM      9  C   LIG    1       24.674 -30.100   7.038  0.00  0.00    -0.024 A 
ATOM     10  C   LIG    1       24.766 -29.003   6.189  0.00  0.00    +0.009 A 
BRANCH   4  11
ATOM     11  C   LIG    1       26.837 -29.059   9.952  0.00  0.00    +0.243 C 
ATOM     12  O   LIG    1       27.672 -29.976  10.096  0.00  0.00    -0.270 OA
ATOM     13  N   LIG    1       26.653 -28.138  10.931  0.00  0.00    -0.325 N 
ATOM     14  H   LIG    1       27.185 -28.207  11.790  0.00  0.00    +0.145 HD
ATOM     15  H   LIG    1       25.935 -27.428  10.820  0.00  0.00    +0.145 HD
ENDBRANCH   4  11
BRANCH   6  16
ATOM     16  C   LIG    1       23.361 -30.530   9.854  0.00  0.00    +0.107 C 
BRANCH  16  17
ATOM     17  C   LIG    1       23.409 -30.560  11.388  0.00  0.00    +0.046 C 
BRANCH  17  18
ATOM     18  C   LIG    1       23.009 -29.248  12.048  0.00  0.00    +0.157 C 
BRANCH  18  19
ATOM     19  O   LIG    1       24.176 -28.530  12.444  0.00  0.00    -0.395 OA
ATOM     20  H   LIG    1       23.955 -28.039  13.253  0.00  0.00    +0.209 HD
ENDBRANCH  18  19
ENDBRANCH  17  18
ENDBRANCH  16  17
ENDBRANCH   6  16
ENDBRANCH   1   2
BRANCH   1  22
ATOM     21  C   LIG    1       25.926 -24.200   6.731  0.00  0.00    +0.024 C 
ATOM     22  C   LIG    1       24.779 -25.236   6.648  0.00  0.00    +0.055 C 
BRANCH  22  23
ATOM     23  N   LIG    1       23.640 -24.561   6.005  0.00  0.00    -0.310 NA
ATOM     24  H   LIG    1       23.955 -24.005   5.209  0.00  0.00    +0.122 HD
BRANCH  23  25
ATOM     25  C   LIG    1       22.891 -23.677   6.902  0.00  0.00    +0.122 C 
BRANCH  25  26
ATOM     26  C   LIG    1       22.416 -22.399   6.210  0.00  0.00    +0.244 C 
BRANCH  26  27
ATOM     27  O   LIG    1       23.144 -21.239   6.625  0.00  0.00    -0.487 OA
BRANCH  27  28
ATOM     28  C   LIG    1       23.573 -20.422   5.596  0.00  0.00    +0.162 A 
ATOM     29  C   LIG    1       24.886 -20.327   5.093  0.00  0.00    +0.162 A 
ATOM     30  C   LIG    1       25.177 -19.422   4.064  0.00  0.00    +0.049 A 
ATOM     31  C   LIG    1       24.195 -18.576   3.563  0.00  0.00    +0.004 A 
ATOM     32  C   LIG    1       22.892 -18.677   4.037  0.00  0.00    +0.004 A 
ATOM     33  C   LIG    1       22.578 -19.610   5.033  0.00  0.00    +0.049 A 
BRANCH  29  34
ATOM     34  O   LIG    1       25.858 -21.135   5.618  0.00  0.00    -0.479 OA
BRANCH  34  35
ATOM     35  C   LIG    1       26.976 -20.494   6.247  0.00  0.00    +0.342 C 
BRANCH  35  36
ATOM     36  C   LIG    1       27.053 -20.546   7.778  0.00  0.00    +0.424 C 
ATOM     37  F   LIG    1       25.858 -20.189   8.315  0.00  0.00    -0.167 F 
ATOM     38  F   LIG    1       27.972 -19.668   8.244  0.00  0.00    -0.167 F 
ATOM     39  F   LIG    1       27.372 -21.757   8.276  0.00  0.00    -0.167 F 
ENDBRANCH  35  36
ENDBRANCH  34  35
ENDBRANCH  29  34
ENDBRANCH  27  28
ENDBRANCH  26  27
ENDBRANCH  25  26
ENDBRANCH  23  25
ENDBRANCH  22  23
ENDBRANCH   1  22
TORSDOF 15
ENDMDL
MODEL 9
REMARK VINA RESULT:      -8.2      3.326      4.984
REMARK  Name = *****
REMARK                            x       y       z     vdW  Elec       q    Type
REMARK                         _______ _______ _______ _____ _____    ______ ____
ROOT
ATOM      1  C   LIG    1       25.041 -27.582   6.764  0.00  0.00    +0.053 C 
ENDROOT
BRANCH   1   2
ATOM      2  C   LIG    1       25.288 -28.626   7.846  0.00  0.00    -0.045 A 
ATOM      3  C   LIG    1       26.245 -28.374   8.858  0.00  0.00    +0.018 A 
ATOM      4  C   LIG    1       26.367 -29.203   9.987  0.00  0.00    +0.058 A 
ATOM      5  C   LIG    1       25.440 -30.239  10.129  0.00  0.00    +0.045 A 
ATOM      6  N   LIG    1       25.082 -30.941  11.359  0.00  0.00    -0.329 N 
ATOM      7  C   LIG    1       24.482 -32.176  10.759  0.00  0.00    +0.110 C 
ATOM      8  C   LIG    1       23.868 -31.832   9.386  0.00  0.00    +0.056 C 
ATOM      9  C   LIG    1       24.643 -30.610   9.040  0.00  0.00    -0.024 A 
ATOM     10  C   LIG    1       24.549 -29.818   7.901  0.00  0.00    +0.009 A 
BRANCH   4  11
ATOM     11  C   LIG    1       27.516 -29.019  10.902  0.00  0.00    +0.243 C 
ATOM     12  O   LIG    1       28.400 -29.893  11.021  0.00  0.00    -0.270 OA
ATOM     13  N   LIG    1       27.545 -27.904  11.676  0.00  0.00    -0.325 N 
ATOM     14  H   LIG    1       28.279 -27.792  12.364  0.00  0.00    +0.145 HD
ATOM     15  H   LIG    1       26.792 -27.227  11.603  0.00  0.00    +0.145 HD
ENDBRANCH   4  11
BRANCH   6  16
ATOM     16  C   LIG    1       24.086 -30.072  12.080  0.00  0.00    +0.107 C 
BRANCH  16  17
ATOM     17  C   LIG    1       24.630 -29.449  13.373  0.00  0.00    +0.046 C 
BRANCH  17  18
ATOM     18  C   LIG    1       25.728 -30.263  14.042  0.00  0.00    +0.157 C 
BRANCH  18  19
ATOM     19  O   LIG    1       26.870 -29.440  14.269  0.00  0.00    -0.395 OA
ATOM     20  H   LIG    1       27.572 -29.745  13.669  0.00  0.00    +0.209 HD
ENDBRANCH  18  19
ENDBRANCH  17  18
ENDBRANCH  16  17
ENDBRANCH   6  16
ENDBRANCH   1   2
BRANCH   1  22
ATOM     21  C   LIG    1       26.497 -27.157   4.724  0.00  0.00    +0.024 C 
ATOM     22  C   LIG    1       26.243 -26.771   6.201  0.00  0.00    +0.055 C 
BRANCH  22  23
ATOM     23  N   LIG    1       26.057 -25.312   6.236  0.00  0.00    -0.310 NA
ATOM     24  H   LIG    1       26.089 -24.969   7.197  0.00  0.00    +0.122 HD
BRANCH  23  25
ATOM     25  C   LIG    1       24.797 -24.861   5.640  0.00  0.00    +0.122 C 
BRANCH  25  26
ATOM     26  C   LIG    1       23.811 -24.324   6.678  0.00  0.00    +0.244 C 
BRANCH  26  27
ATOM     27  O   LIG    1       23.511 -22.937   6.496  0.00  0.00    -0.487 OA
BRANCH  27  28
ATOM     28  C   LIG    1       24.571 -22.078   6.722  0.00  0.00    +0.162 A 
ATOM     29  C   LIG    1       25.155 -21.204   5.784  0.00  0.00    +0.162 A 
ATOM     30  C   LIG    1       26.252 -20.416   6.153  0.00  0.00    +0.049 A 
ATOM     31  C   LIG    1       26.808 -20.520   7.422  0.00  0.00    +0.004 A 
ATOM     32  C   LIG    1       26.225 -21.363   8.361  0.00  0.00    +0.004 A 
ATOM     33  C   LIG    1       25.099 -22.122   8.020  0.00  0.00    +0.049 A 
BRANCH  29  34
ATOM     34  O   LIG    1       24.628 -21.134   4.522  0.00  0.00    -0.479 OA
BRANCH  34  35
ATOM     35  C   LIG    1       23.878 -19.958   4.189  0.00  0.00    +0.342 C 
BRANCH  35  36
ATOM     36  C   LIG    1       22.504 -19.784   4.849  0.00  0.00    +0.424 C 
ATOM     37  F   LIG    1       21.796 -20.938   4.756  0.00  0.00    -0.167 F 
ATOM     38  F   LIG    1       21.785 -18.827   4.217  0.00  0.00    -0.167 F 
ATOM     39  F   LIG    1       22.554 -19.446   6.154  0.00  0.00    -0.167 F 
ENDBRANCH  35  36
ENDBRANCH  34  35
ENDBRANCH  29  34
ENDBRANCH  27  28
ENDBRANCH  26  27
ENDBRANCH  25  26
ENDBRANCH  23  25
ENDBRANCH  22  23
ENDBRANCH   1  22
TORSDOF 15
ENDMDL
