MODEL 1
REMARK VINA RESULT:      -9.4      0.000      0.000
REMARK  Name = *****
REMARK                            x       y       z     vdW  Elec       q    Type
REMARK                         _______ _______ _______ _____ _____    ______ ____
ROOT
ATOM      1  C   LIG    1       24.093 -24.783   6.418  0.00  0.00    +0.000 C 
ATOM      2  C   LIG    1       23.013 -24.021   6.614  0.00  0.00    +0.000 C 
ENDROOT
BRANCH   1   4
ATOM      3  C   LIG    1       25.073 -26.937   5.646  0.00  0.00    -0.050 C 
ATOM      4  C   LIG    1       24.028 -26.130   5.899  0.00  0.00    +0.003 C 
ATOM      5  C   LIG    1       26.532 -26.585   5.782  0.00  0.00    +0.044 C 
BRANCH   3   7
ATOM      6  C   LIG    1       24.683 -29.391   5.949  0.00  0.00    +0.001 C 
ATOM      7  C   LIG    1       24.870 -28.306   5.185  0.00  0.00    +0.003 C 
BRANCH   6   9
ATOM      8  C   LIG    1       24.234 -30.453   8.155  0.00  0.00    -0.050 C 
ATOM      9  C   LIG    1       24.601 -29.414   7.391  0.00  0.00    +0.003 C 
ATOM     10  C   LIG    1       23.899 -31.841   7.685  0.00  0.00    +0.044 C 
BRANCH   8  12
ATOM     11  C   LIG    1       24.975 -30.895  10.450  0.00  0.00    +0.000 C 
ATOM     12  C   LIG    1       24.158 -30.273   9.593  0.00  0.00    +0.003 C 
BRANCH  11  14
ATOM     13  C   LIG    1       25.301 -29.592  12.543  0.00  0.00    -0.072 C 
ATOM     14  C   LIG    1       24.920 -30.699  11.877  0.00  0.00    -0.001 C 
ATOM     15  C   LIG    1       25.875 -28.351  11.902  0.00  0.00    +0.039 C 
BRANCH  13  16
ATOM     16  C   LIG    1       25.199 -29.548  14.055  0.00  0.00    +0.034 C 
BRANCH  16  17
ATOM     17  C   LIG    1       23.745 -29.529  14.538  0.00  0.00    +0.031 C 
BRANCH  17  20
ATOM     18  C   LIG    1       21.596 -26.590  13.114  0.00  0.00    +0.038 C 
ATOM     19  C   LIG    1       22.167 -27.971  13.285  0.00  0.00    -0.080 C 
ATOM     20  C   LIG    1       23.082 -28.217  14.243  0.00  0.00    -0.028 C 
ATOM     21  C   LIG    1       21.650 -28.987  12.302  0.00  0.00    +0.038 C 
ENDBRANCH  17  20
ENDBRANCH  16  17
ENDBRANCH  13  16
ENDBRANCH  11  14
ENDBRANCH   8  12
ENDBRANCH   6   9
ENDBRANCH   3   7
ENDBRANCH   1   4
BRANCH   2  22
ATOM     22  C   LIG    1       23.110 -22.688   7.165  0.00  0.00    +0.003 C 
ATOM     23  C   LIG    1       23.160 -21.541   6.470  0.00  0.00    -0.050 C 
ATOM     24  C   LIG    1       23.211 -20.209   7.182  0.00  0.00    +0.044 C 
BRANCH  23  25
ATOM     25  C   LIG    1       23.101 -21.489   5.010  0.00  0.00    +0.003 C 
ATOM     26  C   LIG    1       24.038 -21.012   4.182  0.00  0.00    +0.001 C 
BRANCH  26  27
ATOM     27  C   LIG    1       25.353 -20.580   4.602  0.00  0.00    +0.003 C 
ATOM     28  C   LIG    1       26.005 -19.458   4.248  0.00  0.00    -0.050 C 
ATOM     29  C   LIG    1       25.438 -18.357   3.393  0.00  0.00    +0.044 C 
BRANCH  28  30
ATOM     30  C   LIG    1       27.350 -19.199   4.755  0.00  0.00    +0.003 C 
ATOM     31  C   LIG    1       27.840 -19.740   5.877  0.00  0.00    +0.000 C 
BRANCH  31  32
ATOM     32  C   LIG    1       29.189 -19.536   6.339  0.00  0.00    -0.001 C 
ATOM     33  C   LIG    1       29.788 -20.243   7.313  0.00  0.00    -0.072 C 
ATOM     34  C   LIG    1       29.180 -21.403   8.058  0.00  0.00    +0.039 C 
BRANCH  33  35
ATOM     35  C   LIG    1       31.230 -19.934   7.675  0.00  0.00    +0.034 C 
BRANCH  35  36
ATOM     36  C   LIG    1       31.499 -18.450   7.953  0.00  0.00    +0.031 C 
BRANCH  36  37
ATOM     37  C   LIG    1       31.095 -18.051   9.347  0.00  0.00    -0.028 C 
ATOM     38  C   LIG    1       31.553 -16.999  10.052  0.00  0.00    -0.080 C 
ATOM     39  C   LIG    1       31.011 -16.696  11.423  0.00  0.00    +0.038 C 
ATOM     40  C   LIG    1       32.589 -16.027   9.563  0.00  0.00    +0.038 C 
ENDBRANCH  36  37
ENDBRANCH  35  36
ENDBRANCH  33  35
ENDBRANCH  31  32
ENDBRANCH  28  30
ENDBRANCH  26  27
ENDBRANCH  23  25
ENDBRANCH   2  22
TORSDOF 16
ENDMDL
MODEL 2
REMARK VINA RESULT:      -9.3      1.313      1.825
REMARK  Name = *****
REMARK                            x       y       z     vdW  Elec       q    Type
REMARK                         _______ _______ _______ _____ _____    ______ ____
ROOT
ATOM      1  C   LIG    1       24.234 -24.944   6.452  0.00  0.00    +0.000 C 
ATOM      2  C   LIG    1       23.153 -24.162   6.541  0.00  0.00    +0.000 C 
ENDROOT
BRANCH   1   4
ATOM      3  C   LIG    1       24.971 -27.310   6.214  0.00  0.00    -0.050 C 
ATOM      4  C   LIG    1       24.214 -26.259   5.854  0.00  0.00    +0.003 C 
ATOM      5  C   LIG    1       26.050 -27.319   7.265  0.00  0.00    +0.044 C 
BRANCH   3   7
ATOM      6  C   LIG    1       24.462 -29.760   6.167  0.00  0.00    +0.001 C 
ATOM      7  C   LIG    1       24.806 -28.609   5.573  0.00  0.00    +0.003 C 
BRANCH   6   9
ATOM      8  C   LIG    1       24.896 -30.547   8.488  0.00  0.00    -0.050 C 
ATOM      9  C   LIG    1       24.141 -29.934   7.564  0.00  0.00    +0.003 C 
ATOM     10  C   LIG    1       26.271 -31.120   8.289  0.00  0.00    +0.044 C 
BRANCH   8  12
ATOM     11  C   LIG    1       23.251 -30.091  10.248  0.00  0.00    +0.000 C 
ATOM     12  C   LIG    1       24.383 -30.676   9.839  0.00  0.00    +0.003 C 
BRANCH  11  14
ATOM     13  C   LIG    1       21.461 -30.570  11.906  0.00  0.00    -0.072 C 
ATOM     14  C   LIG    1       22.724 -30.238  11.582  0.00  0.00    -0.001 C 
ATOM     15  C   LIG    1       20.354 -30.835  10.913  0.00  0.00    +0.039 C 
BRANCH  13  16
ATOM     16  C   LIG    1       21.055 -30.665  13.364  0.00  0.00    +0.034 C 
BRANCH  16  17
ATOM     17  C   LIG    1       21.318 -29.362  14.125  0.00  0.00    +0.031 C 
BRANCH  17  20
ATOM     18  C   LIG    1       19.786 -26.021  12.792  0.00  0.00    +0.038 C 
ATOM     19  C   LIG    1       20.810 -27.028  13.241  0.00  0.00    -0.080 C 
ATOM     20  C   LIG    1       20.427 -28.254  13.648  0.00  0.00    -0.028 C 
ATOM     21  C   LIG    1       22.230 -26.531  13.210  0.00  0.00    +0.038 C 
ENDBRANCH  17  20
ENDBRANCH  16  17
ENDBRANCH  13  16
ENDBRANCH  11  14
ENDBRANCH   8  12
ENDBRANCH   6   9
ENDBRANCH   3   7
ENDBRANCH   1   4
BRANCH   2  22
ATOM     22  C   LIG    1       23.201 -22.864   7.174  0.00  0.00    +0.003 C 
ATOM     23  C   LIG    1       23.200 -21.674   6.552  0.00  0.00    -0.050 C 
ATOM     24  C   LIG    1       23.202 -20.388   7.346  0.00  0.00    +0.044 C 
BRANCH  23  25
ATOM     25  C   LIG    1       23.127 -21.533   5.098  0.00  0.00    +0.003 C 
ATOM     26  C   LIG    1       24.048 -20.987   4.295  0.00  0.00    +0.001 C 
BRANCH  26  27
ATOM     27  C   LIG    1       25.357 -20.554   4.732  0.00  0.00    +0.003 C 
ATOM     28  C   LIG    1       26.043 -19.468   4.333  0.00  0.00    -0.050 C 
ATOM     29  C   LIG    1       25.526 -18.411   3.396  0.00  0.00    +0.044 C 
BRANCH  28  30
ATOM     30  C   LIG    1       27.376 -19.204   4.868  0.00  0.00    +0.003 C 
ATOM     31  C   LIG    1       27.869 -19.792   5.964  0.00  0.00    +0.000 C 
BRANCH  31  32
ATOM     32  C   LIG    1       29.207 -19.580   6.451  0.00  0.00    -0.001 C 
ATOM     33  C   LIG    1       29.786 -20.271   7.449  0.00  0.00    -0.072 C 
ATOM     34  C   LIG    1       29.163 -21.419   8.200  0.00  0.00    +0.039 C 
BRANCH  33  35
ATOM     35  C   LIG    1       31.220 -19.956   7.836  0.00  0.00    +0.034 C 
BRANCH  35  36
ATOM     36  C   LIG    1       31.590 -18.473   7.707  0.00  0.00    +0.031 C 
BRANCH  36  37
ATOM     37  C   LIG    1       32.162 -17.916   8.983  0.00  0.00    -0.028 C 
ATOM     38  C   LIG    1       31.476 -17.495  10.062  0.00  0.00    -0.080 C 
ATOM     39  C   LIG    1       32.195 -17.010  11.292  0.00  0.00    +0.038 C 
ATOM     40  C   LIG    1       29.977 -17.488  10.173  0.00  0.00    +0.038 C 
ENDBRANCH  36  37
ENDBRANCH  35  36
ENDBRANCH  33  35
ENDBRANCH  31  32
ENDBRANCH  28  30
ENDBRANCH  26  27
ENDBRANCH  23  25
ENDBRANCH   2  22
TORSDOF 16
ENDMDL
MODEL 3
REMARK VINA RESULT:      -9.0      1.847     11.009
REMARK  Name = *****
REMARK                            x       y       z     vdW  Elec       q    Type
REMARK                         _______ _______ _______ _____ _____    ______ ____
ROOT
ATOM      1  C   LIG    1       25.166 -28.643   6.430  0.00  0.00    +0.000 C 
ATOM      2  C   LIG    1       24.970 -29.465   5.394  0.00  0.00    +0.000 C 
ENDROOT
BRANCH   1   4
ATOM      3  C   LIG    1       24.497 -26.278   6.036  0.00  0.00    -0.050 C 
ATOM      4  C   LIG    1       24.370 -27.459   6.664  0.00  0.00    +0.003 C 
ATOM      5  C   LIG    1       25.539 -25.915   5.010  0.00  0.00    +0.044 C 
BRANCH   3   7
ATOM      6  C   LIG    1       23.913 -23.933   6.689  0.00  0.00    +0.001 C 
ATOM      7  C   LIG    1       23.582 -25.177   6.316  0.00  0.00    +0.003 C 
BRANCH   6   9
ATOM      8  C   LIG    1       25.596 -22.200   7.290  0.00  0.00    -0.050 C 
ATOM      9  C   LIG    1       25.253 -23.419   6.847  0.00  0.00    +0.003 C 
ATOM     10  C   LIG    1       24.666 -21.131   7.790  0.00  0.00    +0.044 C 
BRANCH   8  12
ATOM     11  C   LIG    1       27.426 -20.584   7.512  0.00  0.00    +0.000 C 
ATOM     12  C   LIG    1       27.001 -21.839   7.329  0.00  0.00    +0.003 C 
BRANCH  11  14
ATOM     13  C   LIG    1       29.487 -19.459   6.694  0.00  0.00    -0.072 C 
ATOM     14  C   LIG    1       28.821 -20.224   7.578  0.00  0.00    -0.001 C 
ATOM     15  C   LIG    1       28.884 -18.847   5.451  0.00  0.00    +0.039 C 
BRANCH  13  16
ATOM     16  C   LIG    1       30.966 -19.187   6.893  0.00  0.00    +0.034 C 
BRANCH  16  17
ATOM     17  C   LIG    1       31.365 -19.211   8.372  0.00  0.00    +0.031 C 
BRANCH  17  20
ATOM     18  C   LIG    1       32.649 -15.830   9.857  0.00  0.00    +0.038 C 
ATOM     19  C   LIG    1       31.744 -16.999   9.575  0.00  0.00    -0.080 C 
ATOM     20  C   LIG    1       32.145 -17.989   8.754  0.00  0.00    -0.028 C 
ATOM     21  C   LIG    1       30.403 -16.928  10.255  0.00  0.00    +0.038 C 
ENDBRANCH  17  20
ENDBRANCH  16  17
ENDBRANCH  13  16
ENDBRANCH  11  14
ENDBRANCH   8  12
ENDBRANCH   6   9
ENDBRANCH   3   7
ENDBRANCH   1   4
BRANCH   2  22
ATOM     22  C   LIG    1       25.806 -30.623   5.172  0.00  0.00    +0.003 C 
ATOM     23  C   LIG    1       25.463 -31.904   5.385  0.00  0.00    -0.050 C 
ATOM     24  C   LIG    1       26.425 -33.023   5.059  0.00  0.00    +0.044 C 
BRANCH  23  25
ATOM     25  C   LIG    1       24.144 -32.308   5.868  0.00  0.00    +0.003 C 
ATOM     26  C   LIG    1       23.737 -32.371   7.141  0.00  0.00    +0.001 C 
BRANCH  26  27
ATOM     27  C   LIG    1       24.516 -31.911   8.270  0.00  0.00    +0.003 C 
ATOM     28  C   LIG    1       24.099 -31.176   9.316  0.00  0.00    -0.050 C 
ATOM     29  C   LIG    1       22.678 -30.754   9.569  0.00  0.00    +0.044 C 
BRANCH  28  30
ATOM     30  C   LIG    1       25.043 -30.779  10.357  0.00  0.00    +0.003 C 
ATOM     31  C   LIG    1       24.758 -29.901  11.326  0.00  0.00    +0.000 C 
BRANCH  31  32
ATOM     32  C   LIG    1       25.668 -29.561  12.389  0.00  0.00    -0.001 C 
ATOM     33  C   LIG    1       26.656 -28.654  12.302  0.00  0.00    -0.072 C 
ATOM     34  C   LIG    1       26.958 -27.796  11.100  0.00  0.00    +0.039 C 
BRANCH  33  35
ATOM     35  C   LIG    1       27.521 -28.377  13.519  0.00  0.00    +0.034 C 
BRANCH  35  36
ATOM     36  C   LIG    1       26.758 -27.765  14.700  0.00  0.00    +0.031 C 
BRANCH  36  37
ATOM     37  C   LIG    1       26.516 -26.290  14.517  0.00  0.00    -0.028 C 
ATOM     38  C   LIG    1       25.375 -25.701  14.111  0.00  0.00    -0.080 C 
ATOM     39  C   LIG    1       25.269 -24.202  14.026  0.00  0.00    +0.038 C 
ATOM     40  C   LIG    1       24.118 -26.436  13.740  0.00  0.00    +0.038 C 
ENDBRANCH  36  37
ENDBRANCH  35  36
ENDBRANCH  33  35
ENDBRANCH  31  32
ENDBRANCH  28  30
ENDBRANCH  26  27
ENDBRANCH  23  25
ENDBRANCH   2  22
TORSDOF 16
ENDMDL
MODEL 4
REMARK VINA RESULT:      -8.5      1.752     11.255
REMARK  Name = *****
REMARK                            x       y       z     vdW  Elec       q    Type
REMARK                         _______ _______ _______ _____ _____    ______ ____
ROOT
ATOM      1  C   LIG    1       25.246 -28.946   6.638  0.00  0.00    +0.000 C 
ATOM      2  C   LIG    1       25.119 -29.955   5.770  0.00  0.00    +0.000 C 
ENDROOT
BRANCH   1   4
ATOM      3  C   LIG    1       24.644 -26.635   5.935  0.00  0.00    -0.050 C 
ATOM      4  C   LIG    1       24.405 -27.770   6.614  0.00  0.00    +0.003 C 
ATOM      5  C   LIG    1       25.868 -26.321   5.115  0.00  0.00    +0.044 C 
BRANCH   3   7
ATOM      6  C   LIG    1       23.864 -24.309   6.432  0.00  0.00    +0.001 C 
ATOM      7  C   LIG    1       23.679 -25.541   5.939  0.00  0.00    +0.003 C 
BRANCH   6   9
ATOM      8  C   LIG    1       25.317 -22.538   7.405  0.00  0.00    -0.050 C 
ATOM      9  C   LIG    1       25.080 -23.801   7.023  0.00  0.00    +0.003 C 
ATOM     10  C   LIG    1       24.346 -21.391   7.370  0.00  0.00    +0.044 C 
BRANCH   8  12
ATOM     11  C   LIG    1       27.536 -21.508   7.236  0.00  0.00    +0.000 C 
ATOM     12  C   LIG    1       26.626 -22.199   7.931  0.00  0.00    +0.003 C 
BRANCH  11  14
ATOM     13  C   LIG    1       29.589 -20.111   7.367  0.00  0.00    -0.072 C 
ATOM     14  C   LIG    1       28.828 -21.147   7.765  0.00  0.00    -0.001 C 
ATOM     15  C   LIG    1       29.224 -19.141   6.269  0.00  0.00    +0.039 C 
BRANCH  13  16
ATOM     16  C   LIG    1       30.940 -19.875   8.013  0.00  0.00    +0.034 C 
BRANCH  16  17
ATOM     17  C   LIG    1       31.447 -18.446   7.791  0.00  0.00    +0.031 C 
BRANCH  17  20
ATOM     18  C   LIG    1       32.404 -16.947  11.272  0.00  0.00    +0.038 C 
ATOM     19  C   LIG    1       31.561 -17.458  10.135  0.00  0.00    -0.080 C 
ATOM     20  C   LIG    1       32.142 -17.911   9.007  0.00  0.00    -0.028 C 
ATOM     21  C   LIG    1       30.078 -17.385  10.375  0.00  0.00    +0.038 C 
ENDBRANCH  17  20
ENDBRANCH  16  17
ENDBRANCH  13  16
ENDBRANCH  11  14
ENDBRANCH   8  12
ENDBRANCH   6   9
ENDBRANCH   3   7
ENDBRANCH   1   4
BRANCH   2  22
ATOM     22  C   LIG    1       25.997 -31.103   5.801  0.00  0.00    +0.003 C 
ATOM     23  C   LIG    1       25.624 -32.387   5.912  0.00  0.00    -0.050 C 
ATOM     24  C   LIG    1       26.652 -33.495   5.881  0.00  0.00    +0.044 C 
BRANCH  23  25
ATOM     25  C   LIG    1       24.226 -32.809   5.996  0.00  0.00    +0.003 C 
ATOM     26  C   LIG    1       23.367 -32.555   6.990  0.00  0.00    +0.001 C 
BRANCH  26  27
ATOM     27  C   LIG    1       23.652 -31.688   8.113  0.00  0.00    +0.003 C 
ATOM     28  C   LIG    1       24.173 -32.027   9.306  0.00  0.00    -0.050 C 
ATOM     29  C   LIG    1       24.659 -33.400   9.682  0.00  0.00    +0.044 C 
BRANCH  28  30
ATOM     30  C   LIG    1       24.367 -31.012  10.337  0.00  0.00    +0.003 C 
ATOM     31  C   LIG    1       23.395 -30.206  10.782  0.00  0.00    +0.000 C 
BRANCH  31  32
ATOM     32  C   LIG    1       23.573 -29.251  11.845  0.00  0.00    -0.001 C 
ATOM     33  C   LIG    1       22.580 -28.696  12.561  0.00  0.00    -0.072 C 
ATOM     34  C   LIG    1       21.112 -29.008  12.416  0.00  0.00    +0.039 C 
BRANCH  33  35
ATOM     35  C   LIG    1       22.921 -27.725  13.676  0.00  0.00    +0.034 C 
BRANCH  35  36
ATOM     36  C   LIG    1       24.086 -26.783  13.349  0.00  0.00    +0.031 C 
BRANCH  36  37
ATOM     37  C   LIG    1       25.357 -27.188  14.045  0.00  0.00    -0.028 C 
ATOM     38  C   LIG    1       26.539 -27.477  13.468  0.00  0.00    -0.080 C 
ATOM     39  C   LIG    1       27.743 -27.817  14.305  0.00  0.00    +0.038 C 
ATOM     40  C   LIG    1       26.794 -27.466  11.987  0.00  0.00    +0.038 C 
ENDBRANCH  36  37
ENDBRANCH  35  36
ENDBRANCH  33  35
ENDBRANCH  31  32
ENDBRANCH  28  30
ENDBRANCH  26  27
ENDBRANCH  23  25
ENDBRANCH   2  22
TORSDOF 16
ENDMDL
MODEL 5
REMARK VINA RESULT:      -8.2      3.851      8.526
REMARK  Name = *****
REMARK                            x       y       z     vdW  Elec       q    Type
REMARK                         _______ _______ _______ _____ _____    ______ ____
ROOT
ATOM      1  C   LIG    1       24.699 -27.407  12.872  0.00  0.00    +0.000 C 
ATOM      2  C   LIG    1       25.380 -28.534  13.101  0.00  0.00    +0.000 C 
ENDROOT
BRANCH   1   4
ATOM      3  C   LIG    1       22.872 -26.574  14.344  0.00  0.00    -0.050 C 
ATOM      4  C   LIG    1       23.317 -27.226  13.256  0.00  0.00    +0.003 C 
ATOM      5  C   LIG    1       23.717 -25.958  15.429  0.00  0.00    +0.044 C 
BRANCH   3   7
ATOM      6  C   LIG    1       20.441 -26.989  13.916  0.00  0.00    +0.001 C 
ATOM      7  C   LIG    1       21.444 -26.402  14.584  0.00  0.00    +0.003 C 
BRANCH   6   9
ATOM      8  C   LIG    1       20.675 -29.281  12.976  0.00  0.00    -0.050 C 
ATOM      9  C   LIG    1       20.577 -27.950  12.847  0.00  0.00    +0.003 C 
ATOM     10  C   LIG    1       20.590 -30.069  14.253  0.00  0.00    +0.044 C 
BRANCH   8  12
ATOM     11  C   LIG    1       22.047 -30.234  11.181  0.00  0.00    +0.000 C 
ATOM     12  C   LIG    1       20.862 -30.089  11.785  0.00  0.00    +0.003 C 
BRANCH  11  14
ATOM     13  C   LIG    1       22.876 -32.243   9.973  0.00  0.00    -0.072 C 
ATOM     14  C   LIG    1       22.242 -31.057  10.013  0.00  0.00    -0.001 C 
ATOM     15  C   LIG    1       23.517 -32.922  11.160  0.00  0.00    +0.039 C 
BRANCH  13  16
ATOM     16  C   LIG    1       23.017 -32.980   8.655  0.00  0.00    +0.034 C 
BRANCH  16  17
ATOM     17  C   LIG    1       24.480 -33.273   8.308  0.00  0.00    +0.031 C 
BRANCH  17  20
ATOM     18  C   LIG    1       26.195 -32.120   4.990  0.00  0.00    +0.038 C 
ATOM     19  C   LIG    1       26.028 -32.532   6.427  0.00  0.00    -0.080 C 
ATOM     20  C   LIG    1       24.810 -32.850   6.908  0.00  0.00    -0.028 C 
ATOM     21  C   LIG    1       27.300 -32.523   7.231  0.00  0.00    +0.038 C 
ENDBRANCH  17  20
ENDBRANCH  16  17
ENDBRANCH  13  16
ENDBRANCH  11  14
ENDBRANCH   8  12
ENDBRANCH   6   9
ENDBRANCH   3   7
ENDBRANCH   1   4
BRANCH   2  22
ATOM     22  C   LIG    1       26.753 -28.695  12.675  0.00  0.00    +0.003 C 
ATOM     23  C   LIG    1       27.194 -29.513  11.706  0.00  0.00    -0.050 C 
ATOM     24  C   LIG    1       28.657 -29.543  11.329  0.00  0.00    +0.044 C 
BRANCH  23  25
ATOM     25  C   LIG    1       26.308 -30.364  10.913  0.00  0.00    +0.003 C 
ATOM     26  C   LIG    1       25.709 -30.048   9.758  0.00  0.00    +0.001 C 
BRANCH  26  27
ATOM     27  C   LIG    1       25.953 -28.828   9.021  0.00  0.00    +0.003 C 
ATOM     28  C   LIG    1       25.491 -28.493   7.803  0.00  0.00    -0.050 C 
ATOM     29  C   LIG    1       24.527 -29.310   6.986  0.00  0.00    +0.044 C 
BRANCH  28  30
ATOM     30  C   LIG    1       25.867 -27.218   7.200  0.00  0.00    +0.003 C 
ATOM     31  C   LIG    1       24.997 -26.384   6.616  0.00  0.00    +0.000 C 
BRANCH  31  32
ATOM     32  C   LIG    1       25.360 -25.097   6.081  0.00  0.00    -0.001 C 
ATOM     33  C   LIG    1       24.575 -24.006   6.091  0.00  0.00    -0.072 C 
ATOM     34  C   LIG    1       23.202 -23.917   6.706  0.00  0.00    +0.039 C 
BRANCH  33  35
ATOM     35  C   LIG    1       25.105 -22.705   5.516  0.00  0.00    +0.034 C 
BRANCH  35  36
ATOM     36  C   LIG    1       24.793 -21.471   6.372  0.00  0.00    +0.031 C 
BRANCH  36  37
ATOM     37  C   LIG    1       24.397 -20.284   5.535  0.00  0.00    -0.028 C 
ATOM     38  C   LIG    1       23.201 -20.063   4.957  0.00  0.00    -0.080 C 
ATOM     39  C   LIG    1       22.938 -18.796   4.189  0.00  0.00    +0.038 C 
ATOM     40  C   LIG    1       22.029 -21.000   5.033  0.00  0.00    +0.038 C 
ENDBRANCH  36  37
ENDBRANCH  35  36
ENDBRANCH  33  35
ENDBRANCH  31  32
ENDBRANCH  28  30
ENDBRANCH  26  27
ENDBRANCH  23  25
ENDBRANCH   2  22
TORSDOF 16
ENDMDL
MODEL 6
REMARK VINA RESULT:      -7.9      1.253     11.351
REMARK  Name = *****
REMARK                            x       y       z     vdW  Elec       q    Type
REMARK                         _______ _______ _______ _____ _____    ______ ____
ROOT
ATOM      1  C   LIG    1       24.266 -22.783   6.694  0.00  0.00    +0.000 C 
ATOM      2  C   LIG    1       25.199 -23.587   6.173  0.00  0.00    +0.000 C 
ENDROOT
BRANCH   1   4
ATOM      3  C   LIG    1       22.365 -21.621   5.583  0.00  0.00    -0.050 C 
ATOM      4  C   LIG    1       23.654 -21.701   5.957  0.00  0.00    +0.003 C 
ATOM      5  C   LIG    1       21.305 -22.672   5.788  0.00  0.00    +0.044 C 
BRANCH   3   7
ATOM      6  C   LIG    1       22.552 -19.351   4.545  0.00  0.00    +0.001 C 
ATOM      7  C   LIG    1       21.854 -20.439   4.900  0.00  0.00    +0.003 C 
BRANCH   6   9
ATOM      8  C   LIG    1       24.955 -19.645   3.964  0.00  0.00    -0.050 C 
ATOM      9  C   LIG    1       23.970 -19.152   4.730  0.00  0.00    +0.003 C 
ATOM     10  C   LIG    1       24.796 -20.450   2.705  0.00  0.00    +0.044 C 
BRANCH   8  12
ATOM     11  C   LIG    1       26.924 -19.958   5.392  0.00  0.00    +0.000 C 
ATOM     12  C   LIG    1       26.332 -19.383   4.339  0.00  0.00    +0.003 C 
BRANCH  11  14
ATOM     13  C   LIG    1       28.969 -20.303   6.763  0.00  0.00    -0.072 C 
ATOM     14  C   LIG    1       28.300 -19.721   5.751  0.00  0.00    -0.001 C 
ATOM     15  C   LIG    1       28.381 -21.310   7.723  0.00  0.00    +0.039 C 
BRANCH  13  16
ATOM     16  C   LIG    1       30.415 -19.930   7.026  0.00  0.00    +0.034 C 
BRANCH  16  17
ATOM     17  C   LIG    1       30.577 -18.447   7.375  0.00  0.00    +0.031 C 
BRANCH  17  20
ATOM     18  C   LIG    1       30.467 -17.221  11.085  0.00  0.00    +0.038 C 
ATOM     19  C   LIG    1       30.927 -17.384   9.662  0.00  0.00    -0.080 C 
ATOM     20  C   LIG    1       30.247 -18.179   8.813  0.00  0.00    -0.028 C 
ATOM     21  C   LIG    1       32.179 -16.622   9.320  0.00  0.00    +0.038 C 
ENDBRANCH  17  20
ENDBRANCH  16  17
ENDBRANCH  13  16
ENDBRANCH  11  14
ENDBRANCH   8  12
ENDBRANCH   6   9
ENDBRANCH   3   7
ENDBRANCH   1   4
BRANCH   2  22
ATOM     22  C   LIG    1       25.816 -24.641   6.948  0.00  0.00    +0.003 C 
ATOM     23  C   LIG    1       25.833 -25.948   6.641  0.00  0.00    -0.050 C 
ATOM     24  C   LIG    1       26.561 -26.937   7.521  0.00  0.00    +0.044 C 
BRANCH  23  25
ATOM     25  C   LIG    1       25.225 -26.491   5.427  0.00  0.00    +0.003 C 
ATOM     26  C   LIG    1       24.504 -27.614   5.321  0.00  0.00    +0.001 C 
BRANCH  26  27
ATOM     27  C   LIG    1       24.086 -28.424   6.444  0.00  0.00    +0.003 C 
ATOM     28  C   LIG    1       24.390 -29.711   6.692  0.00  0.00    -0.050 C 
ATOM     29  C   LIG    1       25.326 -30.555   5.871  0.00  0.00    +0.044 C 
BRANCH  28  30
ATOM     30  C   LIG    1       23.851 -30.378   7.873  0.00  0.00    +0.003 C 
ATOM     31  C   LIG    1       23.877 -29.852   9.104  0.00  0.00    +0.000 C 
BRANCH  31  32
ATOM     32  C   LIG    1       23.285 -30.483  10.255  0.00  0.00    -0.001 C 
ATOM     33  C   LIG    1       23.685 -30.305  11.526  0.00  0.00    -0.072 C 
ATOM     34  C   LIG    1       24.785 -29.379  11.980  0.00  0.00    +0.039 C 
BRANCH  33  35
ATOM     35  C   LIG    1       22.944 -31.015  12.644  0.00  0.00    +0.034 C 
BRANCH  35  36
ATOM     36  C   LIG    1       22.477 -30.087  13.772  0.00  0.00    +0.031 C 
BRANCH  36  37
ATOM     37  C   LIG    1       21.504 -29.047  13.285  0.00  0.00    -0.028 C 
ATOM     38  C   LIG    1       21.632 -27.710  13.382  0.00  0.00    -0.080 C 
ATOM     39  C   LIG    1       20.593 -26.791  12.797  0.00  0.00    +0.038 C 
ATOM     40  C   LIG    1       22.792 -27.006  14.029  0.00  0.00    +0.038 C 
ENDBRANCH  36  37
ENDBRANCH  35  36
ENDBRANCH  33  35
ENDBRANCH  31  32
ENDBRANCH  28  30
ENDBRANCH  26  27
ENDBRANCH  23  25
ENDBRANCH   2  22
TORSDOF 16
ENDMDL
MODEL 7
REMARK VINA RESULT:      -7.8      2.486     11.153
REMARK  Name = *****
REMARK                            x       y       z     vdW  Elec       q    Type
REMARK                         _______ _______ _______ _____ _____    ______ ____
ROOT
ATOM      1  C   LIG    1       25.310 -29.091   5.969  0.00  0.00    +0.000 C 
ATOM      2  C   LIG    1       25.005 -30.234   5.346  0.00  0.00    +0.000 C 
ENDROOT
BRANCH   1   4
ATOM      3  C   LIG    1       24.817 -26.682   6.355  0.00  0.00    -0.050 C 
ATOM      4  C   LIG    1       24.505 -27.895   5.868  0.00  0.00    +0.003 C 
ATOM      5  C   LIG    1       26.034 -26.328   7.169  0.00  0.00    +0.044 C 
BRANCH   3   7
ATOM      6  C   LIG    1       24.278 -24.240   6.226  0.00  0.00    +0.001 C 
ATOM      7  C   LIG    1       23.945 -25.535   6.126  0.00  0.00    +0.003 C 
BRANCH   6   9
ATOM      8  C   LIG    1       25.861 -22.602   7.229  0.00  0.00    -0.050 C 
ATOM      9  C   LIG    1       25.588 -23.720   6.540  0.00  0.00    +0.003 C 
ATOM     10  C   LIG    1       24.867 -21.687   7.888  0.00  0.00    +0.044 C 
BRANCH   8  12
ATOM     11  C   LIG    1       27.680 -20.958   7.184  0.00  0.00    +0.000 C 
ATOM     12  C   LIG    1       27.246 -22.205   7.401  0.00  0.00    +0.003 C 
BRANCH  11  14
ATOM     13  C   LIG    1       29.686 -19.562   6.728  0.00  0.00    -0.072 C 
ATOM     14  C   LIG    1       29.050 -20.553   7.379  0.00  0.00    -0.001 C 
ATOM     15  C   LIG    1       29.071 -18.699   5.652  0.00  0.00    +0.039 C 
BRANCH  13  16
ATOM     16  C   LIG    1       31.143 -19.271   7.033  0.00  0.00    +0.034 C 
BRANCH  16  17
ATOM     17  C   LIG    1       31.486 -19.514   8.506  0.00  0.00    +0.031 C 
BRANCH  17  20
ATOM     18  C   LIG    1       30.483 -16.607  10.919  0.00  0.00    +0.038 C 
ATOM     19  C   LIG    1       31.329 -17.491  10.044  0.00  0.00    -0.080 C 
ATOM     20  C   LIG    1       30.781 -18.543   9.405  0.00  0.00    -0.028 C 
ATOM     21  C   LIG    1       32.782 -17.104   9.987  0.00  0.00    +0.038 C 
ENDBRANCH  17  20
ENDBRANCH  16  17
ENDBRANCH  13  16
ENDBRANCH  11  14
ENDBRANCH   8  12
ENDBRANCH   6   9
ENDBRANCH   3   7
ENDBRANCH   1   4
BRANCH   2  22
ATOM     22  C   LIG    1       25.850 -31.403   5.442  0.00  0.00    +0.003 C 
ATOM     23  C   LIG    1       25.503 -32.596   5.952  0.00  0.00    -0.050 C 
ATOM     24  C   LIG    1       26.477 -33.751   5.943  0.00  0.00    +0.044 C 
BRANCH  23  25
ATOM     25  C   LIG    1       24.169 -32.883   6.476  0.00  0.00    +0.003 C 
ATOM     26  C   LIG    1       23.798 -32.912   7.762  0.00  0.00    +0.001 C 
BRANCH  26  27
ATOM     27  C   LIG    1       24.650 -32.525   8.865  0.00  0.00    +0.003 C 
ATOM     28  C   LIG    1       24.773 -31.308   9.425  0.00  0.00    -0.050 C 
ATOM     29  C   LIG    1       23.956 -30.098   9.061  0.00  0.00    +0.044 C 
BRANCH  28  30
ATOM     30  C   LIG    1       25.713 -31.096  10.523  0.00  0.00    +0.003 C 
ATOM     31  C   LIG    1       25.975 -29.898  11.059  0.00  0.00    +0.000 C 
BRANCH  31  32
ATOM     32  C   LIG    1       26.852 -29.701  12.184  0.00  0.00    -0.001 C 
ATOM     33  C   LIG    1       27.066 -28.527  12.802  0.00  0.00    -0.072 C 
ATOM     34  C   LIG    1       26.393 -27.221  12.465  0.00  0.00    +0.039 C 
BRANCH  33  35
ATOM     35  C   LIG    1       27.997 -28.476  14.000  0.00  0.00    +0.034 C 
BRANCH  35  36
ATOM     36  C   LIG    1       28.861 -29.731  14.171  0.00  0.00    +0.031 C 
BRANCH  36  37
ATOM     37  C   LIG    1       30.080 -29.708  13.288  0.00  0.00    -0.028 C 
ATOM     38  C   LIG    1       31.351 -29.479  13.669  0.00  0.00    -0.080 C 
ATOM     39  C   LIG    1       32.478 -29.541  12.672  0.00  0.00    +0.038 C 
ATOM     40  C   LIG    1       31.782 -29.179  15.077  0.00  0.00    +0.038 C 
ENDBRANCH  36  37
ENDBRANCH  35  36
ENDBRANCH  33  35
ENDBRANCH  31  32
ENDBRANCH  28  30
ENDBRANCH  26  27
ENDBRANCH  23  25
ENDBRANCH   2  22
TORSDOF 16
ENDMDL
MODEL 8
REMARK VINA RESULT:      -7.7      4.152      8.591
REMARK  Name = *****
REMARK                            x       y       z     vdW  Elec       q    Type
REMARK                         _______ _______ _______ _____ _____    ______ ____
ROOT
ATOM      1  C   LIG    1       21.619 -32.781   9.441  0.00  0.00    +0.000 C 
ATOM      2  C   LIG    1       22.499 -33.555   8.797  0.00  0.00    +0.000 C 
ENDROOT
BRANCH   1   4
ATOM      3  C   LIG    1       20.230 -32.487  11.487  0.00  0.00    -0.050 C 
ATOM      4  C   LIG    1       21.340 -32.906  10.854  0.00  0.00    +0.003 C 
ATOM      5  C   LIG    1       19.077 -31.738  10.872  0.00  0.00    +0.044 C 
BRANCH   3   7
ATOM      6  C   LIG    1       20.458 -31.962  13.924  0.00  0.00    +0.001 C 
ATOM      7  C   LIG    1       20.040 -32.735  12.911  0.00  0.00    +0.003 C 
BRANCH   6   9
ATOM      8  C   LIG    1       20.582 -29.483  13.747  0.00  0.00    -0.050 C 
ATOM      9  C   LIG    1       21.146 -30.699  13.803  0.00  0.00    +0.003 C 
ATOM     10  C   LIG    1       19.118 -29.164  13.873  0.00  0.00    +0.044 C 
BRANCH   8  12
ATOM     11  C   LIG    1       22.766 -28.404  13.464  0.00  0.00    +0.000 C 
ATOM     12  C   LIG    1       21.434 -28.322  13.569  0.00  0.00    +0.003 C 
BRANCH  11  14
ATOM     13  C   LIG    1       24.686 -26.919  14.001  0.00  0.00    -0.072 C 
ATOM     14  C   LIG    1       23.614 -27.257  13.260  0.00  0.00    -0.001 C 
ATOM     15  C   LIG    1       25.184 -27.688  15.202  0.00  0.00    +0.039 C 
BRANCH  13  16
ATOM     16  C   LIG    1       25.468 -25.663  13.670  0.00  0.00    +0.034 C 
BRANCH  16  17
ATOM     17  C   LIG    1       26.860 -25.977  13.113  0.00  0.00    +0.031 C 
BRANCH  17  20
ATOM     18  C   LIG    1       26.991 -28.686  10.297  0.00  0.00    +0.038 C 
ATOM     19  C   LIG    1       27.128 -28.045  11.652  0.00  0.00    -0.080 C 
ATOM     20  C   LIG    1       26.781 -26.756  11.834  0.00  0.00    -0.028 C 
ATOM     21  C   LIG    1       27.690 -28.949  12.715  0.00  0.00    +0.038 C 
ENDBRANCH  17  20
ENDBRANCH  16  17
ENDBRANCH  13  16
ENDBRANCH  11  14
ENDBRANCH   8  12
ENDBRANCH   6   9
ENDBRANCH   3   7
ENDBRANCH   1   4
BRANCH   2  22
ATOM     22  C   LIG    1       22.731 -33.425   7.376  0.00  0.00    +0.003 C 
ATOM     23  C   LIG    1       23.887 -33.083   6.787  0.00  0.00    -0.050 C 
ATOM     24  C   LIG    1       24.001 -33.034   5.281  0.00  0.00    +0.044 C 
BRANCH  23  25
ATOM     25  C   LIG    1       25.113 -32.806   7.534  0.00  0.00    +0.003 C 
ATOM     26  C   LIG    1       25.597 -31.604   7.871  0.00  0.00    +0.001 C 
BRANCH  26  27
ATOM     27  C   LIG    1       24.899 -30.355   7.658  0.00  0.00    +0.003 C 
ATOM     28  C   LIG    1       24.948 -29.556   6.577  0.00  0.00    -0.050 C 
ATOM     29  C   LIG    1       25.691 -29.862   5.305  0.00  0.00    +0.044 C 
BRANCH  28  30
ATOM     30  C   LIG    1       24.190 -28.309   6.551  0.00  0.00    +0.003 C 
ATOM     31  C   LIG    1       24.729 -27.114   6.279  0.00  0.00    +0.000 C 
BRANCH  31  32
ATOM     32  C   LIG    1       23.967 -25.896   6.189  0.00  0.00    -0.001 C 
ATOM     33  C   LIG    1       24.419 -24.674   6.523  0.00  0.00    -0.072 C 
ATOM     34  C   LIG    1       25.812 -24.352   7.000  0.00  0.00    +0.039 C 
BRANCH  33  35
ATOM     35  C   LIG    1       23.509 -23.472   6.345  0.00  0.00    +0.034 C 
BRANCH  35  36
ATOM     36  C   LIG    1       23.963 -22.227   7.117  0.00  0.00    +0.031 C 
BRANCH  36  37
ATOM     37  C   LIG    1       23.229 -20.987   6.678  0.00  0.00    -0.028 C 
ATOM     38  C   LIG    1       23.337 -20.361   5.491  0.00  0.00    -0.080 C 
ATOM     39  C   LIG    1       22.493 -19.154   5.177  0.00  0.00    +0.038 C 
ATOM     40  C   LIG    1       24.248 -20.791   4.376  0.00  0.00    +0.038 C 
ENDBRANCH  36  37
ENDBRANCH  35  36
ENDBRANCH  33  35
ENDBRANCH  31  32
ENDBRANCH  28  30
ENDBRANCH  26  27
ENDBRANCH  23  25
ENDBRANCH   2  22
TORSDOF 16
ENDMDL
MODEL 9
REMARK VINA RESULT:      -7.7      2.120     12.190
REMARK  Name = *****
REMARK                            x       y       z     vdW  Elec       q    Type
REMARK                         _______ _______ _______ _____ _____    ______ ____
ROOT
ATOM      1  C   LIG    1       26.257 -27.457   7.659  0.00  0.00    +0.000 C 
ATOM      2  C   LIG    1       25.718 -28.486   8.320  0.00  0.00    +0.000 C 
ENDROOT
BRANCH   1   4
ATOM      3  C   LIG    1       25.264 -26.025   5.881  0.00  0.00    -0.050 C 
ATOM      4  C   LIG    1       25.485 -26.338   7.170  0.00  0.00    +0.003 C 
ATOM      5  C   LIG    1       25.833 -26.730   4.677  0.00  0.00    +0.044 C 
BRANCH   3   7
ATOM      6  C   LIG    1       24.636 -23.605   5.759  0.00  0.00    +0.001 C 
ATOM      7  C   LIG    1       24.406 -24.903   5.518  0.00  0.00    +0.003 C 
BRANCH   6   9
ATOM      8  C   LIG    1       25.862 -21.947   7.152  0.00  0.00    -0.050 C 
ATOM      9  C   LIG    1       25.809 -23.051   6.393  0.00  0.00    +0.003 C 
ATOM     10  C   LIG    1       24.703 -21.087   7.571  0.00  0.00    +0.044 C 
BRANCH   8  12
ATOM     11  C   LIG    1       27.844 -20.504   7.123  0.00  0.00    +0.000 C 
ATOM     12  C   LIG    1       27.148 -21.510   7.664  0.00  0.00    +0.003 C 
BRANCH  11  14
ATOM     13  C   LIG    1       29.932 -19.155   7.065  0.00  0.00    -0.072 C 
ATOM     14  C   LIG    1       29.109 -20.049   7.644  0.00  0.00    -0.001 C 
ATOM     15  C   LIG    1       29.677 -18.474   5.741  0.00  0.00    +0.039 C 
BRANCH  13  16
ATOM     16  C   LIG    1       31.245 -18.794   7.733  0.00  0.00    +0.034 C 
BRANCH  16  17
ATOM     17  C   LIG    1       31.361 -19.386   9.141  0.00  0.00    +0.031 C 
BRANCH  17  20
ATOM     18  C   LIG    1       31.015 -16.275  11.484  0.00  0.00    +0.038 C 
ATOM     19  C   LIG    1       31.509 -17.162  10.374  0.00  0.00    -0.080 C 
ATOM     20  C   LIG    1       30.979 -18.387  10.193  0.00  0.00    -0.028 C 
ATOM     21  C   LIG    1       32.620 -16.569   9.549  0.00  0.00    +0.038 C 
ENDBRANCH  17  20
ENDBRANCH  16  17
ENDBRANCH  13  16
ENDBRANCH  11  14
ENDBRANCH   8  12
ENDBRANCH   6   9
ENDBRANCH   3   7
ENDBRANCH   1   4
BRANCH   2  22
ATOM     22  C   LIG    1       26.515 -29.606   8.768  0.00  0.00    +0.003 C 
ATOM     23  C   LIG    1       26.188 -30.905   8.671  0.00  0.00    -0.050 C 
ATOM     24  C   LIG    1       27.144 -31.978   9.138  0.00  0.00    +0.044 C 
BRANCH  23  25
ATOM     25  C   LIG    1       24.945 -31.372   8.057  0.00  0.00    +0.003 C 
ATOM     26  C   LIG    1       23.730 -31.394   8.616  0.00  0.00    +0.001 C 
BRANCH  26  27
ATOM     27  C   LIG    1       23.416 -30.822   9.908  0.00  0.00    +0.003 C 
ATOM     28  C   LIG    1       22.299 -30.994  10.637  0.00  0.00    -0.050 C 
ATOM     29  C   LIG    1       21.164 -31.916  10.282  0.00  0.00    +0.044 C 
BRANCH  28  30
ATOM     30  C   LIG    1       22.145 -30.309  11.917  0.00  0.00    +0.003 C 
ATOM     31  C   LIG    1       22.817 -29.202  12.256  0.00  0.00    +0.000 C 
BRANCH  31  32
ATOM     32  C   LIG    1       22.615 -28.491  13.491  0.00  0.00    -0.001 C 
ATOM     33  C   LIG    1       21.760 -27.468  13.664  0.00  0.00    -0.072 C 
ATOM     34  C   LIG    1       20.827 -26.916  12.617  0.00  0.00    +0.039 C 
BRANCH  33  35
ATOM     35  C   LIG    1       21.631 -26.832  15.036  0.00  0.00    +0.034 C 
BRANCH  35  36
ATOM     36  C   LIG    1       20.214 -26.349  15.369  0.00  0.00    +0.031 C 
BRANCH  36  37
ATOM     37  C   LIG    1       19.240 -27.491  15.499  0.00  0.00    -0.028 C 
ATOM     38  C   LIG    1       17.970 -27.525  15.056  0.00  0.00    -0.080 C 
ATOM     39  C   LIG    1       17.131 -28.765  15.214  0.00  0.00    +0.038 C 
ATOM     40  C   LIG    1       17.278 -26.391  14.353  0.00  0.00    +0.038 C 
ENDBRANCH  36  37
ENDBRANCH  35  36
ENDBRANCH  33  35
ENDBRANCH  31  32
ENDBRANCH  28  30
ENDBRANCH  26  27
ENDBRANCH  23  25
ENDBRANCH   2  22
TORSDOF 16
ENDMDL
