MODEL 1
REMARK VINA RESULT:      -8.9      0.000      0.000
REMARK  Name = *****
REMARK                            x       y       z     vdW  Elec       q    Type
REMARK                         _______ _______ _______ _____ _____    ______ ____
ROOT
ATOM      1  C   LIG    1       31.280 -19.201   8.101  0.00  0.00    +0.108 C 
ATOM      2  C   LIG    1       30.043 -19.242   7.249  0.00  0.00    +0.123 C 
ATOM      3  C   LIG    1       29.010 -20.134   7.934  0.00  0.00    +0.207 C 
ATOM      4  O   LIG    1       29.575 -21.423   8.236  0.00  0.00    -0.454 OA
ATOM      5  C   LIG    1       30.759 -21.470   8.887  0.00  0.00    +0.336 C 
ATOM      6  O   LIG    1       31.171 -22.485   9.435  0.00  0.00    -0.245 OA
ATOM      7  C   LIG    1       31.578 -20.246   8.889  0.00  0.00    +0.132 C 
ENDROOT
BRANCH   1   9
ATOM      8  C   LIG    1       32.036 -17.179   9.131  0.00  0.00    +0.276 C 
ATOM      9  O   LIG    1       31.995 -18.030   7.988  0.00  0.00    -0.499 OA
ENDBRANCH   1   9
BRANCH   3  10
ATOM     10  C   LIG    1       27.824 -20.384   7.048  0.00  0.00    +0.018 C 
ATOM     11  C   LIG    1       26.550 -20.374   7.473  0.00  0.00    +0.007 C 
BRANCH  11  12
ATOM     12  C   LIG    1       25.396 -20.624   6.616  0.00  0.00    -0.029 C 
ATOM     13  C   LIG    1       25.420 -20.463   5.166  0.00  0.00    +0.003 C 
ATOM     14  C   LIG    1       24.329 -20.581   4.399  0.00  0.00    -0.026 C 
ATOM     15  C   LIG    1       22.974 -20.880   4.960  0.00  0.00    +0.031 C 
ATOM     16  C   LIG    1       22.966 -21.267   6.446  0.00  0.00    +0.032 C 
ATOM     17  C   LIG    1       24.233 -20.973   7.201  0.00  0.00    -0.019 C 
ENDBRANCH  11  12
ENDBRANCH   3  10
TORSDOF 3
ENDMDL
MODEL 2
REMARK VINA RESULT:      -8.6      2.165      2.629
REMARK  Name = *****
REMARK                            x       y       z     vdW  Elec       q    Type
REMARK                         _______ _______ _______ _____ _____    ______ ____
ROOT
ATOM      1  C   LIG    1       30.333 -19.514   6.909  0.00  0.00    +0.108 C 
ATOM      2  C   LIG    1       29.066 -20.311   6.779  0.00  0.00    +0.123 C 
ATOM      3  C   LIG    1       28.713 -20.888   8.148  0.00  0.00    +0.207 C 
ATOM      4  O   LIG    1       29.827 -21.617   8.693  0.00  0.00    -0.454 OA
ATOM      5  C   LIG    1       31.037 -21.014   8.723  0.00  0.00    +0.336 C 
ATOM      6  O   LIG    1       31.962 -21.424   9.414  0.00  0.00    -0.245 OA
ATOM      7  C   LIG    1       31.230 -19.841   7.852  0.00  0.00    +0.132 C 
ENDROOT
BRANCH   1   9
ATOM      8  C   LIG    1       29.259 -18.135   5.276  0.00  0.00    +0.276 C 
ATOM      9  O   LIG    1       30.431 -18.471   6.014  0.00  0.00    -0.499 OA
ENDBRANCH   1   9
BRANCH   3  10
ATOM     10  C   LIG    1       27.570 -21.858   8.058  0.00  0.00    +0.018 C 
ATOM     11  C   LIG    1       26.758 -21.970   6.995  0.00  0.00    +0.007 C 
BRANCH  11  12
ATOM     12  C   LIG    1       25.643 -22.906   6.908  0.00  0.00    -0.029 C 
ATOM     13  C   LIG    1       25.810 -24.342   6.709  0.00  0.00    +0.003 C 
ATOM     14  C   LIG    1       24.781 -25.177   6.514  0.00  0.00    -0.026 C 
ATOM     15  C   LIG    1       23.359 -24.714   6.471  0.00  0.00    +0.031 C 
ATOM     16  C   LIG    1       23.147 -23.253   6.894  0.00  0.00    +0.032 C 
ATOM     17  C   LIG    1       24.390 -22.410   6.964  0.00  0.00    -0.019 C 
ENDBRANCH  11  12
ENDBRANCH   3  10
TORSDOF 3
ENDMDL
MODEL 3
REMARK VINA RESULT:      -8.3      1.246      2.516
REMARK  Name = *****
REMARK                            x       y       z     vdW  Elec       q    Type
REMARK                         _______ _______ _______ _____ _____    ______ ____
ROOT
ATOM      1  C   LIG    1       31.289 -20.193   8.855  0.00  0.00    +0.108 C 
ATOM      2  C   LIG    1       30.047 -20.642   8.139  0.00  0.00    +0.123 C 
ATOM      3  C   LIG    1       29.567 -19.504   7.240  0.00  0.00    +0.207 C 
ATOM      4  O   LIG    1       29.418 -18.290   7.997  0.00  0.00    -0.454 OA
ATOM      5  C   LIG    1       30.448 -17.886   8.775  0.00  0.00    +0.336 C 
ATOM      6  O   LIG    1       30.533 -16.747   9.218  0.00  0.00    -0.245 OA
ATOM      7  C   LIG    1       31.472 -18.889   9.113  0.00  0.00    +0.132 C 
ENDROOT
BRANCH   1   9
ATOM      8  C   LIG    1       31.651 -22.548   9.069  0.00  0.00    +0.276 C 
ATOM      9  O   LIG    1       32.154 -21.219   9.166  0.00  0.00    -0.499 OA
ENDBRANCH   1   9
BRANCH   3  10
ATOM     10  C   LIG    1       28.222 -19.804   6.643  0.00  0.00    +0.018 C 
ATOM     11  C   LIG    1       27.171 -20.258   7.344  0.00  0.00    +0.007 C 
BRANCH  11  12
ATOM     12  C   LIG    1       25.865 -20.558   6.765  0.00  0.00    -0.029 C 
ATOM     13  C   LIG    1       25.589 -20.508   5.334  0.00  0.00    +0.003 C 
ATOM     14  C   LIG    1       24.362 -20.670   4.820  0.00  0.00    -0.026 C 
ATOM     15  C   LIG    1       23.154 -20.908   5.670  0.00  0.00    +0.031 C 
ATOM     16  C   LIG    1       23.454 -21.181   7.151  0.00  0.00    +0.032 C 
ATOM     17  C   LIG    1       24.849 -20.847   7.603  0.00  0.00    -0.019 C 
ENDBRANCH  11  12
ENDBRANCH   3  10
TORSDOF 3
ENDMDL
MODEL 4
REMARK VINA RESULT:      -8.2      3.324      7.490
REMARK  Name = *****
REMARK                            x       y       z     vdW  Elec       q    Type
REMARK                         _______ _______ _______ _____ _____    ______ ____
ROOT
ATOM      1  C   LIG    1       23.463 -23.167   6.635  0.00  0.00    +0.108 C 
ATOM      2  C   LIG    1       24.867 -22.793   7.017  0.00  0.00    +0.123 C 
ATOM      3  C   LIG    1       24.870 -21.343   7.497  0.00  0.00    +0.207 C 
ATOM      4  O   LIG    1       24.266 -20.483   6.515  0.00  0.00    -0.454 OA
ATOM      5  C   LIG    1       23.054 -20.823   6.020  0.00  0.00    +0.336 C 
ATOM      6  O   LIG    1       22.342 -20.031   5.415  0.00  0.00    -0.245 OA
ATOM      7  C   LIG    1       22.617 -22.218   6.201  0.00  0.00    +0.132 C 
ENDROOT
BRANCH   1   9
ATOM      8  C   LIG    1       24.065 -25.439   6.189  0.00  0.00    +0.276 C 
ATOM      9  O   LIG    1       23.178 -24.504   6.798  0.00  0.00    -0.499 OA
ENDBRANCH   1   9
BRANCH   3  10
ATOM     10  C   LIG    1       26.268 -20.836   7.708  0.00  0.00    +0.018 C 
ATOM     11  C   LIG    1       27.280 -21.037   6.849  0.00  0.00    +0.007 C 
BRANCH  11  12
ATOM     12  C   LIG    1       28.641 -20.553   7.056  0.00  0.00    -0.029 C 
ATOM     13  C   LIG    1       29.566 -21.137   8.020  0.00  0.00    +0.003 C 
ATOM     14  C   LIG    1       30.770 -20.615   8.287  0.00  0.00    -0.026 C 
ATOM     15  C   LIG    1       31.278 -19.372   7.626  0.00  0.00    +0.031 C 
ATOM     16  C   LIG    1       30.419 -18.870   6.456  0.00  0.00    +0.032 C 
ATOM     17  C   LIG    1       29.046 -19.476   6.353  0.00  0.00    -0.019 C 
ENDBRANCH  11  12
ENDBRANCH   3  10
TORSDOF 3
ENDMDL
MODEL 5
REMARK VINA RESULT:      -7.7      3.109      7.166
REMARK  Name = *****
REMARK                            x       y       z     vdW  Elec       q    Type
REMARK                         _______ _______ _______ _____ _____    ______ ____
ROOT
ATOM      1  C   LIG    1       23.182 -21.003   6.162  0.00  0.00    +0.108 C 
ATOM      2  C   LIG    1       24.562 -20.631   6.626  0.00  0.00    +0.123 C 
ATOM      3  C   LIG    1       25.502 -21.800   6.343  0.00  0.00    +0.207 C 
ATOM      4  O   LIG    1       24.985 -23.015   6.913  0.00  0.00    -0.454 OA
ATOM      5  C   LIG    1       23.703 -23.355   6.650  0.00  0.00    +0.336 C 
ATOM      6  O   LIG    1       23.266 -24.483   6.840  0.00  0.00    -0.245 OA
ATOM      7  C   LIG    1       22.812 -22.293   6.149  0.00  0.00    +0.132 C 
ENDROOT
BRANCH   1   9
ATOM      8  C   LIG    1       22.788 -19.285   4.545  0.00  0.00    +0.276 C 
ATOM      9  O   LIG    1       22.419 -19.929   5.762  0.00  0.00    -0.499 OA
ENDBRANCH   1   9
BRANCH   3  10
ATOM     10  C   LIG    1       26.854 -21.581   6.958  0.00  0.00    +0.018 C 
ATOM     11  C   LIG    1       27.596 -20.476   6.776  0.00  0.00    +0.007 C 
BRANCH  11  12
ATOM     12  C   LIG    1       28.913 -20.264   7.366  0.00  0.00    -0.029 C 
ATOM     13  C   LIG    1       29.655 -21.302   8.072  0.00  0.00    +0.003 C 
ATOM     14  C   LIG    1       30.809 -21.070   8.711  0.00  0.00    -0.026 C 
ATOM     15  C   LIG    1       31.443 -19.715   8.770  0.00  0.00    +0.031 C 
ATOM     16  C   LIG    1       30.797 -18.664   7.856  0.00  0.00    +0.032 C 
ATOM     17  C   LIG    1       29.448 -19.029   7.299  0.00  0.00    -0.019 C 
ENDBRANCH  11  12
ENDBRANCH   3  10
TORSDOF 3
ENDMDL
MODEL 6
REMARK VINA RESULT:      -7.7      1.953      2.768
REMARK  Name = *****
REMARK                            x       y       z     vdW  Elec       q    Type
REMARK                         _______ _______ _______ _____ _____    ______ ____
ROOT
ATOM      1  C   LIG    1       30.663 -19.355   8.399  0.00  0.00    +0.108 C 
ATOM      2  C   LIG    1       29.562 -20.368   8.537  0.00  0.00    +0.123 C 
ATOM      3  C   LIG    1       29.198 -20.883   7.146  0.00  0.00    +0.207 C 
ATOM      4  O   LIG    1       28.898 -19.786   6.264  0.00  0.00    -0.454 OA
ATOM      5  C   LIG    1       29.781 -18.765   6.183  0.00  0.00    +0.336 C 
ATOM      6  O   LIG    1       29.763 -17.949   5.270  0.00  0.00    -0.245 OA
ATOM      7  C   LIG    1       30.767 -18.637   7.269  0.00  0.00    +0.132 C 
ENDROOT
BRANCH   1   9
ATOM      8  C   LIG    1       31.580 -18.034  10.170  0.00  0.00    +0.276 C 
ATOM      9  O   LIG    1       31.498 -19.286   9.492  0.00  0.00    -0.499 OA
ENDBRANCH   1   9
BRANCH   3  10
ATOM     10  C   LIG    1       27.972 -21.750   7.183  0.00  0.00    +0.018 C 
ATOM     11  C   LIG    1       26.734 -21.317   6.898  0.00  0.00    +0.007 C 
BRANCH  11  12
ATOM     12  C   LIG    1       25.540 -22.155   6.941  0.00  0.00    -0.029 C 
ATOM     13  C   LIG    1       25.564 -23.600   6.741  0.00  0.00    +0.003 C 
ATOM     14  C   LIG    1       24.454 -24.346   6.667  0.00  0.00    -0.026 C 
ATOM     15  C   LIG    1       23.079 -23.764   6.771  0.00  0.00    +0.031 C 
ATOM     16  C   LIG    1       23.037 -22.289   7.198  0.00  0.00    +0.032 C 
ATOM     17  C   LIG    1       24.347 -21.555   7.125  0.00  0.00    -0.019 C 
ENDBRANCH  11  12
ENDBRANCH   3  10
TORSDOF 3
ENDMDL
MODEL 7
REMARK VINA RESULT:      -7.5      1.535      2.230
REMARK  Name = *****
REMARK                            x       y       z     vdW  Elec       q    Type
REMARK                         _______ _______ _______ _____ _____    ______ ____
ROOT
ATOM      1  C   LIG    1       30.533 -18.770   9.503  0.00  0.00    +0.108 C 
ATOM      2  C   LIG    1       29.156 -18.943   8.927  0.00  0.00    +0.123 C 
ATOM      3  C   LIG    1       29.235 -19.933   7.767  0.00  0.00    +0.207 C 
ATOM      4  O   LIG    1       30.235 -19.521   6.818  0.00  0.00    -0.454 OA
ATOM      5  C   LIG    1       31.470 -19.217   7.276  0.00  0.00    +0.336 C 
ATOM      6  O   LIG    1       32.446 -19.141   6.540  0.00  0.00    -0.245 OA
ATOM      7  C   LIG    1       31.607 -18.938   8.716  0.00  0.00    +0.132 C 
ENDROOT
BRANCH   1   9
ATOM      8  C   LIG    1       31.236 -17.282  11.239  0.00  0.00    +0.276 C 
ATOM      9  O   LIG    1       30.542 -18.463  10.845  0.00  0.00    -0.499 OA
ENDBRANCH   1   9
BRANCH   3  10
ATOM     10  C   LIG    1       27.936 -20.005   7.016  0.00  0.00    +0.018 C 
ATOM     11  C   LIG    1       26.817 -20.570   7.498  0.00  0.00    +0.007 C 
BRANCH  11  12
ATOM     12  C   LIG    1       25.557 -20.648   6.767  0.00  0.00    -0.029 C 
ATOM     13  C   LIG    1       24.273 -20.925   7.403  0.00  0.00    +0.003 C 
ATOM     14  C   LIG    1       23.141 -21.112   6.713  0.00  0.00    -0.026 C 
ATOM     15  C   LIG    1       23.086 -21.063   5.218  0.00  0.00    +0.031 C 
ATOM     16  C   LIG    1       24.371 -20.560   4.545  0.00  0.00    +0.032 C 
ATOM     17  C   LIG    1       25.589 -20.508   5.427  0.00  0.00    -0.019 C 
ENDBRANCH  11  12
ENDBRANCH   3  10
TORSDOF 3
ENDMDL
MODEL 8
REMARK VINA RESULT:      -7.5      6.108      8.319
REMARK  Name = *****
REMARK                            x       y       z     vdW  Elec       q    Type
REMARK                         _______ _______ _______ _____ _____    ______ ____
ROOT
ATOM      1  C   LIG    1       24.499 -29.018   6.762  0.00  0.00    +0.108 C 
ATOM      2  C   LIG    1       24.318 -27.586   6.345  0.00  0.00    +0.123 C 
ATOM      3  C   LIG    1       25.652 -26.861   6.503  0.00  0.00    +0.207 C 
ATOM      4  O   LIG    1       26.169 -27.037   7.834  0.00  0.00    -0.454 OA
ATOM      5  C   LIG    1       26.241 -28.291   8.336  0.00  0.00    +0.336 C 
ATOM      6  O   LIG    1       26.918 -28.571   9.317  0.00  0.00    -0.245 OA
ATOM      7  C   LIG    1       25.433 -29.330   7.675  0.00  0.00    +0.132 C 
ENDROOT
BRANCH   1   9
ATOM      8  C   LIG    1       24.029 -31.274   6.123  0.00  0.00    +0.276 C 
ATOM      9  O   LIG    1       23.659 -29.898   6.117  0.00  0.00    -0.499 OA
ENDBRANCH   1   9
BRANCH   3  10
ATOM     10  C   LIG    1       25.503 -25.381   6.294  0.00  0.00    +0.018 C 
ATOM     11  C   LIG    1       24.374 -24.695   6.537  0.00  0.00    +0.007 C 
BRANCH  11  12
ATOM     12  C   LIG    1       24.224 -23.260   6.328  0.00  0.00    -0.029 C 
ATOM     13  C   LIG    1       23.476 -22.389   7.227  0.00  0.00    +0.003 C 
ATOM     14  C   LIG    1       23.244 -21.095   6.969  0.00  0.00    -0.026 C 
ATOM     15  C   LIG    1       23.724 -20.421   5.722  0.00  0.00    +0.031 C 
ATOM     16  C   LIG    1       24.694 -21.256   4.873  0.00  0.00    +0.032 C 
ATOM     17  C   LIG    1       24.763 -22.719   5.217  0.00  0.00    -0.019 C 
ENDBRANCH  11  12
ENDBRANCH   3  10
TORSDOF 3
ENDMDL
MODEL 9
REMARK VINA RESULT:      -7.5      2.641      6.878
REMARK  Name = *****
REMARK                            x       y       z     vdW  Elec       q    Type
REMARK                         _______ _______ _______ _____ _____    ______ ____
ROOT
ATOM      1  C   LIG    1       23.940 -21.873   6.436  0.00  0.00    +0.108 C 
ATOM      2  C   LIG    1       24.898 -20.830   6.940  0.00  0.00    +0.123 C 
ATOM      3  C   LIG    1       26.323 -21.302   6.656  0.00  0.00    +0.207 C 
ATOM      4  O   LIG    1       26.535 -22.620   7.191  0.00  0.00    -0.454 OA
ATOM      5  C   LIG    1       25.640 -23.588   6.891  0.00  0.00    +0.336 C 
ATOM      6  O   LIG    1       25.878 -24.779   7.049  0.00  0.00    -0.245 OA
ATOM      7  C   LIG    1       24.323 -23.159   6.390  0.00  0.00    +0.132 C 
ENDROOT
BRANCH   1   9
ATOM      8  C   LIG    1       22.711 -20.049   5.496  0.00  0.00    +0.276 C 
ATOM      9  O   LIG    1       22.723 -21.366   6.040  0.00  0.00    -0.499 OA
ENDBRANCH   1   9
BRANCH   3  10
ATOM     10  C   LIG    1       27.338 -20.407   7.308  0.00  0.00    +0.018 C 
ATOM     11  C   LIG    1       28.628 -20.336   6.939  0.00  0.00    +0.007 C 
BRANCH  11  12
ATOM     12  C   LIG    1       29.618 -19.474   7.575  0.00  0.00    -0.029 C 
ATOM     13  C   LIG    1       31.006 -19.382   7.135  0.00  0.00    +0.003 C 
ATOM     14  C   LIG    1       31.936 -18.679   7.794  0.00  0.00    -0.026 C 
ATOM     15  C   LIG    1       31.641 -17.928   9.055  0.00  0.00    +0.031 C 
ATOM     16  C   LIG    1       30.150 -17.833   9.412  0.00  0.00    +0.032 C 
ATOM     17  C   LIG    1       29.242 -18.765   8.658  0.00  0.00    -0.019 C 
ENDBRANCH  11  12
ENDBRANCH   3  10
TORSDOF 3
ENDMDL
