MODEL 1
REMARK VINA RESULT:       8.0      0.000      0.000
REMARK  Name = *****
REMARK                            x       y       z     vdW  Elec       q    Type
REMARK                         _______ _______ _______ _____ _____    ______ ____
ROOT
ATOM      1  C   LIG    1       25.007 -31.801   7.487  0.00  0.00    +0.078 C 
ATOM      2  C   LIG    1       26.144 -31.484   6.150  0.00  0.00    +0.142 C 
ATOM      3  O   LIG    1       26.478 -32.472   5.460  0.00  0.00    -0.297 OA
ATOM      4  C   LIG    1       26.731 -30.124   5.668  0.00  0.00    +0.106 C 
ATOM      5  C   LIG    1       25.926 -28.812   5.564  0.00  0.00    +0.128 C 
ATOM      6  C   LIG    1       26.391 -27.692   6.537  0.00  0.00    +0.060 C 
ATOM      7  C   LIG    1       27.512 -26.818   5.965  0.00  0.00    +0.014 C 
ATOM      8  C   LIG    1       25.205 -26.855   7.169  0.00  0.00    +0.207 C 
ATOM      9  O   LIG    1       24.278 -27.759   7.855  0.00  0.00    -0.455 OA
ATOM     10  C   LIG    1       24.850 -28.458   8.898  0.00  0.00    +0.328 C 
ATOM     11  O   LIG    1       25.743 -27.976   9.584  0.00  0.00    -0.249 OA
ATOM     12  C   LIG    1       24.726 -29.994   8.623  0.00  0.00    +0.185 C 
ATOM     13  N   LIG    1       23.267 -31.186   8.603  0.00  0.00    -0.281 N 
ATOM     14  C   LIG    1       23.442 -33.038   8.464  0.00  0.00    +0.109 C 
ATOM     15  C   LIG    1       25.187 -33.825   8.611  0.00  0.00    +0.019 C 
ATOM     16  C   LIG    1       26.717 -32.707   8.405  0.00  0.00    +0.004 C 
ATOM     17  C   LIG    1       22.181 -30.939   9.423  0.00  0.00    +0.288 C 
ATOM     18  O   LIG    1       21.114 -31.529   9.421  0.00  0.00    -0.267 OA
ATOM     19  C   LIG    1       22.624 -30.196  10.616  0.00  0.00    +0.276 C 
ATOM     20  O   LIG    1       22.363 -28.999  10.708  0.00  0.00    -0.281 OA
ATOM     21  C   LIG    1       23.450 -31.021  11.621  0.00  0.00    +0.240 C 
ATOM     22  C   LIG    1       23.720 -32.970  11.764  0.00  0.00    +0.056 C 
ATOM     23  C   LIG    1       22.467 -33.632  12.382  0.00  0.00    +0.013 C 
ATOM     24  C   LIG    1       25.354 -33.613  12.639  0.00  0.00    +0.043 C 
ATOM     25  C   LIG    1       26.759 -32.370  13.151  0.00  0.00    +0.150 C 
ATOM     26  C   LIG    1       26.457 -30.453  12.690  0.00  0.00    +0.179 C 
ATOM     27  C   LIG    1       26.477 -29.516  13.935  0.00  0.00    +0.149 C 
ATOM     28  C   LIG    1       25.903 -30.225  15.152  0.00  0.00    +0.038 C 
ATOM     29  C   LIG    1       25.090 -31.466  14.758  0.00  0.00    -0.008 C 
ATOM     30  C   LIG    1       23.718 -31.368  15.500  0.00  0.00    +0.008 C 
ATOM     31  C   LIG    1       24.853 -31.624  13.008  0.00  0.00    +0.033 C 
ATOM     32  C   LIG    1       25.691 -31.885  11.094  0.00  0.00    -0.076 C 
ATOM     33  C   LIG    1       27.365 -32.106  10.880  0.00  0.00    +0.038 C 
ATOM     34  O   LIG    1       24.957 -29.985  11.700  0.00  0.00    -0.334 OA
ATOM     35  C   LIG    1       26.518 -30.755   8.591  0.00  0.00    +0.034 C 
ATOM     36  C   LIG    1       25.074 -31.874   9.595  0.00  0.00    -0.017 C 
ENDROOT
BRANCH   8  37
ATOM     37  C   LIG    1       24.405 -25.963   6.208  0.00  0.00    -0.036 C 
ATOM     38  C   LIG    1       24.127 -24.675   6.524  0.00  0.00    -0.021 C 
ATOM     39  C   LIG    1       23.876 -26.623   4.961  0.00  0.00    +0.042 C 
BRANCH  38  40
ATOM     40  C   LIG    1       23.306 -23.667   5.725  0.00  0.00    +0.014 C 
ATOM     41  C   LIG    1       22.826 -22.406   6.500  0.00  0.00    +0.040 C 
ATOM     42  C   LIG    1       23.928 -21.355   6.727  0.00  0.00    +0.136 C 
ATOM     43  C   LIG    1       24.418 -20.933   5.329  0.00  0.00    +0.109 C 
ATOM     44 CL   LIG    1       25.484 -19.501   5.340  0.00  0.00    -0.119 Cl
ATOM     45  C   LIG    1       25.068 -22.117   4.618  0.00  0.00    +0.022 C 
ATOM     46  C   LIG    1       24.041 -23.241   4.425  0.00  0.00    +0.009 C 
BRANCH  42  47
ATOM     47  O   LIG    1       24.893 -21.986   7.574  0.00  0.00    -0.378 OA
ATOM     48  C   LIG    1       25.751 -21.124   8.298  0.00  0.00    +0.194 C 
ENDBRANCH  42  47
ENDBRANCH  38  40
ENDBRANCH   8  37
BRANCH   1  50
ATOM     49  C   LIG    1       22.984 -32.270   5.346  0.00  0.00    +0.005 C 
ATOM     50  C   LIG    1       23.609 -31.285   6.341  0.00  0.00    +0.011 C 
ENDBRANCH   1  50
BRANCH   5  51
ATOM     51  O   LIG    1       25.996 -28.349   4.210  0.00  0.00    -0.391 OA
ATOM     52  H   LIG    1       26.482 -27.505   4.188  0.00  0.00    +0.210 HD
ENDBRANCH   5  51
BRANCH  27  53
ATOM     53  O   LIG    1       25.733 -28.299  13.746  0.00  0.00    -0.377 OA
ATOM     54  C   LIG    1       26.489 -27.222  13.208  0.00  0.00    +0.194 C 
ENDBRANCH  27  53
BRANCH  25  55
ATOM     55  O   LIG    1       27.340 -32.553  14.477  0.00  0.00    -0.377 OA
ATOM     56  C   LIG    1       27.077 -33.824  15.068  0.00  0.00    +0.194 C 
ENDBRANCH  25  55
BRANCH  21  57
ATOM     57  O   LIG    1       22.522 -30.660  12.740  0.00  0.00    -0.358 OA
ATOM     58  H   LIG    1       22.986 -30.919  13.566  0.00  0.00    +0.213 HD
ENDBRANCH  21  57
TORSDOF 8
ENDMDL
