MODEL 1
REMARK VINA RESULT:      -8.2      0.000      0.000
REMARK  Name = *****
REMARK                            x       y       z     vdW  Elec       q    Type
REMARK                         _______ _______ _______ _____ _____    ______ ____
ROOT
ATOM      1  C   LIG    1       26.506 -29.274  10.347  0.00  0.00    +0.215 C 
ATOM      2  C   LIG    1       27.886 -29.535  10.949  0.00  0.00    +0.074 C 
ATOM      3  C   LIG    1       25.586 -28.612  11.373  0.00  0.00    +0.271 C 
ATOM      4  O   LIG    1       25.801 -27.565  11.973  0.00  0.00    -0.270 OA
ATOM      5  N   LIG    1       24.464 -29.408  11.464  0.00  0.00    -0.233 N 
ATOM      6  C   LIG    1       24.757 -30.679  10.876  0.00  0.00    +0.269 C 
ATOM      7  C   LIG    1       25.077 -31.708  11.987  0.00  0.00    +0.156 C 
ATOM      8  N   LIG    1       24.281 -31.577  13.198  0.00  0.00    -0.290 N 
ATOM      9  C   LIG    1       23.831 -30.367  13.683  0.00  0.00    +0.237 C 
ATOM     10  O   LIG    1       23.520 -30.226  14.863  0.00  0.00    -0.274 OA
ATOM     11  C   LIG    1       24.265 -32.808  13.958  0.00  0.00    +0.108 C 
ATOM     12  C   LIG    1       24.976 -33.820  13.058  0.00  0.00    +0.021 C 
ATOM     13  C   LIG    1       24.930 -33.188  11.661  0.00  0.00    +0.031 C 
ATOM     14  C   LIG    1       23.511 -29.307  12.594  0.00  0.00    +0.171 C 
ATOM     15  O   LIG    1       25.913 -30.536  10.053  0.00  0.00    -0.299 OA
ENDROOT
BRANCH   1  17
ATOM     16  C   LIG    1       25.653 -28.397   8.172  0.00  0.00    +0.224 C 
ATOM     17  N   LIG    1       26.641 -28.500   9.126  0.00  0.00    -0.280 N 
ATOM     18  H   LIG    1       27.361 -27.790   9.133  0.00  0.00    +0.152 HD
ATOM     19  O   LIG    1       24.568 -28.973   8.270  0.00  0.00    -0.275 OA
BRANCH  16  35
ATOM     20  C   LIG    1       26.222 -26.686   4.003  0.00  0.00    +0.105 C 
ATOM     21  N   LIG    1       24.978 -26.667   4.779  0.00  0.00    -0.297 NA
ATOM     22  C   LIG    1       24.705 -25.353   5.434  0.00  0.00    +0.091 C 
ATOM     23  C   LIG    1       25.602 -25.088   6.685  0.00  0.00    -0.025 C 
ATOM     24  C   LIG    1       25.684 -23.692   7.188  0.00  0.00    -0.011 C 
ATOM     25  C   LIG    1       25.065 -22.732   6.372  0.00  0.00    +0.010 C 
ATOM     26  C   LIG    1       24.951 -21.405   6.757  0.00  0.00    +0.047 C 
ATOM     27  N   LIG    1       24.252 -20.768   5.753  0.00  0.00    -0.360 NA
ATOM     28  H   LIG    1       24.001 -19.789   5.761  0.00  0.00    +0.165 HD
ATOM     29  C   LIG    1       23.971 -21.649   4.732  0.00  0.00    +0.087 C 
ATOM     30  C   LIG    1       25.486 -20.942   7.959  0.00  0.00    +0.026 C 
ATOM     31  C   LIG    1       26.146 -21.884   8.762  0.00  0.00    +0.003 C 
ATOM     32  C   LIG    1       24.487 -22.872   5.090  0.00  0.00    -0.020 C 
ATOM     33  C   LIG    1       26.238 -23.233   8.392  0.00  0.00    +0.009 C 
ATOM     34  C   LIG    1       26.207 -26.109   7.328  0.00  0.00    -0.007 C 
ATOM     35  C   LIG    1       26.009 -27.557   6.927  0.00  0.00    +0.112 C 
ATOM     36  C   LIG    1       24.575 -24.183   4.392  0.00  0.00    +0.060 C 
ATOM     37  C   LIG    1       24.967 -27.733   5.802  0.00  0.00    +0.101 C 
ENDBRANCH  16  35
ENDBRANCH   1  17
BRANCH   6  38
ATOM     38  O   LIG    1       23.680 -31.049  10.060  0.00  0.00    -0.348 OA
ATOM     39  H   LIG    1       24.064 -31.770   9.518  0.00  0.00    +0.214 HD
ENDBRANCH   6  38
BRANCH  14  40
ATOM     40  C   LIG    1       22.049 -29.479  12.115  0.00  0.00    +0.067 C 
BRANCH  40  41
ATOM     41  C   LIG    1       21.012 -28.680  12.878  0.00  0.00    -0.045 A 
ATOM     42  C   LIG    1       21.023 -27.281  12.860  0.00  0.00    +0.003 A 
ATOM     43  C   LIG    1       20.060 -26.556  13.567  0.00  0.00    +0.000 A 
ATOM     44  C   LIG    1       19.082 -27.220  14.306  0.00  0.00    +0.000 A 
ATOM     45  C   LIG    1       19.062 -28.611  14.335  0.00  0.00    +0.000 A 
ATOM     46  C   LIG    1       20.016 -29.336  13.620  0.00  0.00    +0.003 A 
ENDBRANCH  40  41
ENDBRANCH  14  40
TORSDOF 5
ENDMDL
MODEL 2
REMARK VINA RESULT:      -7.9      2.735      8.666
REMARK  Name = *****
REMARK                            x       y       z     vdW  Elec       q    Type
REMARK                         _______ _______ _______ _____ _____    ______ ____
ROOT
ATOM      1  C   LIG    1       23.955 -31.410  10.462  0.00  0.00    +0.215 C 
ATOM      2  C   LIG    1       23.303 -32.791  10.474  0.00  0.00    +0.074 C 
ATOM      3  C   LIG    1       23.693 -30.700   9.134  0.00  0.00    +0.271 C 
ATOM      4  O   LIG    1       22.596 -30.465   8.640  0.00  0.00    -0.270 OA
ATOM      5  N   LIG    1       24.926 -30.357   8.622  0.00  0.00    -0.233 N 
ATOM      6  C   LIG    1       25.932 -31.103   9.315  0.00  0.00    +0.269 C 
ATOM      7  C   LIG    1       26.368 -32.316   8.459  0.00  0.00    +0.156 C 
ATOM      8  N   LIG    1       26.434 -32.067   7.025  0.00  0.00    -0.290 N 
ATOM      9  C   LIG    1       25.585 -31.205   6.366  0.00  0.00    +0.237 C 
ATOM     10  O   LIG    1       25.388 -31.301   5.156  0.00  0.00    -0.274 OA
ATOM     11  C   LIG    1       27.290 -33.026   6.361  0.00  0.00    +0.108 C 
ATOM     12  C   LIG    1       27.924 -33.825   7.500  0.00  0.00    +0.021 C 
ATOM     13  C   LIG    1       27.725 -32.945   8.741  0.00  0.00    +0.031 C 
ATOM     14  C   LIG    1       25.118 -29.982   7.201  0.00  0.00    +0.171 C 
ATOM     15  O   LIG    1       25.367 -31.594  10.529  0.00  0.00    -0.299 OA
ENDROOT
BRANCH   1  17
ATOM     16  C   LIG    1       24.087 -29.462  12.017  0.00  0.00    +0.224 C 
ATOM     17  N   LIG    1       23.506 -30.643  11.611  0.00  0.00    -0.280 N 
ATOM     18  H   LIG    1       22.565 -30.835  11.926  0.00  0.00    +0.152 HD
ATOM     19  O   LIG    1       25.056 -28.963  11.442  0.00  0.00    -0.275 OA
BRANCH  16  35
ATOM     20  C   LIG    1       22.926 -26.788  15.500  0.00  0.00    +0.105 C 
ATOM     21  N   LIG    1       22.473 -26.641  14.113  0.00  0.00    -0.297 NA
ATOM     22  C   LIG    1       21.097 -27.170  13.879  0.00  0.00    +0.091 C 
ATOM     23  C   LIG    1       21.033 -28.730  13.835  0.00  0.00    -0.025 C 
ATOM     24  C   LIG    1       19.698 -29.368  13.976  0.00  0.00    -0.011 C 
ATOM     25  C   LIG    1       18.654 -28.488  14.299  0.00  0.00    +0.010 C 
ATOM     26  C   LIG    1       17.333 -28.904  14.351  0.00  0.00    +0.047 C 
ATOM     27  N   LIG    1       16.583 -27.784  14.642  0.00  0.00    -0.360 NA
ATOM     28  H   LIG    1       15.576 -27.774  14.728  0.00  0.00    +0.165 HD
ATOM     29  C   LIG    1       17.404 -26.692  14.821  0.00  0.00    +0.087 C 
ATOM     30  C   LIG    1       16.974 -30.234  14.128  0.00  0.00    +0.026 C 
ATOM     31  C   LIG    1       18.014 -31.131  13.848  0.00  0.00    +0.003 C 
ATOM     32  C   LIG    1       18.698 -27.115  14.631  0.00  0.00    -0.020 C 
ATOM     33  C   LIG    1       19.349 -30.710  13.765  0.00  0.00    +0.009 C 
ATOM     34  C   LIG    1       22.143 -29.458  13.591  0.00  0.00    -0.007 C 
ATOM     35  C   LIG    1       23.485 -28.823  13.287  0.00  0.00    +0.112 C 
ATOM     36  C   LIG    1       20.017 -26.440  14.759  0.00  0.00    +0.060 C 
ATOM     37  C   LIG    1       23.410 -27.286  13.171  0.00  0.00    +0.101 C 
ENDBRANCH  16  35
ENDBRANCH   1  17
BRANCH   6  38
ATOM     38  O   LIG    1       26.983 -30.235   9.639  0.00  0.00    -0.348 OA
ATOM     39  H   LIG    1       27.124 -29.752   8.798  0.00  0.00    +0.214 HD
ENDBRANCH   6  38
BRANCH  14  40
ATOM     40  C   LIG    1       26.143 -28.831   7.056  0.00  0.00    +0.067 C 
BRANCH  40  41
ATOM     41  C   LIG    1       25.568 -27.490   6.647  0.00  0.00    -0.045 A 
ATOM     42  C   LIG    1       24.503 -27.408   5.744  0.00  0.00    +0.003 A 
ATOM     43  C   LIG    1       23.981 -26.165   5.375  0.00  0.00    +0.000 A 
ATOM     44  C   LIG    1       24.523 -24.992   5.897  0.00  0.00    +0.000 A 
ATOM     45  C   LIG    1       25.585 -25.060   6.795  0.00  0.00    +0.000 A 
ATOM     46  C   LIG    1       26.099 -26.301   7.172  0.00  0.00    +0.003 A 
ENDBRANCH  40  41
ENDBRANCH  14  40
TORSDOF 5
ENDMDL
MODEL 3
REMARK VINA RESULT:      -7.4      2.190      2.784
REMARK  Name = *****
REMARK                            x       y       z     vdW  Elec       q    Type
REMARK                         _______ _______ _______ _____ _____    ______ ____
ROOT
ATOM      1  C   LIG    1       25.939 -30.365   8.817  0.00  0.00    +0.215 C 
ATOM      2  C   LIG    1       26.655 -31.611   8.297  0.00  0.00    +0.074 C 
ATOM      3  C   LIG    1       26.589 -29.868  10.107  0.00  0.00    +0.271 C 
ATOM      4  O   LIG    1       27.767 -29.562  10.257  0.00  0.00    -0.270 OA
ATOM      5  N   LIG    1       25.588 -29.807  11.053  0.00  0.00    -0.233 N 
ATOM      6  C   LIG    1       24.467 -30.561  10.580  0.00  0.00    +0.269 C 
ATOM      7  C   LIG    1       24.455 -31.956  11.250  0.00  0.00    +0.156 C 
ATOM      8  N   LIG    1       24.872 -31.975  12.645  0.00  0.00    -0.290 N 
ATOM      9  C   LIG    1       25.825 -31.124  13.162  0.00  0.00    +0.237 C 
ATOM     10  O   LIG    1       26.437 -31.399  14.193  0.00  0.00    -0.274 OA
ATOM     11  C   LIG    1       24.380 -33.151  13.329  0.00  0.00    +0.108 C 
ATOM     12  C   LIG    1       23.456 -33.824  12.313  0.00  0.00    +0.021 C 
ATOM     13  C   LIG    1       23.140 -32.721  11.295  0.00  0.00    +0.031 C 
ATOM     14  C   LIG    1       25.873 -29.718  12.504  0.00  0.00    +0.171 C 
ATOM     15  O   LIG    1       24.612 -30.743   9.173  0.00  0.00    -0.299 OA
ENDROOT
BRANCH   1  17
ATOM     16  C   LIG    1       26.080 -28.007   8.012  0.00  0.00    +0.224 C 
ATOM     17  N   LIG    1       25.897 -29.352   7.777  0.00  0.00    -0.280 N 
ATOM     18  H   LIG    1       26.036 -29.685   6.833  0.00  0.00    +0.152 HD
ATOM     19  O   LIG    1       26.278 -27.547   9.138  0.00  0.00    -0.275 OA
BRANCH  16  35
ATOM     20  C   LIG    1       25.138 -26.074   4.011  0.00  0.00    +0.105 C 
ATOM     21  N   LIG    1       24.226 -26.173   5.156  0.00  0.00    -0.297 NA
ATOM     22  C   LIG    1       24.127 -24.911   5.947  0.00  0.00    +0.091 C 
ATOM     23  C   LIG    1       25.377 -24.644   6.844  0.00  0.00    -0.025 C 
ATOM     24  C   LIG    1       25.557 -23.270   7.381  0.00  0.00    -0.011 C 
ATOM     25  C   LIG    1       24.656 -22.318   6.881  0.00  0.00    +0.010 C 
ATOM     26  C   LIG    1       24.615 -21.020   7.368  0.00  0.00    +0.047 C 
ATOM     27  N   LIG    1       23.591 -20.385   6.697  0.00  0.00    -0.360 NA
ATOM     28  H   LIG    1       23.310 -19.427   6.851  0.00  0.00    +0.165 HD
ATOM     29  C   LIG    1       23.026 -21.236   5.771  0.00  0.00    +0.087 C 
ATOM     30  C   LIG    1       25.499 -20.578   8.352  0.00  0.00    +0.026 C 
ATOM     31  C   LIG    1       26.433 -21.509   8.827  0.00  0.00    +0.003 C 
ATOM     32  C   LIG    1       23.690 -22.437   5.858  0.00  0.00    -0.020 C 
ATOM     33  C   LIG    1       26.460 -22.831   8.361  0.00  0.00    +0.009 C 
ATOM     34  C   LIG    1       26.211 -25.651   7.182  0.00  0.00    -0.007 C 
ATOM     35  C   LIG    1       25.959 -27.089   6.776  0.00  0.00    +0.112 C 
ATOM     36  C   LIG    1       23.600 -23.706   5.087  0.00  0.00    +0.060 C 
ATOM     37  C   LIG    1       24.609 -27.283   6.053  0.00  0.00    +0.101 C 
ENDBRANCH  16  35
ENDBRANCH   1  17
BRANCH   6  38
ATOM     38  O   LIG    1       23.303 -29.816  10.809  0.00  0.00    -0.348 OA
ATOM     39  H   LIG    1       22.687 -30.176  10.137  0.00  0.00    +0.214 HD
ENDBRANCH   6  38
BRANCH  14  40
ATOM     40  C   LIG    1       24.873 -28.776  13.218  0.00  0.00    +0.067 C 
BRANCH  40  41
ATOM     41  C   LIG    1       25.321 -27.337  13.365  0.00  0.00    -0.045 A 
ATOM     42  C   LIG    1       26.647 -26.965  13.113  0.00  0.00    +0.003 A 
ATOM     43  C   LIG    1       27.049 -25.634  13.252  0.00  0.00    +0.000 A 
ATOM     44  C   LIG    1       26.133 -24.662  13.652  0.00  0.00    +0.000 A 
ATOM     45  C   LIG    1       24.812 -25.018  13.908  0.00  0.00    +0.000 A 
ATOM     46  C   LIG    1       24.408 -26.345  13.759  0.00  0.00    +0.003 A 
ENDBRANCH  40  41
ENDBRANCH  14  40
TORSDOF 5
ENDMDL
MODEL 4
REMARK VINA RESULT:      -6.9      3.412      9.791
REMARK  Name = *****
REMARK                            x       y       z     vdW  Elec       q    Type
REMARK                         _______ _______ _______ _____ _____    ______ ____
ROOT
ATOM      1  C   LIG    1       25.863 -25.667   6.195  0.00  0.00    +0.215 C 
ATOM      2  C   LIG    1       27.299 -25.914   5.737  0.00  0.00    +0.074 C 
ATOM      3  C   LIG    1       25.102 -24.836   5.163  0.00  0.00    +0.271 C 
ATOM      4  O   LIG    1       24.944 -25.113   3.979  0.00  0.00    -0.270 OA
ATOM      5  N   LIG    1       24.610 -23.735   5.831  0.00  0.00    -0.233 N 
ATOM      6  C   LIG    1       25.295 -23.616   7.082  0.00  0.00    +0.269 C 
ATOM      7  C   LIG    1       26.405 -22.543   6.971  0.00  0.00    +0.156 C 
ATOM      8  N   LIG    1       26.064 -21.384   6.158  0.00  0.00    -0.290 N 
ATOM      9  C   LIG    1       25.249 -21.450   5.048  0.00  0.00    +0.237 C 
ATOM     10  O   LIG    1       25.288 -20.588   4.172  0.00  0.00    -0.274 OA
ATOM     11  C   LIG    1       26.892 -20.245   6.487  0.00  0.00    +0.108 C 
ATOM     12  C   LIG    1       27.694 -20.696   7.708  0.00  0.00    +0.021 C 
ATOM     13  C   LIG    1       26.915 -21.901   8.252  0.00  0.00    +0.031 C 
ATOM     14  C   LIG    1       24.131 -22.525   5.121  0.00  0.00    +0.171 C 
ATOM     15  O   LIG    1       25.913 -24.868   7.374  0.00  0.00    -0.299 OA
ENDROOT
BRANCH   1  17
ATOM     16  C   LIG    1       25.397 -28.078   5.743  0.00  0.00    +0.224 C 
ATOM     17  N   LIG    1       25.216 -26.934   6.489  0.00  0.00    -0.280 N 
ATOM     18  H   LIG    1       24.868 -27.041   7.433  0.00  0.00    +0.152 HD
ATOM     19  O   LIG    1       26.118 -28.114   4.744  0.00  0.00    -0.275 OA
BRANCH  16  35
ATOM     20  C   LIG    1       23.299 -32.083   6.169  0.00  0.00    +0.105 C 
ATOM     21  N   LIG    1       24.739 -31.846   6.308  0.00  0.00    -0.297 NA
ATOM     22  C   LIG    1       25.196 -31.776   7.727  0.00  0.00    +0.091 C 
ATOM     23  C   LIG    1       24.812 -30.438   8.435  0.00  0.00    -0.025 C 
ATOM     24  C   LIG    1       24.882 -30.401   9.920  0.00  0.00    -0.011 C 
ATOM     25  C   LIG    1       25.134 -31.639  10.530  0.00  0.00    +0.010 C 
ATOM     26  C   LIG    1       25.345 -31.754  11.896  0.00  0.00    +0.047 C 
ATOM     27  N   LIG    1       25.611 -33.086  12.137  0.00  0.00    -0.360 NA
ATOM     28  H   LIG    1       25.822 -33.473  13.046  0.00  0.00    +0.165 HD
ATOM     29  C   LIG    1       25.523 -33.811  10.969  0.00  0.00    +0.087 C 
ATOM     30  C   LIG    1       25.274 -30.649  12.744  0.00  0.00    +0.026 C 
ATOM     31  C   LIG    1       24.979 -29.414  12.150  0.00  0.00    +0.003 C 
ATOM     32  C   LIG    1       25.207 -32.930   9.961  0.00  0.00    -0.020 C 
ATOM     33  C   LIG    1       24.794 -29.287  10.766  0.00  0.00    +0.009 C 
ATOM     34  C   LIG    1       24.511 -29.338   7.713  0.00  0.00    -0.007 C 
ATOM     35  C   LIG    1       24.588 -29.310   6.200  0.00  0.00    +0.112 C 
ATOM     36  C   LIG    1       24.906 -33.106   8.515  0.00  0.00    +0.060 C 
ATOM     37  C   LIG    1       25.152 -30.616   5.602  0.00  0.00    +0.101 C 
ENDBRANCH  16  35
ENDBRANCH   1  17
BRANCH   6  38
ATOM     38  O   LIG    1       24.351 -23.348   8.081  0.00  0.00    -0.348 OA
ATOM     39  H   LIG    1       24.868 -23.485   8.902  0.00  0.00    +0.214 HD
ENDBRANCH   6  38
BRANCH  14  40
ATOM     40  C   LIG    1       22.879 -21.928   5.809  0.00  0.00    +0.067 C 
BRANCH  40  41
ATOM     41  C   LIG    1       22.297 -20.694   5.150  0.00  0.00    -0.045 A 
ATOM     42  C   LIG    1       21.179 -20.784   4.313  0.00  0.00    +0.003 A 
ATOM     43  C   LIG    1       20.650 -19.638   3.712  0.00  0.00    +0.000 A 
ATOM     44  C   LIG    1       21.238 -18.394   3.932  0.00  0.00    +0.000 A 
ATOM     45  C   LIG    1       22.352 -18.291   4.760  0.00  0.00    +0.000 A 
ATOM     46  C   LIG    1       22.874 -19.433   5.370  0.00  0.00    +0.003 A 
ENDBRANCH  40  41
ENDBRANCH  14  40
TORSDOF 5
ENDMDL
MODEL 5
REMARK VINA RESULT:      -6.9      1.994      4.464
REMARK  Name = *****
REMARK                            x       y       z     vdW  Elec       q    Type
REMARK                         _______ _______ _______ _____ _____    ______ ____
ROOT
ATOM      1  C   LIG    1       24.796 -30.180   9.439  0.00  0.00    +0.215 C 
ATOM      2  C   LIG    1       23.930 -31.348   8.971  0.00  0.00    +0.074 C 
ATOM      3  C   LIG    1       26.021 -30.687  10.198  0.00  0.00    +0.271 C 
ATOM      4  O   LIG    1       26.864 -31.472   9.778  0.00  0.00    -0.270 OA
ATOM      5  N   LIG    1       26.003 -30.068  11.430  0.00  0.00    -0.233 N 
ATOM      6  C   LIG    1       24.701 -29.516  11.645  0.00  0.00    +0.269 C 
ATOM      7  C   LIG    1       23.878 -30.454  12.560  0.00  0.00    +0.156 C 
ATOM      8  N   LIG    1       24.636 -31.097  13.625  0.00  0.00    -0.290 N 
ATOM      9  C   LIG    1       25.956 -31.472  13.496  0.00  0.00    +0.237 C 
ATOM     10  O   LIG    1       26.449 -32.336  14.218  0.00  0.00    -0.274 OA
ATOM     11  C   LIG    1       23.771 -31.535  14.699  0.00  0.00    +0.108 C 
ATOM     12  C   LIG    1       22.396 -30.972  14.335  0.00  0.00    +0.021 C 
ATOM     13  C   LIG    1       22.694 -29.867  13.314  0.00  0.00    +0.031 C 
ATOM     14  C   LIG    1       26.808 -30.557  12.575  0.00  0.00    +0.171 C 
ATOM     15  O   LIG    1       24.039 -29.429  10.384  0.00  0.00    -0.299 OA
ENDROOT
BRANCH   1  17
ATOM     16  C   LIG    1       25.922 -28.208   8.403  0.00  0.00    +0.224 C 
ATOM     17  N   LIG    1       25.140 -29.338   8.307  0.00  0.00    -0.280 N 
ATOM     18  H   LIG    1       25.047 -29.767   7.396  0.00  0.00    +0.152 HD
ATOM     19  O   LIG    1       26.383 -27.806   9.473  0.00  0.00    -0.275 OA
BRANCH  16  35
ATOM     20  C   LIG    1       26.042 -26.709   4.118  0.00  0.00    +0.105 C 
ATOM     21  N   LIG    1       24.882 -26.664   5.014  0.00  0.00    -0.297 NA
ATOM     22  C   LIG    1       24.655 -25.321   5.625  0.00  0.00    +0.091 C 
ATOM     23  C   LIG    1       25.668 -24.981   6.764  0.00  0.00    -0.025 C 
ATOM     24  C   LIG    1       25.777 -23.560   7.186  0.00  0.00    -0.011 C 
ATOM     25  C   LIG    1       25.064 -22.651   6.389  0.00  0.00    +0.010 C 
ATOM     26  C   LIG    1       24.967 -21.307   6.716  0.00  0.00    +0.047 C 
ATOM     27  N   LIG    1       24.162 -20.731   5.758  0.00  0.00    -0.360 NA
ATOM     28  H   LIG    1       23.896 -19.756   5.741  0.00  0.00    +0.165 HD
ATOM     29  C   LIG    1       23.794 -21.666   4.815  0.00  0.00    +0.087 C 
ATOM     30  C   LIG    1       25.612 -20.777   7.834  0.00  0.00    +0.026 C 
ATOM     31  C   LIG    1       26.364 -21.668   8.612  0.00  0.00    +0.003 C 
ATOM     32  C   LIG    1       24.363 -22.864   5.181  0.00  0.00    -0.020 C 
ATOM     33  C   LIG    1       26.441 -23.034   8.303  0.00  0.00    +0.009 C 
ATOM     34  C   LIG    1       26.351 -25.961   7.394  0.00  0.00    -0.007 C 
ATOM     35  C   LIG    1       26.138 -27.430   7.088  0.00  0.00    +0.112 C 
ATOM     36  C   LIG    1       24.402 -24.207   4.544  0.00  0.00    +0.060 C 
ATOM     37  C   LIG    1       24.991 -27.675   6.085  0.00  0.00    +0.101 C 
ENDBRANCH  16  35
ENDBRANCH   1  17
BRANCH   6  38
ATOM     38  O   LIG    1       24.848 -28.218  12.154  0.00  0.00    -0.348 OA
ATOM     39  H   LIG    1       24.383 -28.276  13.015  0.00  0.00    +0.214 HD
ENDBRANCH   6  38
BRANCH  14  40
ATOM     40  C   LIG    1       27.386 -29.382  13.399  0.00  0.00    +0.067 C 
BRANCH  40  41
ATOM     41  C   LIG    1       28.851 -29.499  13.767  0.00  0.00    -0.045 A 
ATOM     42  C   LIG    1       29.834 -29.633  12.779  0.00  0.00    +0.003 A 
ATOM     43  C   LIG    1       31.182 -29.739  13.131  0.00  0.00    +0.000 A 
ATOM     44  C   LIG    1       31.562 -29.722  14.472  0.00  0.00    +0.000 A 
ATOM     45  C   LIG    1       30.595 -29.592  15.465  0.00  0.00    +0.000 A 
ATOM     46  C   LIG    1       29.249 -29.475  15.114  0.00  0.00    +0.003 A 
ENDBRANCH  40  41
ENDBRANCH  14  40
TORSDOF 5
ENDMDL
MODEL 6
REMARK VINA RESULT:      -6.2      2.866      9.918
REMARK  Name = *****
REMARK                            x       y       z     vdW  Elec       q    Type
REMARK                         _______ _______ _______ _____ _____    ______ ____
ROOT
ATOM      1  C   LIG    1       25.812 -25.742   6.149  0.00  0.00    +0.215 C 
ATOM      2  C   LIG    1       27.223 -26.044   5.647  0.00  0.00    +0.074 C 
ATOM      3  C   LIG    1       25.067 -24.847   5.159  0.00  0.00    +0.271 C 
ATOM      4  O   LIG    1       24.867 -25.083   3.973  0.00  0.00    -0.270 OA
ATOM      5  N   LIG    1       24.646 -23.743   5.869  0.00  0.00    -0.233 N 
ATOM      6  C   LIG    1       25.367 -23.691   7.104  0.00  0.00    +0.269 C 
ATOM      7  C   LIG    1       26.524 -22.670   6.993  0.00  0.00    +0.156 C 
ATOM      8  N   LIG    1       26.220 -21.474   6.220  0.00  0.00    -0.290 N 
ATOM      9  C   LIG    1       25.376 -21.470   5.131  0.00  0.00    +0.237 C 
ATOM     10  O   LIG    1       25.436 -20.587   4.278  0.00  0.00    -0.274 OA
ATOM     11  C   LIG    1       27.110 -20.385   6.558  0.00  0.00    +0.108 C 
ATOM     12  C   LIG    1       27.919 -20.908   7.746  0.00  0.00    +0.021 C 
ATOM     13  C   LIG    1       27.097 -22.089   8.278  0.00  0.00    +0.031 C 
ATOM     14  C   LIG    1       24.209 -22.492   5.205  0.00  0.00    +0.171 C 
ATOM     15  O   LIG    1       25.930 -24.980   7.347  0.00  0.00    -0.299 OA
ENDROOT
BRANCH   1  17
ATOM     16  C   LIG    1       25.577 -27.948   7.293  0.00  0.00    +0.224 C 
ATOM     17  N   LIG    1       25.112 -26.984   6.426  0.00  0.00    -0.280 N 
ATOM     18  H   LIG    1       24.126 -26.992   6.203  0.00  0.00    +0.152 HD
ATOM     19  O   LIG    1       26.645 -27.841   7.898  0.00  0.00    -0.275 OA
BRANCH  16  35
ATOM     20  C   LIG    1       23.604 -32.019   6.900  0.00  0.00    +0.105 C 
ATOM     21  N   LIG    1       24.894 -31.746   7.540  0.00  0.00    -0.297 NA
ATOM     22  C   LIG    1       24.821 -31.698   9.030  0.00  0.00    +0.091 C 
ATOM     23  C   LIG    1       24.165 -30.390   9.575  0.00  0.00    -0.025 C 
ATOM     24  C   LIG    1       23.707 -30.388  10.989  0.00  0.00    -0.011 C 
ATOM     25  C   LIG    1       23.771 -31.633  11.633  0.00  0.00    +0.010 C 
ATOM     26  C   LIG    1       23.493 -31.776  12.984  0.00  0.00    +0.047 C 
ATOM     27  N   LIG    1       23.703 -33.105  13.285  0.00  0.00    -0.360 NA
ATOM     28  H   LIG    1       23.594 -33.509  14.205  0.00  0.00    +0.165 HD
ATOM     29  C   LIG    1       24.057 -33.803  12.151  0.00  0.00    +0.087 C 
ATOM     30  C   LIG    1       23.089 -30.694  13.767  0.00  0.00    +0.026 C 
ATOM     31  C   LIG    1       22.979 -29.454  13.124  0.00  0.00    +0.003 C 
ATOM     32  C   LIG    1       24.085 -32.907  11.109  0.00  0.00    -0.020 C 
ATOM     33  C   LIG    1       23.289 -29.297  11.765  0.00  0.00    +0.009 C 
ATOM     34  C   LIG    1       24.099 -29.281   8.808  0.00  0.00    -0.007 C 
ATOM     35  C   LIG    1       24.702 -29.213   7.419  0.00  0.00    +0.112 C 
ATOM     36  C   LIG    1       24.318 -33.055   9.647  0.00  0.00    +0.060 C 
ATOM     37  C   LIG    1       25.486 -30.488   7.041  0.00  0.00    +0.101 C 
ENDBRANCH  16  35
ENDBRANCH   1  17
BRANCH   6  38
ATOM     38  O   LIG    1       24.461 -23.407   8.135  0.00  0.00    -0.348 OA
ATOM     39  H   LIG    1       24.327 -22.441   8.037  0.00  0.00    +0.214 HD
ENDBRANCH   6  38
BRANCH  14  40
ATOM     40  C   LIG    1       23.005 -21.855   5.940  0.00  0.00    +0.067 C 
BRANCH  40  41
ATOM     41  C   LIG    1       22.342 -20.695   5.227  0.00  0.00    -0.045 A 
ATOM     42  C   LIG    1       21.249 -20.901   4.377  0.00  0.00    +0.003 A 
ATOM     43  C   LIG    1       20.645 -19.822   3.725  0.00  0.00    +0.000 A 
ATOM     44  C   LIG    1       21.132 -18.528   3.907  0.00  0.00    +0.000 A 
ATOM     45  C   LIG    1       22.220 -18.310   4.747  0.00  0.00    +0.000 A 
ATOM     46  C   LIG    1       22.817 -19.385   5.407  0.00  0.00    +0.003 A 
ENDBRANCH  40  41
ENDBRANCH  14  40
TORSDOF 5
ENDMDL
