MODEL 1
REMARK VINA RESULT:      -9.4      0.000      0.000
REMARK  Name = *****
REMARK                            x       y       z     vdW  Elec       q    Type
REMARK                         _______ _______ _______ _____ _____    ______ ____
ROOT
ATOM      1  C   LIG    1       24.943 -23.709   6.958  0.00  0.00    +0.228 C 
ENDROOT
BRANCH   1   2
ATOM      2  C   LIG    1       25.565 -24.850   6.125  0.00  0.00    +0.275 C 
BRANCH   2   3
ATOM      3  O   LIG    1       25.941 -25.922   6.992  0.00  0.00    -0.488 OA
BRANCH   3  12
ATOM      4  C   LIG    1       26.907 -30.019  10.762  0.00  0.00    +0.063 C 
ATOM      5  C   LIG    1       26.384 -29.458   9.492  0.00  0.00    +0.014 C 
ATOM      6  N   LIG    1       25.597 -30.204   8.653  0.00  0.00    -0.358 NA
ATOM      7  H   LIG    1       25.336 -31.168   8.805  0.00  0.00    +0.166 HD
ATOM      8  C   LIG    1       25.172 -29.445   7.586  0.00  0.00    +0.050 C 
ATOM      9  C   LIG    1       24.324 -29.791   6.531  0.00  0.00    +0.026 C 
ATOM     10  C   LIG    1       24.061 -28.811   5.578  0.00  0.00    +0.006 C 
ATOM     11  C   LIG    1       24.615 -27.532   5.681  0.00  0.00    +0.046 C 
ATOM     12  C   LIG    1       25.436 -27.174   6.763  0.00  0.00    +0.130 C 
ATOM     13  C   LIG    1       25.732 -28.175   7.724  0.00  0.00    +0.042 C 
ATOM     14  C   LIG    1       26.517 -28.209   8.919  0.00  0.00    +0.034 C 
ENDBRANCH   3  12
ENDBRANCH   2   3
ENDBRANCH   1   2
BRANCH   1  15
ATOM     15  O   LIG    1       23.993 -22.954   6.172  0.00  0.00    -0.453 OA
BRANCH  15  16
ATOM     16  C   LIG    1       23.461 -21.817   6.690  0.00  0.00    +0.340 C 
ATOM     17  O   LIG    1       23.058 -21.636   7.809  0.00  0.00    -0.245 OA
BRANCH  16  18
ATOM     18  C   LIG    1       23.517 -20.756   5.644  0.00  0.00    +0.059 C 
ATOM     19  C   LIG    1       24.530 -20.814   4.677  0.00  0.00    +0.015 C 
ATOM     20  C   LIG    1       24.581 -19.866   3.655  0.00  0.00    +0.001 C 
ATOM     21  C   LIG    1       23.613 -18.862   3.583  0.00  0.00    +0.000 C 
ATOM     22  C   LIG    1       22.592 -18.804   4.531  0.00  0.00    +0.001 C 
ATOM     23  C   LIG    1       22.542 -19.745   5.560  0.00  0.00    +0.015 C 
ENDBRANCH  16  18
ENDBRANCH  15  16
ENDBRANCH   1  15
BRANCH   1  24
ATOM     24  C   LIG    1       26.036 -22.853   7.627  0.00  0.00    +0.129 C 
BRANCH  24  25
ATOM     25  N   LIG    1       27.071 -22.327   6.715  0.00  0.00    -0.308 NA
ATOM     26  H   LIG    1       26.675 -22.230   5.779  0.00  0.00    +0.123 HD
BRANCH  25  27
ATOM     27  C   LIG    1       27.631 -21.025   7.150  0.00  0.00    +0.011 C 
ATOM     28  C   LIG    1       26.658 -20.401   8.170  0.00  0.00    +0.027 C 
ATOM     29  C   LIG    1       27.763 -20.048   5.967  0.00  0.00    +0.027 C 
ATOM     30  C   LIG    1       28.995 -21.196   7.844  0.00  0.00    +0.027 C 
ENDBRANCH  25  27
ENDBRANCH  24  25
ENDBRANCH   1  24
TORSDOF 9
ENDMDL
MODEL 2
REMARK VINA RESULT:      -9.3      2.713      7.053
REMARK  Name = *****
REMARK                            x       y       z     vdW  Elec       q    Type
REMARK                         _______ _______ _______ _____ _____    ______ ____
ROOT
ATOM      1  C   LIG    1       25.307 -21.947   7.583  0.00  0.00    +0.228 C 
ENDROOT
BRANCH   1   2
ATOM      2  C   LIG    1       26.060 -21.230   8.724  0.00  0.00    +0.275 C 
BRANCH   2   3
ATOM      3  O   LIG    1       27.456 -21.187   8.420  0.00  0.00    -0.488 OA
BRANCH   3  12
ATOM      4  C   LIG    1       32.000 -17.958   9.344  0.00  0.00    +0.063 C 
ATOM      5  C   LIG    1       30.847 -18.460   8.558  0.00  0.00    +0.014 C 
ATOM      6  N   LIG    1       30.651 -18.081   7.255  0.00  0.00    -0.358 NA
ATOM      7  H   LIG    1       31.236 -17.435   6.744  0.00  0.00    +0.166 HD
ATOM      8  C   LIG    1       29.567 -18.736   6.717  0.00  0.00    +0.050 C 
ATOM      9  C   LIG    1       29.050 -18.684   5.421  0.00  0.00    +0.026 C 
ATOM     10  C   LIG    1       27.928 -19.463   5.151  0.00  0.00    +0.006 C 
ATOM     11  C   LIG    1       27.352 -20.271   6.135  0.00  0.00    +0.046 C 
ATOM     12  C   LIG    1       27.896 -20.352   7.427  0.00  0.00    +0.130 C 
ATOM     13  C   LIG    1       29.023 -19.540   7.719  0.00  0.00    +0.042 C 
ATOM     14  C   LIG    1       29.827 -19.332   8.883  0.00  0.00    +0.034 C 
ENDBRANCH   3  12
ENDBRANCH   2   3
ENDBRANCH   1   2
BRANCH   1  15
ATOM     15  O   LIG    1       23.884 -21.708   7.673  0.00  0.00    -0.453 OA
BRANCH  15  16
ATOM     16  C   LIG    1       23.088 -22.053   6.628  0.00  0.00    +0.340 C 
ATOM     17  O   LIG    1       22.295 -22.956   6.573  0.00  0.00    -0.245 OA
BRANCH  16  18
ATOM     18  C   LIG    1       23.297 -21.060   5.535  0.00  0.00    +0.059 C 
ATOM     19  C   LIG    1       22.613 -19.837   5.594  0.00  0.00    +0.015 C 
ATOM     20  C   LIG    1       22.825 -18.867   4.615  0.00  0.00    +0.001 C 
ATOM     21  C   LIG    1       23.730 -19.104   3.578  0.00  0.00    +0.000 C 
ATOM     22  C   LIG    1       24.426 -20.311   3.518  0.00  0.00    +0.001 C 
ATOM     23  C   LIG    1       24.211 -21.288   4.491  0.00  0.00    +0.015 C 
ENDBRANCH  16  18
ENDBRANCH  15  16
ENDBRANCH   1  15
BRANCH   1  24
ATOM     24  C   LIG    1       25.697 -23.437   7.515  0.00  0.00    +0.129 C 
BRANCH  24  25
ATOM     25  N   LIG    1       26.075 -23.930   6.176  0.00  0.00    -0.308 NA
ATOM     26  H   LIG    1       27.093 -23.985   6.115  0.00  0.00    +0.123 HD
BRANCH  25  27
ATOM     27  C   LIG    1       25.490 -25.252   5.849  0.00  0.00    +0.011 C 
ATOM     28  C   LIG    1       25.107 -25.251   4.355  0.00  0.00    +0.027 C 
ATOM     29  C   LIG    1       24.209 -25.516   6.662  0.00  0.00    +0.027 C 
ATOM     30  C   LIG    1       26.500 -26.393   6.074  0.00  0.00    +0.027 C 
ENDBRANCH  25  27
ENDBRANCH  24  25
ENDBRANCH   1  24
TORSDOF 9
ENDMDL
MODEL 3
REMARK VINA RESULT:      -9.2      3.118      7.990
REMARK  Name = *****
REMARK                            x       y       z     vdW  Elec       q    Type
REMARK                         _______ _______ _______ _____ _____    ______ ____
ROOT
ATOM      1  C   LIG    1       26.362 -20.572   6.066  0.00  0.00    +0.228 C 
ENDROOT
BRANCH   1   2
ATOM      2  C   LIG    1       27.757 -19.916   5.984  0.00  0.00    +0.275 C 
BRANCH   2   3
ATOM      3  O   LIG    1       28.170 -19.511   7.291  0.00  0.00    -0.488 OA
BRANCH   3  12
ATOM      4  C   LIG    1       32.278 -16.273   9.427  0.00  0.00    +0.063 C 
ATOM      5  C   LIG    1       31.639 -17.558   9.052  0.00  0.00    +0.014 C 
ATOM      6  N   LIG    1       32.188 -18.761   9.413  0.00  0.00    -0.358 NA
ATOM      7  H   LIG    1       33.053 -18.875   9.923  0.00  0.00    +0.166 HD
ATOM      8  C   LIG    1       31.376 -19.801   9.022  0.00  0.00    +0.050 C 
ATOM      9  C   LIG    1       31.528 -21.174   9.228  0.00  0.00    +0.026 C 
ATOM     10  C   LIG    1       30.538 -22.009   8.715  0.00  0.00    +0.006 C 
ATOM     11  C   LIG    1       29.434 -21.490   8.033  0.00  0.00    +0.046 C 
ATOM     12  C   LIG    1       29.263 -20.108   7.860  0.00  0.00    +0.130 C 
ATOM     13  C   LIG    1       30.281 -19.251   8.354  0.00  0.00    +0.042 C 
ATOM     14  C   LIG    1       30.477 -17.834   8.359  0.00  0.00    +0.034 C 
ENDBRANCH   3  12
ENDBRANCH   2   3
ENDBRANCH   1   2
BRANCH   1  15
ATOM     15  O   LIG    1       26.474 -22.005   6.223  0.00  0.00    -0.453 OA
BRANCH  15  16
ATOM     16  C   LIG    1       25.971 -22.589   7.342  0.00  0.00    +0.340 C 
ATOM     17  O   LIG    1       25.927 -22.133   8.455  0.00  0.00    -0.245 OA
BRANCH  16  18
ATOM     18  C   LIG    1       25.390 -23.908   6.959  0.00  0.00    +0.059 C 
ATOM     19  C   LIG    1       24.021 -23.981   6.664  0.00  0.00    +0.015 C 
ATOM     20  C   LIG    1       23.456 -25.188   6.253  0.00  0.00    +0.001 C 
ATOM     21  C   LIG    1       24.255 -26.326   6.121  0.00  0.00    +0.000 C 
ATOM     22  C   LIG    1       25.619 -26.260   6.397  0.00  0.00    +0.001 C 
ATOM     23  C   LIG    1       26.188 -25.056   6.816  0.00  0.00    +0.015 C 
ENDBRANCH  16  18
ENDBRANCH  15  16
ENDBRANCH   1  15
BRANCH   1  24
ATOM     24  C   LIG    1       25.474 -20.131   4.886  0.00  0.00    +0.129 C 
BRANCH  24  25
ATOM     25  N   LIG    1       24.285 -20.972   4.642  0.00  0.00    -0.308 NA
ATOM     26  H   LIG    1       24.462 -21.913   4.995  0.00  0.00    +0.123 HD
BRANCH  25  27
ATOM     27  C   LIG    1       23.050 -20.437   5.264  0.00  0.00    +0.011 C 
ATOM     28  C   LIG    1       21.886 -21.387   4.913  0.00  0.00    +0.027 C 
ATOM     29  C   LIG    1       22.701 -19.043   4.712  0.00  0.00    +0.027 C 
ATOM     30  C   LIG    1       23.164 -20.382   6.799  0.00  0.00    +0.027 C 
ENDBRANCH  25  27
ENDBRANCH  24  25
ENDBRANCH   1  24
TORSDOF 9
ENDMDL
MODEL 4
REMARK VINA RESULT:      -9.2      3.035      7.301
REMARK  Name = *****
REMARK                            x       y       z     vdW  Elec       q    Type
REMARK                         _______ _______ _______ _____ _____    ______ ____
ROOT
ATOM      1  C   LIG    1       24.468 -21.985   7.512  0.00  0.00    +0.228 C 
ENDROOT
BRANCH   1   2
ATOM      2  C   LIG    1       25.748 -21.140   7.687  0.00  0.00    +0.275 C 
BRANCH   2   3
ATOM      3  O   LIG    1       26.578 -21.290   6.533  0.00  0.00    -0.488 OA
BRANCH   3  12
ATOM      4  C   LIG    1       31.432 -22.099   9.309  0.00  0.00    +0.063 C 
ATOM      5  C   LIG    1       30.509 -21.375   8.402  0.00  0.00    +0.014 C 
ATOM      6  N   LIG    1       30.924 -20.286   7.680  0.00  0.00    -0.358 NA
ATOM      7  H   LIG    1       31.849 -19.882   7.718  0.00  0.00    +0.166 HD
ATOM      8  C   LIG    1       29.916 -19.838   6.857  0.00  0.00    +0.050 C 
ATOM      9  C   LIG    1       29.925 -18.795   5.928  0.00  0.00    +0.026 C 
ATOM     10  C   LIG    1       28.747 -18.560   5.223  0.00  0.00    +0.006 C 
ATOM     11  C   LIG    1       27.609 -19.344   5.431  0.00  0.00    +0.046 C 
ATOM     12  C   LIG    1       27.613 -20.416   6.337  0.00  0.00    +0.130 C 
ATOM     13  C   LIG    1       28.800 -20.645   7.081  0.00  0.00    +0.042 C 
ATOM     14  C   LIG    1       29.184 -21.594   8.080  0.00  0.00    +0.034 C 
ENDBRANCH   3  12
ENDBRANCH   2   3
ENDBRANCH   1   2
BRANCH   1  15
ATOM     15  O   LIG    1       24.686 -23.066   6.576  0.00  0.00    -0.453 OA
BRANCH  15  16
ATOM     16  C   LIG    1       23.853 -24.138   6.597  0.00  0.00    +0.340 C 
ATOM     17  O   LIG    1       22.668 -24.146   6.810  0.00  0.00    -0.245 OA
BRANCH  16  18
ATOM     18  C   LIG    1       24.641 -25.349   6.232  0.00  0.00    +0.059 C 
ATOM     19  C   LIG    1       23.970 -26.453   5.688  0.00  0.00    +0.015 C 
ATOM     20  C   LIG    1       24.684 -27.582   5.289  0.00  0.00    +0.001 C 
ATOM     21  C   LIG    1       26.075 -27.612   5.415  0.00  0.00    +0.000 C 
ATOM     22  C   LIG    1       26.754 -26.514   5.940  0.00  0.00    +0.001 C 
ATOM     23  C   LIG    1       26.042 -25.385   6.349  0.00  0.00    +0.015 C 
ENDBRANCH  16  18
ENDBRANCH  15  16
ENDBRANCH   1  15
BRANCH   1  24
ATOM     24  C   LIG    1       23.257 -21.092   7.178  0.00  0.00    +0.129 C 
BRANCH  24  25
ATOM     25  N   LIG    1       23.546 -19.940   6.301  0.00  0.00    -0.308 NA
ATOM     26  H   LIG    1       24.557 -19.822   6.225  0.00  0.00    +0.123 HD
BRANCH  25  27
ATOM     27  C   LIG    1       22.963 -20.073   4.944  0.00  0.00    +0.011 C 
ATOM     28  C   LIG    1       24.097 -20.449   3.970  0.00  0.00    +0.027 C 
ATOM     29  C   LIG    1       22.351 -18.744   4.463  0.00  0.00    +0.027 C 
ATOM     30  C   LIG    1       21.904 -21.190   4.887  0.00  0.00    +0.027 C 
ENDBRANCH  25  27
ENDBRANCH  24  25
ENDBRANCH   1  24
TORSDOF 9
ENDMDL
MODEL 5
REMARK VINA RESULT:      -9.2      2.975      6.367
REMARK  Name = *****
REMARK                            x       y       z     vdW  Elec       q    Type
REMARK                         _______ _______ _______ _____ _____    ______ ____
ROOT
ATOM      1  C   LIG    1       27.651 -20.408   6.616  0.00  0.00    +0.228 C 
ENDROOT
BRANCH   1   2
ATOM      2  C   LIG    1       26.693 -20.666   7.799  0.00  0.00    +0.275 C 
BRANCH   2   3
ATOM      3  O   LIG    1       26.369 -22.057   7.853  0.00  0.00    -0.488 OA
BRANCH   3  12
ATOM      4  C   LIG    1       25.729 -27.177   5.549  0.00  0.00    +0.063 C 
ATOM      5  C   LIG    1       25.269 -25.842   6.004  0.00  0.00    +0.014 C 
ATOM      6  N   LIG    1       23.941 -25.504   6.000  0.00  0.00    -0.358 NA
ATOM      7  H   LIG    1       23.191 -26.100   5.678  0.00  0.00    +0.166 HD
ATOM      8  C   LIG    1       23.758 -24.250   6.538  0.00  0.00    +0.050 C 
ATOM      9  C   LIG    1       22.574 -23.545   6.766  0.00  0.00    +0.026 C 
ATOM     10  C   LIG    1       22.687 -22.277   7.331  0.00  0.00    +0.006 C 
ATOM     11  C   LIG    1       23.933 -21.740   7.664  0.00  0.00    +0.046 C 
ATOM     12  C   LIG    1       25.120 -22.465   7.469  0.00  0.00    +0.130 C 
ATOM     13  C   LIG    1       25.016 -23.747   6.868  0.00  0.00    +0.042 C 
ATOM     14  C   LIG    1       25.962 -24.755   6.499  0.00  0.00    +0.034 C 
ENDBRANCH   3  12
ENDBRANCH   2   3
ENDBRANCH   1   2
BRANCH   1  15
ATOM     15  O   LIG    1       28.764 -19.580   7.024  0.00  0.00    -0.453 OA
BRANCH  15  16
ATOM     16  C   LIG    1       29.611 -20.036   7.983  0.00  0.00    +0.340 C 
ATOM     17  O   LIG    1       29.816 -21.177   8.303  0.00  0.00    -0.245 OA
BRANCH  16  18
ATOM     18  C   LIG    1       30.336 -18.867   8.559  0.00  0.00    +0.059 C 
ATOM     19  C   LIG    1       29.697 -18.090   9.535  0.00  0.00    +0.015 C 
ATOM     20  C   LIG    1       30.366 -17.021  10.131  0.00  0.00    +0.001 C 
ATOM     21  C   LIG    1       31.682 -16.729   9.767  0.00  0.00    +0.000 C 
ATOM     22  C   LIG    1       32.332 -17.504   8.808  0.00  0.00    +0.001 C 
ATOM     23  C   LIG    1       31.664 -18.570   8.203  0.00  0.00    +0.015 C 
ENDBRANCH  16  18
ENDBRANCH  15  16
ENDBRANCH   1  15
BRANCH   1  24
ATOM     24  C   LIG    1       26.884 -19.878   5.389  0.00  0.00    +0.129 C 
BRANCH  24  25
ATOM     25  N   LIG    1       25.795 -20.749   4.901  0.00  0.00    -0.308 NA
ATOM     26  H   LIG    1       25.360 -21.218   5.697  0.00  0.00    +0.123 HD
BRANCH  25  27
ATOM     27  C   LIG    1       24.757 -20.019   4.134  0.00  0.00    +0.011 C 
ATOM     28  C   LIG    1       24.271 -20.934   2.993  0.00  0.00    +0.027 C 
ATOM     29  C   LIG    1       25.327 -18.737   3.498  0.00  0.00    +0.027 C 
ATOM     30  C   LIG    1       23.539 -19.673   5.011  0.00  0.00    +0.027 C 
ENDBRANCH  25  27
ENDBRANCH  24  25
ENDBRANCH   1  24
TORSDOF 9
ENDMDL
MODEL 6
REMARK VINA RESULT:      -9.1      2.382      7.308
REMARK  Name = *****
REMARK                            x       y       z     vdW  Elec       q    Type
REMARK                         _______ _______ _______ _____ _____    ______ ____
ROOT
ATOM      1  C   LIG    1       25.844 -22.323   7.112  0.00  0.00    +0.228 C 
ENDROOT
BRANCH   1   2
ATOM      2  C   LIG    1       26.932 -21.693   8.008  0.00  0.00    +0.275 C 
BRANCH   2   3
ATOM      3  O   LIG    1       28.223 -22.058   7.515  0.00  0.00    -0.488 OA
BRANCH   3  12
ATOM      4  C   LIG    1       27.734 -17.544   4.151  0.00  0.00    +0.063 C 
ATOM      5  C   LIG    1       28.423 -18.424   5.127  0.00  0.00    +0.014 C 
ATOM      6  N   LIG    1       29.609 -18.055   5.707  0.00  0.00    -0.358 NA
ATOM      7  H   LIG    1       30.110 -17.199   5.514  0.00  0.00    +0.166 HD
ATOM      8  C   LIG    1       30.009 -18.994   6.631  0.00  0.00    +0.050 C 
ATOM      9  C   LIG    1       31.120 -18.992   7.477  0.00  0.00    +0.026 C 
ATOM     10  C   LIG    1       31.280 -20.088   8.321  0.00  0.00    +0.006 C 
ATOM     11  C   LIG    1       30.359 -21.139   8.327  0.00  0.00    +0.046 C 
ATOM     12  C   LIG    1       29.222 -21.122   7.504  0.00  0.00    +0.130 C 
ATOM     13  C   LIG    1       29.066 -20.022   6.620  0.00  0.00    +0.042 C 
ATOM     14  C   LIG    1       28.085 -19.658   5.644  0.00  0.00    +0.034 C 
ENDBRANCH   3  12
ENDBRANCH   2   3
ENDBRANCH   1   2
BRANCH   1  15
ATOM     15  O   LIG    1       24.546 -21.753   7.400  0.00  0.00    -0.453 OA
BRANCH  15  16
ATOM     16  C   LIG    1       23.522 -21.971   6.534  0.00  0.00    +0.340 C 
ATOM     17  O   LIG    1       22.679 -22.827   6.590  0.00  0.00    -0.245 OA
BRANCH  16  18
ATOM     18  C   LIG    1       23.553 -20.900   5.497  0.00  0.00    +0.059 C 
ATOM     19  C   LIG    1       22.571 -19.899   5.531  0.00  0.00    +0.015 C 
ATOM     20  C   LIG    1       22.601 -18.856   4.606  0.00  0.00    +0.001 C 
ATOM     21  C   LIG    1       23.618 -18.795   3.651  0.00  0.00    +0.000 C 
ATOM     22  C   LIG    1       24.608 -19.776   3.619  0.00  0.00    +0.001 C 
ATOM     23  C   LIG    1       24.577 -20.827   4.537  0.00  0.00    +0.015 C 
ENDBRANCH  16  18
ENDBRANCH  15  16
ENDBRANCH   1  15
BRANCH   1  24
ATOM     24  C   LIG    1       25.891 -23.861   7.183  0.00  0.00    +0.129 C 
BRANCH  24  25
ATOM     25  N   LIG    1       26.072 -24.548   5.889  0.00  0.00    -0.308 NA
ATOM     26  H   LIG    1       27.067 -24.582   5.664  0.00  0.00    +0.123 HD
BRANCH  25  27
ATOM     27  C   LIG    1       25.516 -25.922   5.869  0.00  0.00    +0.011 C 
ATOM     28  C   LIG    1       26.085 -26.688   7.080  0.00  0.00    +0.027 C 
ATOM     29  C   LIG    1       25.936 -26.679   4.595  0.00  0.00    +0.027 C 
ATOM     30  C   LIG    1       23.981 -25.917   5.995  0.00  0.00    +0.027 C 
ENDBRANCH  25  27
ENDBRANCH  24  25
ENDBRANCH   1  24
TORSDOF 9
ENDMDL
MODEL 7
REMARK VINA RESULT:      -8.7      1.272      3.476
REMARK  Name = *****
REMARK                            x       y       z     vdW  Elec       q    Type
REMARK                         _______ _______ _______ _____ _____    ______ ____
ROOT
ATOM      1  C   LIG    1       25.501 -23.418   6.309  0.00  0.00    +0.228 C 
ENDROOT
BRANCH   1   2
ATOM      2  C   LIG    1       25.562 -24.859   5.759  0.00  0.00    +0.275 C 
BRANCH   2   3
ATOM      3  O   LIG    1       25.781 -25.770   6.838  0.00  0.00    -0.488 OA
BRANCH   3  12
ATOM      4  C   LIG    1       27.188 -29.534  10.811  0.00  0.00    +0.063 C 
ATOM      5  C   LIG    1       26.570 -29.094   9.536  0.00  0.00    +0.014 C 
ATOM      6  N   LIG    1       25.796 -29.943   8.788  0.00  0.00    -0.358 NA
ATOM      7  H   LIG    1       25.605 -30.908   9.016  0.00  0.00    +0.166 HD
ATOM      8  C   LIG    1       25.272 -29.286   7.698  0.00  0.00    +0.050 C 
ATOM      9  C   LIG    1       24.401 -29.755   6.712  0.00  0.00    +0.026 C 
ATOM     10  C   LIG    1       24.030 -28.860   5.711  0.00  0.00    +0.006 C 
ATOM     11  C   LIG    1       24.503 -27.545   5.704  0.00  0.00    +0.046 C 
ATOM     12  C   LIG    1       25.349 -27.064   6.716  0.00  0.00    +0.130 C 
ATOM     13  C   LIG    1       25.754 -27.977   7.724  0.00  0.00    +0.042 C 
ATOM     14  C   LIG    1       26.595 -27.881   8.877  0.00  0.00    +0.034 C 
ENDBRANCH   3  12
ENDBRANCH   2   3
ENDBRANCH   1   2
BRANCH   1  15
ATOM     15  O   LIG    1       26.112 -23.338   7.618  0.00  0.00    -0.453 OA
BRANCH  15  16
ATOM     16  C   LIG    1       26.178 -22.135   8.245  0.00  0.00    +0.340 C 
ATOM     17  O   LIG    1       25.565 -21.776   9.216  0.00  0.00    -0.245 OA
BRANCH  16  18
ATOM     18  C   LIG    1       27.222 -21.313   7.568  0.00  0.00    +0.059 C 
ATOM     19  C   LIG    1       28.551 -21.418   8.001  0.00  0.00    +0.015 C 
ATOM     20  C   LIG    1       29.558 -20.701   7.356  0.00  0.00    +0.001 C 
ATOM     21  C   LIG    1       29.249 -19.885   6.265  0.00  0.00    +0.000 C 
ATOM     22  C   LIG    1       27.932 -19.785   5.817  0.00  0.00    +0.001 C 
ATOM     23  C   LIG    1       26.920 -20.494   6.464  0.00  0.00    +0.015 C 
ENDBRANCH  16  18
ENDBRANCH  15  16
ENDBRANCH   1  15
BRANCH   1  24
ATOM     24  C   LIG    1       24.065 -22.862   6.245  0.00  0.00    +0.129 C 
BRANCH  24  25
ATOM     25  N   LIG    1       23.698 -22.208   4.973  0.00  0.00    -0.308 NA
ATOM     26  H   LIG    1       22.993 -22.774   4.497  0.00  0.00    +0.123 HD
BRANCH  25  27
ATOM     27  C   LIG    1       23.185 -20.828   5.147  0.00  0.00    +0.011 C 
ATOM     28  C   LIG    1       23.293 -20.461   6.640  0.00  0.00    +0.027 C 
ATOM     29  C   LIG    1       21.703 -20.725   4.743  0.00  0.00    +0.027 C 
ATOM     30  C   LIG    1       24.019 -19.807   4.351  0.00  0.00    +0.027 C 
ENDBRANCH  25  27
ENDBRANCH  24  25
ENDBRANCH   1  24
TORSDOF 9
ENDMDL
MODEL 8
REMARK VINA RESULT:      -8.6      2.110      6.645
REMARK  Name = *****
REMARK                            x       y       z     vdW  Elec       q    Type
REMARK                         _______ _______ _______ _____ _____    ______ ____
ROOT
ATOM      1  C   LIG    1       25.580 -22.922   6.677  0.00  0.00    +0.228 C 
ENDROOT
BRANCH   1   2
ATOM      2  C   LIG    1       26.861 -22.183   7.121  0.00  0.00    +0.275 C 
BRANCH   2   3
ATOM      3  O   LIG    1       26.749 -20.797   6.788  0.00  0.00    -0.488 OA
BRANCH   3  12
ATOM      4  C   LIG    1       31.525 -22.100   9.512  0.00  0.00    +0.063 C 
ATOM      5  C   LIG    1       30.682 -21.309   8.583  0.00  0.00    +0.014 C 
ATOM      6  N   LIG    1       31.220 -20.327   7.792  0.00  0.00    -0.358 NA
ATOM      7  H   LIG    1       32.191 -20.050   7.789  0.00  0.00    +0.166 HD
ATOM      8  C   LIG    1       30.259 -19.793   6.963  0.00  0.00    +0.050 C 
ATOM      9  C   LIG    1       30.383 -18.814   5.975  0.00  0.00    +0.026 C 
ATOM     10  C   LIG    1       29.228 -18.461   5.280  0.00  0.00    +0.006 C 
ATOM     11  C   LIG    1       28.001 -19.071   5.555  0.00  0.00    +0.046 C 
ATOM     12  C   LIG    1       27.886 -20.082   6.522  0.00  0.00    +0.130 C 
ATOM     13  C   LIG    1       29.052 -20.428   7.254  0.00  0.00    +0.042 C 
ATOM     14  C   LIG    1       29.332 -21.364   8.299  0.00  0.00    +0.034 C 
ENDBRANCH   3  12
ENDBRANCH   2   3
ENDBRANCH   1   2
BRANCH   1  15
ATOM     15  O   LIG    1       24.398 -22.233   7.147  0.00  0.00    -0.453 OA
BRANCH  15  16
ATOM     16  C   LIG    1       23.286 -22.221   6.367  0.00  0.00    +0.340 C 
ATOM     17  O   LIG    1       22.353 -22.981   6.402  0.00  0.00    -0.245 OA
BRANCH  16  18
ATOM     18  C   LIG    1       23.358 -21.032   5.470  0.00  0.00    +0.059 C 
ATOM     19  C   LIG    1       24.252 -21.055   4.390  0.00  0.00    +0.015 C 
ATOM     20  C   LIG    1       24.307 -19.981   3.503  0.00  0.00    +0.001 C 
ATOM     21  C   LIG    1       23.462 -18.883   3.678  0.00  0.00    +0.000 C 
ATOM     22  C   LIG    1       22.559 -18.857   4.739  0.00  0.00    +0.001 C 
ATOM     23  C   LIG    1       22.505 -19.926   5.635  0.00  0.00    +0.015 C 
ENDBRANCH  16  18
ENDBRANCH  15  16
ENDBRANCH   1  15
BRANCH   1  24
ATOM     24  C   LIG    1       25.640 -24.413   7.063  0.00  0.00    +0.129 C 
BRANCH  24  25
ATOM     25  N   LIG    1       26.294 -25.294   6.076  0.00  0.00    -0.308 NA
ATOM     26  H   LIG    1       27.286 -25.376   6.305  0.00  0.00    +0.123 HD
BRANCH  25  27
ATOM     27  C   LIG    1       25.692 -26.647   6.005  0.00  0.00    +0.011 C 
ATOM     28  C   LIG    1       26.365 -27.412   4.848  0.00  0.00    +0.027 C 
ATOM     29  C   LIG    1       24.183 -26.575   5.706  0.00  0.00    +0.027 C 
ATOM     30  C   LIG    1       25.934 -27.446   7.300  0.00  0.00    +0.027 C 
ENDBRANCH  25  27
ENDBRANCH  24  25
ENDBRANCH   1  24
TORSDOF 9
ENDMDL
MODEL 9
REMARK VINA RESULT:      -8.2      1.002      2.288
REMARK  Name = *****
REMARK                            x       y       z     vdW  Elec       q    Type
REMARK                         _______ _______ _______ _____ _____    ______ ____
ROOT
ATOM      1  C   LIG    1       24.999 -24.421   6.548  0.00  0.00    +0.228 C 
ENDROOT
BRANCH   1   2
ATOM      2  C   LIG    1       25.683 -25.554   5.753  0.00  0.00    +0.275 C 
BRANCH   2   3
ATOM      3  O   LIG    1       24.968 -26.775   5.954  0.00  0.00    -0.488 OA
BRANCH   3  12
ATOM      4  C   LIG    1       23.471 -32.220   5.754  0.00  0.00    +0.063 C 
ATOM      5  C   LIG    1       24.088 -31.019   6.367  0.00  0.00    +0.014 C 
ATOM      6  N   LIG    1       24.819 -31.103   7.523  0.00  0.00    -0.358 NA
ATOM      7  H   LIG    1       24.976 -31.950   8.051  0.00  0.00    +0.166 HD
ATOM      8  C   LIG    1       25.353 -29.877   7.849  0.00  0.00    +0.050 C 
ATOM      9  C   LIG    1       26.193 -29.526   8.909  0.00  0.00    +0.026 C 
ATOM     10  C   LIG    1       26.584 -28.192   8.997  0.00  0.00    +0.006 C 
ATOM     11  C   LIG    1       26.161 -27.249   8.056  0.00  0.00    +0.046 C 
ATOM     12  C   LIG    1       25.348 -27.610   6.970  0.00  0.00    +0.130 C 
ATOM     13  C   LIG    1       24.922 -28.962   6.888  0.00  0.00    +0.042 C 
ATOM     14  C   LIG    1       24.101 -29.695   5.974  0.00  0.00    +0.034 C 
ENDBRANCH   3  12
ENDBRANCH   2   3
ENDBRANCH   1   2
BRANCH   1  15
ATOM     15  O   LIG    1       24.186 -23.599   5.680  0.00  0.00    -0.453 OA
BRANCH  15  16
ATOM     16  C   LIG    1       23.368 -22.664   6.230  0.00  0.00    +0.340 C 
ATOM     17  O   LIG    1       22.716 -22.756   7.237  0.00  0.00    -0.245 OA
BRANCH  16  18
ATOM     18  C   LIG    1       23.454 -21.425   5.405  0.00  0.00    +0.059 C 
ATOM     19  C   LIG    1       24.288 -21.422   4.278  0.00  0.00    +0.015 C 
ATOM     20  C   LIG    1       24.353 -20.297   3.456  0.00  0.00    +0.001 C 
ATOM     21  C   LIG    1       23.577 -19.173   3.746  0.00  0.00    +0.000 C 
ATOM     22  C   LIG    1       22.733 -19.171   4.855  0.00  0.00    +0.001 C 
ATOM     23  C   LIG    1       22.671 -20.291   5.685  0.00  0.00    +0.015 C 
ENDBRANCH  16  18
ENDBRANCH  15  16
ENDBRANCH   1  15
BRANCH   1  24
ATOM     24  C   LIG    1       26.027 -23.636   7.386  0.00  0.00    +0.129 C 
BRANCH  24  25
ATOM     25  N   LIG    1       26.821 -22.640   6.639  0.00  0.00    -0.308 NA
ATOM     26  H   LIG    1       26.356 -22.438   5.753  0.00  0.00    +0.123 HD
BRANCH  25  27
ATOM     27  C   LIG    1       27.031 -21.376   7.384  0.00  0.00    +0.011 C 
ATOM     28  C   LIG    1       26.877 -20.204   6.395  0.00  0.00    +0.027 C 
ATOM     29  C   LIG    1       28.450 -21.305   7.980  0.00  0.00    +0.027 C 
ATOM     30  C   LIG    1       25.984 -21.192   8.498  0.00  0.00    +0.027 C 
ENDBRANCH  25  27
ENDBRANCH  24  25
ENDBRANCH   1  24
TORSDOF 9
ENDMDL
