MODEL 1
REMARK VINA RESULT:      -7.6      0.000      0.000
REMARK  Name = *****
REMARK                            x       y       z     vdW  Elec       q    Type
REMARK                         _______ _______ _______ _____ _____    ______ ____
ROOT
ATOM      1  C   LIG    1       25.609 -27.221   6.718  0.00  0.00    -0.028 A 
ATOM      2  C   LIG    1       26.272 -26.170   7.361  0.00  0.00    +0.006 A 
ATOM      3  C   LIG    1       25.711 -24.880   7.363  0.00  0.00    +0.009 A 
ATOM      4  C   LIG    1       24.488 -24.589   6.710  0.00  0.00    -0.017 A 
ATOM      5  C   LIG    1       23.817 -25.670   6.149  0.00  0.00    +0.009 A 
ATOM      6  C   LIG    1       24.347 -26.952   6.192  0.00  0.00    +0.006 A 
ENDROOT
BRANCH   4   7
ATOM      7  C   LIG    1       24.017 -23.196   6.487  0.00  0.00    -0.007 A 
ATOM      8  C   LIG    1       24.722 -21.998   6.802  0.00  0.00    +0.028 A 
ATOM      9  C   LIG    1       24.069 -20.756   6.598  0.00  0.00    +0.012 A 
ATOM     10  C   LIG    1       22.769 -20.670   6.096  0.00  0.00    +0.001 A 
ATOM     11  C   LIG    1       22.072 -21.828   5.808  0.00  0.00    +0.001 A 
ATOM     12  C   LIG    1       22.684 -23.062   6.011  0.00  0.00    +0.009 A 
BRANCH   8  13
ATOM     13  C   LIG    1       26.089 -21.899   7.348  0.00  0.00    +0.180 A 
ATOM     14  N   LIG    1       27.256 -21.837   6.632  0.00  0.00    -0.239 N 
ATOM     15  H   LIG    1       27.405 -21.904   5.635  0.00  0.00    +0.192 HD
ATOM     16  N   LIG    1       28.310 -21.699   7.450  0.00  0.00    -0.046 NA
ATOM     17  N   LIG    1       27.796 -21.664   8.669  0.00  0.00    -0.023 NA
ATOM     18  N   LIG    1       26.428 -21.782   8.624  0.00  0.00    -0.108 NA
ENDBRANCH   8  13
ENDBRANCH   4   7
BRANCH   1  19
ATOM     19  C   LIG    1       26.214 -28.599   6.614  0.00  0.00    +0.162 C 
BRANCH  19  21
ATOM     20  C   LIG    1       24.600 -30.507   6.552  0.00  0.00    +0.299 A 
ATOM     21  N   LIG    1       25.436 -29.664   7.264  0.00  0.00    -0.289 N 
ATOM     22  C   LIG    1       25.012 -29.700   8.586  0.00  0.00    +0.086 A 
ATOM     23  C   LIG    1       23.761 -30.312   8.490  0.00  0.00    +0.093 A 
ATOM     24  C   LIG    1       22.886 -30.315   9.587  0.00  0.00    +0.030 A 
ATOM     25  C   LIG    1       23.290 -29.726  10.782  0.00  0.00    +0.003 A 
ATOM     26  C   LIG    1       24.586 -29.241  10.911  0.00  0.00    +0.017 A 
ATOM     27  C   LIG    1       25.499 -29.254   9.833  0.00  0.00    +0.085 A 
ATOM     28  N   LIG    1       23.561 -30.870   7.261  0.00  0.00    -0.195 NA
BRANCH  27  29
ATOM     29  C   LIG    1       26.919 -29.008  10.114  0.00  0.00    +0.339 C 
ATOM     30  O   LIG    1       27.843 -29.804   9.947  0.00  0.00    -0.245 OA
BRANCH  29  31
ATOM     31  O   LIG    1       27.120 -27.820  10.709  0.00  0.00    -0.477 OA
ATOM     32  H   LIG    1       26.600 -27.851  11.537  0.00  0.00    +0.295 HD
ENDBRANCH  29  31
ENDBRANCH  27  29
BRANCH  20  33
ATOM     33  O   LIG    1       24.798 -30.823   5.272  0.00  0.00    -0.464 OA
BRANCH  33  35
ATOM     34  C   LIG    1       25.424 -32.603   3.777  0.00  0.00    +0.048 C 
ATOM     35  C   LIG    1       25.755 -31.861   5.061  0.00  0.00    +0.229 C 
ENDBRANCH  33  35
ENDBRANCH  20  33
ENDBRANCH  19  21
ENDBRANCH   1  19
TORSDOF 8
ENDMDL
MODEL 2
REMARK VINA RESULT:      -7.6      4.754      6.843
REMARK  Name = *****
REMARK                            x       y       z     vdW  Elec       q    Type
REMARK                         _______ _______ _______ _____ _____    ______ ____
ROOT
ATOM      1  C   LIG    1       25.569 -29.638  11.343  0.00  0.00    -0.028 A 
ATOM      2  C   LIG    1       24.598 -30.107  10.453  0.00  0.00    +0.006 A 
ATOM      3  C   LIG    1       24.641 -29.726   9.099  0.00  0.00    +0.009 A 
ATOM      4  C   LIG    1       25.634 -28.853   8.594  0.00  0.00    -0.017 A 
ATOM      5  C   LIG    1       26.628 -28.467   9.487  0.00  0.00    +0.009 A 
ATOM      6  C   LIG    1       26.613 -28.885  10.810  0.00  0.00    +0.006 A 
ENDROOT
BRANCH   4   7
ATOM      7  C   LIG    1       25.544 -28.244   7.239  0.00  0.00    -0.007 A 
ATOM      8  C   LIG    1       25.280 -28.926   6.015  0.00  0.00    +0.028 A 
ATOM      9  C   LIG    1       25.323 -28.186   4.807  0.00  0.00    +0.012 A 
ATOM     10  C   LIG    1       25.608 -26.820   4.779  0.00  0.00    +0.001 A 
ATOM     11  C   LIG    1       25.886 -26.156   5.958  0.00  0.00    +0.001 A 
ATOM     12  C   LIG    1       25.864 -26.862   7.159  0.00  0.00    +0.009 A 
BRANCH   8  13
ATOM     13  C   LIG    1       24.972 -30.360   5.856  0.00  0.00    +0.180 A 
ATOM     14  N   LIG    1       23.729 -30.933   5.818  0.00  0.00    -0.239 N 
ATOM     15  H   LIG    1       22.819 -30.510   5.946  0.00  0.00    +0.192 HD
ATOM     16  N   LIG    1       23.819 -32.254   5.607  0.00  0.00    -0.046 NA
ATOM     17  N   LIG    1       25.115 -32.497   5.503  0.00  0.00    -0.023 NA
ATOM     18  N   LIG    1       25.841 -31.340   5.649  0.00  0.00    -0.108 NA
ENDBRANCH   8  13
ENDBRANCH   4   7
BRANCH   1  19
ATOM     19  C   LIG    1       25.512 -29.947  12.819  0.00  0.00    +0.162 C 
BRANCH  19  21
ATOM     20  C   LIG    1       23.308 -30.837  13.596  0.00  0.00    +0.299 A 
ATOM     21  N   LIG    1       24.186 -29.779  13.433  0.00  0.00    -0.289 N 
ATOM     22  C   LIG    1       23.427 -28.617  13.476  0.00  0.00    +0.086 A 
ATOM     23  C   LIG    1       22.124 -29.097  13.339  0.00  0.00    +0.093 A 
ATOM     24  C   LIG    1       21.065 -28.213  13.086  0.00  0.00    +0.030 A 
ATOM     25  C   LIG    1       21.323 -26.848  13.002  0.00  0.00    +0.003 A 
ATOM     26  C   LIG    1       22.598 -26.366  13.275  0.00  0.00    +0.017 A 
ATOM     27  C   LIG    1       23.677 -27.231  13.563  0.00  0.00    +0.085 A 
ATOM     28  N   LIG    1       22.062 -30.452  13.495  0.00  0.00    -0.195 NA
BRANCH  27  29
ATOM     29  C   LIG    1       24.905 -26.656  14.128  0.00  0.00    +0.339 C 
ATOM     30  O   LIG    1       25.535 -27.088  15.093  0.00  0.00    -0.245 OA
BRANCH  29  31
ATOM     31  O   LIG    1       25.234 -25.492  13.543  0.00  0.00    -0.477 OA
ATOM     32  H   LIG    1       24.995 -24.798  14.189  0.00  0.00    +0.295 HD
ENDBRANCH  29  31
ENDBRANCH  27  29
BRANCH  20  33
ATOM     33  O   LIG    1       23.706 -32.102  13.742  0.00  0.00    -0.464 OA
BRANCH  33  35
ATOM     34  C   LIG    1       24.061 -33.485  11.803  0.00  0.00    +0.048 C 
ATOM     35  C   LIG    1       23.070 -33.027  12.860  0.00  0.00    +0.229 C 
ENDBRANCH  33  35
ENDBRANCH  20  33
ENDBRANCH  19  21
ENDBRANCH   1  19
TORSDOF 8
ENDMDL
MODEL 3
REMARK VINA RESULT:      -7.5      5.597      9.011
REMARK  Name = *****
REMARK                            x       y       z     vdW  Elec       q    Type
REMARK                         _______ _______ _______ _____ _____    ______ ____
ROOT
ATOM      1  C   LIG    1       27.702 -20.067   5.630  0.00  0.00    -0.028 A 
ATOM      2  C   LIG    1       27.475 -20.349   6.980  0.00  0.00    +0.006 A 
ATOM      3  C   LIG    1       28.238 -19.705   7.972  0.00  0.00    +0.009 A 
ATOM      4  C   LIG    1       29.262 -18.781   7.652  0.00  0.00    -0.017 A 
ATOM      5  C   LIG    1       29.409 -18.465   6.306  0.00  0.00    +0.009 A 
ATOM      6  C   LIG    1       28.621 -19.063   5.333  0.00  0.00    +0.006 A 
ENDROOT
BRANCH   4   7
ATOM      7  C   LIG    1       30.237 -18.293   8.664  0.00  0.00    -0.007 A 
ATOM      8  C   LIG    1       31.149 -19.086   9.420  0.00  0.00    +0.028 A 
ATOM      9  C   LIG    1       31.941 -18.448  10.407  0.00  0.00    +0.012 A 
ATOM     10  C   LIG    1       31.861 -17.077  10.657  0.00  0.00    +0.001 A 
ATOM     11  C   LIG    1       30.965 -16.305   9.944  0.00  0.00    +0.001 A 
ATOM     12  C   LIG    1       30.165 -16.908   8.976  0.00  0.00    +0.009 A 
BRANCH   8  13
ATOM     13  C   LIG    1       31.358 -20.542   9.300  0.00  0.00    +0.180 A 
ATOM     14  N   LIG    1       32.082 -21.189   8.333  0.00  0.00    -0.239 N 
ATOM     15  H   LIG    1       32.545 -20.816   7.515  0.00  0.00    +0.192 HD
ATOM     16  N   LIG    1       32.106 -22.510   8.561  0.00  0.00    -0.046 NA
ATOM     17  N   LIG    1       31.407 -22.679   9.672  0.00  0.00    -0.023 NA
ATOM     18  N   LIG    1       30.943 -21.476  10.143  0.00  0.00    -0.108 NA
ENDBRANCH   8  13
ENDBRANCH   4   7
BRANCH   1  19
ATOM     19  C   LIG    1       26.970 -20.797   4.531  0.00  0.00    +0.162 C 
BRANCH  19  21
ATOM     20  C   LIG    1       24.827 -19.576   4.120  0.00  0.00    +0.299 A 
ATOM     21  N   LIG    1       25.504 -20.689   4.588  0.00  0.00    -0.289 N 
ATOM     22  C   LIG    1       24.654 -21.330   5.479  0.00  0.00    +0.086 A 
ATOM     23  C   LIG    1       23.668 -20.369   5.708  0.00  0.00    +0.093 A 
ATOM     24  C   LIG    1       22.744 -20.535   6.750  0.00  0.00    +0.030 A 
ATOM     25  C   LIG    1       22.801 -21.683   7.536  0.00  0.00    +0.003 A 
ATOM     26  C   LIG    1       23.698 -22.696   7.217  0.00  0.00    +0.017 A 
ATOM     27  C   LIG    1       24.619 -22.570   6.153  0.00  0.00    +0.085 A 
ATOM     28  N   LIG    1       23.742 -19.342   4.813  0.00  0.00    -0.195 NA
BRANCH  27  29
ATOM     29  C   LIG    1       25.320 -23.773   5.686  0.00  0.00    +0.339 C 
ATOM     30  O   LIG    1       26.219 -24.368   6.280  0.00  0.00    -0.245 OA
BRANCH  29  31
ATOM     31  O   LIG    1       24.957 -24.121   4.441  0.00  0.00    -0.477 OA
ATOM     32  H   LIG    1       24.058 -23.754   4.318  0.00  0.00    +0.295 HD
ENDBRANCH  29  31
ENDBRANCH  27  29
BRANCH  20  33
ATOM     33  O   LIG    1       25.290 -18.796   3.141  0.00  0.00    -0.464 OA
BRANCH  33  35
ATOM     34  C   LIG    1       26.598 -16.792   3.398  0.00  0.00    +0.048 C 
ATOM     35  C   LIG    1       25.204 -17.397   3.409  0.00  0.00    +0.229 C 
ENDBRANCH  33  35
ENDBRANCH  20  33
ENDBRANCH  19  21
ENDBRANCH   1  19
TORSDOF 8
ENDMDL
MODEL 4
REMARK VINA RESULT:      -7.5      1.699      3.801
REMARK  Name = *****
REMARK                            x       y       z     vdW  Elec       q    Type
REMARK                         _______ _______ _______ _____ _____    ______ ____
ROOT
ATOM      1  C   LIG    1       25.828 -26.140   6.989  0.00  0.00    -0.028 A 
ATOM      2  C   LIG    1       26.368 -24.920   7.407  0.00  0.00    +0.006 A 
ATOM      3  C   LIG    1       25.640 -23.729   7.227  0.00  0.00    +0.009 A 
ATOM      4  C   LIG    1       24.367 -23.711   6.608  0.00  0.00    -0.017 A 
ATOM      5  C   LIG    1       23.825 -24.948   6.276  0.00  0.00    +0.009 A 
ATOM      6  C   LIG    1       24.522 -26.127   6.501  0.00  0.00    +0.006 A 
ENDROOT
BRANCH   4   7
ATOM      7  C   LIG    1       23.706 -22.447   6.184  0.00  0.00    -0.007 A 
ATOM      8  C   LIG    1       24.075 -21.124   6.564  0.00  0.00    +0.028 A 
ATOM      9  C   LIG    1       23.266 -20.045   6.128  0.00  0.00    +0.012 A 
ATOM     10  C   LIG    1       22.131 -20.236   5.339  0.00  0.00    +0.001 A 
ATOM     11  C   LIG    1       21.754 -21.516   4.984  0.00  0.00    +0.001 A 
ATOM     12  C   LIG    1       22.524 -22.596   5.409  0.00  0.00    +0.009 A 
BRANCH   8  13
ATOM     13  C   LIG    1       25.230 -20.738   7.399  0.00  0.00    +0.180 A 
ATOM     14  N   LIG    1       25.272 -20.686   8.767  0.00  0.00    -0.239 N 
ATOM     15  H   LIG    1       24.534 -20.839   9.441  0.00  0.00    +0.192 HD
ATOM     16  N   LIG    1       26.498 -20.348   9.194  0.00  0.00    -0.046 NA
ATOM     17  N   LIG    1       27.215 -20.201   8.092  0.00  0.00    -0.023 NA
ATOM     18  N   LIG    1       26.451 -20.443   6.977  0.00  0.00    -0.108 NA
ENDBRANCH   8  13
ENDBRANCH   4   7
BRANCH   1  19
ATOM     19  C   LIG    1       26.606 -27.429   7.080  0.00  0.00    +0.162 C 
BRANCH  19  21
ATOM     20  C   LIG    1       26.179 -28.592   9.253  0.00  0.00    +0.299 A 
ATOM     21  N   LIG    1       25.967 -28.479   7.889  0.00  0.00    -0.289 N 
ATOM     22  C   LIG    1       25.523 -29.718   7.447  0.00  0.00    +0.086 A 
ATOM     23  C   LIG    1       25.814 -30.551   8.529  0.00  0.00    +0.093 A 
ATOM     24  C   LIG    1       25.742 -31.945   8.389  0.00  0.00    +0.030 A 
ATOM     25  C   LIG    1       25.349 -32.489   7.170  0.00  0.00    +0.003 A 
ATOM     26  C   LIG    1       24.930 -31.652   6.142  0.00  0.00    +0.017 A 
ATOM     27  C   LIG    1       24.962 -30.245   6.265  0.00  0.00    +0.085 A 
ATOM     28  N   LIG    1       26.136 -29.839   9.647  0.00  0.00    -0.195 NA
BRANCH  27  29
ATOM     29  C   LIG    1       24.237 -29.439   5.274  0.00  0.00    +0.339 C 
ATOM     30  O   LIG    1       24.735 -28.644   4.478  0.00  0.00    -0.245 OA
BRANCH  29  31
ATOM     31  O   LIG    1       22.905 -29.564   5.395  0.00  0.00    -0.477 OA
ATOM     32  H   LIG    1       22.560 -29.588   4.481  0.00  0.00    +0.295 HD
ENDBRANCH  29  31
ENDBRANCH  27  29
BRANCH  20  33
ATOM     33  O   LIG    1       26.481 -27.554  10.034  0.00  0.00    -0.464 OA
BRANCH  33  35
ATOM     34  C   LIG    1       26.647 -26.868  12.335  0.00  0.00    +0.048 C 
ATOM     35  C   LIG    1       27.036 -27.910  11.301  0.00  0.00    +0.229 C 
ENDBRANCH  33  35
ENDBRANCH  20  33
ENDBRANCH  19  21
ENDBRANCH   1  19
TORSDOF 8
ENDMDL
MODEL 5
REMARK VINA RESULT:      -7.2      5.582      7.838
REMARK  Name = *****
REMARK                            x       y       z     vdW  Elec       q    Type
REMARK                         _______ _______ _______ _____ _____    ______ ____
ROOT
ATOM      1  C   LIG    1       25.464 -30.051  10.162  0.00  0.00    -0.028 A 
ATOM      2  C   LIG    1       25.818 -29.374  11.332  0.00  0.00    +0.006 A 
ATOM      3  C   LIG    1       24.821 -28.935  12.222  0.00  0.00    +0.009 A 
ATOM      4  C   LIG    1       23.443 -29.136  11.967  0.00  0.00    -0.017 A 
ATOM      5  C   LIG    1       23.128 -29.880  10.835  0.00  0.00    +0.009 A 
ATOM      6  C   LIG    1       24.115 -30.356   9.985  0.00  0.00    +0.006 A 
ENDROOT
BRANCH   4   7
ATOM      7  C   LIG    1       22.380 -28.460  12.759  0.00  0.00    -0.007 A 
ATOM      8  C   LIG    1       21.065 -28.949  13.011  0.00  0.00    +0.028 A 
ATOM      9  C   LIG    1       20.159 -28.118  13.716  0.00  0.00    +0.012 A 
ATOM     10  C   LIG    1       20.512 -26.847  14.173  0.00  0.00    +0.001 A 
ATOM     11  C   LIG    1       21.778 -26.357  13.914  0.00  0.00    +0.001 A 
ATOM     12  C   LIG    1       22.685 -27.148  13.212  0.00  0.00    +0.009 A 
BRANCH   8  13
ATOM     13  C   LIG    1       20.517 -30.255  12.596  0.00  0.00    +0.180 A 
ATOM     14  N   LIG    1       19.457 -30.470  11.756  0.00  0.00    -0.239 N 
ATOM     15  H   LIG    1       18.832 -29.804  11.322  0.00  0.00    +0.192 HD
ATOM     16  N   LIG    1       19.266 -31.782  11.555  0.00  0.00    -0.046 NA
ATOM     17  N   LIG    1       20.214 -32.378  12.260  0.00  0.00    -0.023 NA
ATOM     18  N   LIG    1       20.997 -31.451  12.905  0.00  0.00    -0.108 NA
ENDBRANCH   8  13
ENDBRANCH   4   7
BRANCH   1  19
ATOM     19  C   LIG    1       26.491 -30.462   9.137  0.00  0.00    +0.162 C 
BRANCH  19  21
ATOM     20  C   LIG    1       26.427 -32.932   8.752  0.00  0.00    +0.299 A 
ATOM     21  N   LIG    1       26.129 -31.644   8.340  0.00  0.00    -0.289 N 
ATOM     22  C   LIG    1       25.932 -31.697   6.966  0.00  0.00    +0.086 A 
ATOM     23  C   LIG    1       26.446 -32.951   6.632  0.00  0.00    +0.093 A 
ATOM     24  C   LIG    1       26.662 -33.294   5.289  0.00  0.00    +0.030 A 
ATOM     25  C   LIG    1       26.331 -32.381   4.291  0.00  0.00    +0.003 A 
ATOM     26  C   LIG    1       25.695 -31.191   4.624  0.00  0.00    +0.017 A 
ATOM     27  C   LIG    1       25.436 -30.834   5.967  0.00  0.00    +0.085 A 
ATOM     28  N   LIG    1       26.667 -33.722   7.736  0.00  0.00    -0.195 NA
BRANCH  27  29
ATOM     29  C   LIG    1       24.509 -29.725   6.230  0.00  0.00    +0.339 C 
ATOM     30  O   LIG    1       24.759 -28.705   6.872  0.00  0.00    -0.245 OA
BRANCH  29  31
ATOM     31  O   LIG    1       23.269 -29.986   5.788  0.00  0.00    -0.477 OA
ATOM     32  H   LIG    1       22.693 -29.320   6.215  0.00  0.00    +0.295 HD
ENDBRANCH  29  31
ENDBRANCH  27  29
BRANCH  20  33
ATOM     33  O   LIG    1       26.544 -33.281  10.034  0.00  0.00    -0.464 OA
BRANCH  33  35
ATOM     34  C   LIG    1       25.144 -33.234  11.992  0.00  0.00    +0.048 C 
ATOM     35  C   LIG    1       25.355 -33.825  10.608  0.00  0.00    +0.229 C 
ENDBRANCH  33  35
ENDBRANCH  20  33
ENDBRANCH  19  21
ENDBRANCH   1  19
TORSDOF 8
ENDMDL
MODEL 6
REMARK VINA RESULT:      -7.2      4.188      6.918
REMARK  Name = *****
REMARK                            x       y       z     vdW  Elec       q    Type
REMARK                         _______ _______ _______ _____ _____    ______ ____
ROOT
ATOM      1  C   LIG    1       25.518 -29.332  11.839  0.00  0.00    -0.028 A 
ATOM      2  C   LIG    1       26.579 -28.889  11.043  0.00  0.00    +0.006 A 
ATOM      3  C   LIG    1       26.537 -29.073   9.649  0.00  0.00    +0.009 A 
ATOM      4  C   LIG    1       25.454 -29.720   9.006  0.00  0.00    -0.017 A 
ATOM      5  C   LIG    1       24.382 -30.078   9.817  0.00  0.00    +0.009 A 
ATOM      6  C   LIG    1       24.402 -29.849  11.185  0.00  0.00    +0.006 A 
ENDROOT
BRANCH   4   7
ATOM      7  C   LIG    1       25.513 -30.146   7.582  0.00  0.00    -0.007 A 
ATOM      8  C   LIG    1       25.380 -29.308   6.436  0.00  0.00    +0.028 A 
ATOM      9  C   LIG    1       25.373 -29.913   5.155  0.00  0.00    +0.012 A 
ATOM     10  C   LIG    1       25.498 -31.292   4.980  0.00  0.00    +0.001 A 
ATOM     11  C   LIG    1       25.605 -32.113   6.085  0.00  0.00    +0.001 A 
ATOM     12  C   LIG    1       25.602 -31.547   7.358  0.00  0.00    +0.009 A 
BRANCH   8  13
ATOM     13  C   LIG    1       25.228 -27.840   6.433  0.00  0.00    +0.180 A 
ATOM     14  N   LIG    1       26.213 -26.914   6.652  0.00  0.00    -0.239 N 
ATOM     15  H   LIG    1       27.182 -27.050   6.907  0.00  0.00    +0.192 HD
ATOM     16  N   LIG    1       25.733 -25.668   6.520  0.00  0.00    -0.046 NA
ATOM     17  N   LIG    1       24.456 -25.824   6.210  0.00  0.00    -0.023 NA
ATOM     18  N   LIG    1       24.129 -27.156   6.147  0.00  0.00    -0.108 NA
ENDBRANCH   8  13
ENDBRANCH   4   7
BRANCH   1  19
ATOM     19  C   LIG    1       25.558 -29.236  13.344  0.00  0.00    +0.162 C 
BRANCH  19  21
ATOM     20  C   LIG    1       23.621 -30.384  14.432  0.00  0.00    +0.299 A 
ATOM     21  N   LIG    1       24.240 -29.225  13.996  0.00  0.00    -0.289 N 
ATOM     22  C   LIG    1       23.243 -28.270  13.847  0.00  0.00    +0.086 A 
ATOM     23  C   LIG    1       22.076 -29.034  13.898  0.00  0.00    +0.093 A 
ATOM     24  C   LIG    1       20.843 -28.471  13.537  0.00  0.00    +0.030 A 
ATOM     25  C   LIG    1       20.790 -27.134  13.154  0.00  0.00    +0.003 A 
ATOM     26  C   LIG    1       21.931 -26.345  13.237  0.00  0.00    +0.017 A 
ATOM     27  C   LIG    1       23.181 -26.877  13.627  0.00  0.00    +0.085 A 
ATOM     28  N   LIG    1       22.319 -30.304  14.336  0.00  0.00    -0.195 NA
BRANCH  27  29
ATOM     29  C   LIG    1       24.260 -25.945  13.978  0.00  0.00    +0.339 C 
ATOM     30  O   LIG    1       25.249 -25.686  13.292  0.00  0.00    -0.245 OA
BRANCH  29  31
ATOM     31  O   LIG    1       24.130 -25.464  15.225  0.00  0.00    -0.477 OA
ATOM     32  H   LIG    1       23.623 -24.632  15.133  0.00  0.00    +0.295 HD
ENDBRANCH  29  31
ENDBRANCH  27  29
BRANCH  20  33
ATOM     33  O   LIG    1       24.293 -31.473  14.811  0.00  0.00    -0.464 OA
BRANCH  33  35
ATOM     34  C   LIG    1       25.182 -32.968  13.147  0.00  0.00    +0.048 C 
ATOM     35  C   LIG    1       24.001 -32.643  14.046  0.00  0.00    +0.229 C 
ENDBRANCH  33  35
ENDBRANCH  20  33
ENDBRANCH  19  21
ENDBRANCH   1  19
TORSDOF 8
ENDMDL
MODEL 7
REMARK VINA RESULT:      -7.2      4.110      8.586
REMARK  Name = *****
REMARK                            x       y       z     vdW  Elec       q    Type
REMARK                         _______ _______ _______ _____ _____    ______ ____
ROOT
ATOM      1  C   LIG    1       23.631 -30.363  10.975  0.00  0.00    -0.028 A 
ATOM      2  C   LIG    1       22.294 -30.573  10.624  0.00  0.00    +0.006 A 
ATOM      3  C   LIG    1       21.273 -29.869  11.289  0.00  0.00    +0.009 A 
ATOM      4  C   LIG    1       21.547 -28.953  12.334  0.00  0.00    -0.017 A 
ATOM      5  C   LIG    1       22.889 -28.710  12.604  0.00  0.00    +0.009 A 
ATOM      6  C   LIG    1       23.897 -29.367  11.913  0.00  0.00    +0.006 A 
ENDROOT
BRANCH   4   7
ATOM      7  C   LIG    1       20.478 -28.401  13.208  0.00  0.00    -0.007 A 
ATOM      8  C   LIG    1       19.568 -29.145  14.015  0.00  0.00    +0.028 A 
ATOM      9  C   LIG    1       18.554 -28.443  14.714  0.00  0.00    +0.012 A 
ATOM     10  C   LIG    1       18.423 -27.055  14.642  0.00  0.00    +0.001 A 
ATOM     11  C   LIG    1       19.287 -26.329  13.846  0.00  0.00    +0.001 A 
ATOM     12  C   LIG    1       20.285 -26.995  13.138  0.00  0.00    +0.009 A 
BRANCH   8  13
ATOM     13  C   LIG    1       19.550 -30.610  14.199  0.00  0.00    +0.180 A 
ATOM     14  N   LIG    1       18.692 -31.500  13.610  0.00  0.00    -0.239 N 
ATOM     15  H   LIG    1       17.900 -31.329  13.006  0.00  0.00    +0.192 HD
ATOM     16  N   LIG    1       18.997 -32.758  13.959  0.00  0.00    -0.046 NA
ATOM     17  N   LIG    1       20.048 -32.648  14.755  0.00  0.00    -0.023 NA
ATOM     18  N   LIG    1       20.405 -31.331  14.910  0.00  0.00    -0.108 NA
ENDBRANCH   8  13
ENDBRANCH   4   7
BRANCH   1  19
ATOM     19  C   LIG    1       24.752 -31.159  10.352  0.00  0.00    +0.162 C 
BRANCH  19  21
ATOM     20  C   LIG    1       26.829 -29.786  10.126  0.00  0.00    +0.299 A 
ATOM     21  N   LIG    1       25.706 -30.366   9.562  0.00  0.00    -0.289 N 
ATOM     22  C   LIG    1       25.445 -29.675   8.386  0.00  0.00    +0.086 A 
ATOM     23  C   LIG    1       26.244 -28.538   8.515  0.00  0.00    +0.093 A 
ATOM     24  C   LIG    1       26.082 -27.454   7.639  0.00  0.00    +0.030 A 
ATOM     25  C   LIG    1       25.135 -27.535   6.622  0.00  0.00    +0.003 A 
ATOM     26  C   LIG    1       24.439 -28.721   6.417  0.00  0.00    +0.017 A 
ATOM     27  C   LIG    1       24.605 -29.840   7.264  0.00  0.00    +0.085 A 
ATOM     28  N   LIG    1       27.140 -28.659   9.537  0.00  0.00    -0.195 NA
BRANCH  27  29
ATOM     29  C   LIG    1       24.077 -31.137   6.822  0.00  0.00    +0.339 C 
ATOM     30  O   LIG    1       24.391 -32.241   7.267  0.00  0.00    -0.245 OA
BRANCH  29  31
ATOM     31  O   LIG    1       23.265 -31.018   5.759  0.00  0.00    -0.477 OA
ATOM     32  H   LIG    1       22.464 -31.532   5.982  0.00  0.00    +0.295 HD
ENDBRANCH  29  31
ENDBRANCH  27  29
BRANCH  20  33
ATOM     33  O   LIG    1       27.448 -30.282  11.199  0.00  0.00    -0.464 OA
BRANCH  33  35
ATOM     34  C   LIG    1       27.475 -28.804  13.098  0.00  0.00    +0.048 C 
ATOM     35  C   LIG    1       28.252 -29.338  11.907  0.00  0.00    +0.229 C 
ENDBRANCH  33  35
ENDBRANCH  20  33
ENDBRANCH  19  21
ENDBRANCH   1  19
TORSDOF 8
ENDMDL
MODEL 8
REMARK VINA RESULT:      -7.1      4.193      7.300
REMARK  Name = *****
REMARK                            x       y       z     vdW  Elec       q    Type
REMARK                         _______ _______ _______ _____ _____    ______ ____
ROOT
ATOM      1  C   LIG    1       24.451 -29.531  11.834  0.00  0.00    -0.028 A 
ATOM      2  C   LIG    1       25.688 -29.197  11.275  0.00  0.00    +0.006 A 
ATOM      3  C   LIG    1       25.895 -29.334   9.890  0.00  0.00    +0.009 A 
ATOM      4  C   LIG    1       24.889 -29.827   9.023  0.00  0.00    -0.017 A 
ATOM      5  C   LIG    1       23.647 -30.076   9.599  0.00  0.00    +0.009 A 
ATOM      6  C   LIG    1       23.430 -29.891  10.957  0.00  0.00    +0.006 A 
ENDROOT
BRANCH   4   7
ATOM      7  C   LIG    1       25.172 -30.216   7.616  0.00  0.00    -0.007 A 
ATOM      8  C   LIG    1       25.264 -29.343   6.493  0.00  0.00    +0.028 A 
ATOM      9  C   LIG    1       25.452 -29.912   5.208  0.00  0.00    +0.012 A 
ATOM     10  C   LIG    1       25.555 -31.290   5.010  0.00  0.00    +0.001 A 
ATOM     11  C   LIG    1       25.446 -32.144   6.090  0.00  0.00    +0.001 A 
ATOM     12  C   LIG    1       25.247 -31.613   7.362  0.00  0.00    +0.009 A 
BRANCH   8  13
ATOM     13  C   LIG    1       25.167 -27.870   6.513  0.00  0.00    +0.180 A 
ATOM     14  N   LIG    1       26.151 -26.989   6.877  0.00  0.00    -0.239 N 
ATOM     15  H   LIG    1       27.076 -27.170   7.244  0.00  0.00    +0.192 HD
ATOM     16  N   LIG    1       25.737 -25.723   6.724  0.00  0.00    -0.046 NA
ATOM     17  N   LIG    1       24.503 -25.820   6.256  0.00  0.00    -0.023 NA
ATOM     18  N   LIG    1       24.138 -27.137   6.116  0.00  0.00    -0.108 NA
ENDBRANCH   8  13
ENDBRANCH   4   7
BRANCH   1  19
ATOM     19  C   LIG    1       24.211 -29.484  13.323  0.00  0.00    +0.162 C 
BRANCH  19  21
ATOM     20  C   LIG    1       23.033 -27.350  13.883  0.00  0.00    +0.299 A 
ATOM     21  N   LIG    1       24.176 -28.130  13.899  0.00  0.00    -0.289 N 
ATOM     22  C   LIG    1       25.250 -27.266  14.064  0.00  0.00    +0.086 A 
ATOM     23  C   LIG    1       24.680 -26.017  13.811  0.00  0.00    +0.093 A 
ATOM     24  C   LIG    1       25.494 -24.888  13.634  0.00  0.00    +0.030 A 
ATOM     25  C   LIG    1       26.875 -25.020  13.743  0.00  0.00    +0.003 A 
ATOM     26  C   LIG    1       27.426 -26.236  14.129  0.00  0.00    +0.017 A 
ATOM     27  C   LIG    1       26.628 -27.382  14.345  0.00  0.00    +0.085 A 
ATOM     28  N   LIG    1       23.317 -26.077  13.783  0.00  0.00    -0.195 NA
BRANCH  27  29
ATOM     29  C   LIG    1       27.228 -28.534  15.031  0.00  0.00    +0.339 C 
ATOM     30  O   LIG    1       26.622 -29.498  15.500  0.00  0.00    -0.245 OA
BRANCH  29  31
ATOM     31  O   LIG    1       28.549 -28.383  15.215  0.00  0.00    -0.477 OA
ATOM     32  H   LIG    1       28.646 -27.975  16.099  0.00  0.00    +0.295 HD
ENDBRANCH  29  31
ENDBRANCH  27  29
BRANCH  20  33
ATOM     33  O   LIG    1       21.800 -27.860  13.876  0.00  0.00    -0.464 OA
BRANCH  33  35
ATOM     34  C   LIG    1       19.746 -26.657  13.518  0.00  0.00    +0.048 C 
ATOM     35  C   LIG    1       20.945 -27.324  12.866  0.00  0.00    +0.229 C 
ENDBRANCH  33  35
ENDBRANCH  20  33
ENDBRANCH  19  21
ENDBRANCH   1  19
TORSDOF 8
ENDMDL
MODEL 9
REMARK VINA RESULT:      -7.0      4.004      7.326
REMARK  Name = *****
REMARK                            x       y       z     vdW  Elec       q    Type
REMARK                         _______ _______ _______ _____ _____    ______ ____
ROOT
ATOM      1  C   LIG    1       23.963 -30.790  10.967  0.00  0.00    -0.028 A 
ATOM      2  C   LIG    1       24.277 -30.636  12.320  0.00  0.00    +0.006 A 
ATOM      3  C   LIG    1       23.389 -29.960  13.177  0.00  0.00    +0.009 A 
ATOM      4  C   LIG    1       22.174 -29.401  12.712  0.00  0.00    -0.017 A 
ATOM      5  C   LIG    1       21.855 -29.639  11.380  0.00  0.00    +0.009 A 
ATOM      6  C   LIG    1       22.709 -30.350  10.548  0.00  0.00    +0.006 A 
ENDROOT
BRANCH   4   7
ATOM      7  C   LIG    1       21.357 -28.473  13.541  0.00  0.00    -0.007 A 
ATOM      8  C   LIG    1       21.835 -27.370  14.307  0.00  0.00    +0.028 A 
ATOM      9  C   LIG    1       20.912 -26.653  15.108  0.00  0.00    +0.012 A 
ATOM     10  C   LIG    1       19.558 -26.987  15.166  0.00  0.00    +0.001 A 
ATOM     11  C   LIG    1       19.090 -28.068  14.443  0.00  0.00    +0.001 A 
ATOM     12  C   LIG    1       19.978 -28.798  13.657  0.00  0.00    +0.009 A 
BRANCH   8  13
ATOM     13  C   LIG    1       23.227 -26.884  14.376  0.00  0.00    +0.180 A 
ATOM     14  N   LIG    1       23.908 -26.206  13.399  0.00  0.00    -0.239 N 
ATOM     15  H   LIG    1       23.622 -25.969  12.459  0.00  0.00    +0.192 HD
ATOM     16  N   LIG    1       25.137 -25.871  13.820  0.00  0.00    -0.046 NA
ATOM     17  N   LIG    1       25.211 -26.331  15.059  0.00  0.00    -0.023 NA
ATOM     18  N   LIG    1       24.042 -26.953  15.419  0.00  0.00    -0.108 NA
ENDBRANCH   8  13
ENDBRANCH   4   7
BRANCH   1  19
ATOM     19  C   LIG    1       24.924 -31.428   9.994  0.00  0.00    +0.162 C 
BRANCH  19  21
ATOM     20  C   LIG    1       26.841 -29.824   9.937  0.00  0.00    +0.299 A 
ATOM     21  N   LIG    1       25.809 -30.485   9.294  0.00  0.00    -0.289 N 
ATOM     22  C   LIG    1       25.511 -29.751   8.153  0.00  0.00    +0.086 A 
ATOM     23  C   LIG    1       26.174 -28.544   8.384  0.00  0.00    +0.093 A 
ATOM     24  C   LIG    1       25.920 -27.429   7.571  0.00  0.00    +0.030 A 
ATOM     25  C   LIG    1       25.023 -27.546   6.514  0.00  0.00    +0.003 A 
ATOM     26  C   LIG    1       24.472 -28.785   6.208  0.00  0.00    +0.017 A 
ATOM     27  C   LIG    1       24.734 -29.932   6.990  0.00  0.00    +0.085 A 
ATOM     28  N   LIG    1       27.043 -28.634   9.432  0.00  0.00    -0.195 NA
BRANCH  27  29
ATOM     29  C   LIG    1       24.369 -31.248   6.448  0.00  0.00    +0.339 C 
ATOM     30  O   LIG    1       25.044 -32.275   6.513  0.00  0.00    -0.245 OA
BRANCH  29  31
ATOM     31  O   LIG    1       23.229 -31.205   5.739  0.00  0.00    -0.477 OA
ATOM     32  H   LIG    1       23.376 -31.793   4.971  0.00  0.00    +0.295 HD
ENDBRANCH  29  31
ENDBRANCH  27  29
BRANCH  20  33
ATOM     33  O   LIG    1       27.476 -30.319  11.001  0.00  0.00    -0.464 OA
BRANCH  33  35
ATOM     34  C   LIG    1       27.645 -29.102  13.071  0.00  0.00    +0.048 C 
ATOM     35  C   LIG    1       28.269 -29.368  11.712  0.00  0.00    +0.229 C 
ENDBRANCH  33  35
ENDBRANCH  20  33
ENDBRANCH  19  21
ENDBRANCH   1  19
TORSDOF 8
ENDMDL
