MODEL 1
REMARK VINA RESULT:      -8.0      0.000      0.000
REMARK  Name = *****
REMARK                            x       y       z     vdW  Elec       q    Type
REMARK                         _______ _______ _______ _____ _____    ______ ____
ROOT
ATOM      1  N   LIG    1       25.684 -21.049   6.301  0.00  0.00    -0.309 N 
ATOM      2  C   LIG    1       26.724 -20.302   5.751  0.00  0.00    +0.199 A 
ATOM      3  N   LIG    1       26.264 -19.586   4.750  0.00  0.00    -0.214 NA
ATOM      4  C   LIG    1       24.911 -19.832   4.665  0.00  0.00    +0.091 A 
ATOM      5  C   LIG    1       23.940 -19.346   3.775  0.00  0.00    +0.030 A 
ATOM      6  C   LIG    1       22.599 -19.729   3.946  0.00  0.00    +0.002 A 
ATOM      7  C   LIG    1       22.226 -20.578   4.986  0.00  0.00    +0.002 A 
ATOM      8  C   LIG    1       23.179 -21.091   5.867  0.00  0.00    +0.028 A 
ATOM      9  C   LIG    1       24.514 -20.708   5.666  0.00  0.00    +0.070 A 
ENDROOT
BRANCH   2  10
ATOM     10  N   LIG    1       27.984 -20.282   6.301  0.00  0.00    -0.300 N 
ATOM     11  C   LIG    1       28.851 -19.137   5.957  0.00  0.00    +0.123 C 
ATOM     12  C   LIG    1       30.345 -19.295   6.322  0.00  0.00    +0.103 C 
ATOM     13  N   LIG    1       30.601 -19.233   7.767  0.00  0.00    -0.304 NA
ATOM     14  C   LIG    1       31.891 -18.603   8.051  0.00  0.00    +0.105 C 
ATOM     15  C   LIG    1       30.522 -20.557   8.396  0.00  0.00    +0.086 C 
ATOM     16  C   LIG    1       29.325 -21.426   7.991  0.00  0.00    +0.034 C 
ATOM     17  C   LIG    1       28.035 -20.643   7.734  0.00  0.00    +0.109 C 
ENDBRANCH   2  10
BRANCH   1  18
ATOM     18  C   LIG    1       25.757 -22.048   7.344  0.00  0.00    +0.153 C 
BRANCH  18  19
ATOM     19  C   LIG    1       25.717 -23.455   6.755  0.00  0.00    +0.181 C 
BRANCH  19  20
ATOM     20  O   LIG    1       24.447 -24.053   7.008  0.00  0.00    -0.378 OA
BRANCH  20  22
ATOM     21  C   LIG    1       25.157 -25.134   4.999  0.00  0.00    +0.034 C 
ATOM     22  C   LIG    1       24.289 -25.242   6.233  0.00  0.00    +0.156 C 
ENDBRANCH  20  22
ENDBRANCH  19  20
ENDBRANCH  18  19
ENDBRANCH   1  18
TORSDOF 5
ENDMDL
MODEL 2
REMARK VINA RESULT:      -7.3      2.850      6.171
REMARK  Name = *****
REMARK                            x       y       z     vdW  Elec       q    Type
REMARK                         _______ _______ _______ _____ _____    ______ ____
ROOT
ATOM      1  N   LIG    1       25.427 -24.109   6.564  0.00  0.00    -0.309 N 
ATOM      2  C   LIG    1       24.881 -23.524   5.423  0.00  0.00    +0.199 A 
ATOM      3  N   LIG    1       24.774 -24.431   4.478  0.00  0.00    -0.214 NA
ATOM      4  C   LIG    1       25.214 -25.623   5.010  0.00  0.00    +0.091 A 
ATOM      5  C   LIG    1       25.327 -26.900   4.439  0.00  0.00    +0.030 A 
ATOM      6  C   LIG    1       25.768 -27.971   5.233  0.00  0.00    +0.002 A 
ATOM      7  C   LIG    1       26.088 -27.779   6.576  0.00  0.00    +0.002 A 
ATOM      8  C   LIG    1       26.005 -26.513   7.157  0.00  0.00    +0.028 A 
ATOM      9  C   LIG    1       25.578 -25.456   6.339  0.00  0.00    +0.070 A 
ENDROOT
BRANCH   2  10
ATOM     10  N   LIG    1       24.439 -22.222   5.407  0.00  0.00    -0.300 N 
ATOM     11  C   LIG    1       24.493 -21.509   4.114  0.00  0.00    +0.123 C 
ATOM     12  C   LIG    1       24.297 -19.977   4.185  0.00  0.00    +0.103 C 
ATOM     13  N   LIG    1       22.919 -19.581   4.505  0.00  0.00    -0.304 NA
ATOM     14  C   LIG    1       22.555 -18.335   3.828  0.00  0.00    +0.105 C 
ATOM     15  C   LIG    1       22.702 -19.467   5.952  0.00  0.00    +0.086 C 
ATOM     16  C   LIG    1       23.259 -20.609   6.810  0.00  0.00    +0.034 C 
ATOM     17  C   LIG    1       23.183 -21.988   6.150  0.00  0.00    +0.109 C 
ENDBRANCH   2  10
BRANCH   1  18
ATOM     18  C   LIG    1       25.817 -23.464   7.799  0.00  0.00    +0.153 C 
BRANCH  18  19
ATOM     19  C   LIG    1       26.994 -22.520   7.573  0.00  0.00    +0.181 C 
BRANCH  19  20
ATOM     20  O   LIG    1       27.037 -21.539   8.608  0.00  0.00    -0.378 OA
BRANCH  20  22
ATOM     21  C   LIG    1       27.207 -20.234   6.614  0.00  0.00    +0.034 C 
ATOM     22  C   LIG    1       26.808 -20.235   8.073  0.00  0.00    +0.156 C 
ENDBRANCH  20  22
ENDBRANCH  19  20
ENDBRANCH  18  19
ENDBRANCH   1  18
TORSDOF 5
ENDMDL
MODEL 3
REMARK VINA RESULT:      -7.3      1.564      3.910
REMARK  Name = *****
REMARK                            x       y       z     vdW  Elec       q    Type
REMARK                         _______ _______ _______ _____ _____    ______ ____
ROOT
ATOM      1  N   LIG    1       25.585 -21.611   6.580  0.00  0.00    -0.309 N 
ATOM      2  C   LIG    1       26.906 -21.766   6.997  0.00  0.00    +0.199 A 
ATOM      3  N   LIG    1       27.143 -23.037   7.229  0.00  0.00    -0.214 NA
ATOM      4  C   LIG    1       25.990 -23.726   6.926  0.00  0.00    +0.091 A 
ATOM      5  C   LIG    1       25.686 -25.095   7.004  0.00  0.00    +0.030 A 
ATOM      6  C   LIG    1       24.425 -25.543   6.579  0.00  0.00    +0.002 A 
ATOM      7  C   LIG    1       23.480 -24.649   6.081  0.00  0.00    +0.002 A 
ATOM      8  C   LIG    1       23.752 -23.282   6.017  0.00  0.00    +0.028 A 
ATOM      9  C   LIG    1       25.012 -22.855   6.463  0.00  0.00    +0.070 A 
ENDROOT
BRANCH   2  10
ATOM     10  N   LIG    1       27.794 -20.716   7.024  0.00  0.00    -0.300 N 
ATOM     11  C   LIG    1       28.685 -20.619   8.198  0.00  0.00    +0.123 C 
ATOM     12  C   LIG    1       29.437 -19.277   8.358  0.00  0.00    +0.103 C 
ATOM     13  N   LIG    1       30.499 -19.083   7.361  0.00  0.00    -0.304 NA
ATOM     14  C   LIG    1       31.628 -18.344   7.926  0.00  0.00    +0.105 C 
ATOM     15  C   LIG    1       30.000 -18.420   6.150  0.00  0.00    +0.086 C 
ATOM     16  C   LIG    1       28.677 -18.952   5.586  0.00  0.00    +0.034 C 
ATOM     17  C   LIG    1       28.485 -20.462   5.743  0.00  0.00    +0.109 C 
ENDBRANCH   2  10
BRANCH   1  18
ATOM     18  C   LIG    1       24.868 -20.383   6.321  0.00  0.00    +0.153 C 
BRANCH  18  19
ATOM     19  C   LIG    1       24.903 -20.033   4.837  0.00  0.00    +0.181 C 
BRANCH  19  20
ATOM     20  O   LIG    1       23.633 -20.296   4.244  0.00  0.00    -0.378 OA
BRANCH  20  22
ATOM     21  C   LIG    1       22.216 -18.393   4.528  0.00  0.00    +0.034 C 
ATOM     22  C   LIG    1       22.582 -19.765   5.051  0.00  0.00    +0.156 C 
ENDBRANCH  20  22
ENDBRANCH  19  20
ENDBRANCH  18  19
ENDBRANCH   1  18
TORSDOF 5
ENDMDL
MODEL 4
REMARK VINA RESULT:      -6.8      1.901      6.487
REMARK  Name = *****
REMARK                            x       y       z     vdW  Elec       q    Type
REMARK                         _______ _______ _______ _____ _____    ______ ____
ROOT
ATOM      1  N   LIG    1       28.261 -19.965   6.573  0.00  0.00    -0.309 N 
ATOM      2  C   LIG    1       27.662 -21.032   7.241  0.00  0.00    +0.199 A 
ATOM      3  N   LIG    1       28.481 -21.482   8.165  0.00  0.00    -0.214 NA
ATOM      4  C   LIG    1       29.604 -20.686   8.132  0.00  0.00    +0.091 A 
ATOM      5  C   LIG    1       30.787 -20.730   8.887  0.00  0.00    +0.030 A 
ATOM      6  C   LIG    1       31.772 -19.751   8.679  0.00  0.00    +0.002 A 
ATOM      7  C   LIG    1       31.585 -18.740   7.739  0.00  0.00    +0.002 A 
ATOM      8  C   LIG    1       30.428 -18.691   6.961  0.00  0.00    +0.028 A 
ATOM      9  C   LIG    1       29.466 -19.690   7.175  0.00  0.00    +0.070 A 
ENDROOT
BRANCH   2  10
ATOM     10  N   LIG    1       26.366 -21.418   6.991  0.00  0.00    -0.300 N 
ATOM     11  C   LIG    1       26.146 -22.826   6.604  0.00  0.00    +0.123 C 
ATOM     12  C   LIG    1       24.748 -23.151   6.027  0.00  0.00    +0.103 C 
ATOM     13  N   LIG    1       23.680 -23.116   7.036  0.00  0.00    -0.304 NA
ATOM     14  C   LIG    1       22.648 -24.113   6.750  0.00  0.00    +0.105 C 
ATOM     15  C   LIG    1       23.088 -21.779   7.162  0.00  0.00    +0.086 C 
ATOM     16  C   LIG    1       24.075 -20.607   7.229  0.00  0.00    +0.034 C 
ATOM     17  C   LIG    1       25.377 -20.920   7.970  0.00  0.00    +0.109 C 
ENDBRANCH   2  10
BRANCH   1  18
ATOM     18  C   LIG    1       27.769 -19.243   5.421  0.00  0.00    +0.153 C 
BRANCH  18  19
ATOM     19  C   LIG    1       26.683 -20.037   4.702  0.00  0.00    +0.181 C 
BRANCH  19  20
ATOM     20  O   LIG    1       25.755 -19.146   4.086  0.00  0.00    -0.378 OA
BRANCH  20  22
ATOM     21  C   LIG    1       23.376 -18.979   3.935  0.00  0.00    +0.034 C 
ATOM     22  C   LIG    1       24.584 -19.850   3.669  0.00  0.00    +0.156 C 
ENDBRANCH  20  22
ENDBRANCH  19  20
ENDBRANCH  18  19
ENDBRANCH   1  18
TORSDOF 5
ENDMDL
MODEL 5
REMARK VINA RESULT:      -6.5      1.172      5.812
REMARK  Name = *****
REMARK                            x       y       z     vdW  Elec       q    Type
REMARK                         _______ _______ _______ _____ _____    ______ ____
ROOT
ATOM      1  N   LIG    1       27.516 -21.115   7.243  0.00  0.00    -0.309 N 
ATOM      2  C   LIG    1       27.177 -20.271   6.186  0.00  0.00    +0.199 A 
ATOM      3  N   LIG    1       28.197 -19.491   5.908  0.00  0.00    -0.214 NA
ATOM      4  C   LIG    1       29.223 -19.848   6.756  0.00  0.00    +0.091 A 
ATOM      5  C   LIG    1       30.522 -19.335   6.897  0.00  0.00    +0.030 A 
ATOM      6  C   LIG    1       31.396 -19.926   7.824  0.00  0.00    +0.002 A 
ATOM      7  C   LIG    1       30.990 -21.013   8.595  0.00  0.00    +0.002 A 
ATOM      8  C   LIG    1       29.696 -21.523   8.487  0.00  0.00    +0.028 A 
ATOM      9  C   LIG    1       28.835 -20.905   7.568  0.00  0.00    +0.070 A 
ENDROOT
BRANCH   2  10
ATOM     10  N   LIG    1       25.982 -20.380   5.516  0.00  0.00    -0.300 N 
ATOM     11  C   LIG    1       24.749 -20.352   6.329  0.00  0.00    +0.123 C 
ATOM     12  C   LIG    1       23.457 -20.789   5.601  0.00  0.00    +0.103 C 
ATOM     13  N   LIG    1       22.990 -19.814   4.606  0.00  0.00    -0.304 NA
ATOM     14  C   LIG    1       21.528 -19.791   4.532  0.00  0.00    +0.105 C 
ATOM     15  C   LIG    1       23.571 -20.060   3.281  0.00  0.00    +0.086 C 
ATOM     16  C   LIG    1       25.078 -20.342   3.248  0.00  0.00    +0.034 C 
ATOM     17  C   LIG    1       25.889 -19.564   4.286  0.00  0.00    +0.109 C 
ENDBRANCH   2  10
BRANCH   1  18
ATOM     18  C   LIG    1       26.669 -22.055   7.942  0.00  0.00    +0.153 C 
BRANCH  18  19
ATOM     19  C   LIG    1       26.491 -23.336   7.132  0.00  0.00    +0.181 C 
BRANCH  19  20
ATOM     20  O   LIG    1       25.112 -23.699   7.093  0.00  0.00    -0.378 OA
BRANCH  20  22
ATOM     21  C   LIG    1       24.124 -25.633   6.097  0.00  0.00    +0.034 C 
ATOM     22  C   LIG    1       24.786 -24.297   5.838  0.00  0.00    +0.156 C 
ENDBRANCH  20  22
ENDBRANCH  19  20
ENDBRANCH  18  19
ENDBRANCH   1  18
TORSDOF 5
ENDMDL
MODEL 6
REMARK VINA RESULT:      -6.3      7.382     10.992
REMARK  Name = *****
REMARK                            x       y       z     vdW  Elec       q    Type
REMARK                         _______ _______ _______ _____ _____    ______ ____
ROOT
ATOM      1  N   LIG    1       25.434 -31.226   6.509  0.00  0.00    -0.309 N 
ATOM      2  C   LIG    1       26.071 -31.366   7.741  0.00  0.00    +0.199 A 
ATOM      3  N   LIG    1       27.032 -32.255   7.635  0.00  0.00    -0.214 NA
ATOM      4  C   LIG    1       27.055 -32.673   6.323  0.00  0.00    +0.091 A 
ATOM      5  C   LIG    1       27.866 -33.613   5.669  0.00  0.00    +0.030 A 
ATOM      6  C   LIG    1       27.707 -33.816   4.288  0.00  0.00    +0.002 A 
ATOM      7  C   LIG    1       26.759 -33.093   3.566  0.00  0.00    +0.002 A 
ATOM      8  C   LIG    1       25.927 -32.170   4.200  0.00  0.00    +0.028 A 
ATOM      9  C   LIG    1       26.093 -31.998   5.582  0.00  0.00    +0.070 A 
ENDROOT
BRANCH   2  10
ATOM     10  N   LIG    1       25.759 -30.575   8.821  0.00  0.00    -0.300 N 
ATOM     11  C   LIG    1       24.724 -31.078   9.748  0.00  0.00    +0.123 C 
ATOM     12  C   LIG    1       24.171 -30.046  10.758  0.00  0.00    +0.103 C 
ATOM     13  N   LIG    1       25.133 -29.686  11.808  0.00  0.00    -0.304 NA
ATOM     14  C   LIG    1       24.458 -29.420  13.078  0.00  0.00    +0.105 C 
ATOM     15  C   LIG    1       25.971 -28.545  11.418  0.00  0.00    +0.086 C 
ATOM     16  C   LIG    1       26.551 -28.588   9.999  0.00  0.00    +0.034 C 
ATOM     17  C   LIG    1       26.927 -29.990   9.513  0.00  0.00    +0.109 C 
ENDBRANCH   2  10
BRANCH   1  18
ATOM     18  C   LIG    1       24.260 -30.442   6.194  0.00  0.00    +0.153 C 
BRANCH  18  19
ATOM     19  C   LIG    1       24.651 -29.076   5.637  0.00  0.00    +0.181 C 
BRANCH  19  20
ATOM     20  O   LIG    1       24.570 -28.090   6.664  0.00  0.00    -0.378 OA
BRANCH  20  22
ATOM     21  C   LIG    1       25.623 -25.944   6.641  0.00  0.00    +0.034 C 
ATOM     22  C   LIG    1       24.485 -26.781   6.098  0.00  0.00    +0.156 C 
ENDBRANCH  20  22
ENDBRANCH  19  20
ENDBRANCH  18  19
ENDBRANCH   1  18
TORSDOF 5
ENDMDL
MODEL 7
REMARK VINA RESULT:      -6.0      1.419      2.043
REMARK  Name = *****
REMARK                            x       y       z     vdW  Elec       q    Type
REMARK                         _______ _______ _______ _____ _____    ______ ____
ROOT
ATOM      1  N   LIG    1       26.211 -20.695   6.098  0.00  0.00    -0.309 N 
ATOM      2  C   LIG    1       27.384 -19.955   5.961  0.00  0.00    +0.199 A 
ATOM      3  N   LIG    1       27.272 -19.149   4.930  0.00  0.00    -0.214 NA
ATOM      4  C   LIG    1       26.009 -19.330   4.410  0.00  0.00    +0.091 A 
ATOM      5  C   LIG    1       25.373 -18.738   3.308  0.00  0.00    +0.030 A 
ATOM      6  C   LIG    1       24.039 -19.074   3.023  0.00  0.00    +0.002 A 
ATOM      7  C   LIG    1       23.345 -19.980   3.822  0.00  0.00    +0.002 A 
ATOM      8  C   LIG    1       23.965 -20.597   4.909  0.00  0.00    +0.028 A 
ATOM      9  C   LIG    1       25.303 -20.258   5.163  0.00  0.00    +0.070 A 
ENDROOT
BRANCH   2  10
ATOM     10  N   LIG    1       28.409 -20.031   6.874  0.00  0.00    -0.300 N 
ATOM     11  C   LIG    1       28.886 -21.380   7.241  0.00  0.00    +0.123 C 
ATOM     12  C   LIG    1       29.803 -21.451   8.484  0.00  0.00    +0.103 C 
ATOM     13  N   LIG    1       31.140 -20.889   8.254  0.00  0.00    -0.304 NA
ATOM     14  C   LIG    1       32.158 -21.613   9.016  0.00  0.00    +0.105 C 
ATOM     15  C   LIG    1       31.192 -19.453   8.556  0.00  0.00    +0.086 C 
ATOM     16  C   LIG    1       30.035 -18.607   8.010  0.00  0.00    +0.034 C 
ATOM     17  C   LIG    1       29.506 -19.065   6.650  0.00  0.00    +0.109 C 
ENDBRANCH   2  10
BRANCH   1  18
ATOM     18  C   LIG    1       25.936 -21.770   7.026  0.00  0.00    +0.153 C 
BRANCH  18  19
ATOM     19  C   LIG    1       24.965 -21.319   8.112  0.00  0.00    +0.181 C 
BRANCH  19  20
ATOM     20  O   LIG    1       23.730 -22.022   7.984  0.00  0.00    -0.378 OA
BRANCH  20  22
ATOM     21  C   LIG    1       22.533 -23.606   6.654  0.00  0.00    +0.034 C 
ATOM     22  C   LIG    1       23.893 -23.177   7.159  0.00  0.00    +0.156 C 
ENDBRANCH  20  22
ENDBRANCH  19  20
ENDBRANCH  18  19
ENDBRANCH   1  18
TORSDOF 5
ENDMDL
MODEL 8
REMARK VINA RESULT:      -6.0      2.702      6.286
REMARK  Name = *****
REMARK                            x       y       z     vdW  Elec       q    Type
REMARK                         _______ _______ _______ _____ _____    ______ ____
ROOT
ATOM      1  N   LIG    1       25.605 -22.870   5.959  0.00  0.00    -0.309 N 
ATOM      2  C   LIG    1       24.917 -23.865   5.268  0.00  0.00    +0.199 A 
ATOM      3  N   LIG    1       24.204 -23.317   4.310  0.00  0.00    -0.214 NA
ATOM      4  C   LIG    1       24.453 -21.963   4.345  0.00  0.00    +0.091 A 
ATOM      5  C   LIG    1       23.948 -20.913   3.562  0.00  0.00    +0.030 A 
ATOM      6  C   LIG    1       24.415 -19.607   3.781  0.00  0.00    +0.002 A 
ATOM      7  C   LIG    1       25.371 -19.346   4.761  0.00  0.00    +0.002 A 
ATOM      8  C   LIG    1       25.868 -20.371   5.567  0.00  0.00    +0.028 A 
ATOM      9  C   LIG    1       25.374 -21.664   5.340  0.00  0.00    +0.070 A 
ENDROOT
BRANCH   2  10
ATOM     10  N   LIG    1       25.100 -25.202   5.534  0.00  0.00    -0.300 N 
ATOM     11  C   LIG    1       24.073 -25.872   6.358  0.00  0.00    +0.123 C 
ATOM     12  C   LIG    1       24.456 -27.268   6.901  0.00  0.00    +0.103 C 
ATOM     13  N   LIG    1       24.499 -28.305   5.862  0.00  0.00    -0.304 NA
ATOM     14  C   LIG    1       24.071 -29.602   6.389  0.00  0.00    +0.105 C 
ATOM     15  C   LIG    1       25.827 -28.411   5.245  0.00  0.00    +0.086 C 
ATOM     16  C   LIG    1       26.499 -27.087   4.861  0.00  0.00    +0.034 C 
ATOM     17  C   LIG    1       25.532 -26.007   4.371  0.00  0.00    +0.109 C 
ENDBRANCH   2  10
BRANCH   1  18
ATOM     18  C   LIG    1       26.419 -23.006   7.147  0.00  0.00    +0.153 C 
BRANCH  18  19
ATOM     19  C   LIG    1       25.930 -22.075   8.253  0.00  0.00    +0.181 C 
BRANCH  19  20
ATOM     20  O   LIG    1       27.034 -21.376   8.824  0.00  0.00    -0.378 OA
BRANCH  20  22
ATOM     21  C   LIG    1       28.702 -20.032   7.766  0.00  0.00    +0.034 C 
ATOM     22  C   LIG    1       28.168 -21.434   7.958  0.00  0.00    +0.156 C 
ENDBRANCH  20  22
ENDBRANCH  19  20
ENDBRANCH  18  19
ENDBRANCH   1  18
TORSDOF 5
ENDMDL
MODEL 9
REMARK VINA RESULT:      -6.0      6.988     10.339
REMARK  Name = *****
REMARK                            x       y       z     vdW  Elec       q    Type
REMARK                         _______ _______ _______ _____ _____    ______ ____
ROOT
ATOM      1  N   LIG    1       25.339 -30.002   7.498  0.00  0.00    -0.309 N 
ATOM      2  C   LIG    1       25.677 -30.519   8.747  0.00  0.00    +0.199 A 
ATOM      3  N   LIG    1       26.111 -31.751   8.605  0.00  0.00    -0.214 NA
ATOM      4  C   LIG    1       26.096 -32.032   7.257  0.00  0.00    +0.091 A 
ATOM      5  C   LIG    1       26.442 -33.198   6.554  0.00  0.00    +0.030 A 
ATOM      6  C   LIG    1       26.378 -33.198   5.151  0.00  0.00    +0.002 A 
ATOM      7  C   LIG    1       25.981 -32.059   4.455  0.00  0.00    +0.002 A 
ATOM      8  C   LIG    1       25.610 -30.898   5.134  0.00  0.00    +0.028 A 
ATOM      9  C   LIG    1       25.666 -30.927   6.535  0.00  0.00    +0.070 A 
ENDROOT
BRANCH   2  10
ATOM     10  N   LIG    1       25.644 -29.756   9.891  0.00  0.00    -0.300 N 
ATOM     11  C   LIG    1       24.703 -30.173  10.951  0.00  0.00    +0.123 C 
ATOM     12  C   LIG    1       24.456 -29.137  12.072  0.00  0.00    +0.103 C 
ATOM     13  N   LIG    1       25.607 -28.962  12.967  0.00  0.00    -0.304 NA
ATOM     14  C   LIG    1       25.176 -28.683  14.338  0.00  0.00    +0.105 C 
ATOM     15  C   LIG    1       26.522 -27.918  12.489  0.00  0.00    +0.086 C 
ATOM     16  C   LIG    1       26.868 -27.956  10.996  0.00  0.00    +0.034 C 
ATOM     17  C   LIG    1       26.972 -29.365  10.408  0.00  0.00    +0.109 C 
ENDBRANCH   2  10
BRANCH   1  18
ATOM     18  C   LIG    1       24.723 -28.729   7.196  0.00  0.00    +0.153 C 
BRANCH  18  19
ATOM     19  C   LIG    1       25.765 -27.616   7.150  0.00  0.00    +0.181 C 
BRANCH  19  20
ATOM     20  O   LIG    1       25.641 -26.883   5.932  0.00  0.00    -0.378 OA
BRANCH  20  22
ATOM     21  C   LIG    1       24.013 -25.170   6.290  0.00  0.00    +0.034 C 
ATOM     22  C   LIG    1       24.276 -26.535   5.693  0.00  0.00    +0.156 C 
ENDBRANCH  20  22
ENDBRANCH  19  20
ENDBRANCH  18  19
ENDBRANCH   1  18
TORSDOF 5
ENDMDL
