MODEL 1
REMARK VINA RESULT:      -1.7      0.000      0.000
REMARK  Name = *****
REMARK                            x       y       z     vdW  Elec       q    Type
REMARK                         _______ _______ _______ _____ _____    ______ ____
ROOT
ATOM      1  C   LIG    1       25.585 -18.873   4.119  0.00  0.00    +0.101 C 
ENDROOT
BRANCH   1   2
ATOM      2  C   LIG    1       24.456 -19.682   4.832  0.00  0.00    -0.028 A 
ATOM      3  C   LIG    1       24.717 -20.714   5.759  0.00  0.00    +0.005 A 
ATOM      4  C   LIG    1       23.679 -21.461   6.334  0.00  0.00    +0.000 A 
ATOM      5  C   LIG    1       22.359 -21.219   5.974  0.00  0.00    +0.000 A 
ATOM      6  C   LIG    1       22.073 -20.202   5.071  0.00  0.00    +0.000 A 
ATOM      7  C   LIG    1       23.105 -19.424   4.533  0.00  0.00    +0.005 A 
ENDBRANCH   1   2
BRANCH   1   8
ATOM      8  C   LIG    1       26.965 -19.038   4.880  0.00  0.00    -0.028 A 
ATOM      9  C   LIG    1       27.222 -20.131   5.742  0.00  0.00    +0.005 A 
ATOM     10  C   LIG    1       28.442 -20.287   6.414  0.00  0.00    +0.000 A 
ATOM     11  C   LIG    1       29.444 -19.341   6.267  0.00  0.00    +0.000 A 
ATOM     12  C   LIG    1       29.227 -18.246   5.437  0.00  0.00    +0.000 A 
ATOM     13  C   LIG    1       28.013 -18.104   4.738  0.00  0.00    +0.005 A 
ENDBRANCH   1   8
BRANCH   1  14
ATOM     14  C   LIG    1       25.686 -19.238   2.579  0.00  0.00    +0.226 C 
ATOM     15  O   LIG    1       26.433 -18.681   1.812  0.00  0.00    -0.275 OA
ATOM     16  N   LIG    1       24.910 -20.245   2.075  0.00  0.00    -0.328 N 
ATOM     17  H   LIG    1       24.964 -20.406   1.074  0.00  0.00    +0.145 HD
ATOM     18  H   LIG    1       24.118 -20.679   2.552  0.00  0.00    +0.145 HD
ENDBRANCH   1  14
BRANCH   1  19
ATOM     19  C   LIG    1       25.152 -17.323   4.117  0.00  0.00    +0.076 C 
BRANCH  19  20
ATOM     20  C   LIG    1       25.816 -16.372   3.094  0.00  0.00    +0.135 C 
BRANCH  20  21
ATOM     21  N   LIG    1       25.870 -14.806   3.544  0.00  0.00    +0.245 N 
ATOM     22  C   LIG    1       25.881 -13.972   2.247  0.00  0.00    +0.193 C 
BRANCH  21  24
ATOM     23  C   LIG    1       28.291 -13.771   3.565  0.00  0.00    +0.063 C 
ATOM     24  C   LIG    1       27.202 -14.502   4.363  0.00  0.00    +0.060 C 
ATOM     25  C   LIG    1       26.965 -13.750   5.678  0.00  0.00    +0.063 C 
ENDBRANCH  21  24
BRANCH  21  26
ATOM     26  C   LIG    1       24.515 -14.520   4.372  0.00  0.00    +0.060 C 
ATOM     27  C   LIG    1       23.389 -15.517   4.034  0.00  0.00    +0.063 C 
ATOM     28  C   LIG    1       23.914 -13.126   4.160  0.00  0.00    +0.063 C 
ENDBRANCH  21  26
ENDBRANCH  20  21
ENDBRANCH  19  20
ENDBRANCH   1  19
TORSDOF 8
ENDMDL
MODEL 2
REMARK VINA RESULT:      -1.3      0.919      2.193
REMARK  Name = *****
REMARK                            x       y       z     vdW  Elec       q    Type
REMARK                         _______ _______ _______ _____ _____    ______ ____
ROOT
ATOM      1  C   LIG    1       25.329 -19.101   4.122  0.00  0.00    +0.101 C 
ENDROOT
BRANCH   1   2
ATOM      2  C   LIG    1       24.388 -19.924   5.056  0.00  0.00    -0.028 A 
ATOM      3  C   LIG    1       24.816 -20.487   6.278  0.00  0.00    +0.005 A 
ATOM      4  C   LIG    1       23.959 -21.272   7.062  0.00  0.00    +0.000 A 
ATOM      5  C   LIG    1       22.666 -21.543   6.631  0.00  0.00    +0.000 A 
ATOM      6  C   LIG    1       22.215 -20.993   5.436  0.00  0.00    +0.000 A 
ATOM      7  C   LIG    1       23.054 -20.169   4.677  0.00  0.00    +0.005 A 
ENDBRANCH   1   2
BRANCH   1   8
ATOM      8  C   LIG    1       26.801 -19.049   4.708  0.00  0.00    -0.028 A 
ATOM      9  C   LIG    1       27.680 -17.974   4.438  0.00  0.00    +0.005 A 
ATOM     10  C   LIG    1       28.980 -17.918   4.958  0.00  0.00    +0.000 A 
ATOM     11  C   LIG    1       29.460 -18.951   5.748  0.00  0.00    +0.000 A 
ATOM     12  C   LIG    1       28.630 -20.033   6.027  0.00  0.00    +0.000 A 
ATOM     13  C   LIG    1       27.313 -20.075   5.531  0.00  0.00    +0.005 A 
ENDBRANCH   1   8
BRANCH   1  14
ATOM     14  C   LIG    1       25.281 -19.628   2.627  0.00  0.00    +0.226 C 
ATOM     15  O   LIG    1       24.271 -20.015   2.091  0.00  0.00    -0.275 OA
ATOM     16  N   LIG    1       26.428 -19.637   1.882  0.00  0.00    -0.328 N 
ATOM     17  H   LIG    1       26.363 -20.037   0.950  0.00  0.00    +0.145 HD
ATOM     18  H   LIG    1       27.373 -19.510   2.246  0.00  0.00    +0.145 HD
ENDBRANCH   1  14
BRANCH   1  19
ATOM     19  C   LIG    1       24.737 -17.607   4.021  0.00  0.00    +0.076 C 
BRANCH  19  20
ATOM     20  C   LIG    1       25.566 -16.534   3.277  0.00  0.00    +0.135 C 
BRANCH  20  21
ATOM     21  N   LIG    1       25.252 -14.995   3.718  0.00  0.00    +0.245 N 
ATOM     22  C   LIG    1       23.903 -15.014   4.463  0.00  0.00    +0.193 C 
BRANCH  21  24
ATOM     23  C   LIG    1       23.878 -13.154   2.430  0.00  0.00    +0.063 C 
ATOM     24  C   LIG    1       25.119 -14.059   2.435  0.00  0.00    +0.060 C 
ATOM     25  C   LIG    1       26.358 -13.200   2.162  0.00  0.00    +0.063 C 
ENDBRANCH  21  24
BRANCH  21  26
ATOM     26  C   LIG    1       26.433 -14.557   4.725  0.00  0.00    +0.060 C 
ATOM     27  C   LIG    1       26.130 -13.237   5.461  0.00  0.00    +0.063 C 
ATOM     28  C   LIG    1       27.802 -14.359   4.065  0.00  0.00    +0.063 C 
ENDBRANCH  21  26
ENDBRANCH  20  21
ENDBRANCH  19  20
ENDBRANCH   1  19
TORSDOF 8
ENDMDL
MODEL 3
REMARK VINA RESULT:      -0.8      0.560      2.016
REMARK  Name = *****
REMARK                            x       y       z     vdW  Elec       q    Type
REMARK                         _______ _______ _______ _____ _____    ______ ____
ROOT
ATOM      1  C   LIG    1       25.598 -18.995   4.035  0.00  0.00    +0.101 C 
ENDROOT
BRANCH   1   2
ATOM      2  C   LIG    1       24.479 -19.676   4.884  0.00  0.00    -0.028 A 
ATOM      3  C   LIG    1       24.752 -20.541   5.965  0.00  0.00    +0.005 A 
ATOM      4  C   LIG    1       23.721 -21.183   6.667  0.00  0.00    +0.000 A 
ATOM      5  C   LIG    1       22.397 -21.005   6.286  0.00  0.00    +0.000 A 
ATOM      6  C   LIG    1       22.099 -20.150   5.231  0.00  0.00    +0.000 A 
ATOM      7  C   LIG    1       23.124 -19.471   4.561  0.00  0.00    +0.005 A 
ENDBRANCH   1   2
BRANCH   1   8
ATOM      8  C   LIG    1       26.984 -19.023   4.803  0.00  0.00    -0.028 A 
ATOM      9  C   LIG    1       27.364 -20.107   5.629  0.00  0.00    +0.005 A 
ATOM     10  C   LIG    1       28.591 -20.142   6.306  0.00  0.00    +0.000 A 
ATOM     11  C   LIG    1       29.475 -19.080   6.201  0.00  0.00    +0.000 A 
ATOM     12  C   LIG    1       29.134 -17.989   5.407  0.00  0.00    +0.000 A 
ATOM     13  C   LIG    1       27.915 -17.967   4.702  0.00  0.00    +0.005 A 
ENDBRANCH   1   8
BRANCH   1  14
ATOM     14  C   LIG    1       25.690 -19.615   2.579  0.00  0.00    +0.226 C 
ATOM     15  O   LIG    1       26.592 -19.378   1.812  0.00  0.00    -0.275 OA
ATOM     16  N   LIG    1       24.719 -20.479   2.154  0.00  0.00    -0.328 N 
ATOM     17  H   LIG    1       24.787 -20.807   1.195  0.00  0.00    +0.145 HD
ATOM     18  H   LIG    1       23.821 -20.634   2.613  0.00  0.00    +0.145 HD
ENDBRANCH   1  14
BRANCH   1  19
ATOM     19  C   LIG    1       25.157 -17.469   3.774  0.00  0.00    +0.076 C 
BRANCH  19  20
ATOM     20  C   LIG    1       26.245 -16.444   3.376  0.00  0.00    +0.135 C 
BRANCH  20  21
ATOM     21  N   LIG    1       25.854 -14.885   3.650  0.00  0.00    +0.245 N 
ATOM     22  C   LIG    1       26.295 -14.565   5.093  0.00  0.00    +0.193 C 
BRANCH  21  24
ATOM     23  C   LIG    1       23.474 -15.174   4.739  0.00  0.00    +0.063 C 
ATOM     24  C   LIG    1       24.280 -14.670   3.533  0.00  0.00    +0.060 C 
ATOM     25  C   LIG    1       23.870 -13.225   3.234  0.00  0.00    +0.063 C 
ENDBRANCH  21  24
BRANCH  21  26
ATOM     26  C   LIG    1       26.712 -14.006   2.604  0.00  0.00    +0.060 C 
ATOM     27  C   LIG    1       28.036 -13.491   3.204  0.00  0.00    +0.063 C 
ATOM     28  C   LIG    1       25.992 -12.767   2.061  0.00  0.00    +0.063 C 
ENDBRANCH  21  26
ENDBRANCH  20  21
ENDBRANCH  19  20
ENDBRANCH   1  19
TORSDOF 8
ENDMDL
MODEL 4
REMARK VINA RESULT:       1.1      1.261      2.656
REMARK  Name = *****
REMARK                            x       y       z     vdW  Elec       q    Type
REMARK                         _______ _______ _______ _____ _____    ______ ____
ROOT
ATOM      1  C   LIG    1       25.325 -19.015   3.708  0.00  0.00    +0.101 C 
ENDROOT
BRANCH   1   2
ATOM      2  C   LIG    1       23.892 -18.559   4.127  0.00  0.00    -0.028 A 
ATOM      3  C   LIG    1       23.385 -17.269   3.856  0.00  0.00    +0.005 A 
ATOM      4  C   LIG    1       22.115 -16.874   4.301  0.00  0.00    +0.000 A 
ATOM      5  C   LIG    1       21.335 -17.742   5.055  0.00  0.00    +0.000 A 
ATOM      6  C   LIG    1       21.806 -19.021   5.328  0.00  0.00    +0.000 A 
ATOM      7  C   LIG    1       23.053 -19.434   4.843  0.00  0.00    +0.005 A 
ENDBRANCH   1   2
BRANCH   1   8
ATOM      8  C   LIG    1       26.049 -19.766   4.902  0.00  0.00    -0.028 A 
ATOM      9  C   LIG    1       27.303 -19.345   5.404  0.00  0.00    +0.005 A 
ATOM     10  C   LIG    1       27.946 -20.000   6.463  0.00  0.00    +0.000 A 
ATOM     11  C   LIG    1       27.369 -21.118   7.044  0.00  0.00    +0.000 A 
ATOM     12  C   LIG    1       26.142 -21.571   6.571  0.00  0.00    +0.000 A 
ATOM     13  C   LIG    1       25.480 -20.896   5.528  0.00  0.00    +0.005 A 
ENDBRANCH   1   8
BRANCH   1  14
ATOM     14  C   LIG    1       25.304 -19.866   2.371  0.00  0.00    +0.226 C 
ATOM     15  O   LIG    1       26.302 -20.250   1.812  0.00  0.00    -0.275 OA
ATOM     16  N   LIG    1       24.103 -20.209   1.812  0.00  0.00    -0.328 N 
ATOM     17  H   LIG    1       24.138 -20.703   0.925  0.00  0.00    +0.145 HD
ATOM     18  H   LIG    1       23.197 -19.814   2.066  0.00  0.00    +0.145 HD
ENDBRANCH   1  14
BRANCH   1  19
ATOM     19  C   LIG    1       26.163 -17.699   3.312  0.00  0.00    +0.076 C 
BRANCH  19  20
ATOM     20  C   LIG    1       25.429 -16.337   3.284  0.00  0.00    +0.135 C 
BRANCH  20  21
ATOM     21  N   LIG    1       26.337 -15.057   3.727  0.00  0.00    +0.245 N 
ATOM     22  C   LIG    1       27.721 -15.611   4.120  0.00  0.00    +0.193 C 
BRANCH  21  24
ATOM     23  C   LIG    1       26.471 -13.088   5.471  0.00  0.00    +0.063 C 
ATOM     24  C   LIG    1       25.698 -14.325   4.989  0.00  0.00    +0.060 C 
ATOM     25  C   LIG    1       24.225 -13.946   4.807  0.00  0.00    +0.063 C 
ENDBRANCH  21  24
BRANCH  21  26
ATOM     26  C   LIG    1       26.470 -14.116   2.424  0.00  0.00    +0.060 C 
ATOM     27  C   LIG    1       27.433 -12.931   2.641  0.00  0.00    +0.063 C 
ATOM     28  C   LIG    1       25.154 -13.498   1.940  0.00  0.00    +0.063 C 
ENDBRANCH  21  26
ENDBRANCH  20  21
ENDBRANCH  19  20
ENDBRANCH   1  19
TORSDOF 8
ENDMDL
