MODEL 1
REMARK VINA RESULT:       1.7      0.000      0.000
REMARK  Name = *****
REMARK                            x       y       z     vdW  Elec       q    Type
REMARK                         _______ _______ _______ _____ _____    ______ ____
ROOT
ATOM      1  C   LIG    1       24.015 -20.142   5.576  0.00  0.00    -0.046 A 
ATOM      2  C   LIG    1       24.684 -20.109   6.816  0.00  0.00    +0.005 A 
ATOM      3  C   LIG    1       26.085 -20.079   6.881  0.00  0.00    +0.029 A 
ATOM      4  C   LIG    1       26.826 -20.031   5.694  0.00  0.00    +0.113 A 
ATOM      5  C   LIG    1       26.178 -20.076   4.460  0.00  0.00    +0.029 A 
ATOM      6  C   LIG    1       24.784 -20.113   4.406  0.00  0.00    +0.005 A 
ENDROOT
BRANCH   4   7
ATOM      7  S   LIG    1       28.602 -19.808   5.752  0.00  0.00    +0.103 S 
ATOM      8  O   LIG    1       29.147 -20.448   4.553  0.00  0.00    -0.146 OA
ATOM      9  O   LIG    1       29.025 -20.236   7.062  0.00  0.00    -0.146 OA
BRANCH   7  10
ATOM     10  N   LIG    1       28.814 -18.220   5.614  0.00  0.00    -0.076 NA
ATOM     11  C   LIG    1       28.226 -17.447   4.782  0.00  0.00    +0.299 C 
BRANCH  11  12
ATOM     12  N   LIG    1       28.383 -16.105   4.738  0.00  0.00    -0.295 N 
ATOM     13  H   LIG    1       29.105 -15.724   5.336  0.00  0.00    +0.151 HD
BRANCH  12  14
ATOM     14  C   LIG    1       27.346 -15.200   4.259  0.00  0.00    +0.075 C 
ATOM     15  C   LIG    1       26.813 -14.297   5.383  0.00  0.00    +0.022 C 
ATOM     16  C   LIG    1       27.807 -13.220   5.817  0.00  0.00    +0.002 C 
ATOM     17  C   LIG    1       28.298 -12.399   4.629  0.00  0.00    +0.000 C 
ATOM     18  C   LIG    1       28.863 -13.279   3.518  0.00  0.00    +0.002 C 
ATOM     19  C   LIG    1       27.883 -14.372   3.090  0.00  0.00    +0.022 C 
ENDBRANCH  12  14
ENDBRANCH  11  12
BRANCH  11  20
ATOM     20  O   LIG    1       27.384 -17.832   3.799  0.00  0.00    -0.481 OA
ATOM     21  H   LIG    1       27.722 -17.609   2.911  0.00  0.00    +0.295 HD
ENDBRANCH  11  20
ENDBRANCH   7  10
ENDBRANCH   4   7
BRANCH   1  22
ATOM     22  C   LIG    1       22.497 -20.122   5.534  0.00  0.00    +0.054 C 
BRANCH  22  23
ATOM     23  C   LIG    1       21.835 -19.221   4.470  0.00  0.00    +0.109 C 
BRANCH  23  25
ATOM     24  C   LIG    1       23.249 -17.221   3.988  0.00  0.00    +0.248 C 
ATOM     25  N   LIG    1       22.176 -17.814   4.617  0.00  0.00    -0.311 N 
ATOM     26  H   LIG    1       21.645 -17.249   5.268  0.00  0.00    +0.149 HD
ATOM     27  O   LIG    1       24.045 -17.847   3.294  0.00  0.00    -0.270 OA
BRANCH  24  29
ATOM     28  C   LIG    1       22.922 -15.032   5.305  0.00  0.00    +0.132 A 
ATOM     29  C   LIG    1       23.444 -15.745   4.205  0.00  0.00    +0.080 A 
ATOM     30  C   LIG    1       24.173 -15.046   3.221  0.00  0.00    +0.036 A 
ATOM     31  C   LIG    1       24.337 -13.663   3.311  0.00  0.00    +0.042 A 
ATOM     32 CL   LIG    1       25.259 -12.811   2.136  0.00  0.00    -0.084 Cl
ATOM     33  C   LIG    1       23.760 -12.953   4.354  0.00  0.00    +0.023 A 
ATOM     34  C   LIG    1       23.052 -13.636   5.339  0.00  0.00    +0.048 A 
BRANCH  28  36
ATOM     35  C   LIG    1       21.235 -15.010   7.000  0.00  0.00    +0.277 C 
ATOM     36  O   LIG    1       22.253 -15.713   6.286  0.00  0.00    -0.494 OA
ENDBRANCH  28  36
ENDBRANCH  24  29
ENDBRANCH  23  25
ENDBRANCH  22  23
ENDBRANCH   1  22
TORSDOF 10
ENDMDL
MODEL 2
REMARK VINA RESULT:       2.7      2.896      5.489
REMARK  Name = *****
REMARK                            x       y       z     vdW  Elec       q    Type
REMARK                         _______ _______ _______ _____ _____    ______ ____
ROOT
ATOM      1  C   LIG    1       21.732 -18.590   4.344  0.00  0.00    -0.046 A 
ATOM      2  C   LIG    1       21.487 -17.729   3.257  0.00  0.00    +0.005 A 
ATOM      3  C   LIG    1       21.888 -16.385   3.293  0.00  0.00    +0.029 A 
ATOM      4  C   LIG    1       22.587 -15.908   4.408  0.00  0.00    +0.113 A 
ATOM      5  C   LIG    1       22.826 -16.746   5.497  0.00  0.00    +0.029 A 
ATOM      6  C   LIG    1       22.417 -18.080   5.454  0.00  0.00    +0.005 A 
ENDROOT
BRANCH   4   7
ATOM      7  S   LIG    1       23.268 -14.252   4.401  0.00  0.00    +0.103 S 
ATOM      8  O   LIG    1       22.619 -13.524   5.493  0.00  0.00    -0.146 OA
ATOM      9  O   LIG    1       23.164 -13.773   3.045  0.00  0.00    -0.146 OA
BRANCH   7  10
ATOM     10  N   LIG    1       24.818 -14.450   4.781  0.00  0.00    -0.076 NA
ATOM     11  C   LIG    1       25.574 -13.590   5.349  0.00  0.00    +0.299 C 
BRANCH  11  12
ATOM     12  N   LIG    1       26.856 -13.816   5.712  0.00  0.00    -0.295 N 
ATOM     13  H   LIG    1       27.115 -13.504   6.640  0.00  0.00    +0.151 HD
BRANCH  12  14
ATOM     14  C   LIG    1       27.923 -14.053   4.748  0.00  0.00    +0.075 C 
ATOM     15  C   LIG    1       27.855 -15.471   4.158  0.00  0.00    +0.022 C 
ATOM     16  C   LIG    1       26.690 -15.667   3.189  0.00  0.00    +0.002 C 
ATOM     17  C   LIG    1       26.687 -14.607   2.093  0.00  0.00    +0.000 C 
ATOM     18  C   LIG    1       26.719 -13.193   2.662  0.00  0.00    +0.002 C 
ATOM     19  C   LIG    1       27.870 -12.991   3.648  0.00  0.00    +0.022 C 
ENDBRANCH  12  14
ENDBRANCH  11  12
BRANCH  11  20
ATOM     20  O   LIG    1       25.240 -12.317   5.651  0.00  0.00    -0.481 OA
ATOM     21  H   LIG    1       25.009 -11.795   4.858  0.00  0.00    +0.295 HD
ENDBRANCH  11  20
ENDBRANCH   7  10
ENDBRANCH   4   7
BRANCH   1  22
ATOM     22  C   LIG    1       21.334 -20.053   4.257  0.00  0.00    +0.054 C 
BRANCH  22  23
ATOM     23  C   LIG    1       22.400 -21.044   3.742  0.00  0.00    +0.109 C 
BRANCH  23  25
ATOM     24  C   LIG    1       24.654 -20.058   4.170  0.00  0.00    +0.248 C 
ATOM     25  N   LIG    1       23.658 -20.962   4.470  0.00  0.00    -0.311 N 
ATOM     26  H   LIG    1       23.848 -21.646   5.191  0.00  0.00    +0.149 HD
ATOM     27  O   LIG    1       24.588 -19.282   3.221  0.00  0.00    -0.270 OA
BRANCH  24  29
ATOM     28  C   LIG    1       25.975 -20.779   6.260  0.00  0.00    +0.132 A 
ATOM     29  C   LIG    1       25.878 -20.069   5.045  0.00  0.00    +0.080 A 
ATOM     30  C   LIG    1       26.974 -19.290   4.619  0.00  0.00    +0.036 A 
ATOM     31  C   LIG    1       28.120 -19.189   5.409  0.00  0.00    +0.042 A 
ATOM     32 CL   LIG    1       29.475 -18.275   4.875  0.00  0.00    -0.084 Cl
ATOM     33  C   LIG    1       28.185 -19.829   6.638  0.00  0.00    +0.023 A 
ATOM     34  C   LIG    1       27.115 -20.612   7.061  0.00  0.00    +0.048 A 
BRANCH  28  36
ATOM     35  C   LIG    1       23.693 -20.928   6.959  0.00  0.00    +0.277 C 
ATOM     36  O   LIG    1       24.931 -21.571   6.656  0.00  0.00    -0.494 OA
ENDBRANCH  28  36
ENDBRANCH  24  29
ENDBRANCH  23  25
ENDBRANCH  22  23
ENDBRANCH   1  22
TORSDOF 10
ENDMDL
MODEL 3
REMARK VINA RESULT:       3.8      1.543      2.351
REMARK  Name = *****
REMARK                            x       y       z     vdW  Elec       q    Type
REMARK                         _______ _______ _______ _____ _____    ______ ____
ROOT
ATOM      1  C   LIG    1       24.545 -20.975   5.775  0.00  0.00    -0.046 A 
ATOM      2  C   LIG    1       25.170 -20.536   4.592  0.00  0.00    +0.005 A 
ATOM      3  C   LIG    1       26.479 -20.027   4.611  0.00  0.00    +0.029 A 
ATOM      4  C   LIG    1       27.188 -20.003   5.817  0.00  0.00    +0.113 A 
ATOM      5  C   LIG    1       26.577 -20.423   6.998  0.00  0.00    +0.029 A 
ATOM      6  C   LIG    1       25.273 -20.922   6.971  0.00  0.00    +0.005 A 
ENDROOT
BRANCH   4   7
ATOM      7  S   LIG    1       28.915 -19.531   5.834  0.00  0.00    +0.103 S 
ATOM      8  O   LIG    1       29.475 -19.934   4.543  0.00  0.00    -0.146 OA
ATOM      9  O   LIG    1       29.468 -20.048   7.060  0.00  0.00    -0.146 OA
BRANCH   7  10
ATOM     10  N   LIG    1       28.894 -17.924   5.892  0.00  0.00    -0.076 NA
ATOM     11  C   LIG    1       28.480 -17.138   4.972  0.00  0.00    +0.299 C 
BRANCH  11  12
ATOM     12  N   LIG    1       28.419 -15.793   5.083  0.00  0.00    -0.295 N 
ATOM     13  H   LIG    1       28.683 -15.410   5.982  0.00  0.00    +0.151 HD
BRANCH  12  14
ATOM     14  C   LIG    1       27.618 -14.960   4.195  0.00  0.00    +0.075 C 
ATOM     15  C   LIG    1       26.667 -14.041   4.978  0.00  0.00    +0.022 C 
ATOM     16  C   LIG    1       27.384 -12.900   5.699  0.00  0.00    +0.002 C 
ATOM     17  C   LIG    1       28.268 -12.103   4.746  0.00  0.00    +0.000 C 
ATOM     18  C   LIG    1       29.243 -12.996   3.986  0.00  0.00    +0.002 C 
ATOM     19  C   LIG    1       28.538 -14.152   3.277  0.00  0.00    +0.022 C 
ENDBRANCH  12  14
ENDBRANCH  11  12
BRANCH  11  20
ATOM     20  O   LIG    1       28.071 -17.507   3.740  0.00  0.00    -0.481 OA
ATOM     21  H   LIG    1       28.383 -16.895   3.046  0.00  0.00    +0.295 HD
ENDBRANCH  11  20
ENDBRANCH   7  10
ENDBRANCH   4   7
BRANCH   1  22
ATOM     22  C   LIG    1       23.149 -21.570   5.718  0.00  0.00    +0.054 C 
BRANCH  22  23
ATOM     23  C   LIG    1       21.966 -20.583   5.630  0.00  0.00    +0.109 C 
BRANCH  23  25
ATOM     24  C   LIG    1       21.935 -18.281   4.662  0.00  0.00    +0.248 C 
ATOM     25  N   LIG    1       22.384 -19.189   5.597  0.00  0.00    -0.311 N 
ATOM     26  H   LIG    1       23.093 -18.879   6.249  0.00  0.00    +0.149 HD
ATOM     27  O   LIG    1       21.188 -18.588   3.739  0.00  0.00    -0.270 OA
BRANCH  24  29
ATOM     28  C   LIG    1       23.562 -16.358   4.123  0.00  0.00    +0.132 A 
ATOM     29  C   LIG    1       22.426 -16.865   4.790  0.00  0.00    +0.080 A 
ATOM     30  C   LIG    1       21.708 -16.017   5.657  0.00  0.00    +0.036 A 
ATOM     31  C   LIG    1       22.140 -14.709   5.887  0.00  0.00    +0.042 A 
ATOM     32 CL   LIG    1       21.245 -13.657   6.911  0.00  0.00    -0.084 Cl
ATOM     33  C   LIG    1       23.298 -14.236   5.287  0.00  0.00    +0.023 A 
ATOM     34  C   LIG    1       24.006 -15.061   4.417  0.00  0.00    +0.048 A 
BRANCH  28  36
ATOM     35  C   LIG    1       25.612 -16.868   3.002  0.00  0.00    +0.277 C 
ATOM     36  O   LIG    1       24.236 -17.164   3.245  0.00  0.00    -0.494 OA
ENDBRANCH  28  36
ENDBRANCH  24  29
ENDBRANCH  23  25
ENDBRANCH  22  23
ENDBRANCH   1  22
TORSDOF 10
ENDMDL
MODEL 4
REMARK VINA RESULT:       4.7      2.110      5.236
REMARK  Name = *****
REMARK                            x       y       z     vdW  Elec       q    Type
REMARK                         _______ _______ _______ _____ _____    ______ ____
ROOT
ATOM      1  C   LIG    1       26.164 -20.502   5.740  0.00  0.00    -0.046 A 
ATOM      2  C   LIG    1       25.905 -20.383   4.360  0.00  0.00    +0.005 A 
ATOM      3  C   LIG    1       24.636 -20.006   3.893  0.00  0.00    +0.029 A 
ATOM      4  C   LIG    1       23.629 -19.697   4.815  0.00  0.00    +0.113 A 
ATOM      5  C   LIG    1       23.868 -19.824   6.182  0.00  0.00    +0.029 A 
ATOM      6  C   LIG    1       25.131 -20.205   6.638  0.00  0.00    +0.005 A 
ENDROOT
BRANCH   4   7
ATOM      7  S   LIG    1       22.063 -19.040   4.247  0.00  0.00    +0.103 S 
ATOM      8  O   LIG    1       21.164 -19.035   5.403  0.00  0.00    -0.146 OA
ATOM      9  O   LIG    1       21.716 -19.778   3.059  0.00  0.00    -0.146 OA
BRANCH   7  10
ATOM     10  N   LIG    1       22.384 -17.514   3.855  0.00  0.00    -0.076 NA
ATOM     11  C   LIG    1       22.392 -16.513   4.651  0.00  0.00    +0.299 C 
BRANCH  11  12
ATOM     12  N   LIG    1       22.729 -15.254   4.296  0.00  0.00    -0.295 N 
ATOM     13  H   LIG    1       22.002 -14.710   3.848  0.00  0.00    +0.151 HD
BRANCH  12  14
ATOM     14  C   LIG    1       24.110 -14.821   4.121  0.00  0.00    +0.075 C 
ATOM     15  C   LIG    1       24.348 -14.224   2.724  0.00  0.00    +0.022 C 
ATOM     16  C   LIG    1       23.703 -12.851   2.536  0.00  0.00    +0.002 C 
ATOM     17  C   LIG    1       24.120 -11.880   3.635  0.00  0.00    +0.000 C 
ATOM     18  C   LIG    1       23.858 -12.443   5.028  0.00  0.00    +0.002 C 
ATOM     19  C   LIG    1       24.483 -13.825   5.221  0.00  0.00    +0.022 C 
ENDBRANCH  12  14
ENDBRANCH  11  12
BRANCH  11  20
ATOM     20  O   LIG    1       22.040 -16.533   5.954  0.00  0.00    -0.481 OA
ATOM     21  H   LIG    1       21.462 -15.784   6.195  0.00  0.00    +0.295 HD
ENDBRANCH  11  20
ENDBRANCH   7  10
ENDBRANCH   4   7
BRANCH   1  22
ATOM     22  C   LIG    1       27.560 -20.860   6.220  0.00  0.00    +0.054 C 
BRANCH  22  23
ATOM     23  C   LIG    1       28.725 -19.986   5.709  0.00  0.00    +0.109 C 
BRANCH  23  25
ATOM     24  C   LIG    1       28.719 -17.500   5.473  0.00  0.00    +0.248 C 
ATOM     25  N   LIG    1       28.283 -18.749   5.084  0.00  0.00    -0.311 N 
ATOM     26  H   LIG    1       27.566 -18.793   4.371  0.00  0.00    +0.149 HD
ATOM     27  O   LIG    1       29.475 -17.324   6.423  0.00  0.00    -0.270 OA
BRANCH  24  29
ATOM     28  C   LIG    1       27.345 -16.420   3.580  0.00  0.00    +0.132 A 
ATOM     29  C   LIG    1       28.202 -16.320   4.697  0.00  0.00    +0.080 A 
ATOM     30  C   LIG    1       28.638 -15.044   5.111  0.00  0.00    +0.036 A 
ATOM     31  C   LIG    1       28.263 -13.903   4.400  0.00  0.00    +0.042 A 
ATOM     32 CL   LIG    1       28.756 -12.342   4.924  0.00  0.00    -0.084 Cl
ATOM     33  C   LIG    1       27.480 -14.011   3.259  0.00  0.00    +0.023 A 
ATOM     34  C   LIG    1       27.032 -15.264   2.852  0.00  0.00    +0.048 A 
BRANCH  28  36
ATOM     35  C   LIG    1       25.495 -17.768   2.890  0.00  0.00    +0.277 C 
ATOM     36  O   LIG    1       26.884 -17.652   3.202  0.00  0.00    -0.494 OA
ENDBRANCH  28  36
ENDBRANCH  24  29
ENDBRANCH  23  25
ENDBRANCH  22  23
ENDBRANCH   1  22
TORSDOF 10
ENDMDL
