MODEL 1
REMARK VINA RESULT:      -6.2      0.000      0.000
REMARK  Name = *****
REMARK                            x       y       z     vdW  Elec       q    Type
REMARK                         _______ _______ _______ _____ _____    ______ ____
ROOT
ATOM      1  C   LIG    1       25.850 -15.000   3.511  0.00  0.00    -0.006 A 
ATOM      2  C   LIG    1       26.410 -13.940   2.696  0.00  0.00    +0.123 A 
ATOM      3  C   LIG    1       25.653 -12.775   2.422  0.00  0.00    +0.091 A 
ATOM      4  C   LIG    1       24.403 -12.600   2.997  0.00  0.00    +0.120 A 
ATOM      5  C   LIG    1       23.900 -13.539   3.902  0.00  0.00    +0.046 A 
ATOM      6  C   LIG    1       24.626 -14.729   4.153  0.00  0.00    +0.011 A 
ENDROOT
BRANCH   2   7
ATOM      7  O   LIG    1       27.439 -14.251   1.813  0.00  0.00    -0.506 OA
ATOM      8  H   LIG    1       27.682 -15.189   1.937  0.00  0.00    +0.292 HD
ENDBRANCH   2   7
BRANCH   4   9
ATOM      9  O   LIG    1       23.585 -11.608   2.503  0.00  0.00    -0.507 OA
ATOM     10  H   LIG    1       23.606 -10.853   3.103  0.00  0.00    +0.292 HD
ENDBRANCH   4   9
BRANCH   1  11
ATOM     11  C   LIG    1       26.276 -16.503   3.351  0.00  0.00    +0.039 C 
BRANCH  11  12
ATOM     12  C   LIG    1       25.183 -17.671   3.372  0.00  0.00    +0.005 C 
BRANCH  12  13
ATOM     13  C   LIG    1       25.515 -19.186   3.674  0.00  0.00    +0.000 C 
BRANCH  13  14
ATOM     14  C   LIG    1       24.435 -20.187   4.162  0.00  0.00    -0.000 C 
BRANCH  14  16
ATOM     15  C   LIG    1       22.788 -20.140   5.858  0.00  0.00    +0.004 C 
ATOM     16  C   LIG    1       23.079 -19.635   4.554  0.00  0.00    -0.003 C 
ENDBRANCH  14  16
ENDBRANCH  13  14
ENDBRANCH  12  13
ENDBRANCH  11  12
ENDBRANCH   1  11
TORSDOF 7
ENDMDL
MODEL 2
REMARK VINA RESULT:      -6.2      3.215      6.419
REMARK  Name = *****
REMARK                            x       y       z     vdW  Elec       q    Type
REMARK                         _______ _______ _______ _____ _____    ______ ____
ROOT
ATOM      1  C   LIG    1       25.175 -19.020   3.783  0.00  0.00    -0.006 A 
ATOM      2  C   LIG    1       25.743 -20.090   4.577  0.00  0.00    +0.123 A 
ATOM      3  C   LIG    1       24.937 -20.798   5.502  0.00  0.00    +0.091 A 
ATOM      4  C   LIG    1       23.580 -20.531   5.596  0.00  0.00    +0.120 A 
ATOM      5  C   LIG    1       22.977 -19.604   4.740  0.00  0.00    +0.046 A 
ATOM      6  C   LIG    1       23.777 -18.858   3.841  0.00  0.00    +0.011 A 
ENDROOT
BRANCH   2   7
ATOM      7  O   LIG    1       27.117 -20.103   4.794  0.00  0.00    -0.506 OA
ATOM      8  H   LIG    1       27.359 -19.305   5.303  0.00  0.00    +0.292 HD
ENDBRANCH   2   7
BRANCH   4   9
ATOM      9  O   LIG    1       22.885 -21.027   6.678  0.00  0.00    -0.507 OA
ATOM     10  H   LIG    1       22.708 -21.964   6.537  0.00  0.00    +0.292 HD
ENDBRANCH   4   9
BRANCH   1  11
ATOM     11  C   LIG    1       26.030 -17.811   3.258  0.00  0.00    +0.039 C 
BRANCH  11  12
ATOM     12  C   LIG    1       25.457 -16.319   3.309  0.00  0.00    +0.005 C 
BRANCH  12  13
ATOM     13  C   LIG    1       26.359 -15.032   3.476  0.00  0.00    +0.000 C 
BRANCH  13  14
ATOM     14  C   LIG    1       25.890 -13.795   4.287  0.00  0.00    -0.000 C 
BRANCH  14  16
ATOM     15  C   LIG    1       24.092 -12.779   3.134  0.00  0.00    +0.004 C 
ATOM     16  C   LIG    1       24.404 -13.494   4.330  0.00  0.00    -0.003 C 
ENDBRANCH  14  16
ENDBRANCH  13  14
ENDBRANCH  12  13
ENDBRANCH  11  12
ENDBRANCH   1  11
TORSDOF 7
ENDMDL
MODEL 3
REMARK VINA RESULT:      -6.0      3.398      6.632
REMARK  Name = *****
REMARK                            x       y       z     vdW  Elec       q    Type
REMARK                         _______ _______ _______ _____ _____    ______ ____
ROOT
ATOM      1  C   LIG    1       25.189 -18.966   3.752  0.00  0.00    -0.006 A 
ATOM      2  C   LIG    1       25.759 -20.065   4.506  0.00  0.00    +0.123 A 
ATOM      3  C   LIG    1       24.947 -20.828   5.380  0.00  0.00    +0.091 A 
ATOM      4  C   LIG    1       23.584 -20.585   5.460  0.00  0.00    +0.120 A 
ATOM      5  C   LIG    1       22.983 -19.628   4.637  0.00  0.00    +0.046 A 
ATOM      6  C   LIG    1       23.788 -18.828   3.790  0.00  0.00    +0.011 A 
ENDROOT
BRANCH   2   7
ATOM      7  O   LIG    1       27.129 -20.067   4.748  0.00  0.00    -0.506 OA
ATOM      8  H   LIG    1       27.455 -20.986   4.682  0.00  0.00    +0.292 HD
ENDBRANCH   2   7
BRANCH   4   9
ATOM      9  O   LIG    1       22.876 -21.142   6.504  0.00  0.00    -0.507 OA
ATOM     10  H   LIG    1       22.183 -20.530   6.777  0.00  0.00    +0.292 HD
ENDBRANCH   4   9
BRANCH   1  11
ATOM     11  C   LIG    1       26.036 -17.722   3.302  0.00  0.00    +0.039 C 
BRANCH  11  12
ATOM     12  C   LIG    1       25.407 -16.251   3.329  0.00  0.00    +0.005 C 
BRANCH  12  13
ATOM     13  C   LIG    1       26.266 -14.925   3.370  0.00  0.00    +0.000 C 
BRANCH  13  14
ATOM     14  C   LIG    1       26.283 -13.990   4.607  0.00  0.00    -0.000 C 
BRANCH  14  16
ATOM     15  C   LIG    1       28.398 -13.370   3.749  0.00  0.00    +0.004 C 
ATOM     16  C   LIG    1       27.545 -13.195   4.881  0.00  0.00    -0.003 C 
ENDBRANCH  14  16
ENDBRANCH  13  14
ENDBRANCH  12  13
ENDBRANCH  11  12
ENDBRANCH   1  11
TORSDOF 7
ENDMDL
MODEL 4
REMARK VINA RESULT:      -5.8      0.840      1.125
REMARK  Name = *****
REMARK                            x       y       z     vdW  Elec       q    Type
REMARK                         _______ _______ _______ _____ _____    ______ ____
ROOT
ATOM      1  C   LIG    1       25.798 -15.073   3.502  0.00  0.00    -0.006 A 
ATOM      2  C   LIG    1       26.358 -14.005   2.699  0.00  0.00    +0.123 A 
ATOM      3  C   LIG    1       25.600 -12.837   2.436  0.00  0.00    +0.091 A 
ATOM      4  C   LIG    1       24.351 -12.668   3.013  0.00  0.00    +0.120 A 
ATOM      5  C   LIG    1       23.848 -13.617   3.908  0.00  0.00    +0.046 A 
ATOM      6  C   LIG    1       24.574 -14.809   4.146  0.00  0.00    +0.011 A 
ENDROOT
BRANCH   2   7
ATOM      7  O   LIG    1       27.387 -14.306   1.812  0.00  0.00    -0.506 OA
ATOM      8  H   LIG    1       27.849 -15.105   2.132  0.00  0.00    +0.292 HD
ENDBRANCH   2   7
BRANCH   4   9
ATOM      9  O   LIG    1       23.531 -11.671   2.529  0.00  0.00    -0.507 OA
ATOM     10  H   LIG    1       24.076 -10.970   2.153  0.00  0.00    +0.292 HD
ENDBRANCH   4   9
BRANCH   1  11
ATOM     11  C   LIG    1       26.225 -16.575   3.326  0.00  0.00    +0.039 C 
BRANCH  11  12
ATOM     12  C   LIG    1       25.134 -17.744   3.352  0.00  0.00    +0.005 C 
BRANCH  12  13
ATOM     13  C   LIG    1       25.453 -19.240   3.748  0.00  0.00    +0.000 C 
BRANCH  13  14
ATOM     14  C   LIG    1       24.418 -20.142   4.470  0.00  0.00    -0.000 C 
BRANCH  14  16
ATOM     15  C   LIG    1       26.187 -20.419   6.015  0.00  0.00    +0.004 C 
ATOM     16  C   LIG    1       24.828 -20.789   5.779  0.00  0.00    -0.003 C 
ENDBRANCH  14  16
ENDBRANCH  13  14
ENDBRANCH  12  13
ENDBRANCH  11  12
ENDBRANCH   1  11
TORSDOF 7
ENDMDL
MODEL 5
REMARK VINA RESULT:      -5.7      3.020      6.693
REMARK  Name = *****
REMARK                            x       y       z     vdW  Elec       q    Type
REMARK                         _______ _______ _______ _____ _____    ______ ____
ROOT
ATOM      1  C   LIG    1       23.019 -19.208   4.473  0.00  0.00    -0.006 A 
ATOM      2  C   LIG    1       24.396 -19.343   4.041  0.00  0.00    +0.123 A 
ATOM      3  C   LIG    1       25.289 -20.181   4.753  0.00  0.00    +0.091 A 
ATOM      4  C   LIG    1       24.834 -20.943   5.819  0.00  0.00    +0.120 A 
ATOM      5  C   LIG    1       23.480 -20.943   6.166  0.00  0.00    +0.046 A 
ATOM      6  C   LIG    1       22.584 -20.078   5.491  0.00  0.00    +0.011 A 
ENDROOT
BRANCH   2   7
ATOM      7  O   LIG    1       24.955 -18.329   3.271  0.00  0.00    -0.506 OA
ATOM      8  H   LIG    1       24.714 -17.469   3.666  0.00  0.00    +0.292 HD
ENDBRANCH   2   7
BRANCH   4   9
ATOM      9  O   LIG    1       25.763 -21.525   6.655  0.00  0.00    -0.507 OA
ATOM     10  H   LIG    1       25.346 -21.722   7.502  0.00  0.00    +0.292 HD
ENDBRANCH   4   9
BRANCH   1  11
ATOM     11  C   LIG    1       22.174 -17.911   4.207  0.00  0.00    +0.039 C 
BRANCH  11  12
ATOM     12  C   LIG    1       22.506 -16.546   4.973  0.00  0.00    +0.005 C 
BRANCH  12  13
ATOM     13  C   LIG    1       22.988 -15.225   4.253  0.00  0.00    +0.000 C 
BRANCH  13  14
ATOM     14  C   LIG    1       24.490 -14.865   4.109  0.00  0.00    -0.000 C 
BRANCH  14  16
ATOM     15  C   LIG    1       24.101 -12.662   3.341  0.00  0.00    +0.004 C 
ATOM     16  C   LIG    1       24.891 -13.411   4.266  0.00  0.00    -0.003 C 
ENDBRANCH  14  16
ENDBRANCH  13  14
ENDBRANCH  12  13
ENDBRANCH  11  12
ENDBRANCH   1  11
TORSDOF 7
ENDMDL
MODEL 6
REMARK VINA RESULT:      -5.7      1.891      2.729
REMARK  Name = *****
REMARK                            x       y       z     vdW  Elec       q    Type
REMARK                         _______ _______ _______ _____ _____    ______ ____
ROOT
ATOM      1  C   LIG    1       25.723 -15.433   3.517  0.00  0.00    -0.006 A 
ATOM      2  C   LIG    1       25.062 -14.303   4.138  0.00  0.00    +0.123 A 
ATOM      3  C   LIG    1       25.822 -13.305   4.796  0.00  0.00    +0.091 A 
ATOM      4  C   LIG    1       27.207 -13.355   4.780  0.00  0.00    +0.120 A 
ATOM      5  C   LIG    1       27.874 -14.355   4.065  0.00  0.00    +0.046 A 
ATOM      6  C   LIG    1       27.128 -15.383   3.439  0.00  0.00    +0.011 A 
ENDROOT
BRANCH   2   7
ATOM      7  O   LIG    1       23.728 -14.433   4.511  0.00  0.00    -0.506 OA
ATOM      8  H   LIG    1       23.692 -14.721   5.444  0.00  0.00    +0.292 HD
ENDBRANCH   2   7
BRANCH   4   9
ATOM      9  O   LIG    1       27.906 -12.542   5.646  0.00  0.00    -0.507 OA
ATOM     10  H   LIG    1       28.690 -13.011   5.956  0.00  0.00    +0.292 HD
ENDBRANCH   4   9
BRANCH   1  11
ATOM     11  C   LIG    1       25.030 -16.834   3.356  0.00  0.00    +0.039 C 
BRANCH  11  12
ATOM     12  C   LIG    1       25.892 -18.181   3.377  0.00  0.00    +0.005 C 
BRANCH  12  13
ATOM     13  C   LIG    1       25.365 -19.557   3.949  0.00  0.00    +0.000 C 
BRANCH  13  14
ATOM     14  C   LIG    1       23.883 -19.994   3.814  0.00  0.00    -0.000 C 
BRANCH  14  16
ATOM     15  C   LIG    1       22.092 -18.576   4.428  0.00  0.00    +0.004 C 
ATOM     16  C   LIG    1       22.926 -19.621   4.930  0.00  0.00    -0.003 C 
ENDBRANCH  14  16
ENDBRANCH  13  14
ENDBRANCH  12  13
ENDBRANCH  11  12
ENDBRANCH   1  11
TORSDOF 7
ENDMDL
MODEL 7
REMARK VINA RESULT:      -5.6      1.349      2.859
REMARK  Name = *****
REMARK                            x       y       z     vdW  Elec       q    Type
REMARK                         _______ _______ _______ _____ _____    ______ ____
ROOT
ATOM      1  C   LIG    1       24.474 -14.648   3.764  0.00  0.00    -0.006 A 
ATOM      2  C   LIG    1       24.709 -13.321   3.232  0.00  0.00    +0.123 A 
ATOM      3  C   LIG    1       26.021 -12.911   2.891  0.00  0.00    +0.091 A 
ATOM      4  C   LIG    1       27.080 -13.802   2.984  0.00  0.00    +0.120 A 
ATOM      5  C   LIG    1       26.859 -15.131   3.356  0.00  0.00    +0.046 A 
ATOM      6  C   LIG    1       25.560 -15.544   3.741  0.00  0.00    +0.011 A 
ENDROOT
BRANCH   2   7
ATOM      7  O   LIG    1       23.782 -12.320   3.504  0.00  0.00    -0.506 OA
ATOM      8  H   LIG    1       22.935 -12.557   3.079  0.00  0.00    +0.292 HD
ENDBRANCH   2   7
BRANCH   4   9
ATOM      9  O   LIG    1       28.364 -13.307   2.915  0.00  0.00    -0.507 OA
ATOM     10  H   LIG    1       28.348 -12.359   3.092  0.00  0.00    +0.292 HD
ENDBRANCH   4   9
BRANCH   1  11
ATOM     11  C   LIG    1       23.279 -14.971   4.731  0.00  0.00    +0.039 C 
BRANCH  11  12
ATOM     12  C   LIG    1       22.381 -16.278   4.516  0.00  0.00    +0.005 C 
BRANCH  12  13
ATOM     13  C   LIG    1       22.971 -17.714   4.220  0.00  0.00    +0.000 C 
BRANCH  13  14
ATOM     14  C   LIG    1       22.353 -19.001   4.827  0.00  0.00    -0.000 C 
BRANCH  14  16
ATOM     15  C   LIG    1       23.125 -20.613   6.374  0.00  0.00    +0.004 C 
ATOM     16  C   LIG    1       23.255 -20.205   5.012  0.00  0.00    -0.003 C 
ENDBRANCH  14  16
ENDBRANCH  13  14
ENDBRANCH  12  13
ENDBRANCH  11  12
ENDBRANCH   1  11
TORSDOF 7
ENDMDL
MODEL 8
REMARK VINA RESULT:      -5.0      2.152      2.970
REMARK  Name = *****
REMARK                            x       y       z     vdW  Elec       q    Type
REMARK                         _______ _______ _______ _____ _____    ______ ____
ROOT
ATOM      1  C   LIG    1       25.653 -15.585   3.532  0.00  0.00    -0.006 A 
ATOM      2  C   LIG    1       24.968 -14.450   4.118  0.00  0.00    +0.123 A 
ATOM      3  C   LIG    1       25.700 -13.452   4.806  0.00  0.00    +0.091 A 
ATOM      4  C   LIG    1       27.085 -13.507   4.855  0.00  0.00    +0.120 A 
ATOM      5  C   LIG    1       27.780 -14.512   4.176  0.00  0.00    +0.046 A 
ATOM      6  C   LIG    1       27.061 -15.540   3.520  0.00  0.00    +0.011 A 
ENDROOT
BRANCH   2   7
ATOM      7  O   LIG    1       23.617 -14.574   4.428  0.00  0.00    -0.506 OA
ATOM      8  H   LIG    1       23.328 -15.479   4.199  0.00  0.00    +0.292 HD
ENDBRANCH   2   7
BRANCH   4   9
ATOM      9  O   LIG    1       27.744 -12.693   5.750  0.00  0.00    -0.507 OA
ATOM     10  H   LIG    1       28.695 -12.787   5.621  0.00  0.00    +0.292 HD
ENDBRANCH   4   9
BRANCH   1  11
ATOM     11  C   LIG    1       24.963 -16.984   3.345  0.00  0.00    +0.039 C 
BRANCH  11  12
ATOM     12  C   LIG    1       25.775 -18.338   3.602  0.00  0.00    +0.005 C 
BRANCH  12  13
ATOM     13  C   LIG    1       25.126 -19.778   3.553  0.00  0.00    +0.000 C 
BRANCH  13  14
ATOM     14  C   LIG    1       25.061 -20.697   4.802  0.00  0.00    -0.000 C 
BRANCH  14  16
ATOM     15  C   LIG    1       25.755 -20.574   7.059  0.00  0.00    +0.004 C 
ATOM     16  C   LIG    1       26.259 -20.720   5.731  0.00  0.00    -0.003 C 
ENDBRANCH  14  16
ENDBRANCH  13  14
ENDBRANCH  12  13
ENDBRANCH  11  12
ENDBRANCH   1  11
TORSDOF 7
ENDMDL
MODEL 9
REMARK VINA RESULT:      -5.0      3.141      6.425
REMARK  Name = *****
REMARK                            x       y       z     vdW  Elec       q    Type
REMARK                         _______ _______ _______ _____ _____    ______ ____
ROOT
ATOM      1  C   LIG    1       24.664 -18.815   4.033  0.00  0.00    -0.006 A 
ATOM      2  C   LIG    1       23.349 -18.370   4.449  0.00  0.00    +0.123 A 
ATOM      3  C   LIG    1       22.354 -19.315   4.801  0.00  0.00    +0.091 A 
ATOM      4  C   LIG    1       22.653 -20.669   4.832  0.00  0.00    +0.120 A 
ATOM      5  C   LIG    1       23.953 -21.115   4.575  0.00  0.00    +0.046 A 
ATOM      6  C   LIG    1       24.947 -20.187   4.180  0.00  0.00    +0.011 A 
ENDROOT
BRANCH   2   7
ATOM      7  O   LIG    1       22.915 -17.110   4.051  0.00  0.00    -0.506 OA
ATOM      8  H   LIG    1       23.180 -16.461   4.731  0.00  0.00    +0.292 HD
ENDBRANCH   2   7
BRANCH   4   9
ATOM      9  O   LIG    1       21.614 -21.571   4.904  0.00  0.00    -0.507 OA
ATOM     10  H   LIG    1       21.947 -22.410   5.243  0.00  0.00    +0.292 HD
ENDBRANCH   4   9
BRANCH   1  11
ATOM     11  C   LIG    1       25.567 -17.982   3.054  0.00  0.00    +0.039 C 
BRANCH  11  12
ATOM     12  C   LIG    1       26.412 -16.732   3.584  0.00  0.00    +0.005 C 
BRANCH  12  13
ATOM     13  C   LIG    1       26.066 -15.227   3.249  0.00  0.00    +0.000 C 
BRANCH  13  14
ATOM     14  C   LIG    1       24.947 -14.452   3.992  0.00  0.00    -0.000 C 
BRANCH  14  16
ATOM     15  C   LIG    1       25.121 -12.882   2.232  0.00  0.00    +0.004 C 
ATOM     16  C   LIG    1       24.226 -13.349   3.242  0.00  0.00    -0.003 C 
ENDBRANCH  14  16
ENDBRANCH  13  14
ENDBRANCH  12  13
ENDBRANCH  11  12
ENDBRANCH   1  11
TORSDOF 7
ENDMDL
