MODEL 1
REMARK VINA RESULT:      -1.3      0.000      0.000
REMARK  Name = *****
REMARK                            x       y       z     vdW  Elec       q    Type
REMARK                         _______ _______ _______ _____ _____    ______ ____
ROOT
ATOM      1  C   LIG    1       23.101 -17.671   3.865  0.00  0.00    +0.019 C 
ENDROOT
BRANCH   1   2
ATOM      2  C   LIG    1       22.193 -18.312   4.968  0.00  0.00    +0.085 C 
BRANCH   2   3
ATOM      3  N   LIG    1       21.647 -19.696   4.815  0.00  0.00    -0.300 NA
BRANCH   3   5
ATOM      4  C   LIG    1       19.715 -18.825   3.236  0.00  0.00    +0.020 C 
ATOM      5  C   LIG    1       20.830 -19.821   3.579  0.00  0.00    +0.081 C 
ENDBRANCH   3   5
BRANCH   3   6
ATOM      6  C   LIG    1       22.615 -20.799   5.030  0.00  0.00    +0.058 C 
ATOM      7  C   LIG    1       23.446 -21.058   3.767  0.00  0.00    +0.024 C 
BRANCH   6   8
ATOM      8  C   LIG    1       23.436 -20.892   6.363  0.00  0.00    +0.053 C 
BRANCH   8   9
ATOM      9  C   LIG    1       24.940 -20.758   6.324  0.00  0.00    -0.046 A 
ATOM     10  C   LIG    1       25.796 -21.571   7.062  0.00  0.00    +0.007 A 
ATOM     11  C   LIG    1       27.183 -21.344   7.018  0.00  0.00    +0.046 A 
ATOM     12  C   LIG    1       27.732 -20.465   6.081  0.00  0.00    +0.120 A 
ATOM     13  C   LIG    1       26.879 -19.750   5.269  0.00  0.00    +0.046 A 
ATOM     14  C   LIG    1       25.527 -19.756   5.559  0.00  0.00    +0.007 A 
BRANCH  12  15
ATOM     15  O   LIG    1       29.084 -20.258   6.077  0.00  0.00    -0.495 OA
ATOM     16  C   LIG    1       29.466 -18.914   5.776  0.00  0.00    +0.277 C 
ENDBRANCH  12  15
ENDBRANCH   8   9
ENDBRANCH   6   8
ENDBRANCH   3   6
ENDBRANCH   2   3
ENDBRANCH   1   2
BRANCH   1  17
ATOM     17  C   LIG    1       24.623 -17.703   4.091  0.00  0.00    +0.042 C 
BRANCH  17  18
ATOM     18  C   LIG    1       25.457 -17.033   2.999  0.00  0.00    +0.232 C 
BRANCH  18  19
ATOM     19  O   LIG    1       26.837 -17.128   3.368  0.00  0.00    -0.461 OA
BRANCH  19  20
ATOM     20  C   LIG    1       27.362 -16.095   4.015  0.00  0.00    +0.339 C 
ATOM     21  O   LIG    1       28.167 -16.131   4.988  0.00  0.00    -0.245 OA
BRANCH  20  22
ATOM     22  C   LIG    1       26.715 -14.878   3.536  0.00  0.00    +0.063 A 
ATOM     23  C   LIG    1       25.645 -14.365   4.263  0.00  0.00    +0.064 A 
ATOM     24  C   LIG    1       24.992 -13.200   3.868  0.00  0.00    +0.162 A 
ATOM     25  C   LIG    1       25.398 -12.581   2.656  0.00  0.00    +0.162 A 
ATOM     26  C   LIG    1       26.487 -13.114   1.947  0.00  0.00    +0.050 A 
ATOM     27  C   LIG    1       27.133 -14.259   2.372  0.00  0.00    +0.019 A 
BRANCH  24  28
ATOM     28  O   LIG    1       23.972 -12.667   4.628  0.00  0.00    -0.491 OA
ATOM     29  C   LIG    1       24.304 -11.549   5.472  0.00  0.00    +0.277 C 
ENDBRANCH  24  28
BRANCH  25  30
ATOM     30  O   LIG    1       24.769 -11.447   2.197  0.00  0.00    -0.491 OA
ATOM     31  C   LIG    1       23.384 -11.616   1.854  0.00  0.00    +0.277 C 
ENDBRANCH  25  30
ENDBRANCH  20  22
ENDBRANCH  19  20
ENDBRANCH  18  19
ENDBRANCH  17  18
ENDBRANCH   1  17
TORSDOF 14
ENDMDL
MODEL 2
REMARK VINA RESULT:      -0.3      2.262      5.174
REMARK  Name = *****
REMARK                            x       y       z     vdW  Elec       q    Type
REMARK                         _______ _______ _______ _____ _____    ______ ____
ROOT
ATOM      1  C   LIG    1       23.993 -21.224   6.039  0.00  0.00    +0.019 C 
ENDROOT
BRANCH   1   2
ATOM      2  C   LIG    1       25.031 -21.001   4.889  0.00  0.00    +0.085 C 
BRANCH   2   3
ATOM      3  N   LIG    1       25.860 -19.757   4.822  0.00  0.00    -0.300 NA
BRANCH   3   5
ATOM      4  C   LIG    1       27.340 -20.749   6.774  0.00  0.00    +0.020 C 
ATOM      5  C   LIG    1       27.183 -19.954   5.472  0.00  0.00    +0.081 C 
ENDBRANCH   3   5
BRANCH   3   6
ATOM      6  C   LIG    1       25.915 -19.088   3.500  0.00  0.00    +0.058 C 
ATOM      7  C   LIG    1       25.510 -20.051   2.376  0.00  0.00    +0.024 C 
BRANCH   6   8
ATOM      8  C   LIG    1       25.364 -17.631   3.319  0.00  0.00    +0.053 C 
BRANCH   8   9
ATOM      9  C   LIG    1       26.311 -16.457   3.409  0.00  0.00    -0.046 A 
ATOM     10  C   LIG    1       26.124 -15.272   2.703  0.00  0.00    +0.007 A 
ATOM     11  C   LIG    1       27.084 -14.249   2.794  0.00  0.00    +0.046 A 
ATOM     12  C   LIG    1       28.103 -14.310   3.748  0.00  0.00    +0.120 A 
ATOM     13  C   LIG    1       28.209 -15.440   4.528  0.00  0.00    +0.046 A 
ATOM     14  C   LIG    1       27.457 -16.550   4.192  0.00  0.00    +0.007 A 
BRANCH  12  15
ATOM     15  O   LIG    1       29.027 -13.303   3.797  0.00  0.00    -0.495 OA
ATOM     16  C   LIG    1       28.669 -12.226   4.665  0.00  0.00    +0.277 C 
ENDBRANCH  12  15
ENDBRANCH   8   9
ENDBRANCH   6   8
ENDBRANCH   3   6
ENDBRANCH   2   3
ENDBRANCH   1   2
BRANCH   1  17
ATOM     17  C   LIG    1       22.919 -20.142   6.247  0.00  0.00    +0.042 C 
BRANCH  17  18
ATOM     18  C   LIG    1       22.471 -19.417   4.979  0.00  0.00    +0.232 C 
BRANCH  18  19
ATOM     19  O   LIG    1       22.524 -18.008   5.225  0.00  0.00    -0.461 OA
BRANCH  19  20
ATOM     20  C   LIG    1       21.930 -17.217   4.340  0.00  0.00    +0.339 C 
ATOM     21  O   LIG    1       21.110 -17.556   3.440  0.00  0.00    -0.245 OA
BRANCH  20  22
ATOM     22  C   LIG    1       22.517 -15.886   4.448  0.00  0.00    +0.063 A 
ATOM     23  C   LIG    1       22.870 -15.219   3.279  0.00  0.00    +0.064 A 
ATOM     24  C   LIG    1       23.422 -13.941   3.312  0.00  0.00    +0.162 A 
ATOM     25  C   LIG    1       23.688 -13.356   4.578  0.00  0.00    +0.162 A 
ATOM     26  C   LIG    1       23.313 -14.047   5.742  0.00  0.00    +0.050 A 
ATOM     27  C   LIG    1       22.746 -15.306   5.683  0.00  0.00    +0.019 A 
BRANCH  24  28
ATOM     28  O   LIG    1       23.713 -13.265   2.145  0.00  0.00    -0.491 OA
ATOM     29  C   LIG    1       24.181 -11.909   2.277  0.00  0.00    +0.277 C 
ENDBRANCH  24  28
BRANCH  25  30
ATOM     30  O   LIG    1       24.263 -12.111   4.675  0.00  0.00    -0.491 OA
ATOM     31  C   LIG    1       24.070 -11.447   5.934  0.00  0.00    +0.277 C 
ENDBRANCH  25  30
ENDBRANCH  20  22
ENDBRANCH  19  20
ENDBRANCH  18  19
ENDBRANCH  17  18
ENDBRANCH   1  17
TORSDOF 14
ENDMDL
MODEL 3
REMARK VINA RESULT:      -0.1      1.786      4.806
REMARK  Name = *****
REMARK                            x       y       z     vdW  Elec       q    Type
REMARK                         _______ _______ _______ _____ _____    ______ ____
ROOT
ATOM      1  C   LIG    1       25.584 -20.331   4.427  0.00  0.00    +0.019 C 
ENDROOT
BRANCH   1   2
ATOM      2  C   LIG    1       24.440 -19.263   4.473  0.00  0.00    +0.085 C 
BRANCH   2   3
ATOM      3  N   LIG    1       23.043 -19.605   4.063  0.00  0.00    -0.300 NA
BRANCH   3   5
ATOM      4  C   LIG    1       22.753 -20.999   6.290  0.00  0.00    +0.020 C 
ATOM      5  C   LIG    1       22.549 -20.810   4.782  0.00  0.00    +0.081 C 
ENDBRANCH   3   5
BRANCH   3   6
ATOM      6  C   LIG    1       22.085 -18.473   4.027  0.00  0.00    +0.058 C 
ATOM      7  C   LIG    1       20.722 -18.919   3.484  0.00  0.00    +0.024 C 
BRANCH   6   8
ATOM      8  C   LIG    1       21.995 -17.465   5.226  0.00  0.00    +0.053 C 
BRANCH   8   9
ATOM      9  C   LIG    1       22.525 -16.060   5.063  0.00  0.00    -0.046 A 
ATOM     10  C   LIG    1       23.199 -15.628   3.924  0.00  0.00    +0.007 A 
ATOM     11  C   LIG    1       23.715 -14.321   3.873  0.00  0.00    +0.046 A 
ATOM     12  C   LIG    1       23.373 -13.382   4.850  0.00  0.00    +0.120 A 
ATOM     13  C   LIG    1       22.602 -13.790   5.916  0.00  0.00    +0.046 A 
ATOM     14  C   LIG    1       22.388 -15.143   6.100  0.00  0.00    +0.007 A 
BRANCH  12  15
ATOM     15  O   LIG    1       23.906 -12.124   4.776  0.00  0.00    -0.495 OA
ATOM     16  C   LIG    1       23.974 -11.447   6.032  0.00  0.00    +0.277 C 
ENDBRANCH  12  15
ENDBRANCH   8   9
ENDBRANCH   6   8
ENDBRANCH   3   6
ENDBRANCH   2   3
ENDBRANCH   1   2
BRANCH   1  17
ATOM     17  C   LIG    1       26.428 -20.524   5.699  0.00  0.00    +0.042 C 
BRANCH  17  18
ATOM     18  C   LIG    1       27.722 -19.713   5.750  0.00  0.00    +0.232 C 
BRANCH  18  19
ATOM     19  O   LIG    1       27.615 -18.638   4.810  0.00  0.00    -0.461 OA
BRANCH  19  20
ATOM     20  C   LIG    1       28.435 -17.608   4.974  0.00  0.00    +0.339 C 
ATOM     21  O   LIG    1       29.421 -17.532   5.760  0.00  0.00    -0.245 OA
BRANCH  20  22
ATOM     22  C   LIG    1       27.907 -16.477   4.218  0.00  0.00    +0.063 A 
ATOM     23  C   LIG    1       28.479 -15.223   4.413  0.00  0.00    +0.064 A 
ATOM     24  C   LIG    1       28.031 -14.105   3.714  0.00  0.00    +0.162 A 
ATOM     25  C   LIG    1       26.920 -14.258   2.843  0.00  0.00    +0.162 A 
ATOM     26  C   LIG    1       26.367 -15.536   2.658  0.00  0.00    +0.050 A 
ATOM     27  C   LIG    1       26.844 -16.635   3.347  0.00  0.00    +0.019 A 
BRANCH  24  28
ATOM     28  O   LIG    1       28.644 -12.879   3.870  0.00  0.00    -0.491 OA
ATOM     29  C   LIG    1       28.619 -12.302   5.189  0.00  0.00    +0.277 C 
ENDBRANCH  24  28
BRANCH  25  30
ATOM     30  O   LIG    1       26.411 -13.184   2.151  0.00  0.00    -0.491 OA
ATOM     31  C   LIG    1       25.005 -13.254   1.866  0.00  0.00    +0.277 C 
ENDBRANCH  25  30
ENDBRANCH  20  22
ENDBRANCH  19  20
ENDBRANCH  18  19
ENDBRANCH  17  18
ENDBRANCH   1  17
TORSDOF 14
ENDMDL
MODEL 4
REMARK VINA RESULT:       0.5      1.579      3.070
REMARK  Name = *****
REMARK                            x       y       z     vdW  Elec       q    Type
REMARK                         _______ _______ _______ _____ _____    ______ ____
ROOT
ATOM      1  C   LIG    1       22.875 -18.069   5.924  0.00  0.00    +0.019 C 
ENDROOT
BRANCH   1   2
ATOM      2  C   LIG    1       21.977 -19.335   5.720  0.00  0.00    +0.085 C 
BRANCH   2   3
ATOM      3  N   LIG    1       21.973 -20.082   4.424  0.00  0.00    -0.300 NA
BRANCH   3   5
ATOM      4  C   LIG    1       20.284 -18.524   3.118  0.00  0.00    +0.020 C 
ATOM      5  C   LIG    1       21.659 -19.182   3.283  0.00  0.00    +0.081 C 
ENDBRANCH   3   5
BRANCH   3   6
ATOM      6  C   LIG    1       23.125 -20.989   4.198  0.00  0.00    +0.058 C 
ATOM      7  C   LIG    1       23.977 -20.513   3.015  0.00  0.00    +0.024 C 
BRANCH   6   8
ATOM      8  C   LIG    1       23.961 -21.533   5.408  0.00  0.00    +0.053 C 
BRANCH   8   9
ATOM      9  C   LIG    1       25.375 -21.043   5.619  0.00  0.00    -0.046 A 
ATOM     10  C   LIG    1       25.985 -20.101   4.796  0.00  0.00    +0.007 A 
ATOM     11  C   LIG    1       27.325 -19.741   5.024  0.00  0.00    +0.046 A 
ATOM     12  C   LIG    1       27.983 -20.142   6.189  0.00  0.00    +0.120 A 
ATOM     13  C   LIG    1       27.325 -20.982   7.062  0.00  0.00    +0.046 A 
ATOM     14  C   LIG    1       26.144 -21.571   6.652  0.00  0.00    +0.007 A 
BRANCH  12  15
ATOM     15  O   LIG    1       29.291 -19.785   6.370  0.00  0.00    -0.495 OA
ATOM     16  C   LIG    1       29.465 -18.511   6.992  0.00  0.00    +0.277 C 
ENDBRANCH  12  15
ENDBRANCH   8   9
ENDBRANCH   6   8
ENDBRANCH   3   6
ENDBRANCH   2   3
ENDBRANCH   1   2
BRANCH   1  17
ATOM     17  C   LIG    1       22.174 -16.699   5.961  0.00  0.00    +0.042 C 
BRANCH  17  18
ATOM     18  C   LIG    1       22.184 -15.928   4.642  0.00  0.00    +0.232 C 
BRANCH  18  19
ATOM     19  O   LIG    1       23.482 -15.345   4.473  0.00  0.00    -0.461 OA
BRANCH  19  20
ATOM     20  C   LIG    1       23.610 -14.418   3.533  0.00  0.00    +0.339 C 
ATOM     21  O   LIG    1       22.726 -14.024   2.721  0.00  0.00    -0.245 OA
BRANCH  20  22
ATOM     22  C   LIG    1       25.015 -14.034   3.458  0.00  0.00    +0.063 A 
ATOM     23  C   LIG    1       25.956 -14.827   4.109  0.00  0.00    +0.064 A 
ATOM     24  C   LIG    1       27.314 -14.524   4.065  0.00  0.00    +0.162 A 
ATOM     25  C   LIG    1       27.717 -13.337   3.398  0.00  0.00    +0.162 A 
ATOM     26  C   LIG    1       26.748 -12.560   2.741  0.00  0.00    +0.050 A 
ATOM     27  C   LIG    1       25.408 -12.894   2.780  0.00  0.00    +0.019 A 
BRANCH  24  28
ATOM     28  O   LIG    1       28.244 -15.349   4.664  0.00  0.00    -0.491 OA
ATOM     29  C   LIG    1       28.149 -16.756   4.372  0.00  0.00    +0.277 C 
ENDBRANCH  24  28
BRANCH  25  30
ATOM     30  O   LIG    1       29.041 -12.967   3.350  0.00  0.00    -0.491 OA
ATOM     31  C   LIG    1       29.420 -11.941   4.281  0.00  0.00    +0.277 C 
ENDBRANCH  25  30
ENDBRANCH  20  22
ENDBRANCH  19  20
ENDBRANCH  18  19
ENDBRANCH  17  18
ENDBRANCH   1  17
TORSDOF 14
ENDMDL
MODEL 5
REMARK VINA RESULT:       0.6      1.470      2.642
REMARK  Name = *****
REMARK                            x       y       z     vdW  Elec       q    Type
REMARK                         _______ _______ _______ _____ _____    ______ ____
ROOT
ATOM      1  C   LIG    1       21.734 -18.425   3.652  0.00  0.00    +0.019 C 
ENDROOT
BRANCH   1   2
ATOM      2  C   LIG    1       22.377 -18.955   4.978  0.00  0.00    +0.085 C 
BRANCH   2   3
ATOM      3  N   LIG    1       22.842 -20.371   5.102  0.00  0.00    -0.300 NA
BRANCH   3   5
ATOM      4  C   LIG    1       23.720 -20.630   2.622  0.00  0.00    +0.020 C 
ATOM      5  C   LIG    1       23.937 -20.666   4.140  0.00  0.00    +0.081 C 
ENDBRANCH   3   5
BRANCH   3   6
ATOM      6  C   LIG    1       23.087 -20.852   6.483  0.00  0.00    +0.058 C 
ATOM      7  C   LIG    1       21.839 -21.531   7.062  0.00  0.00    +0.024 C 
BRANCH   6   8
ATOM      8  C   LIG    1       24.432 -21.571   6.850  0.00  0.00    +0.053 C 
BRANCH   8   9
ATOM      9  C   LIG    1       25.748 -20.923   6.491  0.00  0.00    -0.046 A 
ATOM     10  C   LIG    1       25.860 -19.887   5.567  0.00  0.00    +0.007 A 
ATOM     11  C   LIG    1       27.129 -19.377   5.242  0.00  0.00    +0.046 A 
ATOM     12  C   LIG    1       28.254 -19.736   5.989  0.00  0.00    +0.120 A 
ATOM     13  C   LIG    1       28.111 -20.677   6.985  0.00  0.00    +0.046 A 
ATOM     14  C   LIG    1       26.929 -21.390   7.060  0.00  0.00    +0.007 A 
BRANCH  12  15
ATOM     15  O   LIG    1       29.475 -19.232   5.635  0.00  0.00    -0.495 OA
ATOM     16  C   LIG    1       29.465 -17.832   5.348  0.00  0.00    +0.277 C 
ENDBRANCH  12  15
ENDBRANCH   8   9
ENDBRANCH   6   8
ENDBRANCH   3   6
ENDBRANCH   2   3
ENDBRANCH   1   2
BRANCH   1  17
ATOM     17  C   LIG    1       22.279 -17.106   3.076  0.00  0.00    +0.042 C 
BRANCH  17  18
ATOM     18  C   LIG    1       23.202 -16.322   4.007  0.00  0.00    +0.232 C 
BRANCH  18  19
ATOM     19  O   LIG    1       24.371 -17.113   4.249  0.00  0.00    -0.461 OA
BRANCH  19  20
ATOM     20  C   LIG    1       25.309 -17.108   3.310  0.00  0.00    +0.339 C 
ATOM     21  O   LIG    1       25.659 -18.073   2.574  0.00  0.00    -0.245 OA
BRANCH  20  22
ATOM     22  C   LIG    1       26.017 -15.834   3.376  0.00  0.00    +0.063 A 
ATOM     23  C   LIG    1       25.466 -14.734   2.725  0.00  0.00    +0.064 A 
ATOM     24  C   LIG    1       26.084 -13.487   2.761  0.00  0.00    +0.162 A 
ATOM     25  C   LIG    1       27.337 -13.376   3.418  0.00  0.00    +0.162 A 
ATOM     26  C   LIG    1       27.867 -14.500   4.073  0.00  0.00    +0.050 A 
ATOM     27  C   LIG    1       27.223 -15.722   4.043  0.00  0.00    +0.019 A 
BRANCH  24  28
ATOM     28  O   LIG    1       25.499 -12.389   2.163  0.00  0.00    -0.491 OA
ATOM     29  C   LIG    1       24.206 -11.990   2.658  0.00  0.00    +0.277 C 
ENDBRANCH  24  28
BRANCH  25  30
ATOM     30  O   LIG    1       28.012 -12.178   3.456  0.00  0.00    -0.491 OA
ATOM     31  C   LIG    1       29.018 -12.079   4.477  0.00  0.00    +0.277 C 
ENDBRANCH  25  30
ENDBRANCH  20  22
ENDBRANCH  19  20
ENDBRANCH  18  19
ENDBRANCH  17  18
ENDBRANCH   1  17
TORSDOF 14
ENDMDL
MODEL 6
REMARK VINA RESULT:       0.7      2.104      4.872
REMARK  Name = *****
REMARK                            x       y       z     vdW  Elec       q    Type
REMARK                         _______ _______ _______ _____ _____    ______ ____
ROOT
ATOM      1  C   LIG    1       26.283 -18.163   4.140  0.00  0.00    +0.019 C 
ENDROOT
BRANCH   1   2
ATOM      2  C   LIG    1       27.066 -19.515   4.050  0.00  0.00    +0.085 C 
BRANCH   2   3
ATOM      3  N   LIG    1       27.273 -20.373   5.258  0.00  0.00    -0.300 NA
BRANCH   3   5
ATOM      4  C   LIG    1       29.263 -18.767   5.927  0.00  0.00    +0.020 C 
ATOM      5  C   LIG    1       28.075 -19.666   6.292  0.00  0.00    +0.081 C 
ENDBRANCH   3   5
BRANCH   3   6
ATOM      6  C   LIG    1       26.066 -21.060   5.776  0.00  0.00    +0.058 C 
ATOM      7  C   LIG    1       25.541 -20.374   7.044  0.00  0.00    +0.024 C 
BRANCH   6   8
ATOM      8  C   LIG    1       24.937 -21.538   4.797  0.00  0.00    +0.053 C 
BRANCH   8   9
ATOM      9  C   LIG    1       23.782 -20.617   4.482  0.00  0.00    -0.046 A 
ATOM     10  C   LIG    1       23.909 -19.478   3.693  0.00  0.00    +0.007 A 
ATOM     11  C   LIG    1       22.799 -18.639   3.496  0.00  0.00    +0.046 A 
ATOM     12  C   LIG    1       21.521 -19.043   3.893  0.00  0.00    +0.120 A 
ATOM     13  C   LIG    1       21.387 -20.235   4.571  0.00  0.00    +0.046 A 
ATOM     14  C   LIG    1       22.527 -20.869   5.029  0.00  0.00    +0.007 A 
BRANCH  12  15
ATOM     15  O   LIG    1       20.466 -18.194   3.698  0.00  0.00    -0.495 OA
ATOM     16  C   LIG    1       19.362 -18.785   3.011  0.00  0.00    +0.277 C 
ENDBRANCH  12  15
ENDBRANCH   8   9
ENDBRANCH   6   8
ENDBRANCH   3   6
ENDBRANCH   2   3
ENDBRANCH   1   2
BRANCH   1  17
ATOM     17  C   LIG    1       26.968 -16.905   3.576  0.00  0.00    +0.042 C 
BRANCH  17  18
ATOM     18  C   LIG    1       27.696 -16.044   4.607  0.00  0.00    +0.232 C 
BRANCH  18  19
ATOM     19  O   LIG    1       27.956 -14.764   4.019  0.00  0.00    -0.461 OA
BRANCH  19  20
ATOM     20  C   LIG    1       27.130 -14.362   3.061  0.00  0.00    +0.339 C 
ATOM     21  O   LIG    1       27.293 -14.474   1.813  0.00  0.00    -0.245 OA
BRANCH  20  22
ATOM     22  C   LIG    1       26.056 -13.589   3.676  0.00  0.00    +0.063 A 
ATOM     23  C   LIG    1       24.926 -14.266   4.127  0.00  0.00    +0.064 A 
ATOM     24  C   LIG    1       23.872 -13.590   4.736  0.00  0.00    +0.162 A 
ATOM     25  C   LIG    1       23.941 -12.175   4.821  0.00  0.00    +0.162 A 
ATOM     26  C   LIG    1       25.096 -11.518   4.366  0.00  0.00    +0.050 A 
ATOM     27  C   LIG    1       26.140 -12.213   3.786  0.00  0.00    +0.019 A 
BRANCH  24  28
ATOM     28  O   LIG    1       22.784 -14.277   5.233  0.00  0.00    -0.491 OA
ATOM     29  C   LIG    1       22.690 -15.676   4.903  0.00  0.00    +0.277 C 
ENDBRANCH  24  28
BRANCH  25  30
ATOM     30  O   LIG    1       22.915 -11.449   5.380  0.00  0.00    -0.491 OA
ATOM     31  C   LIG    1       22.724 -11.651   6.790  0.00  0.00    +0.277 C 
ENDBRANCH  25  30
ENDBRANCH  20  22
ENDBRANCH  19  20
ENDBRANCH  18  19
ENDBRANCH  17  18
ENDBRANCH   1  17
TORSDOF 14
ENDMDL
