MODEL 1
REMARK VINA RESULT:      -9.3      0.000      0.000
REMARK  Name = *****
REMARK                            x       y       z     vdW  Elec       q    Type
REMARK                         _______ _______ _______ _____ _____    ______ ____
ROOT
ATOM      1  C   LIG    1       30.625 -19.785   7.186  0.00  0.00    +0.403 C 
ATOM      2  N   LIG    1       29.513 -20.332   6.582  0.00  0.00    -0.267 N 
ATOM      3  C   LIG    1       29.132 -21.741   6.705  0.00  0.00    +0.115 C 
ATOM      4  C   LIG    1       27.814 -21.863   7.474  0.00  0.00    +0.050 C 
ATOM      5  C   LIG    1       26.744 -21.061   6.737  0.00  0.00    -0.057 C 
ATOM      6  C   LIG    1       25.620 -21.590   6.181  0.00  0.00    +0.007 C 
ATOM      7  C   LIG    1       25.319 -23.044   6.287  0.00  0.00    +0.075 A 
ATOM      8  C   LIG    1       24.105 -23.532   6.788  0.00  0.00    -0.021 A 
ATOM      9  C   LIG    1       23.948 -24.930   6.825  0.00  0.00    +0.007 A 
ATOM     10  C   LIG    1       24.958 -25.771   6.375  0.00  0.00    +0.020 A 
ATOM     11  C   LIG    1       26.106 -25.193   5.877  0.00  0.00    +0.111 A 
ATOM     12  C   LIG    1       22.923 -22.699   7.246  0.00  0.00    +0.042 C 
ATOM     13  C   LIG    1       23.083 -21.184   7.435  0.00  0.00    +0.040 C 
ATOM     14  C   LIG    1       23.400 -20.479   6.137  0.00  0.00    -0.038 A 
ATOM     15  C   LIG    1       22.465 -19.638   5.521  0.00  0.00    +0.024 A 
ATOM     16  C   LIG    1       22.766 -19.035   4.298  0.00  0.00    +0.041 A 
ATOM     17 CL   LIG    1       21.610 -18.004   3.549  0.00  0.00    -0.084 Cl
ATOM     18  C   LIG    1       23.988 -19.272   3.671  0.00  0.00    +0.020 A 
ATOM     19  C   LIG    1       24.924 -20.110   4.278  0.00  0.00    +0.010 A 
ATOM     20  N   LIG    1       26.303 -23.861   5.816  0.00  0.00    -0.255 NA
ATOM     21  C   LIG    1       24.643 -20.697   5.519  0.00  0.00    -0.013 A 
ATOM     22  C   LIG    1       27.160 -19.591   6.680  0.00  0.00    +0.050 C 
ATOM     23  C   LIG    1       28.515 -19.459   5.964  0.00  0.00    +0.115 C 
ATOM     24  O   LIG    1       30.949 -18.605   7.086  0.00  0.00    -0.226 OA
ENDROOT
BRANCH   1  25
ATOM     25  O   LIG    1       31.311 -20.695   7.924  0.00  0.00    -0.451 OA
BRANCH  25  27
ATOM     26  C   LIG    1       30.895 -22.113   9.833  0.00  0.00    +0.048 C 
ATOM     27  C   LIG    1       31.043 -20.691   9.331  0.00  0.00    +0.230 C 
ENDBRANCH  25  27
ENDBRANCH   1  25
TORSDOF 2
ENDMDL
MODEL 2
REMARK VINA RESULT:      -7.0      3.087      5.718
REMARK  Name = *****
REMARK                            x       y       z     vdW  Elec       q    Type
REMARK                         _______ _______ _______ _____ _____    ______ ____
ROOT
ATOM      1  C   LIG    1       24.632 -27.068   6.515  0.00  0.00    +0.403 C 
ATOM      2  N   LIG    1       24.713 -25.713   6.751  0.00  0.00    -0.267 N 
ATOM      3  C   LIG    1       25.893 -25.056   7.319  0.00  0.00    +0.115 C 
ATOM      4  C   LIG    1       26.525 -24.125   6.281  0.00  0.00    +0.050 C 
ATOM      5  C   LIG    1       25.478 -23.103   5.841  0.00  0.00    -0.057 C 
ATOM      6  C   LIG    1       25.576 -21.759   6.029  0.00  0.00    +0.007 C 
ATOM      7  C   LIG    1       26.777 -21.156   6.670  0.00  0.00    +0.075 A 
ATOM      8  C   LIG    1       27.517 -20.126   6.074  0.00  0.00    -0.021 A 
ATOM      9  C   LIG    1       28.624 -19.641   6.793  0.00  0.00    +0.007 A 
ATOM     10  C   LIG    1       28.949 -20.166   8.038  0.00  0.00    +0.020 A 
ATOM     11  C   LIG    1       28.144 -21.161   8.550  0.00  0.00    +0.111 A 
ATOM     12  C   LIG    1       27.209 -19.449   4.752  0.00  0.00    +0.042 C 
ATOM     13  C   LIG    1       26.154 -20.048   3.813  0.00  0.00    +0.040 C 
ATOM     14  C   LIG    1       24.775 -20.040   4.427  0.00  0.00    -0.038 A 
ATOM     15  C   LIG    1       23.769 -19.194   3.941  0.00  0.00    +0.024 A 
ATOM     16  C   LIG    1       22.517 -19.172   4.557  0.00  0.00    +0.041 A 
ATOM     17 CL   LIG    1       21.288 -18.129   3.954  0.00  0.00    -0.084 Cl
ATOM     18  C   LIG    1       22.255 -19.977   5.664  0.00  0.00    +0.020 A 
ATOM     19  C   LIG    1       23.251 -20.821   6.155  0.00  0.00    +0.010 A 
ATOM     20  N   LIG    1       27.070 -21.656   7.903  0.00  0.00    -0.255 NA
ATOM     21  C   LIG    1       24.503 -20.872   5.527  0.00  0.00    -0.013 A 
ATOM     22  C   LIG    1       24.293 -23.832   5.209  0.00  0.00    +0.050 C 
ATOM     23  C   LIG    1       23.685 -24.818   6.221  0.00  0.00    +0.115 C 
ATOM     24  O   LIG    1       23.647 -27.624   6.039  0.00  0.00    -0.226 OA
ENDROOT
BRANCH   1  25
ATOM     25  O   LIG    1       25.778 -27.719   6.846  0.00  0.00    -0.451 OA
BRANCH  25  27
ATOM     26  C   LIG    1       26.420 -28.420   9.066  0.00  0.00    +0.048 C 
ATOM     27  C   LIG    1       25.646 -28.770   7.811  0.00  0.00    +0.230 C 
ENDBRANCH  25  27
ENDBRANCH   1  25
TORSDOF 2
ENDMDL
