MODEL 1
REMARK VINA RESULT:      -3.7      0.000      0.000
REMARK  Name = *****
REMARK                            x       y       z     vdW  Elec       q    Type
REMARK                         _______ _______ _______ _____ _____    ______ ____
ROOT
ATOM      1  N   LIG    1       26.430 -13.353   3.700  0.00  0.00    -0.296 NA
ENDROOT
BRANCH   1   2
ATOM      2  C   LIG    1       27.484 -13.355   4.750  0.00  0.00    +0.112 C 
BRANCH   2   3
ATOM      3  C   LIG    1       28.742 -12.549   4.392  0.00  0.00    +0.171 C 
BRANCH   3   4
ATOM      4  O   LIG    1       29.140 -11.777   5.522  0.00  0.00    -0.394 OA
ATOM      5  H   LIG    1       28.327 -11.475   5.960  0.00  0.00    +0.209 HD
ENDBRANCH   3   4
ENDBRANCH   2   3
ENDBRANCH   1   2
BRANCH   1   6
ATOM      6  C   LIG    1       25.081 -13.375   4.321  0.00  0.00    +0.112 C 
BRANCH   6   7
ATOM      7  C   LIG    1       23.891 -13.549   3.354  0.00  0.00    +0.171 C 
BRANCH   7   8
ATOM      8  O   LIG    1       23.787 -12.419   2.491  0.00  0.00    -0.394 OA
ATOM      9  H   LIG    1       24.568 -11.869   2.632  0.00  0.00    +0.209 HD
ENDBRANCH   7   8
ENDBRANCH   6   7
ENDBRANCH   1   6
BRANCH   1  10
ATOM     10  C   LIG    1       26.630 -14.549   2.830  0.00  0.00    +0.112 C 
BRANCH  10  11
ATOM     11  C   LIG    1       26.954 -15.864   3.561  0.00  0.00    +0.171 C 
BRANCH  11  12
ATOM     12  O   LIG    1       26.077 -16.901   3.134  0.00  0.00    -0.394 OA
ATOM     13  H   LIG    1       25.209 -16.477   3.004  0.00  0.00    +0.209 HD
ENDBRANCH  11  12
ENDBRANCH  10  11
ENDBRANCH   1  10
TORSDOF 9
ENDMDL
MODEL 2
REMARK VINA RESULT:      -3.7      0.416      4.288
REMARK  Name = *****
REMARK                            x       y       z     vdW  Elec       q    Type
REMARK                         _______ _______ _______ _____ _____    ______ ____
ROOT
ATOM      1  N   LIG    1       26.349 -13.394   3.677  0.00  0.00    -0.296 NA
ENDROOT
BRANCH   1   2
ATOM      2  C   LIG    1       26.577 -14.575   2.801  0.00  0.00    +0.112 C 
BRANCH   2   3
ATOM      3  C   LIG    1       26.959 -15.861   3.549  0.00  0.00    +0.171 C 
BRANCH   3   4
ATOM      4  O   LIG    1       26.084 -16.913   3.146  0.00  0.00    -0.394 OA
ATOM      5  H   LIG    1       26.636 -17.600   2.739  0.00  0.00    +0.209 HD
ENDBRANCH   3   4
ENDBRANCH   2   3
ENDBRANCH   1   2
BRANCH   1   6
ATOM      6  C   LIG    1       27.372 -13.342   4.752  0.00  0.00    +0.112 C 
BRANCH   6   7
ATOM      7  C   LIG    1       28.672 -12.580   4.416  0.00  0.00    +0.171 C 
BRANCH   7   8
ATOM      8  O   LIG    1       29.094 -11.806   5.538  0.00  0.00    -0.394 OA
ATOM      9  H   LIG    1       29.962 -11.440   5.332  0.00  0.00    +0.209 HD
ENDBRANCH   7   8
ENDBRANCH   6   7
ENDBRANCH   1   6
BRANCH   1  10
ATOM     10  C   LIG    1       24.977 -13.497   4.258  0.00  0.00    +0.112 C 
BRANCH  10  11
ATOM     11  C   LIG    1       23.999 -12.375   3.870  0.00  0.00    +0.171 C 
BRANCH  11  12
ATOM     12  O   LIG    1       23.825 -12.331   2.458  0.00  0.00    -0.394 OA
ATOM     13  H   LIG    1       24.712 -12.471   2.078  0.00  0.00    +0.209 HD
ENDBRANCH  11  12
ENDBRANCH  10  11
ENDBRANCH   1  10
TORSDOF 9
ENDMDL
MODEL 3
REMARK VINA RESULT:      -3.7      5.855      7.198
REMARK  Name = *****
REMARK                            x       y       z     vdW  Elec       q    Type
REMARK                         _______ _______ _______ _____ _____    ______ ____
ROOT
ATOM      1  N   LIG    1       24.902 -20.295   5.576  0.00  0.00    -0.296 NA
ENDROOT
BRANCH   1   2
ATOM      2  C   LIG    1       26.019 -21.145   6.072  0.00  0.00    +0.112 C 
BRANCH   2   3
ATOM      3  C   LIG    1       27.298 -20.373   6.429  0.00  0.00    +0.171 C 
BRANCH   3   4
ATOM      4  O   LIG    1       28.075 -20.183   5.248  0.00  0.00    -0.394 OA
ATOM      5  H   LIG    1       27.880 -19.290   4.921  0.00  0.00    +0.209 HD
ENDBRANCH   3   4
ENDBRANCH   2   3
ENDBRANCH   1   2
BRANCH   1   6
ATOM      6  C   LIG    1       23.599 -20.823   6.053  0.00  0.00    +0.112 C 
BRANCH   6   7
ATOM      7  C   LIG    1       22.359 -20.413   5.231  0.00  0.00    +0.171 C 
BRANCH   7   8
ATOM      8  O   LIG    1       21.612 -21.570   4.857  0.00  0.00    -0.394 OA
ATOM      9  H   LIG    1       20.786 -21.268   4.458  0.00  0.00    +0.209 HD
ENDBRANCH   7   8
ENDBRANCH   6   7
ENDBRANCH   1   6
BRANCH   1  10
ATOM     10  C   LIG    1       24.952 -20.277   4.084  0.00  0.00    +0.112 C 
BRANCH  10  11
ATOM     11  C   LIG    1       25.038 -18.885   3.433  0.00  0.00    +0.171 C 
BRANCH  11  12
ATOM     12  O   LIG    1       26.353 -18.356   3.559  0.00  0.00    -0.394 OA
ATOM     13  H   LIG    1       26.731 -18.773   4.355  0.00  0.00    +0.209 HD
ENDBRANCH  11  12
ENDBRANCH  10  11
ENDBRANCH   1  10
TORSDOF 9
ENDMDL
MODEL 4
REMARK VINA RESULT:      -3.7      5.998      7.685
REMARK  Name = *****
REMARK                            x       y       z     vdW  Elec       q    Type
REMARK                         _______ _______ _______ _____ _____    ______ ____
ROOT
ATOM      1  N   LIG    1       25.013 -20.321   5.659  0.00  0.00    -0.296 NA
ENDROOT
BRANCH   1   2
ATOM      2  C   LIG    1       24.997 -20.441   4.176  0.00  0.00    +0.112 C 
BRANCH   2   3
ATOM      3  C   LIG    1       25.090 -19.104   3.426  0.00  0.00    +0.171 C 
BRANCH   3   4
ATOM      4  O   LIG    1       26.350 -18.497   3.709  0.00  0.00    -0.394 OA
ATOM      5  H   LIG    1       26.276 -17.562   3.459  0.00  0.00    +0.209 HD
ENDBRANCH   3   4
ENDBRANCH   2   3
ENDBRANCH   1   2
BRANCH   1   6
ATOM      6  C   LIG    1       26.129 -21.115   6.231  0.00  0.00    +0.112 C 
BRANCH   6   7
ATOM      7  C   LIG    1       27.447 -20.353   6.482  0.00  0.00    +0.171 C 
BRANCH   7   8
ATOM      8  O   LIG    1       28.130 -20.130   5.250  0.00  0.00    -0.394 OA
ATOM      9  H   LIG    1       27.861 -19.264   4.918  0.00  0.00    +0.209 HD
ENDBRANCH   7   8
ENDBRANCH   6   7
ENDBRANCH   1   6
BRANCH   1  10
ATOM     10  C   LIG    1       23.699 -20.800   6.184  0.00  0.00    +0.112 C 
BRANCH  10  11
ATOM     11  C   LIG    1       22.462 -20.402   5.360  0.00  0.00    +0.171 C 
BRANCH  11  12
ATOM     12  O   LIG    1       21.749 -21.560   4.940  0.00  0.00    -0.394 OA
ATOM     13  H   LIG    1       21.859 -21.602   3.972  0.00  0.00    +0.209 HD
ENDBRANCH  11  12
ENDBRANCH  10  11
ENDBRANCH   1  10
TORSDOF 9
ENDMDL
MODEL 5
REMARK VINA RESULT:      -3.7      0.595      4.215
REMARK  Name = *****
REMARK                            x       y       z     vdW  Elec       q    Type
REMARK                         _______ _______ _______ _____ _____    ______ ____
ROOT
ATOM      1  N   LIG    1       26.459 -13.582   3.777  0.00  0.00    -0.296 NA
ENDROOT
BRANCH   1   2
ATOM      2  C   LIG    1       25.100 -13.608   4.383  0.00  0.00    +0.112 C 
BRANCH   2   3
ATOM      3  C   LIG    1       24.109 -12.605   3.773  0.00  0.00    +0.171 C 
BRANCH   3   4
ATOM      4  O   LIG    1       23.747 -13.042   2.465  0.00  0.00    -0.394 OA
ATOM      5  H   LIG    1       24.251 -12.502   1.836  0.00  0.00    +0.209 HD
ENDBRANCH   3   4
ENDBRANCH   2   3
ENDBRANCH   1   2
BRANCH   1   6
ATOM      6  C   LIG    1       26.736 -14.858   3.071  0.00  0.00    +0.112 C 
BRANCH   6   7
ATOM      7  C   LIG    1       25.761 -16.019   3.357  0.00  0.00    +0.171 C 
BRANCH   7   8
ATOM      8  O   LIG    1       26.407 -17.272   3.138  0.00  0.00    -0.394 OA
ATOM      9  H   LIG    1       26.657 -17.314   2.207  0.00  0.00    +0.209 HD
ENDBRANCH   7   8
ENDBRANCH   6   7
ENDBRANCH   1   6
BRANCH   1  10
ATOM     10  C   LIG    1       27.454 -13.352   4.866  0.00  0.00    +0.112 C 
BRANCH  10  11
ATOM     11  C   LIG    1       28.714 -12.564   4.466  0.00  0.00    +0.171 C 
BRANCH  11  12
ATOM     12  O   LIG    1       29.159 -11.751   5.547  0.00  0.00    -0.394 OA
ATOM     13  H   LIG    1       28.454 -11.093   5.690  0.00  0.00    +0.209 HD
ENDBRANCH  11  12
ENDBRANCH  10  11
ENDBRANCH   1  10
TORSDOF 9
ENDMDL
MODEL 6
REMARK VINA RESULT:      -3.6      6.020      7.861
REMARK  Name = *****
REMARK                            x       y       z     vdW  Elec       q    Type
REMARK                         _______ _______ _______ _____ _____    ______ ____
ROOT
ATOM      1  N   LIG    1       24.900 -20.443   5.517  0.00  0.00    -0.296 NA
ENDROOT
BRANCH   1   2
ATOM      2  C   LIG    1       23.610 -21.022   5.980  0.00  0.00    +0.112 C 
BRANCH   2   3
ATOM      3  C   LIG    1       22.369 -20.478   5.257  0.00  0.00    +0.171 C 
BRANCH   3   4
ATOM      4  O   LIG    1       21.547 -21.570   4.852  0.00  0.00    -0.394 OA
ATOM      5  H   LIG    1       20.654 -21.216   4.712  0.00  0.00    +0.209 HD
ENDBRANCH   3   4
ENDBRANCH   2   3
ENDBRANCH   1   2
BRANCH   1   6
ATOM      6  C   LIG    1       24.983 -20.484   4.035  0.00  0.00    +0.112 C 
BRANCH   6   7
ATOM      7  C   LIG    1       24.975 -19.119   3.316  0.00  0.00    +0.171 C 
BRANCH   7   8
ATOM      8  O   LIG    1       26.180 -18.407   3.595  0.00  0.00    -0.394 OA
ATOM      9  H   LIG    1       26.693 -18.934   4.220  0.00  0.00    +0.209 HD
ENDBRANCH   7   8
ENDBRANCH   6   7
ENDBRANCH   1   6
BRANCH   1  10
ATOM     10  C   LIG    1       26.014 -21.225   6.131  0.00  0.00    +0.112 C 
BRANCH  10  11
ATOM     11  C   LIG    1       27.308 -20.441   6.410  0.00  0.00    +0.171 C 
BRANCH  11  12
ATOM     12  O   LIG    1       27.941 -20.070   5.189  0.00  0.00    -0.394 OA
ATOM     13  H   LIG    1       28.840 -20.444   5.234  0.00  0.00    +0.209 HD
ENDBRANCH  11  12
ENDBRANCH  10  11
ENDBRANCH   1  10
TORSDOF 9
ENDMDL
MODEL 7
REMARK VINA RESULT:      -3.5      1.080      3.563
REMARK  Name = *****
REMARK                            x       y       z     vdW  Elec       q    Type
REMARK                         _______ _______ _______ _____ _____    ______ ____
ROOT
ATOM      1  N   LIG    1       25.892 -13.697   3.938  0.00  0.00    -0.296 NA
ENDROOT
BRANCH   1   2
ATOM      2  C   LIG    1       26.046 -13.059   2.603  0.00  0.00    +0.112 C 
BRANCH   2   3
ATOM      3  C   LIG    1       24.723 -12.693   1.914  0.00  0.00    +0.171 C 
BRANCH   3   4
ATOM      4  O   LIG    1       23.777 -12.290   2.903  0.00  0.00    -0.394 OA
ATOM      5  H   LIG    1       24.279 -11.863   3.616  0.00  0.00    +0.209 HD
ENDBRANCH   3   4
ENDBRANCH   2   3
ENDBRANCH   1   2
BRANCH   1   6
ATOM      6  C   LIG    1       27.156 -13.593   4.711  0.00  0.00    +0.112 C 
BRANCH   6   7
ATOM      7  C   LIG    1       28.338 -12.912   3.990  0.00  0.00    +0.171 C 
BRANCH   7   8
ATOM      8  O   LIG    1       29.049 -12.070   4.897  0.00  0.00    -0.394 OA
ATOM      9  H   LIG    1       29.189 -12.568   5.711  0.00  0.00    +0.209 HD
ENDBRANCH   7   8
ENDBRANCH   6   7
ENDBRANCH   1   6
BRANCH   1  10
ATOM     10  C   LIG    1       25.512 -15.127   3.736  0.00  0.00    +0.112 C 
BRANCH  10  11
ATOM     11  C   LIG    1       26.665 -16.084   3.387  0.00  0.00    +0.171 C 
BRANCH  11  12
ATOM     12  O   LIG    1       26.164 -17.386   3.102  0.00  0.00    -0.394 OA
ATOM     13  H   LIG    1       26.103 -17.439   2.130  0.00  0.00    +0.209 HD
ENDBRANCH  11  12
ENDBRANCH  10  11
ENDBRANCH   1  10
TORSDOF 9
ENDMDL
MODEL 8
REMARK VINA RESULT:      -3.5      1.142      3.627
REMARK  Name = *****
REMARK                            x       y       z     vdW  Elec       q    Type
REMARK                         _______ _______ _______ _____ _____    ______ ____
ROOT
ATOM      1  N   LIG    1       26.025 -13.826   3.841  0.00  0.00    -0.296 NA
ENDROOT
BRANCH   1   2
ATOM      2  C   LIG    1       25.573 -15.220   3.584  0.00  0.00    +0.112 C 
BRANCH   2   3
ATOM      3  C   LIG    1       26.710 -16.241   3.428  0.00  0.00    +0.171 C 
BRANCH   3   4
ATOM      4  O   LIG    1       26.156 -17.510   3.085  0.00  0.00    -0.394 OA
ATOM      5  H   LIG    1       26.049 -17.520   2.120  0.00  0.00    +0.209 HD
ENDBRANCH   3   4
ENDBRANCH   2   3
ENDBRANCH   1   2
BRANCH   1   6
ATOM      6  C   LIG    1       26.081 -13.057   2.572  0.00  0.00    +0.112 C 
BRANCH   6   7
ATOM      7  C   LIG    1       24.734 -12.524   2.040  0.00  0.00    +0.171 C 
BRANCH   7   8
ATOM      8  O   LIG    1       23.893 -12.138   3.126  0.00  0.00    -0.394 OA
ATOM      9  H   LIG    1       24.201 -11.281   3.445  0.00  0.00    +0.209 HD
ENDBRANCH   7   8
ENDBRANCH   6   7
ENDBRANCH   1   6
BRANCH   1  10
ATOM     10  C   LIG    1       27.370 -13.879   4.487  0.00  0.00    +0.112 C 
BRANCH  10  11
ATOM     11  C   LIG    1       28.471 -13.042   3.814  0.00  0.00    +0.171 C 
BRANCH  11  12
ATOM     12  O   LIG    1       29.102 -12.190   4.764  0.00  0.00    -0.394 OA
ATOM     13  H   LIG    1       28.456 -11.485   4.957  0.00  0.00    +0.209 HD
ENDBRANCH  11  12
ENDBRANCH  10  11
ENDBRANCH   1  10
TORSDOF 9
ENDMDL
MODEL 9
REMARK VINA RESULT:      -3.4      5.706      7.386
REMARK  Name = *****
REMARK                            x       y       z     vdW  Elec       q    Type
REMARK                         _______ _______ _______ _____ _____    ______ ____
ROOT
ATOM      1  N   LIG    1       25.249 -20.886   4.913  0.00  0.00    -0.296 NA
ENDROOT
BRANCH   1   2
ATOM      2  C   LIG    1       25.990 -19.687   4.436  0.00  0.00    +0.112 C 
BRANCH   2   3
ATOM      3  C   LIG    1       25.206 -18.802   3.455  0.00  0.00    +0.171 C 
BRANCH   3   4
ATOM      4  O   LIG    1       26.033 -17.716   3.043  0.00  0.00    -0.394 OA
ATOM      5  H   LIG    1       25.724 -17.443   2.164  0.00  0.00    +0.209 HD
ENDBRANCH   3   4
ENDBRANCH   2   3
ENDBRANCH   1   2
BRANCH   1   6
ATOM      6  C   LIG    1       23.855 -20.871   4.404  0.00  0.00    +0.112 C 
BRANCH   6   7
ATOM      7  C   LIG    1       22.742 -21.016   5.464  0.00  0.00    +0.171 C 
BRANCH   7   8
ATOM      8  O   LIG    1       21.567 -21.567   4.873  0.00  0.00    -0.394 OA
ATOM      9  H   LIG    1       20.809 -21.079   5.217  0.00  0.00    +0.209 HD
ENDBRANCH   7   8
ENDBRANCH   6   7
ENDBRANCH   1   6
BRANCH   1  10
ATOM     10  C   LIG    1       25.267 -20.886   6.407  0.00  0.00    +0.112 C 
BRANCH  10  11
ATOM     11  C   LIG    1       26.620 -20.560   7.061  0.00  0.00    +0.171 C 
BRANCH  11  12
ATOM     12  O   LIG    1       27.576 -21.571   6.763  0.00  0.00    -0.394 OA
ATOM     13  H   LIG    1       27.820 -21.965   7.621  0.00  0.00    +0.209 HD
ENDBRANCH  11  12
ENDBRANCH  10  11
ENDBRANCH   1  10
TORSDOF 9
ENDMDL
