MODEL 1
REMARK VINA RESULT:       0.6      0.000      0.000
REMARK  Name = *****
REMARK                            x       y       z     vdW  Elec       q    Type
REMARK                         _______ _______ _______ _____ _____    ______ ____
ROOT
ATOM      1  C   LIG    1       25.416 -19.701   2.195  0.00  0.00    +0.158 C 
ATOM      2  N   LIG    1       25.516 -19.199   3.592  0.00  0.00    -0.198 N 
ATOM      3  S   LIG    1       24.757 -20.193   4.760  0.00  0.00    +0.075 S 
ATOM      4  O   LIG    1       24.962 -21.571   4.360  0.00  0.00    -0.150 OA
ATOM      5  O   LIG    1       25.137 -19.721   6.073  0.00  0.00    -0.150 OA
ATOM      6  C   LIG    1       23.065 -19.790   4.504  0.00  0.00    +0.119 A 
ATOM      7  C   LIG    1       22.771 -18.483   4.099  0.00  0.00    +0.045 A 
ATOM      8  C   LIG    1       21.424 -18.165   3.884  0.00  0.00    +0.013 A 
ATOM      9  C   LIG    1       20.423 -19.131   4.042  0.00  0.00    +0.001 A 
ATOM     10  C   LIG    1       20.751 -20.433   4.423  0.00  0.00    +0.002 A 
ATOM     11  C   LIG    1       23.846 -17.478   3.939  0.00  0.00    +0.153 C 
ATOM     12  C   LIG    1       22.081 -20.771   4.655  0.00  0.00    +0.029 A 
ATOM     13  C   LIG    1       25.143 -17.808   3.757  0.00  0.00    +0.155 C 
ENDROOT
BRANCH  13  14
ATOM     14  C   LIG    1       26.228 -16.774   3.656  0.00  0.00    +0.269 C 
ATOM     15  N   LIG    1       25.707 -15.508   3.523  0.00  0.00    -0.265 N 
ATOM     16  H   LIG    1       24.698 -15.440   3.494  0.00  0.00    +0.157 HD
ATOM     17  O   LIG    1       27.402 -17.129   3.678  0.00  0.00    -0.268 OA
BRANCH  15  18
ATOM     18  C   LIG    1       26.440 -14.327   3.384  0.00  0.00    +0.125 A 
ATOM     19  N   LIG    1       25.971 -13.314   2.636  0.00  0.00    -0.240 NA
ATOM     20  C   LIG    1       26.729 -12.199   2.536  0.00  0.00    +0.113 A 
ATOM     21  C   LIG    1       27.960 -12.048   3.149  0.00  0.00    +0.020 A 
ATOM     22  C   LIG    1       28.437 -13.103   3.915  0.00  0.00    +0.005 A 
ATOM     23  C   LIG    1       27.665 -14.256   4.042  0.00  0.00    +0.044 A 
ENDBRANCH  15  18
ENDBRANCH  13  14
BRANCH  11  24
ATOM     24  O   LIG    1       23.405 -16.165   4.012  0.00  0.00    -0.504 OA
ATOM     25  H   LIG    1       23.413 -15.778   3.105  0.00  0.00    +0.292 HD
ENDBRANCH  11  24
TORSDOF 3
ENDMDL
MODEL 2
REMARK VINA RESULT:       2.1      2.281      7.355
REMARK  Name = *****
REMARK                            x       y       z     vdW  Elec       q    Type
REMARK                         _______ _______ _______ _____ _____    ______ ____
ROOT
ATOM      1  C   LIG    1       24.775 -14.171   1.869  0.00  0.00    +0.158 C 
ATOM      2  N   LIG    1       24.814 -14.667   3.271  0.00  0.00    -0.198 N 
ATOM      3  S   LIG    1       25.045 -13.449   4.449  0.00  0.00    +0.075 S 
ATOM      4  O   LIG    1       24.322 -12.272   4.009  0.00  0.00    -0.150 OA
ATOM      5  O   LIG    1       24.822 -14.030   5.754  0.00  0.00    -0.150 OA
ATOM      6  C   LIG    1       26.767 -13.133   4.281  0.00  0.00    +0.119 A 
ATOM      7  C   LIG    1       27.585 -14.210   3.920  0.00  0.00    +0.045 A 
ATOM      8  C   LIG    1       28.954 -13.957   3.775  0.00  0.00    +0.013 A 
ATOM      9  C   LIG    1       29.470 -12.668   3.957  0.00  0.00    +0.001 A 
ATOM     10  C   LIG    1       28.625 -11.609   4.292  0.00  0.00    +0.002 A 
ATOM     11  C   LIG    1       27.017 -15.565   3.734  0.00  0.00    +0.153 C 
ATOM     12  C   LIG    1       27.261 -11.837   4.454  0.00  0.00    +0.029 A 
ATOM     13  C   LIG    1       25.708 -15.788   3.486  0.00  0.00    +0.155 C 
ENDROOT
BRANCH  13  14
ATOM     14  C   LIG    1       25.140 -17.173   3.359  0.00  0.00    +0.269 C 
ATOM     15  N   LIG    1       24.032 -17.339   4.157  0.00  0.00    -0.265 N 
ATOM     16  H   LIG    1       23.762 -16.542   4.719  0.00  0.00    +0.157 HD
ATOM     17  O   LIG    1       25.690 -17.984   2.621  0.00  0.00    -0.268 OA
BRANCH  15  18
ATOM     18  C   LIG    1       23.281 -18.509   4.289  0.00  0.00    +0.125 A 
ATOM     19  N   LIG    1       23.879 -19.679   4.570  0.00  0.00    -0.240 NA
ATOM     20  C   LIG    1       23.098 -20.777   4.681  0.00  0.00    +0.113 A 
ATOM     21  C   LIG    1       21.726 -20.765   4.510  0.00  0.00    +0.020 A 
ATOM     22  C   LIG    1       21.119 -19.553   4.215  0.00  0.00    +0.005 A 
ATOM     23  C   LIG    1       21.904 -18.406   4.110  0.00  0.00    +0.044 A 
ENDBRANCH  15  18
ENDBRANCH  13  14
BRANCH  11  24
ATOM     24  O   LIG    1       27.946 -16.587   3.858  0.00  0.00    -0.504 OA
ATOM     25  H   LIG    1       28.089 -16.770   4.817  0.00  0.00    +0.292 HD
ENDBRANCH  11  24
TORSDOF 3
ENDMDL
