MODEL 1
REMARK VINA RESULT:      -2.8      0.000      0.000
REMARK  Name = *****
REMARK                            x       y       z     vdW  Elec       q    Type
REMARK                         _______ _______ _______ _____ _____    ______ ____
ROOT
ATOM      1  C   LIG    1       25.393 -19.310   4.150  0.00  0.00    +0.098 C 
ENDROOT
BRANCH   1   2
ATOM      2  C   LIG    1       24.432 -20.219   5.012  0.00  0.00    -0.028 A 
ATOM      3  C   LIG    1       24.820 -20.798   6.239  0.00  0.00    +0.005 A 
ATOM      4  C   LIG    1       23.904 -21.466   7.062  0.00  0.00    +0.000 A 
ATOM      5  C   LIG    1       22.572 -21.572   6.685  0.00  0.00    +0.000 A 
ATOM      6  C   LIG    1       22.157 -21.023   5.475  0.00  0.00    +0.000 A 
ATOM      7  C   LIG    1       23.076 -20.369   4.641  0.00  0.00    +0.005 A 
ENDBRANCH   1   2
BRANCH   1   8
ATOM      8  C   LIG    1       26.820 -19.215   4.795  0.00  0.00    -0.028 A 
ATOM      9  C   LIG    1       27.299 -20.182   5.704  0.00  0.00    +0.005 A 
ATOM     10  C   LIG    1       28.584 -20.119   6.258  0.00  0.00    +0.000 A 
ATOM     11  C   LIG    1       29.434 -19.073   5.930  0.00  0.00    +0.000 A 
ATOM     12  C   LIG    1       28.995 -18.095   5.042  0.00  0.00    +0.000 A 
ATOM     13  C   LIG    1       27.708 -18.163   4.479  0.00  0.00    +0.005 A 
ENDBRANCH   1   8
BRANCH   1  14
ATOM     14  C   LIG    1       25.452 -19.875   2.668  0.00  0.00    +0.225 C 
ATOM     15  O   LIG    1       26.227 -19.467   1.812  0.00  0.00    -0.275 OA
ATOM     16  N   LIG    1       24.605 -20.869   2.280  0.00  0.00    -0.328 N 
ATOM     17  H   LIG    1       24.673 -21.150   1.313  0.00  0.00    +0.145 HD
ATOM     18  H   LIG    1       23.748 -21.077   2.774  0.00  0.00    +0.145 HD
ENDBRANCH   1  14
BRANCH   1  19
ATOM     19  C   LIG    1       24.792 -17.861   3.987  0.00  0.00    +0.047 C 
BRANCH  19  20
ATOM     20  C   LIG    1       25.664 -16.800   3.294  0.00  0.00    +0.124 C 
BRANCH  20  23
ATOM     21  C   LIG    1       27.439 -14.217   3.270  0.00  0.00    +0.086 C 
ATOM     22  C   LIG    1       26.005 -14.297   3.651  0.00  0.00    +0.106 A 
ATOM     23  N   LIG    1       25.242 -15.447   3.644  0.00  0.00    -0.335 N 
ATOM     24  C   LIG    1       23.982 -15.114   4.058  0.00  0.00    +0.107 A 
ATOM     25  C   LIG    1       24.026 -13.763   4.295  0.00  0.00    +0.130 A 
ATOM     26  N   LIG    1       25.275 -13.268   4.037  0.00  0.00    -0.241 NA
ENDBRANCH  20  23
ENDBRANCH  19  20
ENDBRANCH   1  19
TORSDOF 6
ENDMDL
MODEL 2
REMARK VINA RESULT:      -2.6      0.521      1.614
REMARK  Name = *****
REMARK                            x       y       z     vdW  Elec       q    Type
REMARK                         _______ _______ _______ _____ _____    ______ ____
ROOT
ATOM      1  C   LIG    1       25.519 -19.307   4.356  0.00  0.00    +0.098 C 
ENDROOT
BRANCH   1   2
ATOM      2  C   LIG    1       24.460 -20.214   5.098  0.00  0.00    -0.028 A 
ATOM      3  C   LIG    1       24.716 -20.829   6.342  0.00  0.00    +0.005 A 
ATOM      4  C   LIG    1       23.711 -21.494   7.055  0.00  0.00    +0.000 A 
ATOM      5  C   LIG    1       22.420 -21.562   6.549  0.00  0.00    +0.000 A 
ATOM      6  C   LIG    1       22.136 -20.976   5.319  0.00  0.00    +0.000 A 
ATOM      7  C   LIG    1       23.144 -20.324   4.594  0.00  0.00    +0.005 A 
ENDBRANCH   1   2
BRANCH   1   8
ATOM      8  C   LIG    1       26.928 -19.397   5.039  0.00  0.00    -0.028 A 
ATOM      9  C   LIG    1       27.943 -18.449   4.793  0.00  0.00    +0.005 A 
ATOM     10  C   LIG    1       29.193 -18.506   5.425  0.00  0.00    +0.000 A 
ATOM     11  C   LIG    1       29.475 -19.526   6.321  0.00  0.00    +0.000 A 
ATOM     12  C   LIG    1       28.500 -20.485   6.585  0.00  0.00    +0.000 A 
ATOM     13  C   LIG    1       27.243 -20.423   5.957  0.00  0.00    +0.005 A 
ENDBRANCH   1   8
BRANCH   1  14
ATOM     14  C   LIG    1       25.578 -19.723   2.826  0.00  0.00    +0.225 C 
ATOM     15  O   LIG    1       26.165 -19.080   1.964  0.00  0.00    -0.275 OA
ATOM     16  N   LIG    1       24.949 -20.854   2.399  0.00  0.00    -0.328 N 
ATOM     17  H   LIG    1       24.996 -21.034   1.407  0.00  0.00    +0.145 HD
ATOM     18  H   LIG    1       24.207 -21.295   2.925  0.00  0.00    +0.145 HD
ENDBRANCH   1  14
BRANCH   1  19
ATOM     19  C   LIG    1       25.044 -17.803   4.328  0.00  0.00    +0.047 C 
BRANCH  19  20
ATOM     20  C   LIG    1       25.500 -16.931   3.146  0.00  0.00    +0.124 C 
BRANCH  20  23
ATOM     21  C   LIG    1       23.590 -14.633   4.091  0.00  0.00    +0.086 C 
ATOM     22  C   LIG    1       25.071 -14.564   3.996  0.00  0.00    +0.106 A 
ATOM     23  N   LIG    1       25.891 -15.595   3.585  0.00  0.00    -0.335 N 
ATOM     24  C   LIG    1       27.182 -15.144   3.631  0.00  0.00    +0.107 A 
ATOM     25  C   LIG    1       27.095 -13.850   4.079  0.00  0.00    +0.130 A 
ATOM     26  N   LIG    1       25.792 -13.503   4.306  0.00  0.00    -0.241 NA
ENDBRANCH  20  23
ENDBRANCH  19  20
ENDBRANCH   1  19
TORSDOF 6
ENDMDL
MODEL 3
REMARK VINA RESULT:      -1.5      1.198      2.271
REMARK  Name = *****
REMARK                            x       y       z     vdW  Elec       q    Type
REMARK                         _______ _______ _______ _____ _____    ______ ____
ROOT
ATOM      1  C   LIG    1       25.515 -19.183   3.839  0.00  0.00    +0.098 C 
ENDROOT
BRANCH   1   2
ATOM      2  C   LIG    1       24.020 -18.971   4.301  0.00  0.00    -0.028 A 
ATOM      3  C   LIG    1       23.310 -17.773   4.070  0.00  0.00    +0.005 A 
ATOM      4  C   LIG    1       21.940 -17.665   4.345  0.00  0.00    +0.000 A 
ATOM      5  C   LIG    1       21.239 -18.751   4.853  0.00  0.00    +0.000 A 
ATOM      6  C   LIG    1       21.912 -19.943   5.103  0.00  0.00    +0.000 A 
ATOM      7  C   LIG    1       23.287 -20.049   4.846  0.00  0.00    +0.005 A 
ENDBRANCH   1   2
BRANCH   1   8
ATOM      8  C   LIG    1       26.390 -19.785   4.994  0.00  0.00    -0.028 A 
ATOM      9  C   LIG    1       25.886 -20.749   5.892  0.00  0.00    +0.005 A 
ATOM     10  C   LIG    1       26.672 -21.314   6.905  0.00  0.00    +0.000 A 
ATOM     11  C   LIG    1       27.994 -20.924   7.062  0.00  0.00    +0.000 A 
ATOM     12  C   LIG    1       28.526 -19.969   6.199  0.00  0.00    +0.000 A 
ATOM     13  C   LIG    1       27.739 -19.409   5.176  0.00  0.00    +0.005 A 
ENDBRANCH   1   8
BRANCH   1  14
ATOM     14  C   LIG    1       25.535 -20.100   2.545  0.00  0.00    +0.225 C 
ATOM     15  O   LIG    1       26.508 -20.227   1.812  0.00  0.00    -0.275 OA
ATOM     16  N   LIG    1       24.423 -20.800   2.186  0.00  0.00    -0.328 N 
ATOM     17  H   LIG    1       24.496 -21.330   1.329  0.00  0.00    +0.145 HD
ATOM     18  H   LIG    1       23.498 -20.559   2.515  0.00  0.00    +0.145 HD
ENDBRANCH   1  14
BRANCH   1  19
ATOM     19  C   LIG    1       26.149 -17.820   3.358  0.00  0.00    +0.047 C 
BRANCH  19  20
ATOM     20  C   LIG    1       25.239 -16.580   3.331  0.00  0.00    +0.124 C 
BRANCH  20  23
ATOM     21  C   LIG    1       24.020 -13.811   4.150  0.00  0.00    +0.086 C 
ATOM     22  C   LIG    1       25.465 -14.135   4.023  0.00  0.00    +0.106 A 
ATOM     23  N   LIG    1       25.977 -15.367   3.669  0.00  0.00    -0.335 N 
ATOM     24  C   LIG    1       27.341 -15.264   3.660  0.00  0.00    +0.107 A 
ATOM     25  C   LIG    1       27.606 -13.967   4.019  0.00  0.00    +0.130 A 
ATOM     26  N   LIG    1       26.446 -13.281   4.245  0.00  0.00    -0.241 NA
ENDBRANCH  20  23
ENDBRANCH  19  20
ENDBRANCH   1  19
TORSDOF 6
ENDMDL
MODEL 4
REMARK VINA RESULT:       0.2      2.493      6.854
REMARK  Name = *****
REMARK                            x       y       z     vdW  Elec       q    Type
REMARK                         _______ _______ _______ _____ _____    ______ ____
ROOT
ATOM      1  C   LIG    1       25.374 -14.402   3.460  0.00  0.00    +0.098 C 
ENDROOT
BRANCH   1   2
ATOM      2  C   LIG    1       26.616 -13.822   4.244  0.00  0.00    -0.028 A 
ATOM      3  C   LIG    1       27.772 -13.336   3.597  0.00  0.00    +0.005 A 
ATOM      4  C   LIG    1       28.791 -12.682   4.301  0.00  0.00    +0.000 A 
ATOM      5  C   LIG    1       28.682 -12.489   5.672  0.00  0.00    +0.000 A 
ATOM      6  C   LIG    1       27.561 -12.966   6.344  0.00  0.00    +0.000 A 
ATOM      7  C   LIG    1       26.548 -13.637   5.644  0.00  0.00    +0.005 A 
ENDBRANCH   1   2
BRANCH   1   8
ATOM      8  C   LIG    1       24.173 -14.696   4.427  0.00  0.00    -0.028 A 
ATOM      9  C   LIG    1       23.756 -13.771   5.408  0.00  0.00    +0.005 A 
ATOM     10  C   LIG    1       22.665 -14.014   6.252  0.00  0.00    +0.000 A 
ATOM     11  C   LIG    1       21.957 -15.203   6.152  0.00  0.00    +0.000 A 
ATOM     12  C   LIG    1       22.343 -16.144   5.201  0.00  0.00    +0.000 A 
ATOM     13  C   LIG    1       23.433 -15.895   4.347  0.00  0.00    +0.005 A 
ENDBRANCH   1   8
BRANCH   1  14
ATOM     14  C   LIG    1       24.968 -13.390   2.307  0.00  0.00    +0.225 C 
ATOM     15  O   LIG    1       25.737 -12.575   1.812  0.00  0.00    -0.275 OA
ATOM     16  N   LIG    1       23.699 -13.389   1.812  0.00  0.00    -0.328 N 
ATOM     17  H   LIG    1       23.503 -12.692   1.109  0.00  0.00    +0.145 HD
ATOM     18  H   LIG    1       22.918 -13.783   2.318  0.00  0.00    +0.145 HD
ENDBRANCH   1  14
BRANCH   1  19
ATOM     19  C   LIG    1       25.766 -15.724   2.694  0.00  0.00    +0.047 C 
BRANCH  19  20
ATOM     20  C   LIG    1       26.827 -16.634   3.337  0.00  0.00    +0.124 C 
BRANCH  20  23
ATOM     21  C   LIG    1       28.159 -18.829   5.134  0.00  0.00    +0.086 C 
ATOM     22  C   LIG    1       26.849 -18.934   4.440  0.00  0.00    +0.106 A 
ATOM     23  N   LIG    1       26.280 -17.948   3.661  0.00  0.00    -0.335 N 
ATOM     24  C   LIG    1       25.083 -18.423   3.198  0.00  0.00    +0.107 A 
ATOM     25  C   LIG    1       24.968 -19.684   3.724  0.00  0.00    +0.130 A 
ATOM     26  N   LIG    1       26.058 -19.989   4.491  0.00  0.00    -0.241 NA
ENDBRANCH  20  23
ENDBRANCH  19  20
ENDBRANCH   1  19
TORSDOF 6
ENDMDL
