MODEL 1
REMARK VINA RESULT:      -4.7      0.000      0.000
REMARK  Name = *****
REMARK                            x       y       z     vdW  Elec       q    Type
REMARK                         _______ _______ _______ _____ _____    ______ ____
ROOT
ATOM      1  O   LIG    1       25.699 -16.998   2.946  0.00  0.00    -0.459 OA
ENDROOT
BRANCH   1   6
ATOM      2  C   LIG    1       24.406 -13.387   1.812  0.00  0.00    +0.192 C 
ATOM      3  N   LIG    1       25.145 -12.972   3.088  0.00  0.00    +0.243 N 
ATOM      4  C   LIG    1       26.640 -13.334   3.115  0.00  0.00    +0.070 C 
ATOM      5  C   LIG    1       26.815 -14.814   2.746  0.00  0.00    +0.099 C 
ATOM      6  C   LIG    1       26.000 -15.767   3.640  0.00  0.00    +0.187 C 
ATOM      7  C   LIG    1       24.656 -15.200   4.129  0.00  0.00    +0.099 C 
ATOM      8  C   LIG    1       27.032 -13.092   4.582  0.00  0.00    +0.060 C 
ATOM      9  C   LIG    1       25.753 -13.311   5.394  0.00  0.00    +0.060 C 
ATOM     10  C   LIG    1       24.675 -13.687   4.368  0.00  0.00    +0.070 C 
ATOM     11  C   LIG    1       24.937 -11.448   3.190  0.00  0.00    +0.192 C 
ENDBRANCH   1   6
BRANCH   1  12
ATOM     12  C   LIG    1       26.090 -18.144   3.580  0.00  0.00    +0.341 C 
ATOM     13  O   LIG    1       27.133 -18.229   4.225  0.00  0.00    -0.247 OA
BRANCH  12  14
ATOM     14  C   LIG    1       25.078 -19.274   3.426  0.00  0.00    +0.253 C 
BRANCH  14  15
ATOM     15  C   LIG    1       24.720 -19.995   4.709  0.00  0.00    -0.008 A 
ATOM     16  C   LIG    1       23.404 -20.058   5.192  0.00  0.00    +0.007 A 
ATOM     17  C   LIG    1       23.108 -20.754   6.368  0.00  0.00    +0.000 A 
ATOM     18  C   LIG    1       24.116 -21.419   7.062  0.00  0.00    +0.000 A 
ATOM     19  C   LIG    1       25.421 -21.398   6.578  0.00  0.00    +0.000 A 
ATOM     20  C   LIG    1       25.720 -20.695   5.408  0.00  0.00    +0.007 A 
ENDBRANCH  14  15
BRANCH  14  21
ATOM     21  O   LIG    1       23.877 -18.766   2.849  0.00  0.00    -0.376 OA
ATOM     22  H   LIG    1       24.006 -18.780   1.882  0.00  0.00    +0.211 HD
ENDBRANCH  14  21
ENDBRANCH  12  14
ENDBRANCH   1  12
TORSDOF 5
ENDMDL
MODEL 2
REMARK VINA RESULT:      -4.4      1.166      2.532
REMARK  Name = *****
REMARK                            x       y       z     vdW  Elec       q    Type
REMARK                         _______ _______ _______ _____ _____    ______ ____
ROOT
ATOM      1  O   LIG    1       26.667 -16.994   3.546  0.00  0.00    -0.459 OA
ENDROOT
BRANCH   1   6
ATOM      2  C   LIG    1       26.286 -13.687   5.762  0.00  0.00    +0.192 C 
ATOM      3  N   LIG    1       25.478 -13.235   4.542  0.00  0.00    +0.243 N 
ATOM      4  C   LIG    1       24.275 -14.132   4.197  0.00  0.00    +0.070 C 
ATOM      5  C   LIG    1       24.730 -15.597   4.137  0.00  0.00    +0.099 C 
ATOM      6  C   LIG    1       25.895 -15.835   3.159  0.00  0.00    +0.187 C 
ATOM      7  C   LIG    1       26.888 -14.667   3.042  0.00  0.00    +0.099 C 
ATOM      8  C   LIG    1       23.859 -13.637   2.802  0.00  0.00    +0.060 C 
ATOM      9  C   LIG    1       25.133 -13.080   2.163  0.00  0.00    +0.060 C 
ATOM     10  C   LIG    1       26.241 -13.288   3.206  0.00  0.00    +0.070 C 
ATOM     11  C   LIG    1       25.027 -11.799   4.873  0.00  0.00    +0.192 C 
ENDBRANCH   1   6
BRANCH   1  12
ATOM     12  C   LIG    1       26.071 -18.203   3.318  0.00  0.00    +0.341 C 
ATOM     13  O   LIG    1       25.679 -18.557   2.208  0.00  0.00    -0.247 OA
BRANCH  12  14
ATOM     14  C   LIG    1       25.985 -19.061   4.575  0.00  0.00    +0.253 C 
BRANCH  14  15
ATOM     15  C   LIG    1       24.652 -19.746   4.796  0.00  0.00    -0.008 A 
ATOM     16  C   LIG    1       24.543 -20.982   5.453  0.00  0.00    +0.007 A 
ATOM     17  C   LIG    1       23.292 -21.572   5.659  0.00  0.00    +0.000 A 
ATOM     18  C   LIG    1       22.133 -20.924   5.239  0.00  0.00    +0.000 A 
ATOM     19  C   LIG    1       22.220 -19.682   4.618  0.00  0.00    +0.000 A 
ATOM     20  C   LIG    1       23.469 -19.095   4.402  0.00  0.00    +0.007 A 
ENDBRANCH  14  15
BRANCH  14  21
ATOM     21  O   LIG    1       27.001 -20.060   4.544  0.00  0.00    -0.376 OA
ATOM     22  H   LIG    1       27.789 -19.643   4.148  0.00  0.00    +0.211 HD
ENDBRANCH  14  21
ENDBRANCH  12  14
ENDBRANCH   1  12
TORSDOF 5
ENDMDL
MODEL 3
REMARK VINA RESULT:      -3.8      1.365      2.633
REMARK  Name = *****
REMARK                            x       y       z     vdW  Elec       q    Type
REMARK                         _______ _______ _______ _____ _____    ______ ____
ROOT
ATOM      1  O   LIG    1       25.725 -17.297   3.533  0.00  0.00    -0.459 OA
ENDROOT
BRANCH   1   6
ATOM      2  C   LIG    1       26.452 -13.965   5.623  0.00  0.00    +0.192 C 
ATOM      3  N   LIG    1       25.665 -13.339   4.468  0.00  0.00    +0.243 N 
ATOM      4  C   LIG    1       24.241 -13.895   4.282  0.00  0.00    +0.070 C 
ATOM      5  C   LIG    1       24.291 -15.429   4.245  0.00  0.00    +0.099 C 
ATOM      6  C   LIG    1       25.245 -15.983   3.171  0.00  0.00    +0.187 C 
ATOM      7  C   LIG    1       26.489 -15.119   2.905  0.00  0.00    +0.099 C 
ATOM      8  C   LIG    1       23.823 -13.333   2.913  0.00  0.00    +0.060 C 
ATOM      9  C   LIG    1       25.124 -13.143   2.129  0.00  0.00    +0.060 C 
ATOM     10  C   LIG    1       26.243 -13.616   3.068  0.00  0.00    +0.070 C 
ATOM     11  C   LIG    1       25.640 -11.829   4.775  0.00  0.00    +0.192 C 
ENDBRANCH   1   6
BRANCH   1  12
ATOM     12  C   LIG    1       24.768 -18.268   3.635  0.00  0.00    +0.341 C 
ATOM     13  O   LIG    1       23.565 -18.019   3.681  0.00  0.00    -0.247 OA
BRANCH  12  14
ATOM     14  C   LIG    1       25.358 -19.674   3.646  0.00  0.00    +0.253 C 
BRANCH  14  15
ATOM     15  C   LIG    1       26.194 -20.010   4.864  0.00  0.00    -0.008 A 
ATOM     16  C   LIG    1       25.698 -20.787   5.922  0.00  0.00    +0.007 A 
ATOM     17  C   LIG    1       26.508 -21.097   7.019  0.00  0.00    +0.000 A 
ATOM     18  C   LIG    1       27.830 -20.660   7.062  0.00  0.00    +0.000 A 
ATOM     19  C   LIG    1       28.348 -19.919   6.004  0.00  0.00    +0.000 A 
ATOM     20  C   LIG    1       27.538 -19.600   4.911  0.00  0.00    +0.007 A 
ENDBRANCH  14  15
BRANCH  14  21
ATOM     21  O   LIG    1       24.310 -20.634   3.544  0.00  0.00    -0.376 OA
ATOM     22  H   LIG    1       23.631 -20.374   4.194  0.00  0.00    +0.211 HD
ENDBRANCH  14  21
ENDBRANCH  12  14
ENDBRANCH   1  12
TORSDOF 5
ENDMDL
MODEL 4
REMARK VINA RESULT:      -3.8      1.699      2.906
REMARK  Name = *****
REMARK                            x       y       z     vdW  Elec       q    Type
REMARK                         _______ _______ _______ _____ _____    ______ ____
ROOT
ATOM      1  O   LIG    1       24.146 -16.587   4.484  0.00  0.00    -0.459 OA
ENDROOT
BRANCH   1   6
ATOM      2  C   LIG    1       27.119 -14.152   5.591  0.00  0.00    +0.192 C 
ATOM      3  N   LIG    1       26.823 -13.537   4.220  0.00  0.00    +0.243 N 
ATOM      4  C   LIG    1       25.379 -13.036   4.036  0.00  0.00    +0.070 C 
ATOM      5  C   LIG    1       24.397 -14.140   4.451  0.00  0.00    +0.099 C 
ATOM      6  C   LIG    1       24.620 -15.468   3.703  0.00  0.00    +0.187 C 
ATOM      7  C   LIG    1       26.085 -15.769   3.347  0.00  0.00    +0.099 C 
ATOM      8  C   LIG    1       25.291 -12.772   2.524  0.00  0.00    +0.060 C 
ATOM      9  C   LIG    1       26.296 -13.728   1.878  0.00  0.00    +0.060 C 
ATOM     10  C   LIG    1       26.915 -14.520   3.038  0.00  0.00    +0.070 C 
ATOM     11  C   LIG    1       27.837 -12.386   4.072  0.00  0.00    +0.192 C 
ENDBRANCH   1   6
BRANCH   1  12
ATOM     12  C   LIG    1       22.802 -16.826   4.420  0.00  0.00    +0.341 C 
ATOM     13  O   LIG    1       21.961 -16.016   4.805  0.00  0.00    -0.247 OA
BRANCH  12  14
ATOM     14  C   LIG    1       22.474 -18.175   3.791  0.00  0.00    +0.253 C 
BRANCH  14  15
ATOM     15  C   LIG    1       23.148 -19.366   4.440  0.00  0.00    -0.008 A 
ATOM     16  C   LIG    1       24.301 -19.960   3.904  0.00  0.00    +0.007 A 
ATOM     17  C   LIG    1       24.910 -21.044   4.545  0.00  0.00    +0.000 A 
ATOM     18  C   LIG    1       24.392 -21.531   5.743  0.00  0.00    +0.000 A 
ATOM     19  C   LIG    1       23.271 -20.932   6.307  0.00  0.00    +0.000 A 
ATOM     20  C   LIG    1       22.655 -19.855   5.664  0.00  0.00    +0.007 A 
ENDBRANCH  14  15
BRANCH  14  21
ATOM     21  O   LIG    1       21.065 -18.388   3.821  0.00  0.00    -0.376 OA
ATOM     22  H   LIG    1       20.650 -17.507   3.775  0.00  0.00    +0.211 HD
ENDBRANCH  14  21
ENDBRANCH  12  14
ENDBRANCH   1  12
TORSDOF 5
ENDMDL
MODEL 5
REMARK VINA RESULT:      -3.5      2.176      6.661
REMARK  Name = *****
REMARK                            x       y       z     vdW  Elec       q    Type
REMARK                         _______ _______ _______ _____ _____    ______ ____
ROOT
ATOM      1  O   LIG    1       25.760 -17.370   3.218  0.00  0.00    -0.459 OA
ENDROOT
BRANCH   1   6
ATOM      2  C   LIG    1       22.339 -18.678   4.825  0.00  0.00    +0.192 C 
ATOM      3  N   LIG    1       23.035 -20.030   4.643  0.00  0.00    +0.243 N 
ATOM      4  C   LIG    1       24.384 -20.164   5.371  0.00  0.00    +0.070 C 
ATOM      5  C   LIG    1       25.270 -18.956   5.033  0.00  0.00    +0.099 C 
ATOM      6  C   LIG    1       25.476 -18.754   3.520  0.00  0.00    +0.187 C 
ATOM      7  C   LIG    1       24.275 -19.156   2.647  0.00  0.00    +0.099 C 
ATOM      8  C   LIG    1       24.976 -21.452   4.775  0.00  0.00    +0.060 C 
ATOM      9  C   LIG    1       24.379 -21.572   3.371  0.00  0.00    +0.060 C 
ATOM     10  C   LIG    1       23.477 -20.340   3.202  0.00  0.00    +0.070 C 
ATOM     11  C   LIG    1       22.019 -21.071   5.153  0.00  0.00    +0.192 C 
ENDBRANCH   1   6
BRANCH   1  12
ATOM     12  C   LIG    1       26.950 -16.894   3.693  0.00  0.00    +0.341 C 
ATOM     13  O   LIG    1       27.723 -17.576   4.363  0.00  0.00    -0.247 OA
BRANCH  12  14
ATOM     14  C   LIG    1       27.218 -15.455   3.268  0.00  0.00    +0.253 C 
BRANCH  14  15
ATOM     15  C   LIG    1       26.012 -14.540   3.304  0.00  0.00    -0.008 A 
ATOM     16  C   LIG    1       25.179 -14.440   4.429  0.00  0.00    +0.007 A 
ATOM     17  C   LIG    1       24.088 -13.565   4.433  0.00  0.00    +0.000 A 
ATOM     18  C   LIG    1       23.830 -12.759   3.327  0.00  0.00    +0.000 A 
ATOM     19  C   LIG    1       24.667 -12.819   2.217  0.00  0.00    +0.000 A 
ATOM     20  C   LIG    1       25.752 -13.699   2.207  0.00  0.00    +0.007 A 
ENDBRANCH  14  15
BRANCH  14  21
ATOM     21  O   LIG    1       28.231 -14.891   4.098  0.00  0.00    -0.376 OA
ATOM     22  H   LIG    1       28.643 -14.173   3.583  0.00  0.00    +0.211 HD
ENDBRANCH  14  21
ENDBRANCH  12  14
ENDBRANCH   1  12
TORSDOF 5
ENDMDL
MODEL 6
REMARK VINA RESULT:      -3.1      1.783      2.564
REMARK  Name = *****
REMARK                            x       y       z     vdW  Elec       q    Type
REMARK                         _______ _______ _______ _____ _____    ______ ____
ROOT
ATOM      1  O   LIG    1       23.830 -16.222   4.270  0.00  0.00    -0.459 OA
ENDROOT
BRANCH   1   6
ATOM      2  C   LIG    1       26.471 -14.034   2.212  0.00  0.00    +0.192 C 
ATOM      3  N   LIG    1       25.698 -12.891   2.876  0.00  0.00    +0.243 N 
ATOM      4  C   LIG    1       25.688 -12.927   4.415  0.00  0.00    +0.070 C 
ATOM      5  C   LIG    1       25.266 -14.324   4.891  0.00  0.00    +0.099 C 
ATOM      6  C   LIG    1       23.912 -14.781   4.319  0.00  0.00    +0.187 C 
ATOM      7  C   LIG    1       23.609 -14.276   2.898  0.00  0.00    +0.099 C 
ATOM      8  C   LIG    1       24.620 -11.884   4.782  0.00  0.00    +0.060 C 
ATOM      9  C   LIG    1       23.649 -11.852   3.599  0.00  0.00    +0.060 C 
ATOM     10  C   LIG    1       24.184 -12.888   2.600  0.00  0.00    +0.070 C 
ATOM     11  C   LIG    1       26.366 -11.604   2.351  0.00  0.00    +0.192 C 
ENDBRANCH   1   6
BRANCH   1  12
ATOM     12  C   LIG    1       22.615 -16.757   4.597  0.00  0.00    +0.341 C 
ATOM     13  O   LIG    1       21.806 -16.182   5.323  0.00  0.00    -0.247 OA
BRANCH  12  14
ATOM     14  C   LIG    1       22.372 -18.109   3.937  0.00  0.00    +0.253 C 
BRANCH  14  15
ATOM     15  C   LIG    1       23.126 -19.270   4.554  0.00  0.00    -0.008 A 
ATOM     16  C   LIG    1       22.635 -19.979   5.661  0.00  0.00    +0.007 A 
ATOM     17  C   LIG    1       23.348 -21.061   6.188  0.00  0.00    +0.000 A 
ATOM     18  C   LIG    1       24.544 -21.466   5.600  0.00  0.00    +0.000 A 
ATOM     19  C   LIG    1       25.027 -20.797   4.480  0.00  0.00    +0.000 A 
ATOM     20  C   LIG    1       24.321 -19.710   3.957  0.00  0.00    +0.007 A 
ENDBRANCH  14  15
BRANCH  14  21
ATOM     21  O   LIG    1       20.980 -18.414   3.967  0.00  0.00    -0.376 OA
ATOM     22  H   LIG    1       20.909 -19.383   4.052  0.00  0.00    +0.211 HD
ENDBRANCH  14  21
ENDBRANCH  12  14
ENDBRANCH   1  12
TORSDOF 5
ENDMDL
MODEL 7
REMARK VINA RESULT:      -2.5      2.181      6.707
REMARK  Name = *****
REMARK                            x       y       z     vdW  Elec       q    Type
REMARK                         _______ _______ _______ _____ _____    ______ ____
ROOT
ATOM      1  O   LIG    1       25.212 -18.166   2.795  0.00  0.00    -0.459 OA
ENDROOT
BRANCH   1   6
ATOM      2  C   LIG    1       25.513 -20.069   6.300  0.00  0.00    +0.192 C 
ATOM      3  N   LIG    1       24.166 -20.641   5.847  0.00  0.00    +0.243 N 
ATOM      4  C   LIG    1       24.203 -21.391   4.503  0.00  0.00    +0.070 C 
ATOM      5  C   LIG    1       24.896 -20.517   3.449  0.00  0.00    +0.099 C 
ATOM      6  C   LIG    1       24.252 -19.127   3.289  0.00  0.00    +0.187 C 
ATOM      7  C   LIG    1       23.665 -18.536   4.581  0.00  0.00    +0.099 C 
ATOM      8  C   LIG    1       22.715 -21.572   4.163  0.00  0.00    +0.060 C 
ATOM      9  C   LIG    1       21.990 -20.406   4.842  0.00  0.00    +0.060 C 
ATOM     10  C   LIG    1       23.089 -19.587   5.535  0.00  0.00    +0.070 C 
ATOM     11  C   LIG    1       23.724 -21.572   6.994  0.00  0.00    +0.192 C 
ENDBRANCH   1   6
BRANCH   1  12
ATOM     12  C   LIG    1       26.237 -17.863   3.647  0.00  0.00    +0.341 C 
ATOM     13  O   LIG    1       26.588 -18.607   4.561  0.00  0.00    -0.247 OA
BRANCH  12  14
ATOM     14  C   LIG    1       26.905 -16.534   3.313  0.00  0.00    +0.253 C 
BRANCH  14  15
ATOM     15  C   LIG    1       25.984 -15.332   3.325  0.00  0.00    -0.008 A 
ATOM     16  C   LIG    1       26.245 -14.179   2.569  0.00  0.00    +0.007 A 
ATOM     17  C   LIG    1       25.358 -13.098   2.587  0.00  0.00    +0.000 A 
ATOM     18  C   LIG    1       24.187 -13.163   3.337  0.00  0.00    +0.000 A 
ATOM     19  C   LIG    1       23.894 -14.312   4.065  0.00  0.00    +0.000 A 
ATOM     20  C   LIG    1       24.783 -15.390   4.056  0.00  0.00    +0.007 A 
ENDBRANCH  14  15
BRANCH  14  21
ATOM     21  O   LIG    1       27.970 -16.290   4.228  0.00  0.00    -0.376 OA
ATOM     22  H   LIG    1       28.794 -16.539   3.768  0.00  0.00    +0.211 HD
ENDBRANCH  14  21
ENDBRANCH  12  14
ENDBRANCH   1  12
TORSDOF 5
ENDMDL
MODEL 8
REMARK VINA RESULT:      -1.7      2.314      6.851
REMARK  Name = *****
REMARK                            x       y       z     vdW  Elec       q    Type
REMARK                         _______ _______ _______ _____ _____    ______ ____
ROOT
ATOM      1  O   LIG    1       25.537 -17.658   2.931  0.00  0.00    -0.459 OA
ENDROOT
BRANCH   1   6
ATOM      2  C   LIG    1       21.912 -19.286   3.386  0.00  0.00    +0.192 C 
ATOM      3  N   LIG    1       22.700 -20.232   4.296  0.00  0.00    +0.243 N 
ATOM      4  C   LIG    1       23.440 -19.543   5.457  0.00  0.00    +0.070 C 
ATOM      5  C   LIG    1       24.265 -18.369   4.913  0.00  0.00    +0.099 C 
ATOM      6  C   LIG    1       25.246 -18.777   3.798  0.00  0.00    +0.187 C 
ATOM      7  C   LIG    1       24.754 -19.918   2.893  0.00  0.00    +0.099 C 
ATOM      8  C   LIG    1       24.361 -20.652   5.991  0.00  0.00    +0.060 C 
ATOM      9  C   LIG    1       24.639 -21.569   4.798  0.00  0.00    +0.060 C 
ATOM     10  C   LIG    1       23.881 -20.948   3.616  0.00  0.00    +0.070 C 
ATOM     11  C   LIG    1       21.658 -21.241   4.818  0.00  0.00    +0.192 C 
ENDBRANCH   1   6
BRANCH   1  12
ATOM     12  C   LIG    1       26.468 -16.774   3.400  0.00  0.00    +0.341 C 
ATOM     13  O   LIG    1       27.577 -17.120   3.799  0.00  0.00    -0.247 OA
BRANCH  12  14
ATOM     14  C   LIG    1       25.988 -15.328   3.335  0.00  0.00    +0.253 C 
BRANCH  14  15
ATOM     15  C   LIG    1       26.906 -14.317   3.989  0.00  0.00    -0.008 A 
ATOM     16  C   LIG    1       27.973 -13.716   3.301  0.00  0.00    +0.007 A 
ATOM     17  C   LIG    1       28.784 -12.768   3.932  0.00  0.00    +0.000 A 
ATOM     18  C   LIG    1       28.527 -12.386   5.246  0.00  0.00    +0.000 A 
ATOM     19  C   LIG    1       27.452 -12.944   5.931  0.00  0.00    +0.000 A 
ATOM     20  C   LIG    1       26.645 -13.899   5.307  0.00  0.00    +0.007 A 
ENDBRANCH  14  15
BRANCH  14  21
ATOM     21  O   LIG    1       25.799 -14.946   1.975  0.00  0.00    -0.376 OA
ATOM     22  H   LIG    1       26.530 -15.349   1.470  0.00  0.00    +0.211 HD
ENDBRANCH  14  21
ENDBRANCH  12  14
ENDBRANCH   1  12
TORSDOF 5
ENDMDL
