MODEL 1
REMARK VINA RESULT:      -9.3      0.000      0.000
REMARK  Name = *****
REMARK                            x       y       z     vdW  Elec       q    Type
REMARK                         _______ _______ _______ _____ _____    ______ ____
ROOT
ATOM      1  C   LIG    1       23.466 -20.553   5.605  0.00  0.00    +0.080 A 
ATOM      2  C   LIG    1       24.683 -20.355   4.901  0.00  0.00    +0.045 A 
ATOM      3  C   LIG    1       24.709 -19.374   3.896  0.00  0.00    +0.024 A 
ATOM      4  C   LIG    1       23.580 -18.610   3.591  0.00  0.00    +0.002 A 
ATOM      5  C   LIG    1       22.396 -18.802   4.293  0.00  0.00    +0.001 A 
ATOM      6  C   LIG    1       22.338 -19.771   5.294  0.00  0.00    +0.017 A 
ENDROOT
BRANCH   1   8
ATOM      7  O   LIG    1       23.262 -21.230   7.904  0.00  0.00    -0.245 OA
ATOM      8  C   LIG    1       23.288 -21.531   6.724  0.00  0.00    +0.341 C 
BRANCH   8   9
ATOM      9  O   LIG    1       23.203 -22.798   6.236  0.00  0.00    -0.459 OA
BRANCH   9  10
ATOM     10  C   LIG    1       24.002 -23.784   6.894  0.00  0.00    +0.260 C 
BRANCH  10  11
ATOM     11  C   LIG    1       24.401 -24.882   5.907  0.00  0.00    +0.201 C 
BRANCH  11  12
ATOM     12  O   LIG    1       23.979 -26.181   6.328  0.00  0.00    -0.374 OA
BRANCH  12  13
ATOM     13  C   LIG    1       24.441 -27.218   5.455  0.00  0.00    +0.188 C 
BRANCH  13  14
ATOM     14  C   LIG    1       24.220 -28.563   6.135  0.00  0.00    +0.184 C 
BRANCH  14  15
ATOM     15  O   LIG    1       23.282 -29.340   5.397  0.00  0.00    -0.393 OA
ATOM     16  H   LIG    1       22.580 -29.574   6.035  0.00  0.00    +0.209 HD
ENDBRANCH  14  15
ENDBRANCH  13  14
ENDBRANCH  12  13
ENDBRANCH  11  12
ENDBRANCH  10  11
ENDBRANCH   9  10
ENDBRANCH   8   9
ENDBRANCH   1   8
BRANCH   2  17
ATOM     17  N   LIG    1       25.851 -21.105   5.170  0.00  0.00    -0.314 N 
ATOM     18  H   LIG    1       25.780 -22.067   4.838  0.00  0.00    +0.152 HD
BRANCH  17  19
ATOM     19  C   LIG    1       26.916 -20.935   6.073  0.00  0.00    +0.032 A 
ATOM     20  C   LIG    1       27.966 -20.033   5.876  0.00  0.00    +0.035 A 
ATOM     21  C   LIG    1       29.016 -19.920   6.812  0.00  0.00    +0.057 A 
ATOM     22  C   LIG    1       29.014 -20.744   7.947  0.00  0.00    +0.012 A 
ATOM     23  C   LIG    1       27.982 -21.655   8.148  0.00  0.00    +0.002 A 
ATOM     24  C   LIG    1       26.945 -21.745   7.219  0.00  0.00    +0.023 A 
BRANCH  21  25
ATOM     25  C   LIG    1       30.121 -18.919   6.589  0.00  0.00    +0.417 C 
ATOM     26  F   LIG    1       30.114 -17.918   7.511  0.00  0.00    -0.166 F 
ATOM     27  F   LIG    1       30.037 -18.311   5.374  0.00  0.00    -0.166 F 
ATOM     28  F   LIG    1       31.370 -19.465   6.646  0.00  0.00    -0.166 F 
ENDBRANCH  21  25
ENDBRANCH  17  19
ENDBRANCH   2  17
TORSDOF 11
ENDMDL
MODEL 2
REMARK VINA RESULT:      -9.2      1.235      1.431
REMARK  Name = *****
REMARK                            x       y       z     vdW  Elec       q    Type
REMARK                         _______ _______ _______ _____ _____    ______ ____
ROOT
ATOM      1  C   LIG    1       23.444 -20.489   5.652  0.00  0.00    +0.080 A 
ATOM      2  C   LIG    1       24.651 -20.299   4.931  0.00  0.00    +0.045 A 
ATOM      3  C   LIG    1       24.667 -19.325   3.918  0.00  0.00    +0.024 A 
ATOM      4  C   LIG    1       23.537 -18.560   3.623  0.00  0.00    +0.002 A 
ATOM      5  C   LIG    1       22.361 -18.745   4.341  0.00  0.00    +0.001 A 
ATOM      6  C   LIG    1       22.313 -19.705   5.350  0.00  0.00    +0.017 A 
ENDROOT
BRANCH   1   8
ATOM      7  O   LIG    1       23.362 -21.163   7.960  0.00  0.00    -0.245 OA
ATOM      8  C   LIG    1       23.277 -21.458   6.780  0.00  0.00    +0.341 C 
BRANCH   8   9
ATOM      9  O   LIG    1       23.062 -22.711   6.299  0.00  0.00    -0.459 OA
BRANCH   9  10
ATOM     10  C   LIG    1       23.904 -23.742   6.822  0.00  0.00    +0.260 C 
BRANCH  10  11
ATOM     11  C   LIG    1       24.738 -24.361   5.698  0.00  0.00    +0.201 C 
BRANCH  11  12
ATOM     12  O   LIG    1       25.966 -24.919   6.167  0.00  0.00    -0.374 OA
BRANCH  12  13
ATOM     13  C   LIG    1       25.865 -26.324   6.430  0.00  0.00    +0.188 C 
BRANCH  13  14
ATOM     14  C   LIG    1       26.171 -27.083   5.144  0.00  0.00    +0.184 C 
BRANCH  14  15
ATOM     15  O   LIG    1       27.578 -27.185   4.955  0.00  0.00    -0.393 OA
ATOM     16  H   LIG    1       27.951 -26.365   5.332  0.00  0.00    +0.209 HD
ENDBRANCH  14  15
ENDBRANCH  13  14
ENDBRANCH  12  13
ENDBRANCH  11  12
ENDBRANCH  10  11
ENDBRANCH   9  10
ENDBRANCH   8   9
ENDBRANCH   1   8
BRANCH   2  17
ATOM     17  N   LIG    1       25.821 -21.050   5.191  0.00  0.00    -0.314 N 
ATOM     18  H   LIG    1       25.744 -22.013   4.864  0.00  0.00    +0.152 HD
BRANCH  17  19
ATOM     19  C   LIG    1       26.896 -20.878   6.081  0.00  0.00    +0.032 A 
ATOM     20  C   LIG    1       27.926 -19.954   5.886  0.00  0.00    +0.035 A 
ATOM     21  C   LIG    1       28.988 -19.839   6.809  0.00  0.00    +0.057 A 
ATOM     22  C   LIG    1       29.019 -20.685   7.927  0.00  0.00    +0.012 A 
ATOM     23  C   LIG    1       28.007 -21.619   8.125  0.00  0.00    +0.002 A 
ATOM     24  C   LIG    1       26.958 -21.710   7.210  0.00  0.00    +0.023 A 
BRANCH  21  25
ATOM     25  C   LIG    1       30.072 -18.814   6.590  0.00  0.00    +0.417 C 
ATOM     26  F   LIG    1       29.881 -18.085   5.456  0.00  0.00    -0.166 F 
ATOM     27  F   LIG    1       31.306 -19.376   6.471  0.00  0.00    -0.166 F 
ATOM     28  F   LIG    1       30.174 -17.905   7.601  0.00  0.00    -0.166 F 
ENDBRANCH  21  25
ENDBRANCH  17  19
ENDBRANCH   2  17
TORSDOF 11
ENDMDL
MODEL 3
REMARK VINA RESULT:      -8.8      1.789      2.413
REMARK  Name = *****
REMARK                            x       y       z     vdW  Elec       q    Type
REMARK                         _______ _______ _______ _____ _____    ______ ____
ROOT
ATOM      1  C   LIG    1       24.548 -20.724   6.384  0.00  0.00    +0.080 A 
ATOM      2  C   LIG    1       25.369 -20.409   5.270  0.00  0.00    +0.045 A 
ATOM      3  C   LIG    1       24.780 -19.734   4.189  0.00  0.00    +0.024 A 
ATOM      4  C   LIG    1       23.430 -19.375   4.199  0.00  0.00    +0.002 A 
ATOM      5  C   LIG    1       22.635 -19.678   5.298  0.00  0.00    +0.001 A 
ATOM      6  C   LIG    1       23.190 -20.350   6.386  0.00  0.00    +0.017 A 
ENDROOT
BRANCH   1   8
ATOM      7  O   LIG    1       25.051 -20.894   8.730  0.00  0.00    -0.245 OA
ATOM      8  C   LIG    1       25.032 -21.407   7.625  0.00  0.00    +0.341 C 
BRANCH   8   9
ATOM      9  O   LIG    1       25.485 -22.655   7.332  0.00  0.00    -0.459 OA
BRANCH   9  10
ATOM     10  C   LIG    1       24.512 -23.582   6.842  0.00  0.00    +0.260 C 
BRANCH  10  11
ATOM     11  C   LIG    1       25.118 -24.443   5.731  0.00  0.00    +0.201 C 
BRANCH  11  12
ATOM     12  O   LIG    1       24.320 -25.588   5.426  0.00  0.00    -0.374 OA
BRANCH  12  13
ATOM     13  C   LIG    1       25.105 -26.774   5.258  0.00  0.00    +0.188 C 
BRANCH  13  14
ATOM     14  C   LIG    1       26.458 -26.561   5.924  0.00  0.00    +0.184 C 
BRANCH  14  15
ATOM     15  O   LIG    1       27.501 -27.063   5.094  0.00  0.00    -0.393 OA
ATOM     16  H   LIG    1       28.101 -26.307   4.946  0.00  0.00    +0.209 HD
ENDBRANCH  14  15
ENDBRANCH  13  14
ENDBRANCH  12  13
ENDBRANCH  11  12
ENDBRANCH  10  11
ENDBRANCH   9  10
ENDBRANCH   8   9
ENDBRANCH   1   8
BRANCH   2  17
ATOM     17  N   LIG    1       26.739 -20.753   5.212  0.00  0.00    -0.314 N 
ATOM     18  H   LIG    1       26.885 -21.725   4.940  0.00  0.00    +0.152 HD
BRANCH  17  19
ATOM     19  C   LIG    1       27.899 -20.181   5.765  0.00  0.00    +0.032 A 
ATOM     20  C   LIG    1       28.618 -20.749   6.821  0.00  0.00    +0.035 A 
ATOM     21  C   LIG    1       29.767 -20.118   7.345  0.00  0.00    +0.057 A 
ATOM     22  C   LIG    1       30.178 -18.890   6.809  0.00  0.00    +0.012 A 
ATOM     23  C   LIG    1       29.464 -18.307   5.767  0.00  0.00    +0.002 A 
ATOM     24  C   LIG    1       28.337 -18.951   5.253  0.00  0.00    +0.023 A 
BRANCH  21  25
ATOM     25  C   LIG    1       30.540 -20.767   8.465  0.00  0.00    +0.417 C 
ATOM     26  F   LIG    1       29.888 -21.835   9.001  0.00  0.00    -0.166 F 
ATOM     27  F   LIG    1       30.776 -19.914   9.500  0.00  0.00    -0.166 F 
ATOM     28  F   LIG    1       31.763 -21.234   8.083  0.00  0.00    -0.166 F 
ENDBRANCH  21  25
ENDBRANCH  17  19
ENDBRANCH   2  17
TORSDOF 11
ENDMDL
MODEL 4
REMARK VINA RESULT:      -8.7      5.364      8.836
REMARK  Name = *****
REMARK                            x       y       z     vdW  Elec       q    Type
REMARK                         _______ _______ _______ _____ _____    ______ ____
ROOT
ATOM      1  C   LIG    1       29.517 -20.014   7.229  0.00  0.00    +0.080 A 
ATOM      2  C   LIG    1       28.220 -20.465   6.871  0.00  0.00    +0.045 A 
ATOM      3  C   LIG    1       27.586 -19.847   5.780  0.00  0.00    +0.024 A 
ATOM      4  C   LIG    1       28.204 -18.822   5.061  0.00  0.00    +0.002 A 
ATOM      5  C   LIG    1       29.479 -18.393   5.411  0.00  0.00    +0.001 A 
ATOM      6  C   LIG    1       30.133 -18.985   6.492  0.00  0.00    +0.017 A 
ENDROOT
BRANCH   1   8
ATOM      7  O   LIG    1       30.054 -21.613   8.944  0.00  0.00    -0.245 OA
ATOM      8  C   LIG    1       30.335 -20.592   8.341  0.00  0.00    +0.341 C 
BRANCH   8   9
ATOM      9  O   LIG    1       31.404 -19.794   8.605  0.00  0.00    -0.459 OA
BRANCH   9  10
ATOM     10  C   LIG    1       31.253 -18.871   9.687  0.00  0.00    +0.260 C 
BRANCH  10  11
ATOM     11  C   LIG    1       32.024 -17.583   9.392  0.00  0.00    +0.201 C 
BRANCH  11  12
ATOM     12  O   LIG    1       32.963 -17.257  10.418  0.00  0.00    -0.374 OA
BRANCH  12  13
ATOM     13  C   LIG    1       32.632 -16.040  11.098  0.00  0.00    +0.188 C 
BRANCH  13  14
ATOM     14  C   LIG    1       32.039 -16.388  12.457  0.00  0.00    +0.184 C 
BRANCH  14  15
ATOM     15  O   LIG    1       31.360 -15.260  13.001  0.00  0.00    -0.393 OA
ATOM     16  H   LIG    1       31.491 -15.320  13.967  0.00  0.00    +0.209 HD
ENDBRANCH  14  15
ENDBRANCH  13  14
ENDBRANCH  12  13
ENDBRANCH  11  12
ENDBRANCH  10  11
ENDBRANCH   9  10
ENDBRANCH   8   9
ENDBRANCH   1   8
BRANCH   2  17
ATOM     17  N   LIG    1       27.552 -21.497   7.569  0.00  0.00    -0.314 N 
ATOM     18  H   LIG    1       28.180 -22.030   8.170  0.00  0.00    +0.152 HD
BRANCH  17  19
ATOM     19  C   LIG    1       26.329 -22.161   7.365  0.00  0.00    +0.032 A 
ATOM     20  C   LIG    1       26.224 -23.466   6.875  0.00  0.00    +0.035 A 
ATOM     21  C   LIG    1       24.966 -24.073   6.676  0.00  0.00    +0.057 A 
ATOM     22  C   LIG    1       23.801 -23.344   6.956  0.00  0.00    +0.012 A 
ATOM     23  C   LIG    1       23.891 -22.040   7.432  0.00  0.00    +0.002 A 
ATOM     24  C   LIG    1       25.144 -21.459   7.634  0.00  0.00    +0.023 A 
BRANCH  21  25
ATOM     25  C   LIG    1       24.883 -25.492   6.173  0.00  0.00    +0.417 C 
ATOM     26  F   LIG    1       23.684 -26.075   6.448  0.00  0.00    -0.166 F 
ATOM     27  F   LIG    1       25.829 -26.299   6.728  0.00  0.00    -0.166 F 
ATOM     28  F   LIG    1       25.046 -25.602   4.824  0.00  0.00    -0.166 F 
ENDBRANCH  21  25
ENDBRANCH  17  19
ENDBRANCH   2  17
TORSDOF 11
ENDMDL
MODEL 5
REMARK VINA RESULT:      -8.6      2.333      5.055
REMARK  Name = *****
REMARK                            x       y       z     vdW  Elec       q    Type
REMARK                         _______ _______ _______ _____ _____    ______ ____
ROOT
ATOM      1  C   LIG    1       24.197 -22.943   6.944  0.00  0.00    +0.080 A 
ATOM      2  C   LIG    1       25.536 -23.247   7.304  0.00  0.00    +0.045 A 
ATOM      3  C   LIG    1       25.999 -24.553   7.073  0.00  0.00    +0.024 A 
ATOM      4  C   LIG    1       25.178 -25.529   6.505  0.00  0.00    +0.002 A 
ATOM      5  C   LIG    1       23.872 -25.220   6.145  0.00  0.00    +0.001 A 
ATOM      6  C   LIG    1       23.382 -23.934   6.365  0.00  0.00    +0.017 A 
ENDROOT
BRANCH   1   8
ATOM      7  O   LIG    1       23.718 -20.866   8.059  0.00  0.00    -0.245 OA
ATOM      8  C   LIG    1       23.568 -21.593   7.093  0.00  0.00    +0.341 C 
BRANCH   8   9
ATOM      9  O   LIG    1       22.777 -21.320   6.021  0.00  0.00    -0.459 OA
BRANCH   9  10
ATOM     10  C   LIG    1       22.530 -19.937   5.754  0.00  0.00    +0.260 C 
BRANCH  10  11
ATOM     11  C   LIG    1       23.009 -19.580   4.345  0.00  0.00    +0.201 C 
BRANCH  11  12
ATOM     12  O   LIG    1       23.944 -20.527   3.825  0.00  0.00    -0.374 OA
BRANCH  12  13
ATOM     13  C   LIG    1       25.058 -19.899   3.179  0.00  0.00    +0.188 C 
BRANCH  13  14
ATOM     14  C   LIG    1       25.011 -18.404   3.471  0.00  0.00    +0.184 C 
BRANCH  14  15
ATOM     15  O   LIG    1       26.218 -17.781   3.044  0.00  0.00    -0.393 OA
ATOM     16  H   LIG    1       26.147 -17.718   2.072  0.00  0.00    +0.209 HD
ENDBRANCH  14  15
ENDBRANCH  13  14
ENDBRANCH  12  13
ENDBRANCH  11  12
ENDBRANCH  10  11
ENDBRANCH   9  10
ENDBRANCH   8   9
ENDBRANCH   1   8
BRANCH   2  17
ATOM     17  N   LIG    1       26.405 -22.294   7.884  0.00  0.00    -0.314 N 
ATOM     18  H   LIG    1       26.131 -22.047   8.835  0.00  0.00    +0.152 HD
BRANCH  17  19
ATOM     19  C   LIG    1       27.324 -21.377   7.345  0.00  0.00    +0.032 A 
ATOM     20  C   LIG    1       28.592 -21.139   7.885  0.00  0.00    +0.035 A 
ATOM     21  C   LIG    1       29.466 -20.193   7.307  0.00  0.00    +0.057 A 
ATOM     22  C   LIG    1       29.043 -19.465   6.185  0.00  0.00    +0.012 A 
ATOM     23  C   LIG    1       27.779 -19.683   5.647  0.00  0.00    +0.002 A 
ATOM     24  C   LIG    1       26.933 -20.631   6.223  0.00  0.00    +0.023 A 
BRANCH  21  25
ATOM     25  C   LIG    1       30.838 -19.976   7.892  0.00  0.00    +0.417 C 
ATOM     26  F   LIG    1       31.740 -19.549   6.967  0.00  0.00    -0.166 F 
ATOM     27  F   LIG    1       31.361 -21.112   8.430  0.00  0.00    -0.166 F 
ATOM     28  F   LIG    1       30.864 -19.047   8.890  0.00  0.00    -0.166 F 
ENDBRANCH  21  25
ENDBRANCH  17  19
ENDBRANCH   2  17
TORSDOF 11
ENDMDL
MODEL 6
REMARK VINA RESULT:      -8.4      2.987      6.378
REMARK  Name = *****
REMARK                            x       y       z     vdW  Elec       q    Type
REMARK                         _______ _______ _______ _____ _____    ______ ____
ROOT
ATOM      1  C   LIG    1       25.392 -23.396   7.242  0.00  0.00    +0.080 A 
ATOM      2  C   LIG    1       24.105 -23.223   6.671  0.00  0.00    +0.045 A 
ATOM      3  C   LIG    1       23.486 -24.344   6.093  0.00  0.00    +0.024 A 
ATOM      4  C   LIG    1       24.106 -25.595   6.078  0.00  0.00    +0.002 A 
ATOM      5  C   LIG    1       25.363 -25.759   6.650  0.00  0.00    +0.001 A 
ATOM      6  C   LIG    1       26.005 -24.664   7.228  0.00  0.00    +0.017 A 
ENDROOT
BRANCH   1   8
ATOM      7  O   LIG    1       25.760 -21.673   8.880  0.00  0.00    -0.245 OA
ATOM      8  C   LIG    1       26.166 -22.312   7.925  0.00  0.00    +0.341 C 
BRANCH   8   9
ATOM      9  O   LIG    1       27.359 -22.118   7.302  0.00  0.00    -0.459 OA
BRANCH   9  10
ATOM     10  C   LIG    1       27.639 -20.782   6.875  0.00  0.00    +0.260 C 
BRANCH  10  11
ATOM     11  C   LIG    1       29.132 -20.482   7.031  0.00  0.00    +0.201 C 
BRANCH  11  12
ATOM     12  O   LIG    1       29.532 -20.377   8.399  0.00  0.00    -0.374 OA
BRANCH  12  13
ATOM     13  C   LIG    1       30.950 -20.490   8.565  0.00  0.00    +0.188 C 
BRANCH  13  14
ATOM     14  C   LIG    1       31.278 -21.913   9.001  0.00  0.00    +0.184 C 
BRANCH  14  15
ATOM     15  O   LIG    1       30.806 -22.143  10.325  0.00  0.00    -0.393 OA
ATOM     16  H   LIG    1       30.567 -21.263  10.672  0.00  0.00    +0.209 HD
ENDBRANCH  14  15
ENDBRANCH  13  14
ENDBRANCH  12  13
ENDBRANCH  11  12
ENDBRANCH  10  11
ENDBRANCH   9  10
ENDBRANCH   8   9
ENDBRANCH   1   8
BRANCH   2  17
ATOM     17  N   LIG    1       23.437 -21.977   6.659  0.00  0.00    -0.314 N 
ATOM     18  H   LIG    1       22.659 -21.947   7.318  0.00  0.00    +0.152 HD
BRANCH  17  19
ATOM     19  C   LIG    1       23.380 -20.926   5.727  0.00  0.00    +0.032 A 
ATOM     20  C   LIG    1       24.507 -20.356   5.127  0.00  0.00    +0.035 A 
ATOM     21  C   LIG    1       24.386 -19.290   4.210  0.00  0.00    +0.057 A 
ATOM     22  C   LIG    1       23.113 -18.782   3.915  0.00  0.00    +0.012 A 
ATOM     23  C   LIG    1       21.984 -19.330   4.515  0.00  0.00    +0.002 A 
ATOM     24  C   LIG    1       22.121 -20.392   5.410  0.00  0.00    +0.023 A 
BRANCH  21  25
ATOM     25  C   LIG    1       25.616 -18.713   3.556  0.00  0.00    +0.417 C 
ATOM     26  F   LIG    1       25.898 -19.303   2.362  0.00  0.00    -0.166 F 
ATOM     27  F   LIG    1       26.732 -18.862   4.321  0.00  0.00    -0.166 F 
ATOM     28  F   LIG    1       25.519 -17.378   3.295  0.00  0.00    -0.166 F 
ENDBRANCH  21  25
ENDBRANCH  17  19
ENDBRANCH   2  17
TORSDOF 11
ENDMDL
MODEL 7
REMARK VINA RESULT:      -8.4      3.383      5.602
REMARK  Name = *****
REMARK                            x       y       z     vdW  Elec       q    Type
REMARK                         _______ _______ _______ _____ _____    ______ ____
ROOT
ATOM      1  C   LIG    1       28.187 -20.176   7.519  0.00  0.00    +0.080 A 
ATOM      2  C   LIG    1       28.357 -19.864   6.145  0.00  0.00    +0.045 A 
ATOM      3  C   LIG    1       29.463 -19.078   5.781  0.00  0.00    +0.024 A 
ATOM      4  C   LIG    1       30.375 -18.614   6.731  0.00  0.00    +0.002 A 
ATOM      5  C   LIG    1       30.207 -18.933   8.074  0.00  0.00    +0.001 A 
ATOM      6  C   LIG    1       29.118 -19.709   8.467  0.00  0.00    +0.017 A 
ENDROOT
BRANCH   1   8
ATOM      7  O   LIG    1       26.409 -20.746   9.036  0.00  0.00    -0.245 OA
ATOM      8  C   LIG    1       27.084 -21.030   8.062  0.00  0.00    +0.341 C 
BRANCH   8   9
ATOM      9  O   LIG    1       26.977 -22.178   7.341  0.00  0.00    -0.459 OA
BRANCH   9  10
ATOM     10  C   LIG    1       25.794 -22.952   7.557  0.00  0.00    +0.260 C 
BRANCH  10  11
ATOM     11  C   LIG    1       25.904 -24.294   6.830  0.00  0.00    +0.201 C 
BRANCH  11  12
ATOM     12  O   LIG    1       25.282 -24.275   5.543  0.00  0.00    -0.374 OA
BRANCH  12  13
ATOM     13  C   LIG    1       25.298 -25.560   4.909  0.00  0.00    +0.188 C 
BRANCH  13  14
ATOM     14  C   LIG    1       26.106 -26.520   5.772  0.00  0.00    +0.184 C 
BRANCH  14  15
ATOM     15  O   LIG    1       27.170 -27.087   5.014  0.00  0.00    -0.393 OA
ATOM     16  H   LIG    1       26.980 -28.044   4.976  0.00  0.00    +0.209 HD
ENDBRANCH  14  15
ENDBRANCH  13  14
ENDBRANCH  12  13
ENDBRANCH  11  12
ENDBRANCH  10  11
ENDBRANCH   9  10
ENDBRANCH   8   9
ENDBRANCH   1   8
BRANCH   2  17
ATOM     17  N   LIG    1       27.460 -20.307   5.146  0.00  0.00    -0.314 N 
ATOM     18  H   LIG    1       27.909 -20.922   4.466  0.00  0.00    +0.152 HD
BRANCH  17  19
ATOM     19  C   LIG    1       26.219 -19.831   4.688  0.00  0.00    +0.032 A 
ATOM     20  C   LIG    1       24.988 -20.356   5.092  0.00  0.00    +0.035 A 
ATOM     21  C   LIG    1       23.774 -19.845   4.584  0.00  0.00    +0.057 A 
ATOM     22  C   LIG    1       23.809 -18.808   3.640  0.00  0.00    +0.012 A 
ATOM     23  C   LIG    1       25.028 -18.286   3.220  0.00  0.00    +0.002 A 
ATOM     24  C   LIG    1       26.218 -18.795   3.742  0.00  0.00    +0.023 A 
BRANCH  21  25
ATOM     25  C   LIG    1       22.459 -20.410   5.059  0.00  0.00    +0.417 C 
ATOM     26  F   LIG    1       22.391 -20.507   6.415  0.00  0.00    -0.166 F 
ATOM     27  F   LIG    1       22.227 -21.664   4.581  0.00  0.00    -0.166 F 
ATOM     28  F   LIG    1       21.380 -19.665   4.686  0.00  0.00    -0.166 F 
ENDBRANCH  21  25
ENDBRANCH  17  19
ENDBRANCH   2  17
TORSDOF 11
ENDMDL
MODEL 8
REMARK VINA RESULT:      -8.3      5.068      8.099
REMARK  Name = *****
REMARK                            x       y       z     vdW  Elec       q    Type
REMARK                         _______ _______ _______ _____ _____    ______ ____
ROOT
ATOM      1  C   LIG    1       25.672 -21.780   7.408  0.00  0.00    +0.080 A 
ATOM      2  C   LIG    1       25.167 -23.057   7.050  0.00  0.00    +0.045 A 
ATOM      3  C   LIG    1       23.790 -23.172   6.795  0.00  0.00    +0.024 A 
ATOM      4  C   LIG    1       22.936 -22.071   6.885  0.00  0.00    +0.002 A 
ATOM      5  C   LIG    1       23.441 -20.821   7.225  0.00  0.00    +0.001 A 
ATOM      6  C   LIG    1       24.802 -20.676   7.487  0.00  0.00    +0.017 A 
ENDROOT
BRANCH   1   8
ATOM      7  O   LIG    1       27.732 -21.891   8.645  0.00  0.00    -0.245 OA
ATOM      8  C   LIG    1       27.115 -21.487   7.674  0.00  0.00    +0.341 C 
BRANCH   8   9
ATOM      9  O   LIG    1       27.619 -20.675   6.707  0.00  0.00    -0.459 OA
BRANCH   9  10
ATOM     10  C   LIG    1       29.032 -20.455   6.739  0.00  0.00    +0.260 C 
BRANCH  10  11
ATOM     11  C   LIG    1       29.364 -19.080   6.156  0.00  0.00    +0.201 C 
BRANCH  11  12
ATOM     12  O   LIG    1       30.349 -18.382   6.919  0.00  0.00    -0.374 OA
BRANCH  12  13
ATOM     13  C   LIG    1       30.177 -18.559   8.330  0.00  0.00    +0.188 C 
BRANCH  13  14
ATOM     14  C   LIG    1       31.546 -18.523   8.997  0.00  0.00    +0.184 C 
BRANCH  14  15
ATOM     15  O   LIG    1       32.051 -19.845   9.156  0.00  0.00    -0.393 OA
ATOM     16  H   LIG    1       32.110 -20.211   8.253  0.00  0.00    +0.209 HD
ENDBRANCH  14  15
ENDBRANCH  13  14
ENDBRANCH  12  13
ENDBRANCH  11  12
ENDBRANCH  10  11
ENDBRANCH   9  10
ENDBRANCH   8   9
ENDBRANCH   1   8
BRANCH   2  17
ATOM     17  N   LIG    1       25.990 -24.202   6.948  0.00  0.00    -0.314 N 
ATOM     18  H   LIG    1       26.983 -23.971   6.982  0.00  0.00    +0.152 HD
BRANCH  17  19
ATOM     19  C   LIG    1       25.769 -25.507   6.474  0.00  0.00    +0.032 A 
ATOM     20  C   LIG    1       25.626 -26.623   7.304  0.00  0.00    +0.035 A 
ATOM     21  C   LIG    1       25.421 -27.912   6.766  0.00  0.00    +0.057 A 
ATOM     22  C   LIG    1       25.383 -28.075   5.374  0.00  0.00    +0.012 A 
ATOM     23  C   LIG    1       25.537 -26.976   4.537  0.00  0.00    +0.002 A 
ATOM     24  C   LIG    1       25.727 -25.706   5.085  0.00  0.00    +0.023 A 
BRANCH  21  25
ATOM     25  C   LIG    1       25.241 -29.094   7.686  0.00  0.00    +0.417 C 
ATOM     26  F   LIG    1       25.916 -28.951   8.859  0.00  0.00    -0.166 F 
ATOM     27  F   LIG    1       25.687 -30.256   7.135  0.00  0.00    -0.166 F 
ATOM     28  F   LIG    1       23.942 -29.322   8.032  0.00  0.00    -0.166 F 
ENDBRANCH  21  25
ENDBRANCH  17  19
ENDBRANCH   2  17
TORSDOF 11
ENDMDL
MODEL 9
REMARK VINA RESULT:      -7.9      4.377      7.737
REMARK  Name = *****
REMARK                            x       y       z     vdW  Elec       q    Type
REMARK                         _______ _______ _______ _____ _____    ______ ____
ROOT
ATOM      1  C   LIG    1       26.930 -20.443   6.118  0.00  0.00    +0.080 A 
ATOM      2  C   LIG    1       27.032 -21.304   7.242  0.00  0.00    +0.045 A 
ATOM      3  C   LIG    1       28.262 -21.359   7.918  0.00  0.00    +0.024 A 
ATOM      4  C   LIG    1       29.356 -20.594   7.509  0.00  0.00    +0.002 A 
ATOM      5  C   LIG    1       29.244 -19.744   6.414  0.00  0.00    +0.001 A 
ATOM      6  C   LIG    1       28.037 -19.670   5.720  0.00  0.00    +0.017 A 
ENDROOT
BRANCH   1   8
ATOM      7  O   LIG    1       24.552 -20.314   5.771  0.00  0.00    -0.245 OA
ATOM      8  C   LIG    1       25.681 -20.246   5.316  0.00  0.00    +0.341 C 
BRANCH   8   9
ATOM      9  O   LIG    1       25.988 -20.026   4.010  0.00  0.00    -0.459 OA
BRANCH   9  10
ATOM     10  C   LIG    1       25.044 -19.260   3.258  0.00  0.00    +0.260 C 
BRANCH  10  11
ATOM     11  C   LIG    1       25.084 -17.795   3.700  0.00  0.00    +0.201 C 
BRANCH  11  12
ATOM     12  O   LIG    1       25.838 -16.972   2.808  0.00  0.00    -0.374 OA
BRANCH  12  13
ATOM     13  C   LIG    1       26.730 -16.089   3.499  0.00  0.00    +0.188 C 
BRANCH  13  14
ATOM     14  C   LIG    1       26.343 -14.652   3.173  0.00  0.00    +0.184 C 
BRANCH  14  15
ATOM     15  O   LIG    1       26.985 -14.229   1.974  0.00  0.00    -0.393 OA
ATOM     16  H   LIG    1       26.475 -13.456   1.666  0.00  0.00    +0.209 HD
ENDBRANCH  14  15
ENDBRANCH  13  14
ENDBRANCH  12  13
ENDBRANCH  11  12
ENDBRANCH  10  11
ENDBRANCH   9  10
ENDBRANCH   8   9
ENDBRANCH   1   8
BRANCH   2  17
ATOM     17  N   LIG    1       25.955 -22.101   7.693  0.00  0.00    -0.314 N 
ATOM     18  H   LIG    1       25.775 -21.983   8.690  0.00  0.00    +0.152 HD
BRANCH  17  19
ATOM     19  C   LIG    1       25.321 -23.245   7.175  0.00  0.00    +0.032 A 
ATOM     20  C   LIG    1       26.009 -24.349   6.662  0.00  0.00    +0.035 A 
ATOM     21  C   LIG    1       25.315 -25.463   6.141  0.00  0.00    +0.057 A 
ATOM     22  C   LIG    1       23.914 -25.448   6.118  0.00  0.00    +0.012 A 
ATOM     23  C   LIG    1       23.218 -24.349   6.612  0.00  0.00    +0.002 A 
ATOM     24  C   LIG    1       23.919 -23.262   7.135  0.00  0.00    +0.023 A 
BRANCH  21  25
ATOM     25  C   LIG    1       26.081 -26.653   5.620  0.00  0.00    +0.417 C 
ATOM     26  F   LIG    1       25.948 -26.813   4.275  0.00  0.00    -0.166 F 
ATOM     27  F   LIG    1       25.670 -27.824   6.181  0.00  0.00    -0.166 F 
ATOM     28  F   LIG    1       27.423 -26.582   5.854  0.00  0.00    -0.166 F 
ENDBRANCH  21  25
ENDBRANCH  17  19
ENDBRANCH   2  17
TORSDOF 11
ENDMDL
