MODEL 1
REMARK VINA RESULT:      -3.5      0.000      0.000
REMARK  Name = *****
REMARK                            x       y       z     vdW  Elec       q    Type
REMARK                         _______ _______ _______ _____ _____    ______ ____
ROOT
ATOM      1  C   LIG    1       22.034 -19.015   3.915  0.00  0.00    +0.009 A 
ATOM      2  C   LIG    1       23.390 -18.683   3.748  0.00  0.00    +0.039 A 
ATOM      3  C   LIG    1       24.431 -19.273   4.509  0.00  0.00    +0.049 A 
ATOM      4  N   LIG    1       25.808 -18.911   4.357  0.00  0.00    -0.298 N 
ATOM      5  C   LIG    1       26.896 -19.455   5.109  0.00  0.00    +0.048 A 
ATOM      6  C   LIG    1       26.701 -20.452   6.089  0.00  0.00    +0.034 A 
ATOM      7  S   LIG    1       25.123 -21.147   6.499  0.00  0.00    -0.086 S 
ATOM      8  C   LIG    1       27.784 -20.974   6.827  0.00  0.00    +0.017 A 
ATOM      9  C   LIG    1       29.081 -20.530   6.621  0.00  0.00    +0.001 A 
ATOM     10  C   LIG    1       29.307 -19.550   5.670  0.00  0.00    +0.002 A 
ATOM     11  C   LIG    1       28.234 -19.031   4.936  0.00  0.00    +0.024 A 
ATOM     12  C   LIG    1       24.018 -20.245   5.446  0.00  0.00    +0.034 A 
ATOM     13  C   LIG    1       22.658 -20.586   5.605  0.00  0.00    +0.018 A 
ATOM     14  C   LIG    1       21.670 -19.975   4.845  0.00  0.00    +0.016 A 
ENDROOT
BRANCH   1  16
ATOM     15  C   LIG    1       19.365 -19.260   3.371  0.00  0.00    +0.090 C 
ATOM     16  S   LIG    1       20.784 -18.231   2.911  0.00  0.00    -0.129 S 
ENDBRANCH   1  16
BRANCH   4  17
ATOM     17  C   LIG    1       26.152 -17.919   3.300  0.00  0.00    +0.112 C 
BRANCH  17  18
ATOM     18  C   LIG    1       26.782 -16.651   3.905  0.00  0.00    +0.038 C 
BRANCH  18  19
ATOM     19  C   LIG    1       26.060 -15.322   3.545  0.00  0.00    +0.058 C 
ATOM     20  N   LIG    1       26.696 -14.107   4.118  0.00  0.00    -0.302 NA
ATOM     21  C   LIG    1       28.073 -13.926   3.633  0.00  0.00    +0.105 C 
ATOM     22  C   LIG    1       25.932 -12.888   3.781  0.00  0.00    +0.084 C 
ATOM     23  C   LIG    1       24.492 -12.961   4.274  0.00  0.00    +0.015 C 
ATOM     24  C   LIG    1       23.785 -14.154   3.658  0.00  0.00    +0.003 C 
ATOM     25  C   LIG    1       24.571 -15.423   3.955  0.00  0.00    +0.019 C 
ENDBRANCH  18  19
ENDBRANCH  17  18
ENDBRANCH   4  17
TORSDOF 4
ENDMDL
MODEL 2
REMARK VINA RESULT:      -2.1      1.384      4.862
REMARK  Name = *****
REMARK                            x       y       z     vdW  Elec       q    Type
REMARK                         _______ _______ _______ _____ _____    ______ ____
ROOT
ATOM      1  C   LIG    1       27.670 -20.353   6.067  0.00  0.00    +0.009 A 
ATOM      2  C   LIG    1       26.862 -19.627   5.174  0.00  0.00    +0.039 A 
ATOM      3  C   LIG    1       25.455 -19.785   5.100  0.00  0.00    +0.049 A 
ATOM      4  N   LIG    1       24.638 -19.066   4.169  0.00  0.00    -0.298 N 
ATOM      5  C   LIG    1       23.221 -19.198   4.034  0.00  0.00    +0.048 A 
ATOM      6  C   LIG    1       22.471 -20.068   4.855  0.00  0.00    +0.034 A 
ATOM      7  S   LIG    1       23.171 -21.076   6.134  0.00  0.00    -0.086 S 
ATOM      8  C   LIG    1       21.075 -20.192   4.706  0.00  0.00    +0.017 A 
ATOM      9  C   LIG    1       20.381 -19.469   3.748  0.00  0.00    +0.001 A 
ATOM     10  C   LIG    1       21.088 -18.609   2.922  0.00  0.00    +0.002 A 
ATOM     11  C   LIG    1       22.473 -18.483   3.069  0.00  0.00    +0.024 A 
ATOM     12  C   LIG    1       24.902 -20.716   6.007  0.00  0.00    +0.034 A 
ATOM     13  C   LIG    1       25.712 -21.435   6.911  0.00  0.00    +0.018 A 
ATOM     14  C   LIG    1       27.089 -21.257   6.942  0.00  0.00    +0.016 A 
ENDROOT
BRANCH   1  16
ATOM     15  C   LIG    1       29.475 -18.365   5.550  0.00  0.00    +0.090 C 
ATOM     16  S   LIG    1       29.435 -20.090   6.103  0.00  0.00    -0.129 S 
ENDBRANCH   1  16
BRANCH   4  17
ATOM     17  C   LIG    1       25.305 -18.062   3.294  0.00  0.00    +0.112 C 
BRANCH  17  18
ATOM     18  C   LIG    1       25.856 -16.880   4.112  0.00  0.00    +0.038 C 
BRANCH  18  19
ATOM     19  C   LIG    1       25.432 -15.474   3.604  0.00  0.00    +0.058 C 
ATOM     20  N   LIG    1       26.330 -14.371   4.039  0.00  0.00    -0.302 NA
ATOM     21  C   LIG    1       27.701 -14.550   3.540  0.00  0.00    +0.105 C 
ATOM     22  C   LIG    1       25.841 -13.060   3.565  0.00  0.00    +0.084 C 
ATOM     23  C   LIG    1       24.431 -12.761   4.059  0.00  0.00    +0.015 C 
ATOM     24  C   LIG    1       23.468 -13.832   3.580  0.00  0.00    +0.003 C 
ATOM     25  C   LIG    1       23.966 -15.201   4.019  0.00  0.00    +0.019 C 
ENDBRANCH  18  19
ENDBRANCH  17  18
ENDBRANCH   4  17
TORSDOF 4
ENDMDL
MODEL 3
REMARK VINA RESULT:      -1.2      1.631      5.582
REMARK  Name = *****
REMARK                            x       y       z     vdW  Elec       q    Type
REMARK                         _______ _______ _______ _____ _____    ______ ____
ROOT
ATOM      1  C   LIG    1       22.096 -18.872   4.178  0.00  0.00    +0.009 A 
ATOM      2  C   LIG    1       23.430 -18.542   3.881  0.00  0.00    +0.039 A 
ATOM      3  C   LIG    1       23.923 -17.213   3.903  0.00  0.00    +0.049 A 
ATOM      4  N   LIG    1       25.275 -16.878   3.571  0.00  0.00    -0.298 N 
ATOM      5  C   LIG    1       25.822 -15.557   3.555  0.00  0.00    +0.048 A 
ATOM      6  C   LIG    1       25.051 -14.426   3.901  0.00  0.00    +0.034 A 
ATOM      7  S   LIG    1       23.351 -14.497   4.396  0.00  0.00    -0.086 S 
ATOM      8  C   LIG    1       25.603 -13.129   3.876  0.00  0.00    +0.017 A 
ATOM      9  C   LIG    1       26.922 -12.910   3.508  0.00  0.00    +0.001 A 
ATOM     10  C   LIG    1       27.705 -13.998   3.158  0.00  0.00    +0.002 A 
ATOM     11  C   LIG    1       27.160 -15.286   3.184  0.00  0.00    +0.024 A 
ATOM     12  C   LIG    1       22.982 -16.226   4.268  0.00  0.00    +0.034 A 
ATOM     13  C   LIG    1       21.646 -16.558   4.577  0.00  0.00    +0.018 A 
ATOM     14  C   LIG    1       21.203 -17.873   4.533  0.00  0.00    +0.016 A 
ENDROOT
BRANCH   1  16
ATOM     15  C   LIG    1       22.426 -21.182   5.603  0.00  0.00    +0.090 C 
ATOM     16  S   LIG    1       21.556 -20.573   4.135  0.00  0.00    -0.129 S 
ENDBRANCH   1  16
BRANCH   4  17
ATOM     17  C   LIG    1       26.209 -17.995   3.257  0.00  0.00    +0.112 C 
BRANCH  17  18
ATOM     18  C   LIG    1       25.898 -19.242   4.105  0.00  0.00    +0.038 C 
BRANCH  18  19
ATOM     19  C   LIG    1       27.111 -19.829   4.879  0.00  0.00    +0.058 C 
ATOM     20  N   LIG    1       26.783 -20.328   6.241  0.00  0.00    -0.302 NA
ATOM     21  C   LIG    1       25.800 -21.421   6.204  0.00  0.00    +0.105 C 
ATOM     22  C   LIG    1       27.987 -20.824   6.938  0.00  0.00    +0.084 C 
ATOM     23  C   LIG    1       29.061 -19.749   7.060  0.00  0.00    +0.015 C 
ATOM     24  C   LIG    1       29.474 -19.259   5.685  0.00  0.00    +0.003 C 
ATOM     25  C   LIG    1       28.246 -18.778   4.924  0.00  0.00    +0.019 C 
ENDBRANCH  18  19
ENDBRANCH  17  18
ENDBRANCH   4  17
TORSDOF 4
ENDMDL
MODEL 4
REMARK VINA RESULT:      -1.1      1.987      5.964
REMARK  Name = *****
REMARK                            x       y       z     vdW  Elec       q    Type
REMARK                         _______ _______ _______ _____ _____    ______ ____
ROOT
ATOM      1  C   LIG    1       25.312 -14.531   3.385  0.00  0.00    +0.009 A 
ATOM      2  C   LIG    1       25.481 -15.927   3.378  0.00  0.00    +0.039 A 
ATOM      3  C   LIG    1       24.450 -16.834   3.732  0.00  0.00    +0.049 A 
ATOM      4  N   LIG    1       24.635 -18.253   3.752  0.00  0.00    -0.298 N 
ATOM      5  C   LIG    1       23.642 -19.214   4.120  0.00  0.00    +0.048 A 
ATOM      6  C   LIG    1       22.334 -18.831   4.488  0.00  0.00    +0.034 A 
ATOM      7  S   LIG    1       21.766 -17.153   4.533  0.00  0.00    -0.086 S 
ATOM      8  C   LIG    1       21.366 -19.789   4.854  0.00  0.00    +0.017 A 
ATOM      9  C   LIG    1       21.659 -21.145   4.869  0.00  0.00    +0.001 A 
ATOM     10  C   LIG    1       22.935 -21.554   4.517  0.00  0.00    +0.002 A 
ATOM     11  C   LIG    1       23.896 -20.605   4.152  0.00  0.00    +0.024 A 
ATOM     12  C   LIG    1       23.217 -16.241   4.078  0.00  0.00    +0.034 A 
ATOM     13  C   LIG    1       23.044 -14.841   4.074  0.00  0.00    +0.018 A 
ATOM     14  C   LIG    1       24.084 -13.988   3.731  0.00  0.00    +0.016 A 
ENDROOT
BRANCH   1  16
ATOM     15  C   LIG    1       27.940 -14.115   4.018  0.00  0.00    +0.090 C 
ATOM     16  S   LIG    1       26.659 -13.457   2.918  0.00  0.00    -0.129 S 
ENDBRANCH   1  16
BRANCH   4  17
ATOM     17  C   LIG    1       25.955 -18.787   3.312  0.00  0.00    +0.112 C 
BRANCH  17  18
ATOM     18  C   LIG    1       26.421 -19.944   4.215  0.00  0.00    +0.038 C 
BRANCH  18  19
ATOM     19  C   LIG    1       27.760 -19.694   4.964  0.00  0.00    +0.058 C 
ATOM     20  N   LIG    1       27.736 -20.078   6.400  0.00  0.00    -0.302 NA
ATOM     21  C   LIG    1       27.470 -21.513   6.581  0.00  0.00    +0.105 C 
ATOM     22  C   LIG    1       29.021 -19.768   7.062  0.00  0.00    +0.084 C 
ATOM     23  C   LIG    1       29.374 -18.289   6.960  0.00  0.00    +0.015 C 
ATOM     24  C   LIG    1       29.474 -17.871   5.504  0.00  0.00    +0.003 C 
ATOM     25  C   LIG    1       28.178 -18.215   4.784  0.00  0.00    +0.019 C 
ENDBRANCH  18  19
ENDBRANCH  17  18
ENDBRANCH   4  17
TORSDOF 4
ENDMDL
