MODEL 1
REMARK VINA RESULT:      -7.3      0.000      0.000
REMARK  Name = *****
REMARK                            x       y       z     vdW  Elec       q    Type
REMARK                         _______ _______ _______ _____ _____    ______ ____
ROOT
ATOM      1  C   LIG    1       31.059 -20.753   8.801  0.00  0.00    +0.162 A 
ATOM      2  C   LIG    1       30.197 -20.294   7.777  0.00  0.00    +0.026 A 
ATOM      3  C   LIG    1       30.392 -18.982   7.302  0.00  0.00    +0.005 A 
ATOM      4  C   LIG    1       29.576 -18.468   6.277  0.00  0.00    +0.010 A 
ATOM      5  C   LIG    1       28.559 -19.243   5.723  0.00  0.00    +0.001 A 
ATOM      6  C   LIG    1       28.342 -20.535   6.188  0.00  0.00    +0.001 A 
ATOM      7  C   LIG    1       31.402 -18.222   7.880  0.00  0.00    +0.143 A 
ATOM      8  N   LIG    1       32.194 -18.677   8.868  0.00  0.00    -0.155 NA
ATOM      9  C   LIG    1       29.147 -21.055   7.204  0.00  0.00    +0.012 A 
ATOM     10  N   LIG    1       32.013 -19.945   9.332  0.00  0.00    -0.133 NA
ENDROOT
BRANCH   1  11
ATOM     11  N   LIG    1       30.909 -22.083   9.308  0.00  0.00    -0.266 N 
ATOM     12  H   LIG    1       29.929 -22.357   9.202  0.00  0.00    +0.168 HD
BRANCH  11  13
ATOM     13  N   LIG    1       31.823 -23.062   8.829  0.00  0.00    -0.255 NA
ATOM     14  H   LIG    1       31.622 -23.963   9.281  0.00  0.00    +0.140 HD
ATOM     15  H   LIG    1       31.611 -23.245   7.841  0.00  0.00    +0.140 HD
ENDBRANCH  11  13
ENDBRANCH   1  11
TORSDOF 2
ENDMDL
MODEL 2
REMARK VINA RESULT:      -7.0      4.171      5.471
REMARK  Name = *****
REMARK                            x       y       z     vdW  Elec       q    Type
REMARK                         _______ _______ _______ _____ _____    ______ ____
ROOT
ATOM      1  C   LIG    1       27.180 -20.376   6.368  0.00  0.00    +0.162 A 
ATOM      2  C   LIG    1       25.778 -20.484   6.214  0.00  0.00    +0.026 A 
ATOM      3  C   LIG    1       25.015 -20.741   7.371  0.00  0.00    +0.005 A 
ATOM      4  C   LIG    1       23.614 -20.849   7.288  0.00  0.00    +0.010 A 
ATOM      5  C   LIG    1       22.961 -20.713   6.065  0.00  0.00    +0.001 A 
ATOM      6  C   LIG    1       23.698 -20.473   4.911  0.00  0.00    +0.001 A 
ATOM      7  C   LIG    1       25.688 -20.889   8.577  0.00  0.00    +0.143 A 
ATOM      8  N   LIG    1       27.027 -20.802   8.691  0.00  0.00    -0.155 NA
ATOM      9  C   LIG    1       25.089 -20.363   4.982  0.00  0.00    +0.012 A 
ATOM     10  N   LIG    1       27.772 -20.552   7.577  0.00  0.00    -0.133 NA
ENDROOT
BRANCH   1  11
ATOM     11  N   LIG    1       27.997 -20.103   5.224  0.00  0.00    -0.266 N 
ATOM     12  H   LIG    1       27.447 -20.297   4.384  0.00  0.00    +0.168 HD
BRANCH  11  13
ATOM     13  N   LIG    1       28.655 -18.842   5.189  0.00  0.00    -0.255 NA
ATOM     14  H   LIG    1       29.018 -18.623   6.125  0.00  0.00    +0.140 HD
ATOM     15  H   LIG    1       29.507 -18.939   4.625  0.00  0.00    +0.140 HD
ENDBRANCH  11  13
ENDBRANCH   1  11
TORSDOF 2
ENDMDL
MODEL 3
REMARK VINA RESULT:      -7.0      0.955      2.947
REMARK  Name = *****
REMARK                            x       y       z     vdW  Elec       q    Type
REMARK                         _______ _______ _______ _____ _____    ______ ____
ROOT
ATOM      1  C   LIG    1       31.561 -19.232   8.215  0.00  0.00    +0.162 A 
ATOM      2  C   LIG    1       30.425 -19.449   7.401  0.00  0.00    +0.026 A 
ATOM      3  C   LIG    1       29.649 -20.597   7.659  0.00  0.00    +0.005 A 
ATOM      4  C   LIG    1       28.500 -20.866   6.893  0.00  0.00    +0.010 A 
ATOM      5  C   LIG    1       28.117 -20.009   5.863  0.00  0.00    +0.001 A 
ATOM      6  C   LIG    1       28.877 -18.880   5.583  0.00  0.00    +0.001 A 
ATOM      7  C   LIG    1       30.059 -21.445   8.681  0.00  0.00    +0.143 A 
ATOM      8  N   LIG    1       31.158 -21.224   9.427  0.00  0.00    -0.155 NA
ATOM      9  C   LIG    1       30.018 -18.603   6.339  0.00  0.00    +0.012 A 
ATOM     10  N   LIG    1       31.913 -20.116   9.184  0.00  0.00    -0.133 NA
ENDROOT
BRANCH   1  11
ATOM     11  N   LIG    1       32.374 -18.074   7.999  0.00  0.00    -0.266 N 
ATOM     12  H   LIG    1       32.342 -17.842   7.003  0.00  0.00    +0.168 HD
BRANCH  11  13
ATOM     13  N   LIG    1       32.140 -16.955   8.846  0.00  0.00    -0.255 NA
ATOM     14  H   LIG    1       31.962 -16.124   8.268  0.00  0.00    +0.140 HD
ATOM     15  H   LIG    1       31.246 -17.098   9.330  0.00  0.00    +0.140 HD
ENDBRANCH  11  13
ENDBRANCH   1  11
TORSDOF 2
ENDMDL
MODEL 4
REMARK VINA RESULT:      -7.0      1.775      2.671
REMARK  Name = *****
REMARK                            x       y       z     vdW  Elec       q    Type
REMARK                         _______ _______ _______ _____ _____    ______ ____
ROOT
ATOM      1  C   LIG    1       30.398 -20.063   7.314  0.00  0.00    +0.162 A 
ATOM      2  C   LIG    1       29.061 -20.484   7.123  0.00  0.00    +0.026 A 
ATOM      3  C   LIG    1       28.288 -19.784   6.175  0.00  0.00    +0.005 A 
ATOM      4  C   LIG    1       26.954 -20.160   5.929  0.00  0.00    +0.010 A 
ATOM      5  C   LIG    1       26.375 -21.220   6.623  0.00  0.00    +0.001 A 
ATOM      6  C   LIG    1       27.117 -21.913   7.572  0.00  0.00    +0.001 A 
ATOM      7  C   LIG    1       28.882 -18.721   5.506  0.00  0.00    +0.143 A 
ATOM      8  N   LIG    1       30.151 -18.328   5.723  0.00  0.00    -0.155 NA
ATOM      9  C   LIG    1       28.442 -21.549   7.823  0.00  0.00    +0.012 A 
ATOM     10  N   LIG    1       30.905 -19.000   6.638  0.00  0.00    -0.133 NA
ENDROOT
BRANCH   1  11
ATOM     11  N   LIG    1       31.227 -20.749   8.258  0.00  0.00    -0.266 N 
ATOM     12  H   LIG    1       31.833 -21.393   7.743  0.00  0.00    +0.168 HD
BRANCH  11  13
ATOM     13  N   LIG    1       31.929 -19.948   9.201  0.00  0.00    -0.255 NA
ATOM     14  H   LIG    1       32.678 -19.436   8.719  0.00  0.00    +0.140 HD
ATOM     15  H   LIG    1       31.302 -19.199   9.518  0.00  0.00    +0.140 HD
ENDBRANCH  11  13
ENDBRANCH   1  11
TORSDOF 2
ENDMDL
MODEL 5
REMARK VINA RESULT:      -6.9      5.330      6.799
REMARK  Name = *****
REMARK                            x       y       z     vdW  Elec       q    Type
REMARK                         _______ _______ _______ _____ _____    ______ ____
ROOT
ATOM      1  C   LIG    1       25.784 -21.747   7.756  0.00  0.00    +0.162 A 
ATOM      2  C   LIG    1       25.246 -22.959   7.265  0.00  0.00    +0.026 A 
ATOM      3  C   LIG    1       23.857 -23.009   7.034  0.00  0.00    +0.005 A 
ATOM      4  C   LIG    1       23.261 -24.182   6.535  0.00  0.00    +0.010 A 
ATOM      5  C   LIG    1       24.030 -25.314   6.270  0.00  0.00    +0.001 A 
ATOM      6  C   LIG    1       25.400 -25.289   6.504  0.00  0.00    +0.001 A 
ATOM      7  C   LIG    1       23.107 -21.875   7.320  0.00  0.00    +0.143 A 
ATOM      8  N   LIG    1       23.642 -20.740   7.807  0.00  0.00    -0.155 NA
ATOM      9  C   LIG    1       26.002 -24.129   6.998  0.00  0.00    +0.012 A 
ATOM     10  N   LIG    1       24.985 -20.684   8.032  0.00  0.00    -0.133 NA
ENDROOT
BRANCH   1  11
ATOM     11  N   LIG    1       27.191 -21.643   7.995  0.00  0.00    -0.266 N 
ATOM     12  H   LIG    1       27.683 -22.011   7.176  0.00  0.00    +0.168 HD
BRANCH  11  13
ATOM     13  N   LIG    1       27.680 -20.378   8.424  0.00  0.00    -0.255 NA
ATOM     14  H   LIG    1       26.935 -19.676   8.326  0.00  0.00    +0.140 HD
ATOM     15  H   LIG    1       27.831 -20.417   9.438  0.00  0.00    +0.140 HD
ENDBRANCH  11  13
ENDBRANCH   1  11
TORSDOF 2
ENDMDL
MODEL 6
REMARK VINA RESULT:      -6.7      5.685      7.178
REMARK  Name = *****
REMARK                            x       y       z     vdW  Elec       q    Type
REMARK                         _______ _______ _______ _____ _____    ______ ____
ROOT
ATOM      1  C   LIG    1       24.899 -24.525   6.732  0.00  0.00    +0.162 A 
ATOM      2  C   LIG    1       25.263 -23.203   7.079  0.00  0.00    +0.026 A 
ATOM      3  C   LIG    1       24.225 -22.262   7.234  0.00  0.00    +0.005 A 
ATOM      4  C   LIG    1       24.518 -20.932   7.589  0.00  0.00    +0.010 A 
ATOM      5  C   LIG    1       25.835 -20.522   7.783  0.00  0.00    +0.001 A 
ATOM      6  C   LIG    1       26.874 -21.432   7.620  0.00  0.00    +0.001 A 
ATOM      7  C   LIG    1       22.920 -22.690   7.021  0.00  0.00    +0.143 A 
ATOM      8  N   LIG    1       22.605 -23.950   6.671  0.00  0.00    -0.155 NA
ATOM      9  C   LIG    1       26.594 -22.754   7.270  0.00  0.00    +0.012 A 
ATOM     10  N   LIG    1       23.602 -24.866   6.519  0.00  0.00    -0.133 NA
ENDROOT
BRANCH   1  11
ATOM     11  N   LIG    1       25.917 -25.519   6.574  0.00  0.00    -0.266 N 
ATOM     12  H   LIG    1       25.777 -26.236   7.291  0.00  0.00    +0.168 HD
BRANCH  11  13
ATOM     13  N   LIG    1       26.097 -26.056   5.269  0.00  0.00    -0.255 NA
ATOM     14  H   LIG    1       26.964 -26.606   5.246  0.00  0.00    +0.140 HD
ATOM     15  H   LIG    1       25.369 -26.760   5.106  0.00  0.00    +0.140 HD
ENDBRANCH  11  13
ENDBRANCH   1  11
TORSDOF 2
ENDMDL
MODEL 7
REMARK VINA RESULT:      -6.6      5.715      7.070
REMARK  Name = *****
REMARK                            x       y       z     vdW  Elec       q    Type
REMARK                         _______ _______ _______ _____ _____    ______ ____
ROOT
ATOM      1  C   LIG    1       24.926 -20.114   4.603  0.00  0.00    +0.162 A 
ATOM      2  C   LIG    1       25.502 -20.406   5.861  0.00  0.00    +0.026 A 
ATOM      3  C   LIG    1       24.633 -20.790   6.902  0.00  0.00    +0.005 A 
ATOM      4  C   LIG    1       25.144 -21.104   8.175  0.00  0.00    +0.010 A 
ATOM      5  C   LIG    1       26.512 -21.032   8.429  0.00  0.00    +0.001 A 
ATOM      6  C   LIG    1       27.384 -20.642   7.420  0.00  0.00    +0.001 A 
ATOM      7  C   LIG    1       23.272 -20.840   6.629  0.00  0.00    +0.143 A 
ATOM      8  N   LIG    1       22.748 -20.536   5.427  0.00  0.00    -0.155 NA
ATOM      9  C   LIG    1       26.888 -20.329   6.152  0.00  0.00    +0.012 A 
ATOM     10  N   LIG    1       23.582 -20.165   4.415  0.00  0.00    -0.133 NA
ENDROOT
BRANCH   1  11
ATOM     11  N   LIG    1       25.769 -19.731   3.511  0.00  0.00    -0.266 N 
ATOM     12  H   LIG    1       25.470 -20.248   2.680  0.00  0.00    +0.168 HD
BRANCH  11  13
ATOM     13  N   LIG    1       25.929 -18.336   3.279  0.00  0.00    -0.255 NA
ATOM     14  H   LIG    1       26.917 -18.137   3.082  0.00  0.00    +0.140 HD
ATOM     15  H   LIG    1       25.462 -18.100   2.396  0.00  0.00    +0.140 HD
ENDBRANCH  11  13
ENDBRANCH   1  11
TORSDOF 2
ENDMDL
MODEL 8
REMARK VINA RESULT:      -6.5      4.744      6.238
REMARK  Name = *****
REMARK                            x       y       z     vdW  Elec       q    Type
REMARK                         _______ _______ _______ _____ _____    ______ ____
ROOT
ATOM      1  C   LIG    1       25.956 -21.175   6.666  0.00  0.00    +0.162 A 
ATOM      2  C   LIG    1       25.117 -20.531   5.728  0.00  0.00    +0.026 A 
ATOM      3  C   LIG    1       23.742 -20.457   6.027  0.00  0.00    +0.005 A 
ATOM      4  C   LIG    1       22.854 -19.819   5.141  0.00  0.00    +0.010 A 
ATOM      5  C   LIG    1       23.317 -19.260   3.951  0.00  0.00    +0.001 A 
ATOM      6  C   LIG    1       24.668 -19.336   3.631  0.00  0.00    +0.001 A 
ATOM      7  C   LIG    1       23.301 -21.034   7.212  0.00  0.00    +0.143 A 
ATOM      8  N   LIG    1       24.119 -21.660   8.077  0.00  0.00    -0.155 NA
ATOM      9  C   LIG    1       25.557 -19.965   4.505  0.00  0.00    +0.012 A 
ATOM     10  N   LIG    1       25.450 -21.736   7.795  0.00  0.00    -0.133 NA
ENDROOT
BRANCH   1  11
ATOM     11  N   LIG    1       27.362 -21.266   6.412  0.00  0.00    -0.266 N 
ATOM     12  H   LIG    1       27.634 -20.469   5.832  0.00  0.00    +0.168 HD
BRANCH  11  13
ATOM     13  N   LIG    1       28.209 -21.457   7.539  0.00  0.00    -0.255 NA
ATOM     14  H   LIG    1       29.063 -21.944   7.242  0.00  0.00    +0.140 HD
ATOM     15  H   LIG    1       28.556 -20.540   7.841  0.00  0.00    +0.140 HD
ENDBRANCH  11  13
ENDBRANCH   1  11
TORSDOF 2
ENDMDL
MODEL 9
REMARK VINA RESULT:      -6.3      5.167      6.362
REMARK  Name = *****
REMARK                            x       y       z     vdW  Elec       q    Type
REMARK                         _______ _______ _______ _____ _____    ______ ____
ROOT
ATOM      1  C   LIG    1       26.123 -19.868   4.801  0.00  0.00    +0.162 A 
ATOM      2  C   LIG    1       25.144 -20.508   5.596  0.00  0.00    +0.026 A 
ATOM      3  C   LIG    1       25.535 -20.959   6.873  0.00  0.00    +0.005 A 
ATOM      4  C   LIG    1       24.606 -21.594   7.718  0.00  0.00    +0.010 A 
ATOM      5  C   LIG    1       23.291 -21.795   7.305  0.00  0.00    +0.001 A 
ATOM      6  C   LIG    1       22.889 -21.369   6.044  0.00  0.00    +0.001 A 
ATOM      7  C   LIG    1       26.856 -20.762   7.258  0.00  0.00    +0.143 A 
ATOM      8  N   LIG    1       27.773 -20.168   6.472  0.00  0.00    -0.155 NA
ATOM      9  C   LIG    1       23.803 -20.737   5.198  0.00  0.00    +0.012 A 
ATOM     10  N   LIG    1       27.402 -19.729   5.236  0.00  0.00    -0.133 NA
ENDROOT
BRANCH   1  11
ATOM     11  N   LIG    1       25.772 -19.382   3.502  0.00  0.00    -0.266 N 
ATOM     12  H   LIG    1       24.787 -19.604   3.333  0.00  0.00    +0.168 HD
BRANCH  11  13
ATOM     13  N   LIG    1       26.102 -18.029   3.209  0.00  0.00    -0.255 NA
ATOM     14  H   LIG    1       26.510 -17.977   2.267  0.00  0.00    +0.140 HD
ATOM     15  H   LIG    1       25.229 -17.497   3.114  0.00  0.00    +0.140 HD
ENDBRANCH  11  13
ENDBRANCH   1  11
TORSDOF 2
ENDMDL
