MODEL 1
REMARK VINA RESULT:      -8.3      0.000      0.000
REMARK  Name = *****
REMARK                            x       y       z     vdW  Elec       q    Type
REMARK                         _______ _______ _______ _____ _____    ______ ____
ROOT
ATOM      1  C   LIG    1       25.152 -27.045   6.543  0.00  0.00    +0.160 C 
ENDROOT
BRANCH   1   2
ATOM      2  N   LIG    1       25.461 -25.591   6.385  0.00  0.00    -0.302 N 
ATOM      3  H   LIG    1       26.369 -25.261   6.719  0.00  0.00    +0.149 HD
ATOM      4  C   LIG    1       24.405 -24.692   6.426  0.00  0.00    +0.234 C 
ATOM      5  O   LIG    1       23.265 -25.140   6.533  0.00  0.00    -0.274 OA
BRANCH   4   6
ATOM      6  C   LIG    1       24.681 -23.164   6.301  0.00  0.00    +0.163 C 
BRANCH   6   7
ATOM      7  N   LIG    1       26.097 -22.924   6.663  0.00  0.00    -0.304 N 
ATOM      8  H   LIG    1       26.791 -23.338   6.047  0.00  0.00    +0.149 HD
ATOM      9  C   LIG    1       26.462 -21.791   7.362  0.00  0.00    +0.215 C 
ATOM     10  O   LIG    1       25.627 -20.997   7.789  0.00  0.00    -0.276 OA
BRANCH   9  11
ATOM     11  C   LIG    1       27.966 -21.648   7.562  0.00  0.00    +0.114 C 
BRANCH  11  12
ATOM     12  C   LIG    1       28.612 -20.542   6.739  0.00  0.00    +0.117 C 
BRANCH  12  13
ATOM     13  N   LIG    1       28.882 -19.357   7.525  0.00  0.00    -0.281 N 
ATOM     14  H   LIG    1       28.419 -19.200   8.426  0.00  0.00    +0.152 HD
ATOM     15  C   LIG    1       29.955 -18.552   7.280  0.00  0.00    +0.401 C 
ATOM     16  O   LIG    1       30.753 -18.682   6.316  0.00  0.00    -0.227 OA
BRANCH  15  17
ATOM     17  O   LIG    1       30.080 -17.670   8.253  0.00  0.00    -0.445 OA
BRANCH  17  18
ATOM     18  C   LIG    1       31.014 -17.927   9.329  0.00  0.00    +0.107 C 
ATOM     19  C   LIG    1       30.348 -17.537  10.656  0.00  0.00    +0.055 C 
ATOM     20  C   LIG    1       32.221 -17.010   9.146  0.00  0.00    +0.055 C 
ATOM     21  C   LIG    1       31.516 -19.387   9.296  0.00  0.00    +0.055 C 
ENDBRANCH  17  18
ENDBRANCH  15  17
ENDBRANCH  12  13
ENDBRANCH  11  12
ENDBRANCH   9  11
ENDBRANCH   6   7
BRANCH   6  22
ATOM     22  C   LIG    1       24.431 -22.600   4.873  0.00  0.00    +0.069 C 
BRANCH  22  23
ATOM     23  C   LIG    1       23.709 -21.282   4.778  0.00  0.00    -0.020 C 
ATOM     24  C   LIG    1       24.257 -20.020   4.357  0.00  0.00    +0.003 C 
ATOM     25  C   LIG    1       23.239 -19.069   4.431  0.00  0.00    +0.047 C 
ATOM     26  C   LIG    1       23.421 -17.728   4.060  0.00  0.00    +0.026 C 
ATOM     27  C   LIG    1       24.658 -17.368   3.516  0.00  0.00    +0.002 C 
ATOM     28  C   LIG    1       25.688 -18.296   3.410  0.00  0.00    +0.001 C 
ATOM     29  N   LIG    1       22.118 -19.716   4.889  0.00  0.00    -0.360 NA
ATOM     30  H   LIG    1       21.215 -19.274   4.998  0.00  0.00    +0.165 HD
ATOM     31  C   LIG    1       25.518 -19.599   3.884  0.00  0.00    +0.010 C 
ATOM     32  C   LIG    1       22.384 -21.045   5.093  0.00  0.00    +0.087 C 
ENDBRANCH  22  23
ENDBRANCH   6  22
ENDBRANCH   4   6
ENDBRANCH   1   2
BRANCH   1  33
ATOM     33  C   LIG    1       26.122 -27.743   7.543  0.00  0.00    +0.234 C 
ATOM     34  N   LIG    1       25.552 -28.603   8.501  0.00  0.00    -0.302 N 
ATOM     35  H   LIG    1       24.703 -29.104   8.237  0.00  0.00    +0.149 HD
ATOM     36  O   LIG    1       27.312 -27.436   7.547  0.00  0.00    -0.274 OA
BRANCH  34  37
ATOM     37  C   LIG    1       26.336 -29.412   9.462  0.00  0.00    +0.169 C 
BRANCH  37  38
ATOM     38  C   LIG    1       25.399 -30.535  10.031  0.00  0.00    +0.234 C 
ATOM     39  N   LIG    1       24.269 -30.141  10.719  0.00  0.00    -0.302 N 
ATOM     40  H   LIG    1       24.075 -29.169  10.908  0.00  0.00    +0.149 HD
ATOM     41  O   LIG    1       25.578 -31.707   9.688  0.00  0.00    -0.274 OA
BRANCH  39  42
ATOM     42  C   LIG    1       23.300 -31.045  11.354  0.00  0.00    +0.163 C 
BRANCH  42  43
ATOM     43  C   LIG    1       22.310 -31.610  10.290  0.00  0.00    +0.231 C 
ATOM     44  O   LIG    1       21.301 -31.019   9.903  0.00  0.00    -0.274 OA
ATOM     45  N   LIG    1       22.621 -32.814   9.719  0.00  0.00    -0.328 N 
ATOM     46  H   LIG    1       21.924 -33.207   9.097  0.00  0.00    +0.145 HD
ATOM     47  H   LIG    1       23.409 -33.396   9.965  0.00  0.00    +0.145 HD
ENDBRANCH  42  43
BRANCH  42  48
ATOM     48  C   LIG    1       22.527 -30.480  12.551  0.00  0.00    +0.067 C 
BRANCH  48  49
ATOM     49  C   LIG    1       22.356 -29.008  12.861  0.00  0.00    -0.045 C 
ATOM     50  C   LIG    1       21.034 -28.534  12.709  0.00  0.00    +0.003 C 
ATOM     51  C   LIG    1       20.686 -27.210  12.960  0.00  0.00    +0.000 C 
ATOM     52  C   LIG    1       21.679 -26.315  13.343  0.00  0.00    +0.000 C 
ATOM     53  C   LIG    1       22.998 -26.757  13.493  0.00  0.00    +0.000 C 
ATOM     54  C   LIG    1       23.338 -28.106  13.276  0.00  0.00    +0.003 C 
ENDBRANCH  48  49
ENDBRANCH  42  48
ENDBRANCH  39  42
ENDBRANCH  37  38
BRANCH  37  55
ATOM     55  C   LIG    1       27.063 -28.593  10.515  0.00  0.00    +0.152 C 
BRANCH  55  56
ATOM     56  C   LIG    1       27.829 -29.412  11.531  0.00  0.00    +0.307 C 
ATOM     57  O   LIG    1       27.270 -30.062  12.406  0.00  0.00    -0.251 OA
BRANCH  56  58
ATOM     58  O   LIG    1       29.180 -29.292  11.525  0.00  0.00    -0.481 OA
ATOM     59  H   LIG    1       29.536 -28.400  11.731  0.00  0.00    +0.295 HD
ENDBRANCH  56  58
ENDBRANCH  55  56
ENDBRANCH  37  55
ENDBRANCH  34  37
ENDBRANCH   1  33
BRANCH   1  60
ATOM     60  C   LIG    1       25.099 -27.794   5.197  0.00  0.00    +0.042 C 
BRANCH  60  61
ATOM     61  C   LIG    1       24.213 -29.024   5.340  0.00  0.00    +0.071 C 
BRANCH  61  63
ATOM     62  C   LIG    1       24.124 -31.487   6.461  0.00  0.00    +0.084 C 
ATOM     63  S   LIG    1       25.216 -30.526   5.391  0.00  0.00    -0.164 S 
ENDBRANCH  61  63
ENDBRANCH  60  61
ENDBRANCH   1  60
TORSDOF 23
ENDMDL
MODEL 2
REMARK VINA RESULT:      -8.2      3.526      7.209
REMARK  Name = *****
REMARK                            x       y       z     vdW  Elec       q    Type
REMARK                         _______ _______ _______ _____ _____    ______ ____
ROOT
ATOM      1  C   LIG    1       24.019 -32.527   6.132  0.00  0.00    +0.160 C 
ENDROOT
BRANCH   1   2
ATOM      2  N   LIG    1       24.899 -31.388   6.537  0.00  0.00    -0.302 N 
ATOM      3  H   LIG    1       25.521 -31.531   7.335  0.00  0.00    +0.149 HD
ATOM      4  C   LIG    1       24.439 -30.097   6.314  0.00  0.00    +0.234 C 
ATOM      5  O   LIG    1       23.359 -29.956   5.744  0.00  0.00    -0.274 OA
BRANCH   4   6
ATOM      6  C   LIG    1       25.305 -28.879   6.752  0.00  0.00    +0.163 C 
BRANCH   6   7
ATOM      7  N   LIG    1       24.857 -27.697   5.980  0.00  0.00    -0.304 N 
ATOM      8  H   LIG    1       23.903 -27.391   6.147  0.00  0.00    +0.149 HD
ATOM      9  C   LIG    1       25.765 -26.747   5.557  0.00  0.00    +0.215 C 
ATOM     10  O   LIG    1       26.974 -26.891   5.720  0.00  0.00    -0.276 OA
BRANCH   9  11
ATOM     11  C   LIG    1       25.126 -25.547   4.868  0.00  0.00    +0.114 C 
BRANCH  11  12
ATOM     12  C   LIG    1       25.208 -24.247   5.654  0.00  0.00    +0.117 C 
BRANCH  12  13
ATOM     13  N   LIG    1       24.627 -23.132   4.937  0.00  0.00    -0.281 N 
ATOM     14  H   LIG    1       23.796 -23.254   4.349  0.00  0.00    +0.152 HD
ATOM     15  C   LIG    1       24.944 -21.838   5.225  0.00  0.00    +0.401 C 
ATOM     16  O   LIG    1       25.822 -21.473   6.050  0.00  0.00    -0.227 OA
BRANCH  15  17
ATOM     17  O   LIG    1       24.134 -21.026   4.573  0.00  0.00    -0.445 OA
BRANCH  17  18
ATOM     18  C   LIG    1       22.976 -20.483   5.251  0.00  0.00    +0.107 C 
ATOM     19  C   LIG    1       23.196 -20.604   6.765  0.00  0.00    +0.055 C 
ATOM     20  C   LIG    1       21.766 -21.347   4.902  0.00  0.00    +0.055 C 
ATOM     21  C   LIG    1       22.682 -19.040   4.785  0.00  0.00    +0.055 C 
ENDBRANCH  17  18
ENDBRANCH  15  17
ENDBRANCH  12  13
ENDBRANCH  11  12
ENDBRANCH   9  11
ENDBRANCH   6   7
BRANCH   6  22
ATOM     22  C   LIG    1       25.197 -28.551   8.269  0.00  0.00    +0.069 C 
BRANCH  22  23
ATOM     23  C   LIG    1       26.200 -29.209   9.180  0.00  0.00    -0.020 C 
ATOM     24  C   LIG    1       26.711 -28.696  10.423  0.00  0.00    +0.003 C 
ATOM     25  C   LIG    1       27.620 -29.627  10.926  0.00  0.00    +0.047 C 
ATOM     26  C   LIG    1       28.288 -29.457  12.148  0.00  0.00    +0.026 C 
ATOM     27  C   LIG    1       27.951 -28.343  12.921  0.00  0.00    +0.002 C 
ATOM     28  C   LIG    1       27.033 -27.405  12.460  0.00  0.00    +0.001 C 
ATOM     29  N   LIG    1       27.675 -30.661  10.024  0.00  0.00    -0.360 NA
ATOM     30  H   LIG    1       28.226 -31.499  10.157  0.00  0.00    +0.165 HD
ATOM     31  C   LIG    1       26.461 -27.540  11.192  0.00  0.00    +0.010 C 
ATOM     32  C   LIG    1       26.822 -30.427   8.977  0.00  0.00    +0.087 C 
ENDBRANCH  22  23
ENDBRANCH   6  22
ENDBRANCH   4   6
ENDBRANCH   1   2
BRANCH   1  33
ATOM     33  C   LIG    1       23.229 -33.112   7.341  0.00  0.00    +0.234 C 
ATOM     34  N   LIG    1       23.768 -32.907   8.625  0.00  0.00    -0.302 N 
ATOM     35  H   LIG    1       24.303 -32.052   8.779  0.00  0.00    +0.149 HD
ATOM     36  O   LIG    1       22.249 -33.824   7.135  0.00  0.00    -0.274 OA
BRANCH  34  37
ATOM     37  C   LIG    1       23.099 -33.317   9.881  0.00  0.00    +0.169 C 
BRANCH  37  38
ATOM     38  C   LIG    1       22.158 -32.145  10.335  0.00  0.00    +0.234 C 
ATOM     39  N   LIG    1       21.556 -32.248  11.573  0.00  0.00    -0.302 N 
ATOM     40  H   LIG    1       21.662 -33.072  12.148  0.00  0.00    +0.149 HD
ATOM     41  O   LIG    1       22.137 -31.097   9.685  0.00  0.00    -0.274 OA
BRANCH  39  42
ATOM     42  C   LIG    1       20.617 -31.274  12.147  0.00  0.00    +0.163 C 
BRANCH  42  43
ATOM     43  C   LIG    1       19.151 -31.783  11.996  0.00  0.00    +0.231 C 
ATOM     44  O   LIG    1       18.797 -32.944  12.207  0.00  0.00    -0.274 OA
ATOM     45  N   LIG    1       18.197 -30.861  11.660  0.00  0.00    -0.328 N 
ATOM     46  H   LIG    1       17.269 -31.224  11.480  0.00  0.00    +0.145 HD
ATOM     47  H   LIG    1       18.369 -29.888  11.448  0.00  0.00    +0.145 HD
ENDBRANCH  42  43
BRANCH  42  48
ATOM     48  C   LIG    1       20.735 -29.834  11.634  0.00  0.00    +0.067 C 
BRANCH  48  49
ATOM     49  C   LIG    1       21.457 -28.712  12.348  0.00  0.00    -0.045 C 
ATOM     50  C   LIG    1       22.831 -28.954  12.567  0.00  0.00    +0.003 C 
ATOM     51  C   LIG    1       23.657 -28.029  13.199  0.00  0.00    +0.000 C 
ATOM     52  C   LIG    1       23.104 -26.839  13.660  0.00  0.00    +0.000 C 
ATOM     53  C   LIG    1       21.743 -26.578  13.463  0.00  0.00    +0.000 C 
ATOM     54  C   LIG    1       20.920 -27.499  12.788  0.00  0.00    +0.003 C 
ENDBRANCH  48  49
ENDBRANCH  42  48
ENDBRANCH  39  42
ENDBRANCH  37  38
BRANCH  37  55
ATOM     55  C   LIG    1       24.049 -33.825  10.952  0.00  0.00    +0.152 C 
BRANCH  55  56
ATOM     56  C   LIG    1       25.422 -33.191  10.929  0.00  0.00    +0.307 C 
ATOM     57  O   LIG    1       26.314 -33.585  10.185  0.00  0.00    -0.251 OA
BRANCH  56  58
ATOM     58  O   LIG    1       25.681 -32.248  11.867  0.00  0.00    -0.481 OA
ATOM     59  H   LIG    1       25.337 -32.428  12.769  0.00  0.00    +0.295 HD
ENDBRANCH  56  58
ENDBRANCH  55  56
ENDBRANCH  37  55
ENDBRANCH  34  37
ENDBRANCH   1  33
BRANCH   1  60
ATOM     60  C   LIG    1       24.782 -33.629   5.373  0.00  0.00    +0.042 C 
BRANCH  60  61
ATOM     61  C   LIG    1       26.279 -33.370   5.477  0.00  0.00    +0.071 C 
BRANCH  61  63
ATOM     62  C   LIG    1       25.551 -33.007   2.895  0.00  0.00    +0.084 C 
ATOM     63  S   LIG    1       27.042 -33.387   3.840  0.00  0.00    -0.164 S 
ENDBRANCH  61  63
ENDBRANCH  60  61
ENDBRANCH   1  60
TORSDOF 23
ENDMDL
MODEL 3
REMARK VINA RESULT:      -7.8      2.846     11.796
REMARK  Name = *****
REMARK                            x       y       z     vdW  Elec       q    Type
REMARK                         _______ _______ _______ _____ _____    ______ ____
ROOT
ATOM      1  C   LIG    1       25.701 -24.059   6.022  0.00  0.00    +0.160 C 
ENDROOT
BRANCH   1   2
ATOM      2  N   LIG    1       25.482 -25.240   6.911  0.00  0.00    -0.302 N 
ATOM      3  H   LIG    1       25.561 -25.094   7.919  0.00  0.00    +0.149 HD
ATOM      4  C   LIG    1       25.819 -26.495   6.423  0.00  0.00    +0.234 C 
ATOM      5  O   LIG    1       26.226 -26.578   5.266  0.00  0.00    -0.274 OA
BRANCH   4   6
ATOM      6  C   LIG    1       25.642 -27.752   7.326  0.00  0.00    +0.163 C 
BRANCH   6   7
ATOM      7  N   LIG    1       25.847 -28.953   6.485  0.00  0.00    -0.304 N 
ATOM      8  H   LIG    1       26.734 -29.434   6.603  0.00  0.00    +0.149 HD
ATOM      9  C   LIG    1       24.771 -29.702   6.053  0.00  0.00    +0.215 C 
ATOM     10  O   LIG    1       23.612 -29.352   6.266  0.00  0.00    -0.276 OA
BRANCH   9  11
ATOM     11  C   LIG    1       25.162 -30.959   5.286  0.00  0.00    +0.114 C 
BRANCH  11  12
ATOM     12  C   LIG    1       24.847 -32.263   6.005  0.00  0.00    +0.117 C 
BRANCH  12  13
ATOM     13  N   LIG    1       23.751 -32.126   6.939  0.00  0.00    -0.281 N 
ATOM     14  H   LIG    1       22.818 -31.838   6.625  0.00  0.00    +0.152 HD
ATOM     15  C   LIG    1       23.799 -32.645   8.199  0.00  0.00    +0.401 C 
ATOM     16  O   LIG    1       24.804 -33.199   8.716  0.00  0.00    -0.227 OA
BRANCH  15  17
ATOM     17  O   LIG    1       22.610 -32.557   8.763  0.00  0.00    -0.445 OA
BRANCH  17  18
ATOM     18  C   LIG    1       22.452 -31.772   9.970  0.00  0.00    +0.107 C 
ATOM     19  C   LIG    1       23.150 -32.507  11.123  0.00  0.00    +0.055 C 
ATOM     20  C   LIG    1       20.965 -31.711  10.312  0.00  0.00    +0.055 C 
ATOM     21  C   LIG    1       22.954 -30.326   9.766  0.00  0.00    +0.055 C 
ENDBRANCH  17  18
ENDBRANCH  15  17
ENDBRANCH  12  13
ENDBRANCH  11  12
ENDBRANCH   9  11
ENDBRANCH   6   7
BRANCH   6  22
ATOM     22  C   LIG    1       26.637 -27.805   8.521  0.00  0.00    +0.069 C 
BRANCH  22  23
ATOM     23  C   LIG    1       26.527 -28.987   9.447  0.00  0.00    -0.020 C 
ATOM     24  C   LIG    1       26.273 -28.961  10.863  0.00  0.00    +0.003 C 
ATOM     25  C   LIG    1       26.262 -30.279  11.318  0.00  0.00    +0.047 C 
ATOM     26  C   LIG    1       26.011 -30.622  12.655  0.00  0.00    +0.026 C 
ATOM     27  C   LIG    1       25.675 -29.590  13.536  0.00  0.00    +0.002 C 
ATOM     28  C   LIG    1       25.657 -28.266  13.111  0.00  0.00    +0.001 C 
ATOM     29  N   LIG    1       26.512 -31.081  10.231  0.00  0.00    -0.360 NA
ATOM     30  H   LIG    1       26.519 -32.091  10.264  0.00  0.00    +0.165 HD
ATOM     31  C   LIG    1       26.015 -27.939  11.801  0.00  0.00    +0.010 C 
ATOM     32  C   LIG    1       26.664 -30.319   9.102  0.00  0.00    +0.087 C 
ENDBRANCH  22  23
ENDBRANCH   6  22
ENDBRANCH   4   6
ENDBRANCH   1   2
BRANCH   1  33
ATOM     33  C   LIG    1       26.381 -22.877   6.777  0.00  0.00    +0.234 C 
ATOM     34  N   LIG    1       26.309 -21.604   6.180  0.00  0.00    -0.302 N 
ATOM     35  H   LIG    1       25.483 -21.395   5.618  0.00  0.00    +0.149 HD
ATOM     36  O   LIG    1       27.048 -23.105   7.783  0.00  0.00    -0.274 OA
BRANCH  34  37
ATOM     37  C   LIG    1       26.820 -20.363   6.807  0.00  0.00    +0.169 C 
BRANCH  37  38
ATOM     38  C   LIG    1       28.375 -20.316   6.594  0.00  0.00    +0.234 C 
ATOM     39  N   LIG    1       29.180 -20.549   7.691  0.00  0.00    -0.302 N 
ATOM     40  H   LIG    1       28.794 -20.685   8.614  0.00  0.00    +0.149 HD
ATOM     41  O   LIG    1       28.830 -20.274   5.448  0.00  0.00    -0.274 OA
BRANCH  39  42
ATOM     42  C   LIG    1       30.649 -20.507   7.693  0.00  0.00    +0.163 C 
BRANCH  42  43
ATOM     43  C   LIG    1       31.215 -21.417   8.826  0.00  0.00    +0.231 C 
ATOM     44  O   LIG    1       30.807 -21.407   9.988  0.00  0.00    -0.274 OA
ATOM     45  N   LIG    1       32.188 -22.316   8.483  0.00  0.00    -0.328 N 
ATOM     46  H   LIG    1       32.605 -22.836   9.246  0.00  0.00    +0.145 HD
ATOM     47  H   LIG    1       32.610 -22.406   7.570  0.00  0.00    +0.145 HD
ENDBRANCH  42  43
BRANCH  42  48
ATOM     48  C   LIG    1       31.288 -19.114   7.762  0.00  0.00    +0.067 C 
BRANCH  48  49
ATOM     49  C   LIG    1       31.227 -18.186   8.956  0.00  0.00    -0.045 C 
ATOM     50  C   LIG    1       32.367 -17.368   9.112  0.00  0.00    +0.003 C 
ATOM     51  C   LIG    1       32.483 -16.444  10.147  0.00  0.00    +0.000 C 
ATOM     52  C   LIG    1       31.454 -16.347  11.079  0.00  0.00    +0.000 C 
ATOM     53  C   LIG    1       30.317 -17.153  10.951  0.00  0.00    +0.000 C 
ATOM     54  C   LIG    1       30.188 -18.057   9.880  0.00  0.00    +0.003 C 
ENDBRANCH  48  49
ENDBRANCH  42  48
ENDBRANCH  39  42
ENDBRANCH  37  38
BRANCH  37  55
ATOM     55  C   LIG    1       26.366 -20.160   8.242  0.00  0.00    +0.152 C 
BRANCH  55  56
ATOM     56  C   LIG    1       25.092 -20.889   8.608  0.00  0.00    +0.307 C 
ATOM     57  O   LIG    1       23.999 -20.569   8.155  0.00  0.00    -0.251 OA
BRANCH  56  58
ATOM     58  O   LIG    1       25.180 -21.836   9.575  0.00  0.00    -0.481 OA
ATOM     59  H   LIG    1       25.010 -21.533  10.494  0.00  0.00    +0.295 HD
ENDBRANCH  56  58
ENDBRANCH  55  56
ENDBRANCH  37  55
ENDBRANCH  34  37
ENDBRANCH   1  33
BRANCH   1  60
ATOM     60  C   LIG    1       24.414 -23.603   5.308  0.00  0.00    +0.042 C 
BRANCH  60  61
ATOM     61  C   LIG    1       23.344 -23.295   6.346  0.00  0.00    +0.071 C 
BRANCH  61  63
ATOM     62  C   LIG    1       23.378 -21.122   4.732  0.00  0.00    +0.084 C 
ATOM     63  S   LIG    1       22.189 -22.056   5.718  0.00  0.00    -0.164 S 
ENDBRANCH  61  63
ENDBRANCH  60  61
ENDBRANCH   1  60
TORSDOF 23
ENDMDL
MODEL 4
REMARK VINA RESULT:      -7.8      2.708     11.198
REMARK  Name = *****
REMARK                            x       y       z     vdW  Elec       q    Type
REMARK                         _______ _______ _______ _____ _____    ______ ____
ROOT
ATOM      1  C   LIG    1       25.204 -29.163   6.799  0.00  0.00    +0.160 C 
ENDROOT
BRANCH   1   2
ATOM      2  N   LIG    1       24.462 -29.458   8.062  0.00  0.00    -0.302 N 
ATOM      3  H   LIG    1       23.602 -28.935   8.239  0.00  0.00    +0.149 HD
ATOM      4  C   LIG    1       25.195 -29.866   9.169  0.00  0.00    +0.234 C 
ATOM      5  O   LIG    1       26.408 -30.019   9.037  0.00  0.00    -0.274 OA
BRANCH   4   6
ATOM      6  C   LIG    1       24.470 -30.150  10.517  0.00  0.00    +0.163 C 
BRANCH   6   7
ATOM      7  N   LIG    1       23.846 -31.490  10.428  0.00  0.00    -0.304 N 
ATOM      8  H   LIG    1       24.239 -32.205  11.032  0.00  0.00    +0.149 HD
ATOM      9  C   LIG    1       22.523 -31.626  10.059  0.00  0.00    +0.215 C 
ATOM     10  O   LIG    1       21.849 -30.663   9.701  0.00  0.00    -0.276 OA
BRANCH   9  11
ATOM     11  C   LIG    1       22.011 -33.060  10.118  0.00  0.00    +0.114 C 
BRANCH  11  12
ATOM     12  C   LIG    1       20.813 -33.268  11.033  0.00  0.00    +0.117 C 
BRANCH  12  13
ATOM     13  N   LIG    1       20.436 -32.057  11.730  0.00  0.00    -0.281 N 
ATOM     14  H   LIG    1       19.989 -31.278  11.236  0.00  0.00    +0.152 HD
ATOM     15  C   LIG    1       20.369 -31.991  13.090  0.00  0.00    +0.401 C 
ATOM     16  O   LIG    1       20.710 -32.912  13.877  0.00  0.00    -0.227 OA
BRANCH  15  17
ATOM     17  O   LIG    1       19.812 -30.852  13.453  0.00  0.00    -0.445 OA
BRANCH  17  18
ATOM     18  C   LIG    1       20.656 -29.720  13.774  0.00  0.00    +0.107 C 
ATOM     19  C   LIG    1       21.933 -30.239  14.449  0.00  0.00    +0.055 C 
ATOM     20  C   LIG    1       19.927 -28.853  14.798  0.00  0.00    +0.055 C 
ATOM     21  C   LIG    1       20.928 -28.854  12.524  0.00  0.00    +0.055 C 
ENDBRANCH  17  18
ENDBRANCH  15  17
ENDBRANCH  12  13
ENDBRANCH  11  12
ENDBRANCH   9  11
ENDBRANCH   6   7
BRANCH   6  22
ATOM     22  C   LIG    1       25.417 -30.124  11.751  0.00  0.00    +0.069 C 
BRANCH  22  23
ATOM     23  C   LIG    1       26.022 -28.794  12.118  0.00  0.00    -0.020 C 
ATOM     24  C   LIG    1       25.347 -27.663  12.698  0.00  0.00    +0.003 C 
ATOM     25  C   LIG    1       26.286 -26.645  12.861  0.00  0.00    +0.047 C 
ATOM     26  C   LIG    1       25.972 -25.403  13.432  0.00  0.00    +0.026 C 
ATOM     27  C   LIG    1       24.678 -25.228  13.932  0.00  0.00    +0.002 C 
ATOM     28  C   LIG    1       23.723 -26.230  13.804  0.00  0.00    +0.001 C 
ATOM     29  N   LIG    1       27.484 -27.124  12.389  0.00  0.00    -0.360 NA
ATOM     30  H   LIG    1       28.352 -26.608  12.424  0.00  0.00    +0.165 HD
ATOM     31  C   LIG    1       24.028 -27.418  13.136  0.00  0.00    +0.010 C 
ATOM     32  C   LIG    1       27.340 -28.414  11.948  0.00  0.00    +0.087 C 
ENDBRANCH  22  23
ENDBRANCH   6  22
ENDBRANCH   4   6
ENDBRANCH   1   2
BRANCH   1  33
ATOM     33  C   LIG    1       24.706 -27.851   6.121  0.00  0.00    +0.234 C 
ATOM     34  N   LIG    1       24.985 -26.639   6.779  0.00  0.00    -0.302 N 
ATOM     35  H   LIG    1       25.841 -26.590   7.332  0.00  0.00    +0.149 HD
ATOM     36  O   LIG    1       23.996 -27.919   5.120  0.00  0.00    -0.274 OA
BRANCH  34  37
ATOM     37  C   LIG    1       24.664 -25.302   6.229  0.00  0.00    +0.169 C 
BRANCH  37  38
ATOM     38  C   LIG    1       25.829 -24.324   6.618  0.00  0.00    +0.234 C 
ATOM     39  N   LIG    1       25.517 -23.237   7.411  0.00  0.00    -0.302 N 
ATOM     40  H   LIG    1       24.566 -23.037   7.686  0.00  0.00    +0.149 HD
ATOM     41  O   LIG    1       26.996 -24.646   6.383  0.00  0.00    -0.274 OA
BRANCH  39  42
ATOM     42  C   LIG    1       26.462 -22.198   7.841  0.00  0.00    +0.163 C 
BRANCH  42  43
ATOM     43  C   LIG    1       25.700 -21.026   8.532  0.00  0.00    +0.231 C 
ATOM     44  O   LIG    1       26.138 -20.388   9.491  0.00  0.00    -0.274 OA
ATOM     45  N   LIG    1       24.496 -20.657   7.997  0.00  0.00    -0.328 N 
ATOM     46  H   LIG    1       23.976 -19.956   8.510  0.00  0.00    +0.145 HD
ATOM     47  H   LIG    1       24.031 -21.113   7.224  0.00  0.00    +0.145 HD
ENDBRANCH  42  43
BRANCH  42  48
ATOM     48  C   LIG    1       27.409 -21.654   6.764  0.00  0.00    +0.067 C 
BRANCH  48  49
ATOM     49  C   LIG    1       28.660 -20.845   7.032  0.00  0.00    -0.045 C 
ATOM     50  C   LIG    1       28.799 -19.704   6.211  0.00  0.00    +0.003 C 
ATOM     51  C   LIG    1       29.881 -18.836   6.323  0.00  0.00    +0.000 C 
ATOM     52  C   LIG    1       30.875 -19.118   7.253  0.00  0.00    +0.000 C 
ATOM     53  C   LIG    1       30.766 -20.246   8.074  0.00  0.00    +0.000 C 
ATOM     54  C   LIG    1       29.650 -21.100   7.984  0.00  0.00    +0.003 C 
ENDBRANCH  48  49
ENDBRANCH  42  48
ENDBRANCH  39  42
ENDBRANCH  37  38
BRANCH  37  55
ATOM     55  C   LIG    1       23.271 -24.806   6.576  0.00  0.00    +0.152 C 
BRANCH  55  56
ATOM     56  C   LIG    1       23.110 -23.302   6.533  0.00  0.00    +0.307 C 
ATOM     57  O   LIG    1       22.530 -22.679   7.415  0.00  0.00    -0.251 OA
BRANCH  56  58
ATOM     58  O   LIG    1       23.515 -22.671   5.404  0.00  0.00    -0.481 OA
ATOM     59  H   LIG    1       23.376 -23.158   4.562  0.00  0.00    +0.295 HD
ENDBRANCH  56  58
ENDBRANCH  55  56
ENDBRANCH  37  55
ENDBRANCH  34  37
ENDBRANCH   1  33
BRANCH   1  60
ATOM     60  C   LIG    1       25.193 -30.345   5.810  0.00  0.00    +0.042 C 
BRANCH  60  61
ATOM     61  C   LIG    1       24.070 -31.303   6.184  0.00  0.00    +0.071 C 
BRANCH  61  63
ATOM     62  C   LIG    1       26.147 -32.854   6.964  0.00  0.00    +0.084 C 
ATOM     63  S   LIG    1       24.616 -33.017   6.020  0.00  0.00    -0.164 S 
ENDBRANCH  61  63
ENDBRANCH  60  61
ENDBRANCH   1  60
TORSDOF 23
ENDMDL
MODEL 5
REMARK VINA RESULT:      -7.6      2.196     11.841
REMARK  Name = *****
REMARK                            x       y       z     vdW  Elec       q    Type
REMARK                         _______ _______ _______ _____ _____    ______ ____
ROOT
ATOM      1  C   LIG    1       25.622 -27.808   6.552  0.00  0.00    +0.160 C 
ENDROOT
BRANCH   1   2
ATOM      2  N   LIG    1       24.860 -28.515   7.626  0.00  0.00    -0.302 N 
ATOM      3  H   LIG    1       23.877 -28.266   7.751  0.00  0.00    +0.149 HD
ATOM      4  C   LIG    1       25.557 -28.934   8.751  0.00  0.00    +0.234 C 
ATOM      5  O   LIG    1       26.772 -28.754   8.782  0.00  0.00    -0.274 OA
BRANCH   4   6
ATOM      6  C   LIG    1       24.799 -29.644   9.913  0.00  0.00    +0.163 C 
BRANCH   6   7
ATOM      7  N   LIG    1       24.518 -31.036   9.493  0.00  0.00    -0.304 N 
ATOM      8  H   LIG    1       25.240 -31.719   9.703  0.00  0.00    +0.149 HD
ATOM      9  C   LIG    1       23.219 -31.493   9.398  0.00  0.00    +0.215 C 
ATOM     10  O   LIG    1       22.257 -30.746   9.561  0.00  0.00    -0.276 OA
BRANCH   9  11
ATOM     11  C   LIG    1       23.110 -32.974   9.055  0.00  0.00    +0.114 C 
BRANCH  11  12
ATOM     12  C   LIG    1       22.444 -33.825  10.126  0.00  0.00    +0.117 C 
BRANCH  12  13
ATOM     13  N   LIG    1       21.088 -33.400  10.402  0.00  0.00    -0.281 N 
ATOM     14  H   LIG    1       20.382 -33.362   9.660  0.00  0.00    +0.152 HD
ATOM     15  C   LIG    1       20.595 -33.320  11.671  0.00  0.00    +0.401 C 
ATOM     16  O   LIG    1       21.265 -33.503  12.721  0.00  0.00    -0.227 OA
BRANCH  15  17
ATOM     17  O   LIG    1       19.294 -33.107  11.630  0.00  0.00    -0.445 OA
BRANCH  17  18
ATOM     18  C   LIG    1       18.759 -31.872  12.164  0.00  0.00    +0.107 C 
ATOM     19  C   LIG    1       19.866 -30.809  12.136  0.00  0.00    +0.055 C 
ATOM     20  C   LIG    1       18.394 -32.101  13.629  0.00  0.00    +0.055 C 
ATOM     21  C   LIG    1       17.478 -31.448  11.414  0.00  0.00    +0.055 C 
ENDBRANCH  17  18
ENDBRANCH  15  17
ENDBRANCH  12  13
ENDBRANCH  11  12
ENDBRANCH   9  11
ENDBRANCH   6   7
BRANCH   6  22
ATOM     22  C   LIG    1       25.598 -29.678  11.248  0.00  0.00    +0.069 C 
BRANCH  22  23
ATOM     23  C   LIG    1       25.484 -28.471  12.141  0.00  0.00    -0.020 C 
ATOM     24  C   LIG    1       24.285 -27.934  12.727  0.00  0.00    +0.003 C 
ATOM     25  C   LIG    1       24.642 -26.809  13.471  0.00  0.00    +0.047 C 
ATOM     26  C   LIG    1       23.715 -26.055  14.205  0.00  0.00    +0.026 C 
ATOM     27  C   LIG    1       22.395 -26.515  14.249  0.00  0.00    +0.002 C 
ATOM     28  C   LIG    1       22.009 -27.644  13.535  0.00  0.00    +0.001 C 
ATOM     29  N   LIG    1       26.001 -26.655  13.337  0.00  0.00    -0.360 NA
ATOM     30  H   LIG    1       26.537 -25.939  13.809  0.00  0.00    +0.165 HD
ATOM     31  C   LIG    1       22.927 -28.318  12.725  0.00  0.00    +0.010 C 
ATOM     32  C   LIG    1       26.518 -27.649  12.549  0.00  0.00    +0.087 C 
ENDBRANCH  22  23
ENDBRANCH   6  22
ENDBRANCH   4   6
ENDBRANCH   1   2
BRANCH   1  33
ATOM     33  C   LIG    1       24.932 -26.477   6.126  0.00  0.00    +0.234 C 
ATOM     34  N   LIG    1       25.351 -25.298   6.772  0.00  0.00    -0.302 N 
ATOM     35  H   LIG    1       26.323 -25.251   7.079  0.00  0.00    +0.149 HD
ATOM     36  O   LIG    1       23.982 -26.510   5.348  0.00  0.00    -0.274 OA
BRANCH  34  37
ATOM     37  C   LIG    1       24.865 -23.943   6.422  0.00  0.00    +0.169 C 
BRANCH  37  38
ATOM     38  C   LIG    1       25.913 -22.900   6.952  0.00  0.00    +0.234 C 
ATOM     39  N   LIG    1       26.232 -21.837   6.131  0.00  0.00    -0.302 N 
ATOM     40  H   LIG    1       25.857 -21.757   5.197  0.00  0.00    +0.149 HD
ATOM     41  O   LIG    1       26.266 -22.941   8.133  0.00  0.00    -0.274 OA
BRANCH  39  42
ATOM     42  C   LIG    1       27.215 -20.789   6.438  0.00  0.00    +0.163 C 
BRANCH  42  43
ATOM     43  C   LIG    1       27.277 -19.749   5.278  0.00  0.00    +0.231 C 
ATOM     44  O   LIG    1       28.160 -18.898   5.160  0.00  0.00    -0.274 OA
ATOM     45  N   LIG    1       26.315 -19.830   4.308  0.00  0.00    -0.328 N 
ATOM     46  H   LIG    1       26.319 -19.094   3.613  0.00  0.00    +0.145 HD
ATOM     47  H   LIG    1       25.535 -20.473   4.306  0.00  0.00    +0.145 HD
ENDBRANCH  42  43
BRANCH  42  48
ATOM     48  C   LIG    1       28.626 -21.267   6.798  0.00  0.00    +0.067 C 
BRANCH  48  49
ATOM     49  C   LIG    1       29.572 -20.556   7.743  0.00  0.00    -0.045 C 
ATOM     50  C   LIG    1       29.268 -19.192   7.947  0.00  0.00    +0.003 C 
ATOM     51  C   LIG    1       30.022 -18.382   8.792  0.00  0.00    +0.000 C 
ATOM     52  C   LIG    1       31.130 -18.926   9.432  0.00  0.00    +0.000 C 
ATOM     53  C   LIG    1       31.458 -20.272   9.240  0.00  0.00    +0.000 C 
ATOM     54  C   LIG    1       30.670 -21.098   8.415  0.00  0.00    +0.003 C 
ENDBRANCH  48  49
ENDBRANCH  42  48
ENDBRANCH  39  42
ENDBRANCH  37  38
BRANCH  37  55
ATOM     55  C   LIG    1       23.429 -23.672   6.837  0.00  0.00    +0.152 C 
BRANCH  55  56
ATOM     56  C   LIG    1       23.001 -22.227   6.714  0.00  0.00    +0.307 C 
ATOM     57  O   LIG    1       23.141 -21.421   7.628  0.00  0.00    -0.251 OA
BRANCH  56  58
ATOM     58  O   LIG    1       22.322 -21.878   5.594  0.00  0.00    -0.481 OA
ATOM     59  H   LIG    1       22.781 -22.044   4.741  0.00  0.00    +0.295 HD
ENDBRANCH  56  58
ENDBRANCH  55  56
ENDBRANCH  37  55
ENDBRANCH  34  37
ENDBRANCH   1  33
BRANCH   1  60
ATOM     60  C   LIG    1       25.910 -28.706   5.334  0.00  0.00    +0.042 C 
BRANCH  60  61
ATOM     61  C   LIG    1       24.959 -29.896   5.350  0.00  0.00    +0.071 C 
BRANCH  61  63
ATOM     62  C   LIG    1       24.456 -32.551   5.511  0.00  0.00    +0.084 C 
ATOM     63  S   LIG    1       25.872 -31.434   5.598  0.00  0.00    -0.164 S 
ENDBRANCH  61  63
ENDBRANCH  60  61
ENDBRANCH   1  60
TORSDOF 23
ENDMDL
MODEL 6
REMARK VINA RESULT:      -7.5      2.602     11.108
REMARK  Name = *****
REMARK                            x       y       z     vdW  Elec       q    Type
REMARK                         _______ _______ _______ _____ _____    ______ ____
ROOT
ATOM      1  C   LIG    1       25.716 -28.171   7.010  0.00  0.00    +0.160 C 
ENDROOT
BRANCH   1   2
ATOM      2  N   LIG    1       26.035 -28.156   8.471  0.00  0.00    -0.302 N 
ATOM      3  H   LIG    1       26.504 -27.329   8.844  0.00  0.00    +0.149 HD
ATOM      4  C   LIG    1       26.298 -29.369   9.093  0.00  0.00    +0.234 C 
ATOM      5  O   LIG    1       26.199 -30.397   8.427  0.00  0.00    -0.274 OA
BRANCH   4   6
ATOM      6  C   LIG    1       26.670 -29.400  10.605  0.00  0.00    +0.163 C 
BRANCH   6   7
ATOM      7  N   LIG    1       25.795 -28.438  11.312  0.00  0.00    -0.304 N 
ATOM      8  H   LIG    1       24.796 -28.606  11.238  0.00  0.00    +0.149 HD
ATOM      9  C   LIG    1       26.245 -27.769  12.433  0.00  0.00    +0.215 C 
ATOM     10  O   LIG    1       27.405 -27.872  12.824  0.00  0.00    -0.276 OA
BRANCH   9  11
ATOM     11  C   LIG    1       25.187 -26.896  13.097  0.00  0.00    +0.114 C 
BRANCH  11  12
ATOM     12  C   LIG    1       24.712 -27.399  14.453  0.00  0.00    +0.117 C 
BRANCH  12  13
ATOM     13  N   LIG    1       23.342 -27.023  14.731  0.00  0.00    -0.281 N 
ATOM     14  H   LIG    1       22.965 -26.122  14.421  0.00  0.00    +0.152 HD
ATOM     15  C   LIG    1       22.408 -27.930  15.136  0.00  0.00    +0.401 C 
ATOM     16  O   LIG    1       22.639 -29.137  15.404  0.00  0.00    -0.227 OA
BRANCH  15  17
ATOM     17  O   LIG    1       21.212 -27.372  15.123  0.00  0.00    -0.445 OA
BRANCH  17  18
ATOM     18  C   LIG    1       20.327 -27.616  14.004  0.00  0.00    +0.107 C 
ATOM     19  C   LIG    1       19.321 -26.460  13.918  0.00  0.00    +0.055 C 
ATOM     20  C   LIG    1       19.529 -28.886  14.291  0.00  0.00    +0.055 C 
ATOM     21  C   LIG    1       21.124 -27.838  12.700  0.00  0.00    +0.055 C 
ENDBRANCH  17  18
ENDBRANCH  15  17
ENDBRANCH  12  13
ENDBRANCH  11  12
ENDBRANCH   9  11
ENDBRANCH   6   7
BRANCH   6  22
ATOM     22  C   LIG    1       26.499 -30.801  11.260  0.00  0.00    +0.069 C 
BRANCH  22  23
ATOM     23  C   LIG    1       25.261 -31.019  12.089  0.00  0.00    -0.020 C 
ATOM     24  C   LIG    1       23.902 -31.084  11.620  0.00  0.00    +0.003 C 
ATOM     25  C   LIG    1       23.079 -31.290  12.728  0.00  0.00    +0.047 C 
ATOM     26  C   LIG    1       21.688 -31.433  12.627  0.00  0.00    +0.026 C 
ATOM     27  C   LIG    1       21.129 -31.452  11.346  0.00  0.00    +0.002 C 
ATOM     28  C   LIG    1       21.923 -31.269  10.219  0.00  0.00    +0.001 C 
ATOM     29  N   LIG    1       23.896 -31.337  13.831  0.00  0.00    -0.360 NA
ATOM     30  H   LIG    1       23.568 -31.520  14.770  0.00  0.00    +0.165 HD
ATOM     31  C   LIG    1       23.292 -31.022  10.350  0.00  0.00    +0.010 C 
ATOM     32  C   LIG    1       25.207 -31.185  13.460  0.00  0.00    +0.087 C 
ENDBRANCH  22  23
ENDBRANCH   6  22
ENDBRANCH   4   6
ENDBRANCH   1   2
BRANCH   1  33
ATOM     33  C   LIG    1       26.115 -26.837   6.312  0.00  0.00    +0.234 C 
ATOM     34  N   LIG    1       25.183 -25.782   6.356  0.00  0.00    -0.302 N 
ATOM     35  H   LIG    1       24.576 -25.726   7.174  0.00  0.00    +0.149 HD
ATOM     36  O   LIG    1       27.151 -26.784   5.654  0.00  0.00    -0.274 OA
BRANCH  34  37
ATOM     37  C   LIG    1       25.439 -24.425   5.823  0.00  0.00    +0.169 C 
BRANCH  37  38
ATOM     38  C   LIG    1       26.040 -23.553   6.983  0.00  0.00    +0.234 C 
ATOM     39  N   LIG    1       26.420 -22.260   6.684  0.00  0.00    -0.302 N 
ATOM     40  H   LIG    1       26.374 -21.898   5.743  0.00  0.00    +0.149 HD
ATOM     41  O   LIG    1       25.974 -23.962   8.146  0.00  0.00    -0.274 OA
BRANCH  39  42
ATOM     42  C   LIG    1       27.035 -21.315   7.626  0.00  0.00    +0.163 C 
BRANCH  42  43
ATOM     43  C   LIG    1       25.943 -20.663   8.529  0.00  0.00    +0.231 C 
ATOM     44  O   LIG    1       26.150 -20.240   9.667  0.00  0.00    -0.274 OA
ATOM     45  N   LIG    1       24.694 -20.507   7.992  0.00  0.00    -0.328 N 
ATOM     46  H   LIG    1       23.977 -20.165   8.620  0.00  0.00    +0.145 HD
ATOM     47  H   LIG    1       24.402 -20.827   7.078  0.00  0.00    +0.145 HD
ENDBRANCH  42  43
BRANCH  42  48
ATOM     48  C   LIG    1       27.932 -20.232   7.013  0.00  0.00    +0.067 C 
BRANCH  48  49
ATOM     49  C   LIG    1       29.220 -19.722   7.622  0.00  0.00    -0.045 C 
ATOM     50  C   LIG    1       30.053 -20.735   8.149  0.00  0.00    +0.003 C 
ATOM     51  C   LIG    1       31.283 -20.454   8.737  0.00  0.00    +0.000 C 
ATOM     52  C   LIG    1       31.691 -19.129   8.840  0.00  0.00    +0.000 C 
ATOM     53  C   LIG    1       30.882 -18.106   8.333  0.00  0.00    +0.000 C 
ATOM     54  C   LIG    1       29.657 -18.398   7.704  0.00  0.00    +0.003 C 
ENDBRANCH  48  49
ENDBRANCH  42  48
ENDBRANCH  39  42
ENDBRANCH  37  38
BRANCH  37  55
ATOM     55  C   LIG    1       24.253 -23.804   5.108  0.00  0.00    +0.152 C 
BRANCH  55  56
ATOM     56  C   LIG    1       23.204 -23.213   6.024  0.00  0.00    +0.307 C 
ATOM     57  O   LIG    1       23.115 -22.007   6.228  0.00  0.00    -0.251 OA
BRANCH  56  58
ATOM     58  O   LIG    1       22.440 -24.084   6.728  0.00  0.00    -0.481 OA
ATOM     59  H   LIG    1       22.902 -24.598   7.427  0.00  0.00    +0.295 HD
ENDBRANCH  56  58
ENDBRANCH  55  56
ENDBRANCH  37  55
ENDBRANCH  34  37
ENDBRANCH   1  33
BRANCH   1  60
ATOM     60  C   LIG    1       24.248 -28.539   6.724  0.00  0.00    +0.042 C 
BRANCH  60  61
ATOM     61  C   LIG    1       24.153 -29.212   5.362  0.00  0.00    +0.071 C 
BRANCH  61  63
ATOM     62  C   LIG    1       24.020 -31.837   6.007  0.00  0.00    +0.084 C 
ATOM     63  S   LIG    1       25.209 -30.676   5.302  0.00  0.00    -0.164 S 
ENDBRANCH  61  63
ENDBRANCH  60  61
ENDBRANCH   1  60
TORSDOF 23
ENDMDL
MODEL 7
REMARK VINA RESULT:      -7.4      2.738     10.091
REMARK  Name = *****
REMARK                            x       y       z     vdW  Elec       q    Type
REMARK                         _______ _______ _______ _____ _____    ______ ____
ROOT
ATOM      1  C   LIG    1       25.371 -29.315   7.018  0.00  0.00    +0.160 C 
ENDROOT
BRANCH   1   2
ATOM      2  N   LIG    1       25.057 -29.307   8.479  0.00  0.00    -0.302 N 
ATOM      3  H   LIG    1       24.854 -28.406   8.915  0.00  0.00    +0.149 HD
ATOM      4  C   LIG    1       25.645 -30.280   9.277  0.00  0.00    +0.234 C 
ATOM      5  O   LIG    1       26.347 -31.130   8.734  0.00  0.00    -0.274 OA
BRANCH   4   6
ATOM      6  C   LIG    1       25.377 -30.290  10.812  0.00  0.00    +0.163 C 
BRANCH   6   7
ATOM      7  N   LIG    1       26.683 -30.216  11.505  0.00  0.00    -0.304 N 
ATOM      8  H   LIG    1       27.024 -31.084  11.907  0.00  0.00    +0.149 HD
ATOM      9  C   LIG    1       27.623 -29.274  11.137  0.00  0.00    +0.215 C 
ATOM     10  O   LIG    1       27.378 -28.411  10.297  0.00  0.00    -0.276 OA
BRANCH   9  11
ATOM     11  C   LIG    1       28.948 -29.402  11.879  0.00  0.00    +0.114 C 
BRANCH  11  12
ATOM     12  C   LIG    1       28.815 -29.695  13.366  0.00  0.00    +0.117 C 
BRANCH  12  13
ATOM     13  N   LIG    1       28.562 -28.500  14.143  0.00  0.00    -0.281 N 
ATOM     14  H   LIG    1       29.271 -27.765  14.232  0.00  0.00    +0.152 HD
ATOM     15  C   LIG    1       27.307 -28.141  14.537  0.00  0.00    +0.401 C 
ATOM     16  O   LIG    1       26.270 -28.831  14.366  0.00  0.00    -0.227 OA
BRANCH  15  17
ATOM     17  O   LIG    1       27.333 -26.925  15.048  0.00  0.00    -0.445 OA
BRANCH  17  18
ATOM     18  C   LIG    1       26.713 -25.837  14.322  0.00  0.00    +0.107 C 
ATOM     19  C   LIG    1       27.522 -24.557  14.578  0.00  0.00    +0.055 C 
ATOM     20  C   LIG    1       25.317 -25.608  14.899  0.00  0.00    +0.055 C 
ATOM     21  C   LIG    1       26.560 -26.180  12.825  0.00  0.00    +0.055 C 
ENDBRANCH  17  18
ENDBRANCH  15  17
ENDBRANCH  12  13
ENDBRANCH  11  12
ENDBRANCH   9  11
ENDBRANCH   6   7
BRANCH   6  22
ATOM     22  C   LIG    1       24.489 -29.108  11.297  0.00  0.00    +0.069 C 
BRANCH  22  23
ATOM     23  C   LIG    1       23.189 -29.464  11.968  0.00  0.00    -0.020 C 
ATOM     24  C   LIG    1       22.314 -28.580  12.690  0.00  0.00    +0.003 C 
ATOM     25  C   LIG    1       21.233 -29.332  13.150  0.00  0.00    +0.047 C 
ATOM     26  C   LIG    1       20.167 -28.774  13.871  0.00  0.00    +0.026 C 
ATOM     27  C   LIG    1       20.164 -27.388  14.054  0.00  0.00    +0.002 C 
ATOM     28  C   LIG    1       21.216 -26.605  13.592  0.00  0.00    +0.001 C 
ATOM     29  N   LIG    1       21.442 -30.626  12.739  0.00  0.00    -0.360 NA
ATOM     30  H   LIG    1       20.789 -31.382  12.898  0.00  0.00    +0.165 HD
ATOM     31  C   LIG    1       22.318 -27.196  12.969  0.00  0.00    +0.010 C 
ATOM     32  C   LIG    1       22.606 -30.716  12.022  0.00  0.00    +0.087 C 
ENDBRANCH  22  23
ENDBRANCH   6  22
ENDBRANCH   4   6
ENDBRANCH   1   2
BRANCH   1  33
ATOM     33  C   LIG    1       24.945 -27.988   6.322  0.00  0.00    +0.234 C 
ATOM     34  N   LIG    1       25.640 -26.818   6.684  0.00  0.00    -0.302 N 
ATOM     35  H   LIG    1       26.619 -26.918   6.955  0.00  0.00    +0.149 HD
ATOM     36  O   LIG    1       23.960 -27.978   5.588  0.00  0.00    -0.274 OA
BRANCH  34  37
ATOM     37  C   LIG    1       25.424 -25.495   6.054  0.00  0.00    +0.169 C 
BRANCH  37  38
ATOM     38  C   LIG    1       25.934 -24.394   7.049  0.00  0.00    +0.234 C 
ATOM     39  N   LIG    1       26.174 -23.132   6.542  0.00  0.00    -0.302 N 
ATOM     40  H   LIG    1       26.086 -22.930   5.557  0.00  0.00    +0.149 HD
ATOM     41  O   LIG    1       25.918 -24.617   8.262  0.00  0.00    -0.274 OA
BRANCH  39  42
ATOM     42  C   LIG    1       26.690 -21.990   7.310  0.00  0.00    +0.163 C 
BRANCH  42  43
ATOM     43  C   LIG    1       25.621 -21.499   8.334  0.00  0.00    +0.231 C 
ATOM     44  O   LIG    1       25.889 -20.988   9.422  0.00  0.00    -0.274 OA
ATOM     45  N   LIG    1       24.306 -21.599   7.966  0.00  0.00    -0.328 N 
ATOM     46  H   LIG    1       23.624 -21.358   8.675  0.00  0.00    +0.145 HD
ATOM     47  H   LIG    1       23.965 -22.012   7.110  0.00  0.00    +0.145 HD
ENDBRANCH  42  43
BRANCH  42  48
ATOM     48  C   LIG    1       27.224 -20.808   6.493  0.00  0.00    +0.067 C 
BRANCH  48  49
ATOM     49  C   LIG    1       28.586 -20.172   6.669  0.00  0.00    -0.045 C 
ATOM     50  C   LIG    1       29.377 -20.769   7.676  0.00  0.00    +0.003 C 
ATOM     51  C   LIG    1       30.663 -20.325   7.971  0.00  0.00    +0.000 C 
ATOM     52  C   LIG    1       31.174 -19.236   7.274  0.00  0.00    +0.000 C 
ATOM     53  C   LIG    1       30.408 -18.622   6.277  0.00  0.00    +0.000 C 
ATOM     54  C   LIG    1       29.124 -19.099   5.955  0.00  0.00    +0.003 C 
ENDBRANCH  48  49
ENDBRANCH  42  48
ENDBRANCH  39  42
ENDBRANCH  37  38
BRANCH  37  55
ATOM     55  C   LIG    1       24.015 -25.280   5.531  0.00  0.00    +0.152 C 
BRANCH  55  56
ATOM     56  C   LIG    1       23.330 -24.039   6.061  0.00  0.00    +0.307 C 
ATOM     57  O   LIG    1       22.455 -24.088   6.918  0.00  0.00    -0.251 OA
BRANCH  56  58
ATOM     58  O   LIG    1       23.623 -22.865   5.449  0.00  0.00    -0.481 OA
ATOM     59  H   LIG    1       23.795 -22.911   4.483  0.00  0.00    +0.295 HD
ENDBRANCH  56  58
ENDBRANCH  55  56
ENDBRANCH  37  55
ENDBRANCH  34  37
ENDBRANCH   1  33
BRANCH   1  60
ATOM     60  C   LIG    1       24.789 -30.542   6.290  0.00  0.00    +0.042 C 
BRANCH  60  61
ATOM     61  C   LIG    1       25.760 -30.992   5.207  0.00  0.00    +0.071 C 
BRANCH  61  63
ATOM     62  C   LIG    1       24.943 -33.363   4.188  0.00  0.00    +0.084 C 
ATOM     63  S   LIG    1       26.144 -32.748   5.388  0.00  0.00    -0.164 S 
ENDBRANCH  61  63
ENDBRANCH  60  61
ENDBRANCH   1  60
TORSDOF 23
ENDMDL
MODEL 8
REMARK VINA RESULT:      -7.4      2.541     11.397
REMARK  Name = *****
REMARK                            x       y       z     vdW  Elec       q    Type
REMARK                         _______ _______ _______ _____ _____    ______ ____
ROOT
ATOM      1  C   LIG    1       25.783 -24.002   5.946  0.00  0.00    +0.160 C 
ENDROOT
BRANCH   1   2
ATOM      2  N   LIG    1       25.549 -25.241   6.749  0.00  0.00    -0.302 N 
ATOM      3  H   LIG    1       25.452 -25.138   7.760  0.00  0.00    +0.149 HD
ATOM      4  C   LIG    1       26.086 -26.433   6.281  0.00  0.00    +0.234 C 
ATOM      5  O   LIG    1       26.678 -26.419   5.204  0.00  0.00    -0.274 OA
BRANCH   4   6
ATOM      6  C   LIG    1       25.899 -27.743   7.101  0.00  0.00    +0.163 C 
BRANCH   6   7
ATOM      7  N   LIG    1       26.127 -27.425   8.529  0.00  0.00    -0.304 N 
ATOM      8  H   LIG    1       25.507 -26.731   8.936  0.00  0.00    +0.149 HD
ATOM      9  C   LIG    1       26.674 -28.365   9.380  0.00  0.00    +0.215 C 
ATOM     10  O   LIG    1       27.077 -29.451   8.971  0.00  0.00    -0.276 OA
BRANCH   9  11
ATOM     11  C   LIG    1       26.744 -27.913  10.834  0.00  0.00    +0.114 C 
BRANCH  11  12
ATOM     12  C   LIG    1       25.973 -28.791  11.809  0.00  0.00    +0.117 C 
BRANCH  12  13
ATOM     13  N   LIG    1       25.031 -28.035  12.605  0.00  0.00    -0.281 N 
ATOM     14  H   LIG    1       24.667 -27.132  12.283  0.00  0.00    +0.152 HD
ATOM     15  C   LIG    1       24.354 -28.589  13.651  0.00  0.00    +0.401 C 
ATOM     16  O   LIG    1       24.533 -29.752  14.095  0.00  0.00    -0.227 OA
BRANCH  15  17
ATOM     17  O   LIG    1       23.423 -27.753  14.071  0.00  0.00    -0.445 OA
BRANCH  17  18
ATOM     18  C   LIG    1       22.061 -27.916  13.609  0.00  0.00    +0.107 C 
ATOM     19  C   LIG    1       21.488 -26.530  13.282  0.00  0.00    +0.055 C 
ATOM     20  C   LIG    1       21.230 -28.486  14.757  0.00  0.00    +0.055 C 
ATOM     21  C   LIG    1       21.986 -28.908  12.429  0.00  0.00    +0.055 C 
ENDBRANCH  17  18
ENDBRANCH  15  17
ENDBRANCH  12  13
ENDBRANCH  11  12
ENDBRANCH   9  11
ENDBRANCH   6   7
BRANCH   6  22
ATOM     22  C   LIG    1       24.485 -28.374   6.952  0.00  0.00    +0.069 C 
BRANCH  22  23
ATOM     23  C   LIG    1       24.404 -29.878   6.976  0.00  0.00    -0.020 C 
ATOM     24  C   LIG    1       24.001 -30.709   8.079  0.00  0.00    +0.003 C 
ATOM     25  C   LIG    1       24.083 -32.038   7.664  0.00  0.00    +0.047 C 
ATOM     26  C   LIG    1       23.731 -33.117   8.487  0.00  0.00    +0.026 C 
ATOM     27  C   LIG    1       23.195 -32.825   9.745  0.00  0.00    +0.002 C 
ATOM     28  C   LIG    1       23.080 -31.510  10.183  0.00  0.00    +0.001 C 
ATOM     29  N   LIG    1       24.530 -32.025   6.365  0.00  0.00    -0.360 NA
ATOM     30  H   LIG    1       24.642 -32.854   5.798  0.00  0.00    +0.165 HD
ATOM     31  C   LIG    1       23.537 -30.456   9.388  0.00  0.00    +0.010 C 
ATOM     32  C   LIG    1       24.718 -30.736   5.939  0.00  0.00    +0.087 C 
ENDBRANCH  22  23
ENDBRANCH   6  22
ENDBRANCH   4   6
ENDBRANCH   1   2
BRANCH   1  33
ATOM     33  C   LIG    1       26.393 -22.855   6.807  0.00  0.00    +0.234 C 
ATOM     34  N   LIG    1       26.466 -21.577   6.220  0.00  0.00    -0.302 N 
ATOM     35  H   LIG    1       25.743 -21.329   5.543  0.00  0.00    +0.149 HD
ATOM     36  O   LIG    1       26.892 -23.117   7.898  0.00  0.00    -0.274 OA
BRANCH  34  37
ATOM     37  C   LIG    1       26.930 -20.363   6.930  0.00  0.00    +0.169 C 
BRANCH  37  38
ATOM     38  C   LIG    1       28.463 -20.188   6.641  0.00  0.00    +0.234 C 
ATOM     39  N   LIG    1       29.337 -20.336   7.699  0.00  0.00    -0.302 N 
ATOM     40  H   LIG    1       29.008 -20.491   8.641  0.00  0.00    +0.149 HD
ATOM     41  O   LIG    1       28.858 -20.124   5.474  0.00  0.00    -0.274 OA
BRANCH  39  42
ATOM     42  C   LIG    1       30.796 -20.170   7.629  0.00  0.00    +0.163 C 
BRANCH  42  43
ATOM     43  C   LIG    1       31.496 -21.096   8.669  0.00  0.00    +0.231 C 
ATOM     44  O   LIG    1       32.353 -20.713   9.468  0.00  0.00    -0.274 OA
ATOM     45  N   LIG    1       31.088 -22.401   8.726  0.00  0.00    -0.328 N 
ATOM     46  H   LIG    1       31.613 -23.007   9.344  0.00  0.00    +0.145 HD
ATOM     47  H   LIG    1       30.408 -22.831   8.114  0.00  0.00    +0.145 HD
ENDBRANCH  42  43
BRANCH  42  48
ATOM     48  C   LIG    1       31.322 -18.735   7.756  0.00  0.00    +0.067 C 
BRANCH  48  49
ATOM     49  C   LIG    1       31.288 -17.904   9.020  0.00  0.00    -0.045 C 
ATOM     50  C   LIG    1       32.444 -17.118   9.228  0.00  0.00    +0.003 C 
ATOM     51  C   LIG    1       32.584 -16.282  10.332  0.00  0.00    +0.000 C 
ATOM     52  C   LIG    1       31.567 -16.243  11.279  0.00  0.00    +0.000 C 
ATOM     53  C   LIG    1       30.415 -17.017  11.101  0.00  0.00    +0.000 C 
ATOM     54  C   LIG    1       30.260 -17.831   9.963  0.00  0.00    +0.003 C 
ENDBRANCH  48  49
ENDBRANCH  42  48
ENDBRANCH  39  42
ENDBRANCH  37  38
BRANCH  37  55
ATOM     55  C   LIG    1       26.549 -20.319   8.399  0.00  0.00    +0.152 C 
BRANCH  55  56
ATOM     56  C   LIG    1       25.197 -20.920   8.717  0.00  0.00    +0.307 C 
ATOM     57  O   LIG    1       24.155 -20.478   8.246  0.00  0.00    -0.251 OA
BRANCH  56  58
ATOM     58  O   LIG    1       25.162 -21.892   9.662  0.00  0.00    -0.481 OA
ATOM     59  H   LIG    1       24.905 -21.607  10.567  0.00  0.00    +0.295 HD
ENDBRANCH  56  58
ENDBRANCH  55  56
ENDBRANCH  37  55
ENDBRANCH  34  37
ENDBRANCH   1  33
BRANCH   1  60
ATOM     60  C   LIG    1       24.524 -23.531   5.193  0.00  0.00    +0.042 C 
BRANCH  60  61
ATOM     61  C   LIG    1       23.489 -23.045   6.199  0.00  0.00    +0.071 C 
BRANCH  61  63
ATOM     62  C   LIG    1       23.801 -21.245   4.202  0.00  0.00    +0.084 C 
ATOM     63  S   LIG    1       22.747 -21.494   5.646  0.00  0.00    -0.164 S 
ENDBRANCH  61  63
ENDBRANCH  60  61
ENDBRANCH   1  60
TORSDOF 23
ENDMDL
MODEL 9
REMARK VINA RESULT:      -7.3      2.817      6.710
REMARK  Name = *****
REMARK                            x       y       z     vdW  Elec       q    Type
REMARK                         _______ _______ _______ _____ _____    ______ ____
ROOT
ATOM      1  C   LIG    1       23.898 -32.322   6.397  0.00  0.00    +0.160 C 
ENDROOT
BRANCH   1   2
ATOM      2  N   LIG    1       24.798 -31.172   6.716  0.00  0.00    -0.302 N 
ATOM      3  H   LIG    1       25.377 -31.243   7.554  0.00  0.00    +0.149 HD
ATOM      4  C   LIG    1       24.393 -29.901   6.329  0.00  0.00    +0.234 C 
ATOM      5  O   LIG    1       23.346 -29.793   5.696  0.00  0.00    -0.274 OA
BRANCH   4   6
ATOM      6  C   LIG    1       25.281 -28.667   6.672  0.00  0.00    +0.163 C 
BRANCH   6   7
ATOM      7  N   LIG    1       24.780 -27.513   5.891  0.00  0.00    -0.304 N 
ATOM      8  H   LIG    1       23.795 -27.294   6.000  0.00  0.00    +0.149 HD
ATOM      9  C   LIG    1       25.626 -26.478   5.544  0.00  0.00    +0.215 C 
ATOM     10  O   LIG    1       26.831 -26.520   5.784  0.00  0.00    -0.276 OA
BRANCH   9  11
ATOM     11  C   LIG    1       24.930 -25.324   4.834  0.00  0.00    +0.114 C 
BRANCH  11  12
ATOM     12  C   LIG    1       24.727 -24.083   5.690  0.00  0.00    +0.117 C 
BRANCH  12  13
ATOM     13  N   LIG    1       25.975 -23.425   6.011  0.00  0.00    -0.281 N 
ATOM     14  H   LIG    1       26.614 -23.108   5.274  0.00  0.00    +0.152 HD
ATOM     15  C   LIG    1       26.236 -22.924   7.252  0.00  0.00    +0.401 C 
ATOM     16  O   LIG    1       25.491 -23.057   8.257  0.00  0.00    -0.227 OA
BRANCH  15  17
ATOM     17  O   LIG    1       27.343 -22.208   7.220  0.00  0.00    -0.445 OA
BRANCH  17  18
ATOM     18  C   LIG    1       27.256 -20.763   7.247  0.00  0.00    +0.107 C 
ATOM     19  C   LIG    1       26.745 -20.280   5.882  0.00  0.00    +0.055 C 
ATOM     20  C   LIG    1       28.664 -20.200   7.424  0.00  0.00    +0.055 C 
ATOM     21  C   LIG    1       26.395 -20.278   8.434  0.00  0.00    +0.055 C 
ENDBRANCH  17  18
ENDBRANCH  15  17
ENDBRANCH  12  13
ENDBRANCH  11  12
ENDBRANCH   9  11
ENDBRANCH   6   7
BRANCH   6  22
ATOM     22  C   LIG    1       25.267 -28.290   8.181  0.00  0.00    +0.069 C 
BRANCH  22  23
ATOM     23  C   LIG    1       26.175 -29.078   9.088  0.00  0.00    -0.020 C 
ATOM     24  C   LIG    1       26.712 -28.660  10.356  0.00  0.00    +0.003 C 
ATOM     25  C   LIG    1       27.508 -29.696  10.844  0.00  0.00    +0.047 C 
ATOM     26  C   LIG    1       28.164 -29.635  12.081  0.00  0.00    +0.026 C 
ATOM     27  C   LIG    1       27.931 -28.515  12.885  0.00  0.00    +0.002 C 
ATOM     28  C   LIG    1       27.128 -27.471  12.437  0.00  0.00    +0.001 C 
ATOM     29  N   LIG    1       27.471 -30.703   9.910  0.00  0.00    -0.360 NA
ATOM     30  H   LIG    1       27.927 -31.598  10.026  0.00  0.00    +0.165 HD
ATOM     31  C   LIG    1       26.570 -27.506  11.156  0.00  0.00    +0.010 C 
ATOM     32  C   LIG    1       26.669 -30.348   8.857  0.00  0.00    +0.087 C 
ENDBRANCH  22  23
ENDBRANCH   6  22
ENDBRANCH   4   6
ENDBRANCH   1   2
BRANCH   1  33
ATOM     33  C   LIG    1       23.222 -32.907   7.673  0.00  0.00    +0.234 C 
ATOM     34  N   LIG    1       23.684 -32.441   8.919  0.00  0.00    -0.302 N 
ATOM     35  H   LIG    1       24.028 -31.481   8.963  0.00  0.00    +0.149 HD
ATOM     36  O   LIG    1       22.413 -33.825   7.563  0.00  0.00    -0.274 OA
BRANCH  34  37
ATOM     37  C   LIG    1       23.091 -32.823  10.220  0.00  0.00    +0.169 C 
BRANCH  37  38
ATOM     38  C   LIG    1       22.707 -31.507  10.986  0.00  0.00    +0.234 C 
ATOM     39  N   LIG    1       21.736 -31.593  11.963  0.00  0.00    -0.302 N 
ATOM     40  H   LIG    1       21.240 -32.453  12.145  0.00  0.00    +0.149 HD
ATOM     41  O   LIG    1       23.401 -30.498  10.843  0.00  0.00    -0.274 OA
BRANCH  39  42
ATOM     42  C   LIG    1       21.221 -30.465  12.752  0.00  0.00    +0.163 C 
BRANCH  42  43
ATOM     43  C   LIG    1       19.671 -30.566  12.892  0.00  0.00    +0.231 C 
ATOM     44  O   LIG    1       19.054 -30.329  13.932  0.00  0.00    -0.274 OA
ATOM     45  N   LIG    1       18.958 -30.887  11.769  0.00  0.00    -0.328 N 
ATOM     46  H   LIG    1       17.964 -31.034  11.898  0.00  0.00    +0.145 HD
ATOM     47  H   LIG    1       19.352 -31.117  10.868  0.00  0.00    +0.145 HD
ENDBRANCH  42  43
BRANCH  42  48
ATOM     48  C   LIG    1       21.620 -29.064  12.275  0.00  0.00    +0.067 C 
BRANCH  48  49
ATOM     49  C   LIG    1       22.253 -27.996  13.142  0.00  0.00    -0.045 C 
ATOM     50  C   LIG    1       21.356 -27.369  14.035  0.00  0.00    +0.003 C 
ATOM     51  C   LIG    1       21.762 -26.372  14.918  0.00  0.00    +0.000 C 
ATOM     52  C   LIG    1       23.089 -25.956  14.896  0.00  0.00    +0.000 C 
ATOM     53  C   LIG    1       23.996 -26.555  14.015  0.00  0.00    +0.000 C 
ATOM     54  C   LIG    1       23.589 -27.590  13.152  0.00  0.00    +0.003 C 
ENDBRANCH  48  49
ENDBRANCH  42  48
ENDBRANCH  39  42
ENDBRANCH  37  38
BRANCH  37  55
ATOM     55  C   LIG    1       23.929 -33.805  11.020  0.00  0.00    +0.152 C 
BRANCH  55  56
ATOM     56  C   LIG    1       25.321 -33.317  11.355  0.00  0.00    +0.307 C 
ATOM     57  O   LIG    1       25.577 -32.731  12.401  0.00  0.00    -0.251 OA
BRANCH  56  58
ATOM     58  O   LIG    1       26.263 -33.430  10.387  0.00  0.00    -0.481 OA
ATOM     59  H   LIG    1       25.994 -33.145   9.486  0.00  0.00    +0.295 HD
ENDBRANCH  56  58
ENDBRANCH  55  56
ENDBRANCH  37  55
ENDBRANCH  34  37
ENDBRANCH   1  33
BRANCH   1  60
ATOM     60  C   LIG    1       24.603 -33.422   5.580  0.00  0.00    +0.042 C 
BRANCH  60  61
ATOM     61  C   LIG    1       25.893 -33.822   6.283  0.00  0.00    +0.071 C 
BRANCH  61  63
ATOM     62  C   LIG    1       26.403 -32.945   3.773  0.00  0.00    +0.084 C 
ATOM     63  S   LIG    1       27.298 -33.685   5.156  0.00  0.00    -0.164 S 
ENDBRANCH  61  63
ENDBRANCH  60  61
ENDBRANCH   1  60
TORSDOF 23
ENDMDL
