MODEL 1
REMARK VINA RESULT:      -1.8      0.000      0.000
REMARK  Name = *****
REMARK                            x       y       z     vdW  Elec       q    Type
REMARK                         _______ _______ _______ _____ _____    ______ ____
ROOT
ATOM      1  C   LIG    1       26.279 -17.026   3.946  0.00  0.00    +0.005 C 
ATOM      2  C   LIG    1       27.013 -16.092   3.295  0.00  0.00    -0.001 C 
ENDROOT
BRANCH   1   7
ATOM      3  C   LIG    1       29.258 -21.217   6.654  0.00  0.00    +0.044 C 
ATOM      4  C   LIG    1       28.502 -20.154   5.911  0.00  0.00    -0.050 A 
ATOM      5  C   LIG    1       27.157 -20.341   5.569  0.00  0.00    +0.004 A 
ATOM      6  C   LIG    1       26.442 -19.326   4.922  0.00  0.00    +0.009 A 
ATOM      7  C   LIG    1       27.056 -18.105   4.609  0.00  0.00    -0.016 A 
ATOM      8  C   LIG    1       28.398 -17.915   4.957  0.00  0.00    +0.009 A 
ATOM      9  C   LIG    1       29.112 -18.931   5.606  0.00  0.00    +0.004 A 
ENDBRANCH   1   7
BRANCH   1  10
ATOM     10  C   LIG    1       24.804 -16.937   4.061  0.00  0.00    +0.072 A 
ATOM     11  N   LIG    1       24.110 -18.108   4.011  0.00  0.00    -0.247 NA
ATOM     12  C   LIG    1       22.771 -18.062   4.210  0.00  0.00    +0.065 A 
ATOM     13  C   LIG    1       22.086 -16.870   4.421  0.00  0.00    +0.028 A 
ATOM     14  C   LIG    1       22.803 -15.679   4.431  0.00  0.00    +0.004 A 
ATOM     15  C   LIG    1       24.182 -15.710   4.254  0.00  0.00    +0.028 A 
BRANCH  12  16
ATOM     16  C   LIG    1       22.030 -19.331   4.180  0.00  0.00    +0.035 C 
ATOM     17  C   LIG    1       22.236 -20.491   4.826  0.00  0.00    +0.093 C 
BRANCH  17  18
ATOM     18  C   LIG    1       23.256 -20.952   5.791  0.00  0.00    +0.330 C 
ATOM     19  O   LIG    1       24.231 -21.572   5.409  0.00  0.00    -0.246 OA
BRANCH  18  20
ATOM     20  O   LIG    1       23.107 -20.548   7.060  0.00  0.00    -0.477 OA
ATOM     21  H   LIG    1       22.179 -20.291   7.266  0.00  0.00    +0.295 HD
ENDBRANCH  18  20
ENDBRANCH  17  18
ENDBRANCH  12  16
ENDBRANCH   1  10
BRANCH   2  22
ATOM     22  C   LIG    1       26.539 -14.844   2.595  0.00  0.00    +0.112 C 
BRANCH  22  23
ATOM     23  N   LIG    1       26.954 -13.623   3.301  0.00  0.00    -0.299 NA
ATOM     24  C   LIG    1       26.780 -13.736   4.754  0.00  0.00    +0.085 C 
ATOM     25  C   LIG    1       27.560 -12.538   5.269  0.00  0.00    +0.017 C 
ATOM     26  C   LIG    1       28.740 -12.427   4.316  0.00  0.00    +0.017 C 
ATOM     27  C   LIG    1       28.369 -13.291   3.114  0.00  0.00    +0.085 C 
ENDBRANCH  22  23
ENDBRANCH   2  22
TORSDOF 7
ENDMDL
MODEL 2
REMARK VINA RESULT:      -1.3      2.434      5.599
REMARK  Name = *****
REMARK                            x       y       z     vdW  Elec       q    Type
REMARK                         _______ _______ _______ _____ _____    ______ ____
ROOT
ATOM      1  C   LIG    1       26.336 -16.780   3.714  0.00  0.00    +0.005 C 
ATOM      2  C   LIG    1       27.641 -16.753   4.076  0.00  0.00    -0.001 C 
ENDROOT
BRANCH   1   7
ATOM      3  C   LIG    1       23.956 -11.540   2.910  0.00  0.00    +0.044 C 
ATOM      4  C   LIG    1       24.548 -12.910   3.076  0.00  0.00    -0.050 A 
ATOM      5  C   LIG    1       25.781 -13.230   2.497  0.00  0.00    +0.004 A 
ATOM      6  C   LIG    1       26.354 -14.491   2.698  0.00  0.00    +0.009 A 
ATOM      7  C   LIG    1       25.706 -15.454   3.486  0.00  0.00    -0.016 A 
ATOM      8  C   LIG    1       24.477 -15.132   4.071  0.00  0.00    +0.009 A 
ATOM      9  C   LIG    1       23.905 -13.868   3.870  0.00  0.00    +0.004 A 
ENDBRANCH   1   7
BRANCH   1  10
ATOM     10  C   LIG    1       25.603 -18.047   3.481  0.00  0.00    +0.072 A 
ATOM     11  N   LIG    1       24.487 -18.260   4.233  0.00  0.00    -0.247 NA
ATOM     12  C   LIG    1       23.747 -19.365   3.972  0.00  0.00    +0.065 A 
ATOM     13  C   LIG    1       24.107 -20.295   3.002  0.00  0.00    +0.028 A 
ATOM     14  C   LIG    1       25.270 -20.082   2.270  0.00  0.00    +0.004 A 
ATOM     15  C   LIG    1       26.028 -18.941   2.506  0.00  0.00    +0.028 A 
BRANCH  12  16
ATOM     16  C   LIG    1       22.531 -19.579   4.768  0.00  0.00    +0.035 C 
ATOM     17  C   LIG    1       21.248 -19.259   4.526  0.00  0.00    +0.093 C 
BRANCH  17  18
ATOM     18  C   LIG    1       20.561 -18.584   3.406  0.00  0.00    +0.330 C 
ATOM     19  O   LIG    1       21.130 -17.723   2.762  0.00  0.00    -0.246 OA
BRANCH  18  20
ATOM     20  O   LIG    1       19.350 -19.055   3.075  0.00  0.00    -0.477 OA
ATOM     21  H   LIG    1       18.932 -19.563   3.807  0.00  0.00    +0.295 HD
ENDBRANCH  18  20
ENDBRANCH  17  18
ENDBRANCH  12  16
ENDBRANCH   1  10
BRANCH   2  22
ATOM     22  C   LIG    1       28.578 -17.912   4.304  0.00  0.00    +0.112 C 
BRANCH  22  23
ATOM     23  N   LIG    1       28.290 -18.617   5.561  0.00  0.00    -0.299 NA
ATOM     24  C   LIG    1       27.354 -19.731   5.370  0.00  0.00    +0.085 C 
ATOM     25  C   LIG    1       27.472 -20.485   6.684  0.00  0.00    +0.017 C 
ATOM     26  C   LIG    1       28.938 -20.343   7.062  0.00  0.00    +0.017 C 
ATOM     27  C   LIG    1       29.475 -19.220   6.178  0.00  0.00    +0.085 C 
ENDBRANCH  22  23
ENDBRANCH   2  22
TORSDOF 7
ENDMDL
MODEL 3
REMARK VINA RESULT:      -1.3      1.676      4.585
REMARK  Name = *****
REMARK                            x       y       z     vdW  Elec       q    Type
REMARK                         _______ _______ _______ _____ _____    ______ ____
ROOT
ATOM      1  C   LIG    1       25.617 -17.331   3.827  0.00  0.00    +0.005 C 
ATOM      2  C   LIG    1       25.494 -16.172   3.137  0.00  0.00    -0.001 C 
ENDROOT
BRANCH   1   7
ATOM      3  C   LIG    1       20.901 -20.717   4.083  0.00  0.00    +0.044 C 
ATOM      4  C   LIG    1       22.104 -19.825   3.973  0.00  0.00    -0.050 A 
ATOM      5  C   LIG    1       22.075 -18.522   4.483  0.00  0.00    +0.004 A 
ATOM      6  C   LIG    1       23.215 -17.712   4.425  0.00  0.00    +0.009 A 
ATOM      7  C   LIG    1       24.406 -18.191   3.859  0.00  0.00    -0.016 A 
ATOM      8  C   LIG    1       24.436 -19.496   3.356  0.00  0.00    +0.009 A 
ATOM      9  C   LIG    1       23.295 -20.306   3.416  0.00  0.00    +0.004 A 
ENDBRANCH   1   7
BRANCH   1  10
ATOM     10  C   LIG    1       26.897 -17.757   4.442  0.00  0.00    +0.072 A 
ATOM     11  N   LIG    1       26.873 -18.893   5.192  0.00  0.00    -0.247 NA
ATOM     12  C   LIG    1       28.049 -19.354   5.685  0.00  0.00    +0.065 A 
ATOM     13  C   LIG    1       29.255 -18.692   5.485  0.00  0.00    +0.028 A 
ATOM     14  C   LIG    1       29.257 -17.512   4.749  0.00  0.00    +0.004 A 
ATOM     15  C   LIG    1       28.064 -17.038   4.213  0.00  0.00    +0.028 A 
BRANCH  12  16
ATOM     16  C   LIG    1       28.021 -20.594   6.474  0.00  0.00    +0.035 C 
ATOM     17  C   LIG    1       27.037 -21.481   6.691  0.00  0.00    +0.093 C 
BRANCH  17  18
ATOM     18  C   LIG    1       25.629 -21.570   6.249  0.00  0.00    +0.330 C 
ATOM     19  O   LIG    1       24.724 -21.533   7.062  0.00  0.00    -0.246 OA
BRANCH  18  20
ATOM     20  O   LIG    1       25.415 -21.568   4.927  0.00  0.00    -0.477 OA
ATOM     21  H   LIG    1       24.472 -21.403   4.699  0.00  0.00    +0.295 HD
ENDBRANCH  18  20
ENDBRANCH  17  18
ENDBRANCH  12  16
ENDBRANCH   1  10
BRANCH   2  22
ATOM     22  C   LIG    1       26.545 -15.130   2.853  0.00  0.00    +0.112 C 
BRANCH  22  23
ATOM     23  N   LIG    1       26.076 -13.772   3.162  0.00  0.00    -0.299 NA
ATOM     24  C   LIG    1       25.137 -13.267   2.154  0.00  0.00    +0.085 C 
ATOM     25  C   LIG    1       24.554 -12.041   2.836  0.00  0.00    +0.017 C 
ATOM     26  C   LIG    1       24.474 -12.437   4.303  0.00  0.00    +0.017 C 
ATOM     27  C   LIG    1       25.353 -13.678   4.434  0.00  0.00    +0.085 C 
ENDBRANCH  22  23
ENDBRANCH   2  22
TORSDOF 7
ENDMDL
MODEL 4
REMARK VINA RESULT:       1.1      3.027      6.163
REMARK  Name = *****
REMARK                            x       y       z     vdW  Elec       q    Type
REMARK                         _______ _______ _______ _____ _____    ______ ____
ROOT
ATOM      1  C   LIG    1       24.866 -18.641   4.145  0.00  0.00    +0.005 C 
ATOM      2  C   LIG    1       24.020 -19.488   3.510  0.00  0.00    -0.001 C 
ENDROOT
BRANCH   1   7
ATOM      3  C   LIG    1       29.178 -21.224   7.062  0.00  0.00    +0.044 C 
ATOM      4  C   LIG    1       28.058 -20.525   6.346  0.00  0.00    -0.050 A 
ATOM      5  C   LIG    1       28.319 -19.445   5.495  0.00  0.00    +0.004 A 
ATOM      6  C   LIG    1       27.279 -18.830   4.789  0.00  0.00    +0.009 A 
ATOM      7  C   LIG    1       25.959 -19.285   4.919  0.00  0.00    -0.016 A 
ATOM      8  C   LIG    1       25.698 -20.369   5.764  0.00  0.00    +0.009 A 
ATOM      9  C   LIG    1       26.741 -20.985   6.469  0.00  0.00    +0.004 A 
ENDBRANCH   1   7
BRANCH   1  10
ATOM     10  C   LIG    1       24.762 -17.168   4.013  0.00  0.00    +0.072 A 
ATOM     11  N   LIG    1       25.831 -16.520   3.475  0.00  0.00    -0.247 NA
ATOM     12  C   LIG    1       25.722 -15.187   3.256  0.00  0.00    +0.065 A 
ATOM     13  C   LIG    1       24.584 -14.464   3.596  0.00  0.00    +0.028 A 
ATOM     14  C   LIG    1       23.515 -15.133   4.180  0.00  0.00    +0.004 A 
ATOM     15  C   LIG    1       23.599 -16.506   4.388  0.00  0.00    +0.028 A 
BRANCH  12  16
ATOM     16  C   LIG    1       26.870 -14.496   2.652  0.00  0.00    +0.035 C 
ATOM     17  C   LIG    1       27.778 -13.660   3.183  0.00  0.00    +0.093 C 
BRANCH  17  18
ATOM     18  C   LIG    1       27.984 -13.108   4.538  0.00  0.00    +0.330 C 
ATOM     19  O   LIG    1       27.285 -13.472   5.466  0.00  0.00    -0.246 OA
BRANCH  18  20
ATOM     20  O   LIG    1       29.041 -12.300   4.702  0.00  0.00    -0.477 OA
ATOM     21  H   LIG    1       29.026 -11.834   5.569  0.00  0.00    +0.295 HD
ENDBRANCH  18  20
ENDBRANCH  17  18
ENDBRANCH  12  16
ENDBRANCH   1  10
BRANCH   2  22
ATOM     22  C   LIG    1       22.871 -19.157   2.593  0.00  0.00    +0.112 C 
BRANCH  22  23
ATOM     23  N   LIG    1       21.632 -18.884   3.335  0.00  0.00    -0.299 NA
ATOM     24  C   LIG    1       20.641 -18.175   2.517  0.00  0.00    +0.085 C 
ATOM     25  C   LIG    1       19.378 -18.303   3.352  0.00  0.00    +0.017 C 
ATOM     26  C   LIG    1       19.489 -19.684   3.981  0.00  0.00    +0.017 C 
ATOM     27  C   LIG    1       20.946 -20.095   3.794  0.00  0.00    +0.085 C 
ENDBRANCH  22  23
ENDBRANCH   2  22
TORSDOF 7
ENDMDL
