MODEL 1
REMARK VINA RESULT:      -2.5      0.000      0.000
REMARK  Name = *****
REMARK                            x       y       z     vdW  Elec       q    Type
REMARK                         _______ _______ _______ _____ _____    ______ ____
ROOT
ATOM      1  C   LIG    1       23.921 -20.388   4.640  0.00  0.00    +0.233 C 
ATOM      2  O   LIG    1       25.069 -20.605   5.463  0.00  0.00    -0.340 OA
ATOM      3  C   LIG    1       26.276 -20.708   4.720  0.00  0.00    +0.133 C 
ATOM      4  C   LIG    1       27.418 -20.942   5.695  0.00  0.00    +0.106 C 
ATOM      5  C   LIG    1       27.781 -19.528   6.082  0.00  0.00    +0.139 C 
ATOM      6  O   LIG    1       28.458 -19.258   7.061  0.00  0.00    -0.297 OA
ATOM      7  C   LIG    1       27.210 -18.493   5.116  0.00  0.00    +0.061 C 
ATOM      8  C   LIG    1       26.612 -19.397   4.015  0.00  0.00    +0.029 C 
ATOM      9  C   LIG    1       25.424 -18.799   3.265  0.00  0.00    +0.012 C 
ATOM     10  C   LIG    1       24.067 -19.025   3.928  0.00  0.00    +0.071 C 
ENDROOT
BRANCH   1  11
ATOM     11  C   LIG    1       22.629 -20.390   5.523  0.00  0.00    +0.301 C 
ATOM     12  F   LIG    1       22.730 -21.457   6.366  0.00  0.00    -0.200 F 
ATOM     13  F   LIG    1       22.591 -19.281   6.314  0.00  0.00    -0.200 F 
BRANCH  11  14
ATOM     14  C   LIG    1       21.308 -20.459   4.742  0.00  0.00    +0.081 C 
BRANCH  14  15
ATOM     15  C   LIG    1       20.906 -19.127   4.088  0.00  0.00    +0.006 C 
BRANCH  15  17
ATOM     16  C   LIG    1       19.350 -17.925   2.457  0.00  0.00    +0.004 C 
ATOM     17  C   LIG    1       19.617 -19.191   3.262  0.00  0.00    -0.003 C 
ENDBRANCH  15  17
ENDBRANCH  14  15
ENDBRANCH  11  14
ENDBRANCH   1  11
BRANCH   1  18
ATOM     18  O   LIG    1       23.818 -21.445   3.673  0.00  0.00    -0.360 OA
ATOM     19  H   LIG    1       23.394 -22.214   4.081  0.00  0.00    +0.213 HD
ENDBRANCH   1  18
BRANCH   7  20
ATOM     20  C   LIG    1       28.238 -17.446   4.616  0.00  0.00    +0.011 C 
BRANCH  20  21
ATOM     21  C   LIG    1       27.673 -16.337   3.704  0.00  0.00    +0.001 C 
BRANCH  21  22
ATOM     22  C   LIG    1       27.353 -15.013   4.420  0.00  0.00    +0.000 C 
BRANCH  22  23
ATOM     23  C   LIG    1       27.207 -13.835   3.434  0.00  0.00    +0.000 C 
BRANCH  23  24
ATOM     24  C   LIG    1       26.142 -14.076   2.353  0.00  0.00    +0.011 C 
BRANCH  24  25
ATOM     25  C   LIG    1       24.905 -13.195   2.519  0.00  0.00    +0.120 C 
BRANCH  25  26
ATOM     26  C   LIG    1       24.315 -13.277   3.913  0.00  0.00    +0.305 C 
ATOM     27  O   LIG    1       24.394 -12.399   4.740  0.00  0.00    -0.251 OA
BRANCH  26  28
ATOM     28  O   LIG    1       23.676 -14.452   4.144  0.00  0.00    -0.481 OA
ATOM     29  H   LIG    1       24.128 -15.050   4.764  0.00  0.00    +0.295 HD
ENDBRANCH  26  28
ENDBRANCH  25  26
ENDBRANCH  24  25
ENDBRANCH  23  24
ENDBRANCH  22  23
ENDBRANCH  21  22
ENDBRANCH  20  21
ENDBRANCH   7  20
TORSDOF 13
ENDMDL
MODEL 2
REMARK VINA RESULT:      -1.6      2.137      3.612
REMARK  Name = *****
REMARK                            x       y       z     vdW  Elec       q    Type
REMARK                         _______ _______ _______ _____ _____    ______ ____
ROOT
ATOM      1  C   LIG    1       23.140 -18.405   3.844  0.00  0.00    +0.233 C 
ATOM      2  O   LIG    1       23.420 -19.486   4.734  0.00  0.00    -0.340 OA
ATOM      3  C   LIG    1       24.262 -20.478   4.160  0.00  0.00    +0.133 C 
ATOM      4  C   LIG    1       24.484 -21.571   5.191  0.00  0.00    +0.106 C 
ATOM      5  C   LIG    1       25.660 -21.025   5.964  0.00  0.00    +0.139 C 
ATOM      6  O   LIG    1       25.989 -21.444   7.062  0.00  0.00    -0.297 OA
ATOM      7  C   LIG    1       26.379 -19.904   5.219  0.00  0.00    +0.061 C 
ATOM      8  C   LIG    1       25.651 -19.924   3.856  0.00  0.00    +0.029 C 
ATOM      9  C   LIG    1       25.615 -18.583   3.126  0.00  0.00    +0.012 C 
ATOM     10  C   LIG    1       24.458 -17.668   3.521  0.00  0.00    +0.071 C 
ENDROOT
BRANCH   1  11
ATOM     11  C   LIG    1       22.129 -17.415   4.514  0.00  0.00    +0.301 C 
ATOM     12  F   LIG    1       20.881 -17.806   4.127  0.00  0.00    -0.200 F 
ATOM     13  F   LIG    1       22.166 -17.544   5.870  0.00  0.00    -0.200 F 
BRANCH  11  14
ATOM     14  C   LIG    1       22.346 -15.934   4.173  0.00  0.00    +0.081 C 
BRANCH  14  15
ATOM     15  C   LIG    1       23.278 -15.204   5.154  0.00  0.00    +0.006 C 
BRANCH  15  17
ATOM     16  C   LIG    1       23.866 -13.809   3.096  0.00  0.00    +0.004 C 
ATOM     17  C   LIG    1       23.861 -13.892   4.617  0.00  0.00    -0.003 C 
ENDBRANCH  15  17
ENDBRANCH  14  15
ENDBRANCH  11  14
ENDBRANCH   1  11
BRANCH   1  18
ATOM     18  O   LIG    1       22.549 -18.916   2.638  0.00  0.00    -0.360 OA
ATOM     19  H   LIG    1       23.073 -19.665   2.316  0.00  0.00    +0.213 HD
ENDBRANCH   1  18
BRANCH   7  20
ATOM     20  C   LIG    1       27.919 -20.068   5.140  0.00  0.00    +0.011 C 
BRANCH  20  21
ATOM     21  C   LIG    1       28.736 -19.189   6.108  0.00  0.00    +0.001 C 
BRANCH  21  22
ATOM     22  C   LIG    1       28.632 -17.676   5.851  0.00  0.00    +0.000 C 
BRANCH  22  23
ATOM     23  C   LIG    1       28.706 -17.331   4.349  0.00  0.00    +0.000 C 
BRANCH  23  24
ATOM     24  C   LIG    1       27.696 -16.254   3.922  0.00  0.00    +0.011 C 
BRANCH  24  25
ATOM     25  C   LIG    1       27.921 -14.909   4.610  0.00  0.00    +0.120 C 
BRANCH  25  26
ATOM     26  C   LIG    1       27.948 -13.752   3.632  0.00  0.00    +0.305 C 
ATOM     27  O   LIG    1       27.023 -13.438   2.920  0.00  0.00    -0.251 OA
BRANCH  26  28
ATOM     28  O   LIG    1       29.133 -13.089   3.634  0.00  0.00    -0.481 OA
ATOM     29  H   LIG    1       29.088 -12.169   3.945  0.00  0.00    +0.295 HD
ENDBRANCH  26  28
ENDBRANCH  25  26
ENDBRANCH  24  25
ENDBRANCH  23  24
ENDBRANCH  22  23
ENDBRANCH  21  22
ENDBRANCH  20  21
ENDBRANCH   7  20
TORSDOF 13
ENDMDL
MODEL 3
REMARK VINA RESULT:      -1.3      2.160      4.435
REMARK  Name = *****
REMARK                            x       y       z     vdW  Elec       q    Type
REMARK                         _______ _______ _______ _____ _____    ______ ____
ROOT
ATOM      1  C   LIG    1       23.853 -19.671   4.356  0.00  0.00    +0.233 C 
ATOM      2  O   LIG    1       24.980 -18.826   4.119  0.00  0.00    -0.340 OA
ATOM      3  C   LIG    1       24.745 -17.854   3.108  0.00  0.00    +0.133 C 
ATOM      4  C   LIG    1       26.006 -17.024   2.942  0.00  0.00    +0.106 C 
ATOM      5  C   LIG    1       25.814 -15.964   4.000  0.00  0.00    +0.139 C 
ATOM      6  O   LIG    1       26.721 -15.257   4.409  0.00  0.00    -0.297 OA
ATOM      7  C   LIG    1       24.370 -15.884   4.491  0.00  0.00    +0.061 C 
ATOM      8  C   LIG    1       23.663 -16.862   3.527  0.00  0.00    +0.029 C 
ATOM      9  C   LIG    1       22.418 -17.538   4.096  0.00  0.00    +0.012 C 
ATOM     10  C   LIG    1       22.688 -18.813   4.894  0.00  0.00    +0.071 C 
ENDROOT
BRANCH   1  11
ATOM     11  C   LIG    1       24.228 -20.773   5.403  0.00  0.00    +0.301 C 
ATOM     12  F   LIG    1       23.132 -21.572   5.543  0.00  0.00    -0.200 F 
ATOM     13  F   LIG    1       25.222 -21.570   4.918  0.00  0.00    -0.200 F 
BRANCH  11  14
ATOM     14  C   LIG    1       24.673 -20.243   6.774  0.00  0.00    +0.081 C 
BRANCH  14  15
ATOM     15  C   LIG    1       26.168 -20.451   7.062  0.00  0.00    +0.006 C 
BRANCH  15  17
ATOM     16  C   LIG    1       28.570 -20.150   6.243  0.00  0.00    +0.004 C 
ATOM     17  C   LIG    1       27.091 -20.146   5.877  0.00  0.00    -0.003 C 
ENDBRANCH  15  17
ENDBRANCH  14  15
ENDBRANCH  11  14
ENDBRANCH   1  11
BRANCH   1  18
ATOM     18  O   LIG    1       23.470 -20.315   3.131  0.00  0.00    -0.360 OA
ATOM     19  H   LIG    1       23.537 -19.683   2.400  0.00  0.00    +0.213 HD
ENDBRANCH   1  18
BRANCH   7  20
ATOM     20  C   LIG    1       23.780 -14.451   4.518  0.00  0.00    +0.011 C 
BRANCH  20  21
ATOM     21  C   LIG    1       23.666 -13.748   3.150  0.00  0.00    +0.001 C 
BRANCH  21  22
ATOM     22  C   LIG    1       23.815 -12.218   3.195  0.00  0.00    +0.000 C 
BRANCH  22  23
ATOM     23  C   LIG    1       25.072 -11.729   2.446  0.00  0.00    +0.000 C 
BRANCH  23  24
ATOM     24  C   LIG    1       26.215 -12.756   2.443  0.00  0.00    +0.011 C 
BRANCH  24  25
ATOM     25  C   LIG    1       27.588 -12.131   2.684  0.00  0.00    +0.120 C 
BRANCH  25  26
ATOM     26  C   LIG    1       28.285 -12.710   3.899  0.00  0.00    +0.305 C 
ATOM     27  O   LIG    1       29.427 -13.106   3.908  0.00  0.00    -0.251 OA
BRANCH  26  28
ATOM     28  O   LIG    1       27.488 -12.738   4.998  0.00  0.00    -0.481 OA
ATOM     29  H   LIG    1       27.448 -11.905   5.498  0.00  0.00    +0.295 HD
ENDBRANCH  26  28
ENDBRANCH  25  26
ENDBRANCH  24  25
ENDBRANCH  23  24
ENDBRANCH  22  23
ENDBRANCH  21  22
ENDBRANCH  20  21
ENDBRANCH   7  20
TORSDOF 13
ENDMDL
MODEL 4
REMARK VINA RESULT:      -1.2      2.992      7.208
REMARK  Name = *****
REMARK                            x       y       z     vdW  Elec       q    Type
REMARK                         _______ _______ _______ _____ _____    ______ ____
ROOT
ATOM      1  C   LIG    1       26.609 -15.016   3.482  0.00  0.00    +0.233 C 
ATOM      2  O   LIG    1       25.308 -14.679   3.965  0.00  0.00    -0.340 OA
ATOM      3  C   LIG    1       24.260 -15.230   3.179  0.00  0.00    +0.133 C 
ATOM      4  C   LIG    1       22.934 -14.802   3.783  0.00  0.00    +0.106 C 
ATOM      5  C   LIG    1       22.713 -15.875   4.822  0.00  0.00    +0.139 C 
ATOM      6  O   LIG    1       21.911 -15.764   5.735  0.00  0.00    -0.297 OA
ATOM      7  C   LIG    1       23.600 -17.097   4.598  0.00  0.00    +0.061 C 
ATOM      8  C   LIG    1       24.257 -16.755   3.242  0.00  0.00    +0.029 C 
ATOM      9  C   LIG    1       25.639 -17.367   3.025  0.00  0.00    +0.012 C 
ATOM     10  C   LIG    1       26.800 -16.546   3.583  0.00  0.00    +0.071 C 
ENDROOT
BRANCH   1  11
ATOM     11  C   LIG    1       27.698 -14.288   4.338  0.00  0.00    +0.301 C 
ATOM     12  F   LIG    1       28.528 -15.255   4.824  0.00  0.00    -0.200 F 
ATOM     13  F   LIG    1       28.467 -13.487   3.548  0.00  0.00    -0.200 F 
BRANCH  11  14
ATOM     14  C   LIG    1       27.154 -13.432   5.491  0.00  0.00    +0.081 C 
BRANCH  14  15
ATOM     15  C   LIG    1       25.632 -13.226   5.444  0.00  0.00    +0.006 C 
BRANCH  15  17
ATOM     16  C   LIG    1       23.810 -11.448   5.221  0.00  0.00    +0.004 C 
ATOM     17  C   LIG    1       25.189 -11.919   4.776  0.00  0.00    -0.003 C 
ENDBRANCH  15  17
ENDBRANCH  14  15
ENDBRANCH  11  14
ENDBRANCH   1  11
BRANCH   1  18
ATOM     18  O   LIG    1       26.739 -14.590   2.117  0.00  0.00    -0.360 OA
ATOM     19  H   LIG    1       27.322 -15.202   1.642  0.00  0.00    +0.213 HD
ENDBRANCH   1  18
BRANCH   7  20
ATOM     20  C   LIG    1       22.848 -18.452   4.637  0.00  0.00    +0.011 C 
BRANCH  20  21
ATOM     21  C   LIG    1       23.625 -19.665   4.087  0.00  0.00    +0.001 C 
BRANCH  21  22
ATOM     22  C   LIG    1       23.355 -20.991   4.818  0.00  0.00    +0.000 C 
BRANCH  22  23
ATOM     23  C   LIG    1       24.593 -21.501   5.585  0.00  0.00    +0.000 C 
BRANCH  23  24
ATOM     24  C   LIG    1       25.362 -20.384   6.307  0.00  0.00    +0.011 C 
BRANCH  24  25
ATOM     25  C   LIG    1       26.696 -20.849   6.890  0.00  0.00    +0.120 C 
BRANCH  25  26
ATOM     26  C   LIG    1       27.884 -20.347   6.095  0.00  0.00    +0.305 C 
ATOM     27  O   LIG    1       29.033 -20.420   6.464  0.00  0.00    -0.251 OA
BRANCH  26  28
ATOM     28  O   LIG    1       27.527 -19.798   4.905  0.00  0.00    -0.481 OA
ATOM     29  H   LIG    1       26.718 -20.165   4.511  0.00  0.00    +0.295 HD
ENDBRANCH  26  28
ENDBRANCH  25  26
ENDBRANCH  24  25
ENDBRANCH  23  24
ENDBRANCH  22  23
ENDBRANCH  21  22
ENDBRANCH  20  21
ENDBRANCH   7  20
TORSDOF 13
ENDMDL
MODEL 5
REMARK VINA RESULT:      -1.0      2.997      6.845
REMARK  Name = *****
REMARK                            x       y       z     vdW  Elec       q    Type
REMARK                         _______ _______ _______ _____ _____    ______ ____
ROOT
ATOM      1  C   LIG    1       26.994 -14.631   4.141  0.00  0.00    +0.233 C 
ATOM      2  O   LIG    1       25.770 -15.324   3.895  0.00  0.00    -0.340 OA
ATOM      3  C   LIG    1       25.903 -16.370   2.942  0.00  0.00    +0.133 C 
ATOM      4  C   LIG    1       24.545 -17.026   2.760  0.00  0.00    +0.106 C 
ATOM      5  C   LIG    1       24.547 -18.045   3.874  0.00  0.00    +0.139 C 
ATOM      6  O   LIG    1       23.536 -18.597   4.274  0.00  0.00    -0.297 OA
ATOM      7  C   LIG    1       25.946 -18.298   4.430  0.00  0.00    +0.061 C 
ATOM      8  C   LIG    1       26.819 -17.478   3.453  0.00  0.00    +0.029 C 
ATOM      9  C   LIG    1       28.125 -16.952   4.044  0.00  0.00    +0.012 C 
ATOM     10  C   LIG    1       28.007 -15.613   4.769  0.00  0.00    +0.071 C 
ENDROOT
BRANCH   1  11
ATOM     11  C   LIG    1       26.739 -13.435   5.118  0.00  0.00    +0.301 C 
ATOM     12  F   LIG    1       26.155 -13.956   6.234  0.00  0.00    -0.200 F 
ATOM     13  F   LIG    1       27.921 -12.891   5.524  0.00  0.00    -0.200 F 
BRANCH  11  14
ATOM     14  C   LIG    1       25.870 -12.304   4.548  0.00  0.00    +0.081 C 
BRANCH  14  15
ATOM     15  C   LIG    1       24.378 -12.658   4.452  0.00  0.00    +0.006 C 
BRANCH  15  17
ATOM     16  C   LIG    1       24.701 -12.538   1.921  0.00  0.00    +0.004 C 
ATOM     17  C   LIG    1       23.742 -12.360   3.090  0.00  0.00    -0.003 C 
ENDBRANCH  15  17
ENDBRANCH  14  15
ENDBRANCH  11  14
ENDBRANCH   1  11
BRANCH   1  18
ATOM     18  O   LIG    1       27.509 -14.111   2.905  0.00  0.00    -0.360 OA
ATOM     19  H   LIG    1       28.275 -14.636   2.629  0.00  0.00    +0.213 HD
ENDBRANCH   1  18
BRANCH   7  20
ATOM     20  C   LIG    1       26.328 -19.796   4.550  0.00  0.00    +0.011 C 
BRANCH  20  21
ATOM     21  C   LIG    1       27.351 -20.139   5.652  0.00  0.00    +0.001 C 
BRANCH  21  22
ATOM     22  C   LIG    1       26.750 -20.332   7.054  0.00  0.00    +0.000 C 
BRANCH  22  23
ATOM     23  C   LIG    1       25.562 -21.316   7.052  0.00  0.00    +0.000 C 
BRANCH  23  24
ATOM     24  C   LIG    1       24.194 -20.618   7.025  0.00  0.00    +0.011 C 
BRANCH  24  25
ATOM     25  C   LIG    1       23.035 -21.572   6.738  0.00  0.00    +0.120 C 
BRANCH  25  26
ATOM     26  C   LIG    1       22.555 -21.488   5.303  0.00  0.00    +0.305 C 
ATOM     27  O   LIG    1       21.397 -21.372   4.975  0.00  0.00    -0.251 OA
BRANCH  26  28
ATOM     28  O   LIG    1       23.571 -21.554   4.404  0.00  0.00    -0.481 OA
ATOM     29  H   LIG    1       23.675 -20.766   3.844  0.00  0.00    +0.295 HD
ENDBRANCH  26  28
ENDBRANCH  25  26
ENDBRANCH  24  25
ENDBRANCH  23  24
ENDBRANCH  22  23
ENDBRANCH  21  22
ENDBRANCH  20  21
ENDBRANCH   7  20
TORSDOF 13
ENDMDL
MODEL 6
REMARK VINA RESULT:      -0.6      2.415      4.177
REMARK  Name = *****
REMARK                            x       y       z     vdW  Elec       q    Type
REMARK                         _______ _______ _______ _____ _____    ______ ____
ROOT
ATOM      1  C   LIG    1       25.630 -19.397   4.361  0.00  0.00    +0.233 C 
ATOM      2  O   LIG    1       26.418 -18.205   4.386  0.00  0.00    -0.340 OA
ATOM      3  C   LIG    1       26.163 -17.344   3.285  0.00  0.00    +0.133 C 
ATOM      4  C   LIG    1       27.056 -16.122   3.417  0.00  0.00    +0.106 C 
ATOM      5  C   LIG    1       26.222 -15.230   4.304  0.00  0.00    +0.139 C 
ATOM      6  O   LIG    1       26.677 -14.265   4.897  0.00  0.00    -0.297 OA
ATOM      7  C   LIG    1       24.762 -15.671   4.369  0.00  0.00    +0.061 C 
ATOM      8  C   LIG    1       24.736 -16.803   3.317  0.00  0.00    +0.029 C 
ATOM      9  C   LIG    1       23.690 -17.887   3.565  0.00  0.00    +0.012 C 
ATOM     10  C   LIG    1       24.140 -19.013   4.494  0.00  0.00    +0.071 C 
ENDROOT
BRANCH   1  11
ATOM     11  C   LIG    1       26.046 -20.332   5.544  0.00  0.00    +0.301 C 
ATOM     12  F   LIG    1       27.335 -20.709   5.313  0.00  0.00    -0.200 F 
ATOM     13  F   LIG    1       26.055 -19.639   6.718  0.00  0.00    -0.200 F 
BRANCH  11  14
ATOM     14  C   LIG    1       25.160 -21.572   5.736  0.00  0.00    +0.081 C 
BRANCH  14  15
ATOM     15  C   LIG    1       24.365 -21.568   7.051  0.00  0.00    +0.006 C 
BRANCH  15  17
ATOM     16  C   LIG    1       22.387 -21.457   5.437  0.00  0.00    +0.004 C 
ATOM     17  C   LIG    1       22.859 -21.340   6.881  0.00  0.00    -0.003 C 
ENDBRANCH  15  17
ENDBRANCH  14  15
ENDBRANCH  11  14
ENDBRANCH   1  11
BRANCH   1  18
ATOM     18  O   LIG    1       25.854 -20.094   3.125  0.00  0.00    -0.360 OA
ATOM     19  H   LIG    1       26.378 -19.536   2.531  0.00  0.00    +0.213 HD
ENDBRANCH   1  18
BRANCH   7  20
ATOM     20  C   LIG    1       23.736 -14.534   4.131  0.00  0.00    +0.011 C 
BRANCH  20  21
ATOM     21  C   LIG    1       23.950 -13.695   2.855  0.00  0.00    +0.001 C 
BRANCH  21  22
ATOM     22  C   LIG    1       23.901 -12.172   3.067  0.00  0.00    +0.000 C 
BRANCH  22  23
ATOM     23  C   LIG    1       25.250 -11.493   2.750  0.00  0.00    +0.000 C 
BRANCH  23  24
ATOM     24  C   LIG    1       26.412 -12.487   2.603  0.00  0.00    +0.011 C 
BRANCH  24  25
ATOM     25  C   LIG    1       27.785 -11.841   2.778  0.00  0.00    +0.120 C 
BRANCH  25  26
ATOM     26  C   LIG    1       28.675 -12.614   3.730  0.00  0.00    +0.305 C 
ATOM     27  O   LIG    1       29.144 -13.703   3.495  0.00  0.00    -0.251 OA
BRANCH  26  28
ATOM     28  O   LIG    1       28.900 -11.951   4.894  0.00  0.00    -0.481 OA
ATOM     29  H   LIG    1       29.837 -11.814   5.113  0.00  0.00    +0.295 HD
ENDBRANCH  26  28
ENDBRANCH  25  26
ENDBRANCH  24  25
ENDBRANCH  23  24
ENDBRANCH  22  23
ENDBRANCH  21  22
ENDBRANCH  20  21
ENDBRANCH   7  20
TORSDOF 13
ENDMDL
MODEL 7
REMARK VINA RESULT:      -0.4      2.422      6.366
REMARK  Name = *****
REMARK                            x       y       z     vdW  Elec       q    Type
REMARK                         _______ _______ _______ _____ _____    ______ ____
ROOT
ATOM      1  C   LIG    1       24.128 -15.891   3.857  0.00  0.00    +0.233 C 
ATOM      2  O   LIG    1       23.189 -16.795   4.442  0.00  0.00    -0.340 OA
ATOM      3  C   LIG    1       22.853 -17.881   3.589  0.00  0.00    +0.133 C 
ATOM      4  C   LIG    1       21.851 -18.765   4.312  0.00  0.00    +0.106 C 
ATOM      5  C   LIG    1       22.762 -19.673   5.103  0.00  0.00    +0.139 C 
ATOM      6  O   LIG    1       22.378 -20.349   6.043  0.00  0.00    -0.297 OA
ATOM      7  C   LIG    1       24.201 -19.644   4.593  0.00  0.00    +0.061 C 
ATOM      8  C   LIG    1       24.060 -18.776   3.323  0.00  0.00    +0.029 C 
ATOM      9  C   LIG    1       25.313 -17.994   2.936  0.00  0.00    +0.012 C 
ATOM     10  C   LIG    1       25.459 -16.637   3.621  0.00  0.00    +0.071 C 
ENDROOT
BRANCH   1  11
ATOM     11  C   LIG    1       24.362 -14.676   4.815  0.00  0.00    +0.301 C 
ATOM     12  F   LIG    1       23.357 -14.702   5.736  0.00  0.00    -0.200 F 
ATOM     13  F   LIG    1       25.522 -14.837   5.513  0.00  0.00    -0.200 F 
BRANCH  11  14
ATOM     14  C   LIG    1       24.411 -13.304   4.127  0.00  0.00    +0.081 C 
BRANCH  14  15
ATOM     15  C   LIG    1       25.833 -12.842   3.770  0.00  0.00    +0.006 C 
BRANCH  15  17
ATOM     16  C   LIG    1       28.098 -13.900   3.247  0.00  0.00    +0.004 C 
ATOM     17  C   LIG    1       26.618 -13.824   2.895  0.00  0.00    -0.003 C 
ENDBRANCH  15  17
ENDBRANCH  14  15
ENDBRANCH  11  14
ENDBRANCH   1  11
BRANCH   1  18
ATOM     18  O   LIG    1       23.607 -15.399   2.612  0.00  0.00    -0.360 OA
ATOM     19  H   LIG    1       23.872 -14.474   2.496  0.00  0.00    +0.213 HD
ENDBRANCH   1  18
BRANCH   7  20
ATOM     20  C   LIG    1       24.829 -21.043   4.364  0.00  0.00    +0.011 C 
BRANCH  20  21
ATOM     21  C   LIG    1       26.141 -21.320   5.125  0.00  0.00    +0.001 C 
BRANCH  21  22
ATOM     22  C   LIG    1       26.101 -20.988   6.626  0.00  0.00    +0.000 C 
BRANCH  22  23
ATOM     23  C   LIG    1       27.282 -20.095   7.061  0.00  0.00    +0.000 C 
BRANCH  23  24
ATOM     24  C   LIG    1       28.654 -20.738   6.811  0.00  0.00    +0.011 C 
BRANCH  24  25
ATOM     25  C   LIG    1       29.446 -20.056   5.696  0.00  0.00    +0.120 C 
BRANCH  25  26
ATOM     26  C   LIG    1       29.395 -18.544   5.789  0.00  0.00    +0.305 C 
ATOM     27  O   LIG    1       29.469 -17.920   6.821  0.00  0.00    -0.251 OA
BRANCH  26  28
ATOM     28  O   LIG    1       29.258 -17.948   4.576  0.00  0.00    -0.481 OA
ATOM     29  H   LIG    1       29.681 -18.418   3.838  0.00  0.00    +0.295 HD
ENDBRANCH  26  28
ENDBRANCH  25  26
ENDBRANCH  24  25
ENDBRANCH  23  24
ENDBRANCH  22  23
ENDBRANCH  21  22
ENDBRANCH  20  21
ENDBRANCH   7  20
TORSDOF 13
ENDMDL
MODEL 8
REMARK VINA RESULT:      -0.3      3.154      7.855
REMARK  Name = *****
REMARK                            x       y       z     vdW  Elec       q    Type
REMARK                         _______ _______ _______ _____ _____    ______ ____
ROOT
ATOM      1  C   LIG    1       26.675 -13.070   3.420  0.00  0.00    +0.233 C 
ATOM      2  O   LIG    1       25.712 -12.994   4.473  0.00  0.00    -0.340 OA
ATOM      3  C   LIG    1       24.383 -12.815   4.002  0.00  0.00    +0.133 C 
ATOM      4  C   LIG    1       23.456 -12.744   5.204  0.00  0.00    +0.106 C 
ATOM      5  C   LIG    1       23.168 -14.205   5.452  0.00  0.00    +0.139 C 
ATOM      6  O   LIG    1       22.695 -14.624   6.496  0.00  0.00    -0.297 OA
ATOM      7  C   LIG    1       23.532 -15.084   4.258  0.00  0.00    +0.061 C 
ATOM      8  C   LIG    1       23.908 -14.023   3.199  0.00  0.00    +0.029 C 
ATOM      9  C   LIG    1       24.922 -14.486   2.156  0.00  0.00    +0.012 C 
ATOM     10  C   LIG    1       26.385 -14.323   2.567  0.00  0.00    +0.071 C 
ENDROOT
BRANCH   1  11
ATOM     11  C   LIG    1       28.116 -13.161   4.025  0.00  0.00    +0.301 C 
ATOM     12  F   LIG    1       28.908 -12.339   3.280  0.00  0.00    -0.200 F 
ATOM     13  F   LIG    1       28.132 -12.661   5.293  0.00  0.00    -0.200 F 
BRANCH  11  14
ATOM     14  C   LIG    1       28.715 -14.574   4.067  0.00  0.00    +0.081 C 
BRANCH  14  15
ATOM     15  C   LIG    1       27.830 -15.600   4.793  0.00  0.00    +0.006 C 
BRANCH  15  17
ATOM     16  C   LIG    1       28.821 -17.937   5.080  0.00  0.00    +0.004 C 
ATOM     17  C   LIG    1       27.932 -17.027   4.242  0.00  0.00    -0.003 C 
ENDBRANCH  15  17
ENDBRANCH  14  15
ENDBRANCH  11  14
ENDBRANCH   1  11
BRANCH   1  18
ATOM     18  O   LIG    1       26.593 -11.887   2.609  0.00  0.00    -0.360 OA
ATOM     19  H   LIG    1       27.395 -11.358   2.730  0.00  0.00    +0.213 HD
ENDBRANCH   1  18
BRANCH   7  20
ATOM     20  C   LIG    1       22.421 -16.074   3.826  0.00  0.00    +0.011 C 
BRANCH  20  21
ATOM     21  C   LIG    1       22.260 -17.327   4.712  0.00  0.00    +0.001 C 
BRANCH  21  22
ATOM     22  C   LIG    1       22.768 -18.634   4.080  0.00  0.00    +0.000 C 
BRANCH  22  23
ATOM     23  C   LIG    1       22.285 -19.882   4.849  0.00  0.00    +0.000 C 
BRANCH  23  24
ATOM     24  C   LIG    1       23.243 -20.314   5.970  0.00  0.00    +0.011 C 
BRANCH  24  25
ATOM     25  C   LIG    1       24.369 -21.225   5.483  0.00  0.00    +0.120 C 
BRANCH  25  26
ATOM     26  C   LIG    1       25.715 -20.529   5.470  0.00  0.00    +0.305 C 
ATOM     27  O   LIG    1       26.371 -20.291   6.457  0.00  0.00    -0.251 OA
BRANCH  26  28
ATOM     28  O   LIG    1       26.122 -20.194   4.218  0.00  0.00    -0.481 OA
ATOM     29  H   LIG    1       27.030 -19.853   4.159  0.00  0.00    +0.295 HD
ENDBRANCH  26  28
ENDBRANCH  25  26
ENDBRANCH  24  25
ENDBRANCH  23  24
ENDBRANCH  22  23
ENDBRANCH  21  22
ENDBRANCH  20  21
ENDBRANCH   7  20
TORSDOF 13
ENDMDL
MODEL 9
REMARK VINA RESULT:       0.2      2.892      6.960
REMARK  Name = *****
REMARK                            x       y       z     vdW  Elec       q    Type
REMARK                         _______ _______ _______ _____ _____    ______ ____
ROOT
ATOM      1  C   LIG    1       25.257 -15.091   3.738  0.00  0.00    +0.233 C 
ATOM      2  O   LIG    1       25.466 -16.407   3.223  0.00  0.00    -0.340 OA
ATOM      3  C   LIG    1       25.355 -17.419   4.215  0.00  0.00    +0.133 C 
ATOM      4  C   LIG    1       25.600 -18.765   3.553  0.00  0.00    +0.106 C 
ATOM      5  C   LIG    1       24.220 -19.112   3.050  0.00  0.00    +0.139 C 
ATOM      6  O   LIG    1       24.013 -19.973   2.210  0.00  0.00    -0.297 OA
ATOM      7  C   LIG    1       23.130 -18.270   3.708  0.00  0.00    +0.061 C 
ATOM      8  C   LIG    1       23.938 -17.500   4.775  0.00  0.00    +0.029 C 
ATOM      9  C   LIG    1       23.366 -16.136   5.155  0.00  0.00    +0.012 C 
ATOM     10  C   LIG    1       23.806 -14.982   4.257  0.00  0.00    +0.071 C 
ENDROOT
BRANCH   1  11
ATOM     11  C   LIG    1       25.498 -14.035   2.609  0.00  0.00    +0.301 C 
ATOM     12  F   LIG    1       26.488 -14.530   1.813  0.00  0.00    -0.200 F 
ATOM     13  F   LIG    1       24.393 -13.923   1.819  0.00  0.00    -0.200 F 
BRANCH  11  14
ATOM     14  C   LIG    1       25.871 -12.629   3.102  0.00  0.00    +0.081 C 
BRANCH  14  15
ATOM     15  C   LIG    1       24.788 -11.572   2.835  0.00  0.00    +0.006 C 
BRANCH  15  17
ATOM     16  C   LIG    1       24.110 -11.650   5.297  0.00  0.00    +0.004 C 
ATOM     17  C   LIG    1       23.640 -11.571   3.850  0.00  0.00    -0.003 C 
ENDBRANCH  15  17
ENDBRANCH  14  15
ENDBRANCH  11  14
ENDBRANCH   1  11
BRANCH   1  18
ATOM     18  O   LIG    1       26.185 -14.841   4.805  0.00  0.00    -0.360 OA
ATOM     19  H   LIG    1       26.713 -14.056   4.595  0.00  0.00    +0.213 HD
ENDBRANCH   1  18
BRANCH   7  20
ATOM     20  C   LIG    1       21.932 -19.087   4.257  0.00  0.00    +0.011 C 
BRANCH  20  21
ATOM     21  C   LIG    1       22.062 -20.620   4.151  0.00  0.00    +0.001 C 
BRANCH  21  22
ATOM     22  C   LIG    1       23.068 -21.252   5.126  0.00  0.00    +0.000 C 
BRANCH  22  23
ATOM     23  C   LIG    1       23.235 -20.421   6.416  0.00  0.00    +0.000 C 
BRANCH  23  24
ATOM     24  C   LIG    1       24.648 -20.502   7.012  0.00  0.00    +0.011 C 
BRANCH  24  25
ATOM     25  C   LIG    1       25.736 -20.716   5.961  0.00  0.00    +0.120 C 
BRANCH  25  26
ATOM     26  C   LIG    1       27.127 -20.456   6.501  0.00  0.00    +0.305 C 
ATOM     27  O   LIG    1       27.676 -19.379   6.487  0.00  0.00    -0.251 OA
BRANCH  26  28
ATOM     28  O   LIG    1       27.708 -21.571   7.016  0.00  0.00    -0.481 OA
ATOM     29  H   LIG    1       28.127 -21.452   7.885  0.00  0.00    +0.295 HD
ENDBRANCH  26  28
ENDBRANCH  25  26
ENDBRANCH  24  25
ENDBRANCH  23  24
ENDBRANCH  22  23
ENDBRANCH  21  22
ENDBRANCH  20  21
ENDBRANCH   7  20
TORSDOF 13
ENDMDL
