MODEL 1
REMARK VINA RESULT:      -5.0      0.000      0.000
REMARK  Name = *****
REMARK                            x       y       z     vdW  Elec       q    Type
REMARK                         _______ _______ _______ _____ _____    ______ ____
ROOT
ATOM      1  C   LIG    1       25.112 -17.582   3.524  0.00  0.00    +0.253 C 
ATOM      2  N   LIG    1       24.833 -16.266   3.829  0.00  0.00    -0.260 N 
ATOM      3  H   LIG    1       24.025 -16.058   4.398  0.00  0.00    +0.157 HD
ATOM      4  O   LIG    1       26.117 -18.000   2.949  0.00  0.00    -0.270 OA
ENDROOT
BRANCH   1   6
ATOM      5  C   LIG    1       24.408 -19.848   4.472  0.00  0.00    +0.144 A 
ATOM      6  C   LIG    1       24.086 -18.578   3.956  0.00  0.00    +0.079 A 
ATOM      7  C   LIG    1       22.732 -18.217   3.837  0.00  0.00    +0.017 A 
ATOM      8  C   LIG    1       21.724 -19.090   4.253  0.00  0.00    +0.001 A 
ATOM      9  C   LIG    1       22.060 -20.319   4.813  0.00  0.00    +0.004 A 
ATOM     10  C   LIG    1       23.397 -20.694   4.928  0.00  0.00    +0.047 A 
BRANCH   5  11
ATOM     11  O   LIG    1       25.778 -20.237   4.487  0.00  0.00    -0.425 OA
BRANCH  11  13
ATOM     12  C   LIG    1       27.840 -19.695   5.518  0.00  0.00    +0.136 C 
ATOM     13  C   LIG    1       26.566 -20.471   5.618  0.00  0.00    +0.309 C 
ATOM     14  O   LIG    1       26.270 -21.154   6.591  0.00  0.00    -0.251 OA
ENDBRANCH  11  13
ENDBRANCH   5  11
ENDBRANCH   1   6
BRANCH   2  15
ATOM     15  C   LIG    1       25.658 -15.195   3.630  0.00  0.00    +0.171 A 
ATOM     16  S   LIG    1       27.146 -15.043   4.447  0.00  0.00    +0.022 S 
ATOM     17  C   LIG    1       27.432 -13.599   3.609  0.00  0.00    +0.332 A 
ATOM     18  C   LIG    1       26.388 -13.306   2.764  0.00  0.00    +0.205 A 
ATOM     19  N   LIG    1       25.378 -14.260   2.750  0.00  0.00    -0.226 NA
BRANCH  17  20
ATOM     20  N   LIG    1       28.629 -12.850   3.806  0.00  0.00    +0.089 N 
ATOM     21  O   LIG    1       29.474 -12.846   2.902  0.00  0.00    -0.576 OA
ATOM     22  O   LIG    1       28.726 -12.246   4.881  0.00  0.00    +0.042 OA
ENDBRANCH  17  20
ENDBRANCH   2  15
TORSDOF 5
ENDMDL
MODEL 2
REMARK VINA RESULT:      -4.4      2.141      2.582
REMARK  Name = *****
REMARK                            x       y       z     vdW  Elec       q    Type
REMARK                         _______ _______ _______ _____ _____    ______ ____
ROOT
ATOM      1  C   LIG    1       25.306 -18.145   3.616  0.00  0.00    +0.253 C 
ATOM      2  N   LIG    1       24.751 -16.964   4.064  0.00  0.00    -0.260 N 
ATOM      3  H   LIG    1       24.248 -16.962   4.940  0.00  0.00    +0.157 HD
ATOM      4  O   LIG    1       26.043 -18.280   2.640  0.00  0.00    -0.270 OA
ENDROOT
BRANCH   1   6
ATOM      5  C   LIG    1       25.943 -20.104   5.129  0.00  0.00    +0.144 A 
ATOM      6  C   LIG    1       24.978 -19.359   4.422  0.00  0.00    +0.079 A 
ATOM      7  C   LIG    1       23.634 -19.771   4.468  0.00  0.00    +0.017 A 
ATOM      8  C   LIG    1       23.257 -20.880   5.229  0.00  0.00    +0.001 A 
ATOM      9  C   LIG    1       24.213 -21.572   5.967  0.00  0.00    +0.004 A 
ATOM     10  C   LIG    1       25.550 -21.181   5.922  0.00  0.00    +0.047 A 
BRANCH   5  11
ATOM     11  O   LIG    1       27.311 -19.735   4.986  0.00  0.00    -0.425 OA
BRANCH  11  13
ATOM     12  C   LIG    1       29.379 -18.773   5.623  0.00  0.00    +0.136 C 
ATOM     13  C   LIG    1       28.278 -19.714   5.994  0.00  0.00    +0.309 C 
ATOM     14  O   LIG    1       28.241 -20.317   7.061  0.00  0.00    -0.251 OA
ENDBRANCH  11  13
ENDBRANCH   5  11
ENDBRANCH   1   6
BRANCH   2  15
ATOM     15  C   LIG    1       24.985 -15.716   3.560  0.00  0.00    +0.171 A 
ATOM     16  S   LIG    1       23.867 -14.444   3.754  0.00  0.00    +0.022 S 
ATOM     17  C   LIG    1       24.932 -13.413   2.934  0.00  0.00    +0.332 A 
ATOM     18  C   LIG    1       26.069 -14.085   2.552  0.00  0.00    +0.205 A 
ATOM     19  N   LIG    1       26.112 -15.413   2.956  0.00  0.00    -0.226 NA
BRANCH  17  20
ATOM     20  N   LIG    1       24.617 -12.040   2.718  0.00  0.00    +0.089 N 
ATOM     21  O   LIG    1       23.730 -11.525   3.409  0.00  0.00    -0.576 OA
ATOM     22  O   LIG    1       25.275 -11.458   1.846  0.00  0.00    +0.042 OA
ENDBRANCH  17  20
ENDBRANCH   2  15
TORSDOF 5
ENDMDL
MODEL 3
REMARK VINA RESULT:      -3.9      2.234      3.602
REMARK  Name = *****
REMARK                            x       y       z     vdW  Elec       q    Type
REMARK                         _______ _______ _______ _____ _____    ______ ____
ROOT
ATOM      1  C   LIG    1       25.836 -18.065   3.628  0.00  0.00    +0.253 C 
ATOM      2  N   LIG    1       25.661 -16.858   4.273  0.00  0.00    -0.260 N 
ATOM      3  H   LIG    1       25.759 -16.822   5.277  0.00  0.00    +0.157 HD
ATOM      4  O   LIG    1       25.869 -18.244   2.410  0.00  0.00    -0.270 OA
ENDROOT
BRANCH   1   6
ATOM      5  C   LIG    1       25.053 -20.269   4.657  0.00  0.00    +0.144 A 
ATOM      6  C   LIG    1       26.018 -19.252   4.517  0.00  0.00    +0.079 A 
ATOM      7  C   LIG    1       27.217 -19.348   5.245  0.00  0.00    +0.017 A 
ATOM      8  C   LIG    1       27.461 -20.449   6.069  0.00  0.00    +0.001 A 
ATOM      9  C   LIG    1       26.522 -21.473   6.154  0.00  0.00    +0.004 A 
ATOM     10  C   LIG    1       25.325 -21.386   5.446  0.00  0.00    +0.047 A 
BRANCH   5  11
ATOM     11  O   LIG    1       23.803 -20.103   3.994  0.00  0.00    -0.425 OA
BRANCH  11  13
ATOM     12  C   LIG    1       22.218 -18.498   4.717  0.00  0.00    +0.136 C 
ATOM     13  C   LIG    1       22.552 -19.951   4.599  0.00  0.00    +0.309 C 
ATOM     14  O   LIG    1       21.789 -20.846   4.945  0.00  0.00    -0.251 OA
ENDBRANCH  11  13
ENDBRANCH   5  11
ENDBRANCH   1   6
BRANCH   2  15
ATOM     15  C   LIG    1       25.578 -15.628   3.683  0.00  0.00    +0.171 A 
ATOM     16  S   LIG    1       24.328 -14.533   4.060  0.00  0.00    +0.022 S 
ATOM     17  C   LIG    1       25.019 -13.412   2.995  0.00  0.00    +0.332 A 
ATOM     18  C   LIG    1       26.151 -13.927   2.407  0.00  0.00    +0.205 A 
ATOM     19  N   LIG    1       26.494 -15.200   2.843  0.00  0.00    -0.226 NA
BRANCH  17  20
ATOM     20  N   LIG    1       24.444 -12.123   2.797  0.00  0.00    +0.089 N 
ATOM     21  O   LIG    1       23.604 -11.724   3.613  0.00  0.00    -0.576 OA
ATOM     22  O   LIG    1       24.846 -11.490   1.813  0.00  0.00    +0.042 OA
ENDBRANCH  17  20
ENDBRANCH   2  15
TORSDOF 5
ENDMDL
MODEL 4
REMARK VINA RESULT:      -3.8      2.880      6.905
REMARK  Name = *****
REMARK                            x       y       z     vdW  Elec       q    Type
REMARK                         _______ _______ _______ _____ _____    ______ ____
ROOT
ATOM      1  C   LIG    1       23.820 -15.395   4.107  0.00  0.00    +0.253 C 
ATOM      2  N   LIG    1       24.254 -16.551   3.493  0.00  0.00    -0.260 N 
ATOM      3  H   LIG    1       24.932 -16.483   2.747  0.00  0.00    +0.157 HD
ATOM      4  O   LIG    1       23.096 -15.324   5.101  0.00  0.00    -0.270 OA
ENDROOT
BRANCH   1   6
ATOM      5  C   LIG    1       25.511 -14.011   2.782  0.00  0.00    +0.144 A 
ATOM      6  C   LIG    1       24.303 -14.119   3.498  0.00  0.00    +0.079 A 
ATOM      7  C   LIG    1       23.502 -12.973   3.655  0.00  0.00    +0.017 A 
ATOM      8  C   LIG    1       23.881 -11.757   3.083  0.00  0.00    +0.001 A 
ATOM      9  C   LIG    1       25.050 -11.680   2.331  0.00  0.00    +0.004 A 
ATOM     10  C   LIG    1       25.858 -12.804   2.175  0.00  0.00    +0.047 A 
BRANCH   5  11
ATOM     11  O   LIG    1       26.360 -15.154   2.723  0.00  0.00    -0.425 OA
BRANCH  11  13
ATOM     12  C   LIG    1       27.933 -14.341   4.295  0.00  0.00    +0.136 C 
ATOM     13  C   LIG    1       27.296 -15.547   3.682  0.00  0.00    +0.309 C 
ATOM     14  O   LIG    1       27.548 -16.693   4.038  0.00  0.00    -0.251 OA
ENDBRANCH  11  13
ENDBRANCH   5  11
ENDBRANCH   1   6
BRANCH   2  15
ATOM     15  C   LIG    1       24.033 -17.829   3.922  0.00  0.00    +0.171 A 
ATOM     16  S   LIG    1       22.510 -18.333   4.498  0.00  0.00    +0.022 S 
ATOM     17  C   LIG    1       23.134 -19.891   4.720  0.00  0.00    +0.332 A 
ATOM     18  C   LIG    1       24.458 -19.946   4.354  0.00  0.00    +0.205 A 
ATOM     19  N   LIG    1       24.963 -18.754   3.851  0.00  0.00    -0.226 NA
BRANCH  17  20
ATOM     20  N   LIG    1       22.323 -20.953   5.217  0.00  0.00    +0.089 N 
ATOM     21  O   LIG    1       21.251 -21.189   4.647  0.00  0.00    -0.576 OA
ATOM     22  O   LIG    1       22.768 -21.571   6.192  0.00  0.00    +0.042 OA
ENDBRANCH  17  20
ENDBRANCH   2  15
TORSDOF 5
ENDMDL
MODEL 5
REMARK VINA RESULT:      -2.3      1.799      2.001
REMARK  Name = *****
REMARK                            x       y       z     vdW  Elec       q    Type
REMARK                         _______ _______ _______ _____ _____    ______ ____
ROOT
ATOM      1  C   LIG    1       23.527 -17.631   4.230  0.00  0.00    +0.253 C 
ATOM      2  N   LIG    1       24.833 -17.525   3.800  0.00  0.00    -0.260 N 
ATOM      3  H   LIG    1       25.335 -18.365   3.550  0.00  0.00    +0.157 HD
ATOM      4  O   LIG    1       22.754 -16.698   4.452  0.00  0.00    -0.270 OA
ENDROOT
BRANCH   1   6
ATOM      5  C   LIG    1       23.848 -20.104   4.786  0.00  0.00    +0.144 A 
ATOM      6  C   LIG    1       23.021 -19.023   4.424  0.00  0.00    +0.079 A 
ATOM      7  C   LIG    1       21.647 -19.254   4.232  0.00  0.00    +0.017 A 
ATOM      8  C   LIG    1       21.106 -20.526   4.428  0.00  0.00    +0.001 A 
ATOM      9  C   LIG    1       21.927 -21.572   4.840  0.00  0.00    +0.004 A 
ATOM     10  C   LIG    1       23.292 -21.361   5.025  0.00  0.00    +0.047 A 
BRANCH   5  11
ATOM     11  O   LIG    1       25.252 -19.875   4.874  0.00  0.00    -0.425 OA
BRANCH  11  13
ATOM     12  C   LIG    1       27.504 -19.867   5.605  0.00  0.00    +0.136 C 
ATOM     13  C   LIG    1       26.113 -20.350   5.865  0.00  0.00    +0.309 C 
ATOM     14  O   LIG    1       25.807 -21.018   6.847  0.00  0.00    -0.251 OA
ENDBRANCH  11  13
ENDBRANCH   5  11
ENDBRANCH   1   6
BRANCH   2  15
ATOM     15  C   LIG    1       25.483 -16.372   3.457  0.00  0.00    +0.171 A 
ATOM     16  S   LIG    1       24.655 -14.893   3.278  0.00  0.00    +0.022 S 
ATOM     17  C   LIG    1       26.130 -14.136   2.934  0.00  0.00    +0.332 A 
ATOM     18  C   LIG    1       27.166 -15.040   2.965  0.00  0.00    +0.205 A 
ATOM     19  N   LIG    1       26.788 -16.331   3.311  0.00  0.00    -0.226 NA
BRANCH  17  20
ATOM     20  N   LIG    1       26.202 -12.738   2.665  0.00  0.00    +0.089 N 
ATOM     21  O   LIG    1       25.205 -12.178   2.195  0.00  0.00    -0.576 OA
ATOM     22  O   LIG    1       27.274 -12.182   2.938  0.00  0.00    +0.042 OA
ENDBRANCH  17  20
ENDBRANCH   2  15
TORSDOF 5
ENDMDL
MODEL 6
REMARK VINA RESULT:      -2.1      2.230      4.005
REMARK  Name = *****
REMARK                            x       y       z     vdW  Elec       q    Type
REMARK                         _______ _______ _______ _____ _____    ______ ____
ROOT
ATOM      1  C   LIG    1       27.997 -17.793   4.814  0.00  0.00    +0.253 C 
ATOM      2  N   LIG    1       26.810 -17.334   4.283  0.00  0.00    -0.260 N 
ATOM      3  H   LIG    1       25.958 -17.837   4.483  0.00  0.00    +0.157 HD
ATOM      4  O   LIG    1       29.089 -17.226   4.761  0.00  0.00    -0.270 OA
ENDROOT
BRANCH   1   6
ATOM      5  C   LIG    1       26.802 -19.956   5.467  0.00  0.00    +0.144 A 
ATOM      6  C   LIG    1       27.920 -19.101   5.532  0.00  0.00    +0.079 A 
ATOM      7  C   LIG    1       29.026 -19.488   6.309  0.00  0.00    +0.017 A 
ATOM      8  C   LIG    1       29.030 -20.713   6.979  0.00  0.00    +0.001 A 
ATOM      9  C   LIG    1       27.941 -21.572   6.860  0.00  0.00    +0.004 A 
ATOM     10  C   LIG    1       26.834 -21.197   6.101  0.00  0.00    +0.047 A 
BRANCH   5  11
ATOM     11  O   LIG    1       25.651 -19.501   4.761  0.00  0.00    -0.425 OA
BRANCH  11  13
ATOM     12  C   LIG    1       23.419 -20.075   5.306  0.00  0.00    +0.136 C 
ATOM     13  C   LIG    1       24.560 -20.276   4.360  0.00  0.00    +0.309 C 
ATOM     14  O   LIG    1       24.488 -20.983   3.361  0.00  0.00    -0.251 OA
ENDBRANCH  11  13
ENDBRANCH   5  11
ENDBRANCH   1   6
BRANCH   2  15
ATOM     15  C   LIG    1       26.607 -16.125   3.676  0.00  0.00    +0.171 A 
ATOM     16  S   LIG    1       25.083 -15.363   3.679  0.00  0.00    +0.022 S 
ATOM     17  C   LIG    1       25.757 -14.062   2.831  0.00  0.00    +0.332 A 
ATOM     18  C   LIG    1       27.093 -14.275   2.585  0.00  0.00    +0.205 A 
ATOM     19  N   LIG    1       27.591 -15.458   3.117  0.00  0.00    -0.226 NA
BRANCH  17  20
ATOM     20  N   LIG    1       24.975 -12.928   2.465  0.00  0.00    +0.089 N 
ATOM     21  O   LIG    1       25.539 -11.983   1.901  0.00  0.00    -0.576 OA
ATOM     22  O   LIG    1       23.769 -12.984   2.738  0.00  0.00    +0.042 OA
ENDBRANCH  17  20
ENDBRANCH   2  15
TORSDOF 5
ENDMDL
