MODEL 1
REMARK VINA RESULT:      -9.9      0.000      0.000
REMARK  Name = *****
REMARK                            x       y       z     vdW  Elec       q    Type
REMARK                         _______ _______ _______ _____ _____    ______ ____
ROOT
ATOM      1  C   LIG    1       26.738 -20.433   6.190  0.00  0.00    +0.086 C 
ENDROOT
BRANCH   1   2
ATOM      2  N   LIG    1       25.285 -20.411   6.467  0.00  0.00    -0.299 NA
ATOM      3  C   LIG    1       24.477 -20.988   5.372  0.00  0.00    +0.103 C 
ATOM      4  C   LIG    1       24.783 -22.462   5.053  0.00  0.00    +0.120 C 
ATOM      5  N   LIG    1       24.770 -23.348   6.243  0.00  0.00    -0.327 N 
ATOM      6  C   LIG    1       25.294 -22.753   7.503  0.00  0.00    +0.120 C 
ATOM      7  C   LIG    1       24.985 -21.243   7.657  0.00  0.00    +0.103 C 
BRANCH   5   8
ATOM      8  C   LIG    1       25.136 -24.697   6.010  0.00  0.00    +0.031 A 
ATOM      9  C   LIG    1       25.502 -25.556   7.062  0.00  0.00    +0.043 A 
ATOM     10  C   LIG    1       25.875 -26.884   6.830  0.00  0.00    +0.043 A 
ATOM     11 CL   LIG    1       26.341 -27.880   8.157  0.00  0.00    -0.084 Cl
ATOM     12  C   LIG    1       25.881 -27.409   5.546  0.00  0.00    +0.020 A 
ATOM     13  C   LIG    1       25.501 -26.598   4.486  0.00  0.00    +0.003 A 
ATOM     14  C   LIG    1       25.124 -25.271   4.721  0.00  0.00    +0.023 A 
ENDBRANCH   5   8
ENDBRANCH   1   2
BRANCH   1  15
ATOM     15  C   LIG    1       27.619 -20.378   7.444  0.00  0.00    +0.039 C 
BRANCH  15  16
ATOM     16  C   LIG    1       29.112 -20.312   7.110  0.00  0.00    +0.150 C 
BRANCH  16  19
ATOM     17  O   LIG    1       31.897 -19.181   6.779  0.00  0.00    -0.244 OA
ATOM     18  C   LIG    1       31.154 -18.894   7.701  0.00  0.00    +0.351 C 
ATOM     19  N   LIG    1       29.851 -19.374   7.929  0.00  0.00    -0.212 N 
ATOM     20  N   LIG    1       29.326 -18.829   9.088  0.00  0.00    -0.149 NA
ATOM     21  C   LIG    1       30.275 -18.056   9.520  0.00  0.00    +0.162 C 
ATOM     22  C   LIG    1       30.268 -17.213  10.734  0.00  0.00    +0.049 C 
ATOM     23  C   LIG    1       31.361 -16.474  10.988  0.00  0.00    +0.005 C 
ATOM     24  C   LIG    1       32.514 -16.498  10.105  0.00  0.00    +0.018 C 
ATOM     25  C   LIG    1       32.502 -17.279   9.012  0.00  0.00    +0.098 C 
ATOM     26  N   LIG    1       31.394 -18.035   8.751  0.00  0.00    -0.251 N 
ENDBRANCH  16  19
ENDBRANCH  15  16
ENDBRANCH   1  15
TORSDOF 5
ENDMDL
MODEL 2
REMARK VINA RESULT:      -9.1      1.212      1.600
REMARK  Name = *****
REMARK                            x       y       z     vdW  Elec       q    Type
REMARK                         _______ _______ _______ _____ _____    ______ ____
ROOT
ATOM      1  C   LIG    1       27.657 -20.418   5.835  0.00  0.00    +0.086 C 
ENDROOT
BRANCH   1   2
ATOM      2  N   LIG    1       26.390 -20.186   6.565  0.00  0.00    -0.299 NA
ATOM      3  C   LIG    1       25.195 -20.585   5.792  0.00  0.00    +0.103 C 
ATOM      4  C   LIG    1       25.145 -22.074   5.404  0.00  0.00    +0.120 C 
ATOM      5  N   LIG    1       25.372 -22.998   6.541  0.00  0.00    -0.327 N 
ATOM      6  C   LIG    1       26.357 -22.546   7.561  0.00  0.00    +0.120 C 
ATOM      7  C   LIG    1       26.358 -21.014   7.795  0.00  0.00    +0.103 C 
BRANCH   5   8
ATOM      8  C   LIG    1       25.426 -24.375   6.214  0.00  0.00    +0.031 A 
ATOM      9  C   LIG    1       25.742 -25.352   7.175  0.00  0.00    +0.043 A 
ATOM     10  C   LIG    1       25.807 -26.711   6.849  0.00  0.00    +0.043 A 
ATOM     11 CL   LIG    1       26.227 -27.858   8.064  0.00  0.00    -0.084 Cl
ATOM     12  C   LIG    1       25.543 -27.147   5.558  0.00  0.00    +0.020 A 
ATOM     13  C   LIG    1       25.203 -26.214   4.590  0.00  0.00    +0.003 A 
ATOM     14  C   LIG    1       25.134 -24.856   4.920  0.00  0.00    +0.023 A 
ENDBRANCH   5   8
ENDBRANCH   1   2
BRANCH   1  15
ATOM     15  C   LIG    1       28.644 -19.246   5.901  0.00  0.00    +0.039 C 
BRANCH  15  16
ATOM     16  C   LIG    1       30.004 -19.656   6.474  0.00  0.00    +0.150 C 
BRANCH  16  19
ATOM     17  O   LIG    1       28.675 -19.305   9.167  0.00  0.00    -0.244 OA
ATOM     18  C   LIG    1       29.725 -18.771   8.854  0.00  0.00    +0.351 C 
ATOM     19  N   LIG    1       30.406 -18.880   7.628  0.00  0.00    -0.212 N 
ATOM     20  N   LIG    1       31.562 -18.118   7.641  0.00  0.00    -0.149 NA
ATOM     21  C   LIG    1       31.565 -17.589   8.827  0.00  0.00    +0.162 C 
ATOM     22  C   LIG    1       32.574 -16.675   9.402  0.00  0.00    +0.049 C 
ATOM     23  C   LIG    1       32.388 -16.254  10.665  0.00  0.00    +0.005 C 
ATOM     24  C   LIG    1       31.236 -16.677  11.443  0.00  0.00    +0.018 C 
ATOM     25  C   LIG    1       30.327 -17.501  10.896  0.00  0.00    +0.098 C 
ATOM     26  N   LIG    1       30.510 -17.930   9.612  0.00  0.00    -0.251 N 
ENDBRANCH  16  19
ENDBRANCH  15  16
ENDBRANCH   1  15
TORSDOF 5
ENDMDL
MODEL 3
REMARK VINA RESULT:      -9.0      2.794      4.483
REMARK  Name = *****
REMARK                            x       y       z     vdW  Elec       q    Type
REMARK                         _______ _______ _______ _____ _____    ______ ____
ROOT
ATOM      1  C   LIG    1       27.541 -22.457   7.216  0.00  0.00    +0.086 C 
ENDROOT
BRANCH   1   2
ATOM      2  N   LIG    1       26.328 -22.999   7.869  0.00  0.00    -0.299 NA
ATOM      3  C   LIG    1       25.530 -21.964   8.559  0.00  0.00    +0.103 C 
ATOM      4  C   LIG    1       25.003 -20.841   7.647  0.00  0.00    +0.120 C 
ATOM      5  N   LIG    1       24.300 -21.333   6.437  0.00  0.00    -0.327 N 
ATOM      6  C   LIG    1       24.850 -22.571   5.822  0.00  0.00    +0.120 C 
ATOM      7  C   LIG    1       25.422 -23.580   6.849  0.00  0.00    +0.103 C 
BRANCH   5   8
ATOM      8  C   LIG    1       23.878 -20.336   5.523  0.00  0.00    +0.031 A 
ATOM      9  C   LIG    1       24.799 -19.595   4.760  0.00  0.00    +0.043 A 
ATOM     10  C   LIG    1       24.382 -18.603   3.866  0.00  0.00    +0.043 A 
ATOM     11 CL   LIG    1       25.559 -17.709   2.979  0.00  0.00    -0.084 Cl
ATOM     12  C   LIG    1       23.035 -18.323   3.689  0.00  0.00    +0.020 A 
ATOM     13  C   LIG    1       22.097 -19.051   4.406  0.00  0.00    +0.003 A 
ATOM     14  C   LIG    1       22.516 -20.047   5.296  0.00  0.00    +0.023 A 
ENDBRANCH   5   8
ENDBRANCH   1   2
BRANCH   1  15
ATOM     15  C   LIG    1       28.305 -21.430   8.060  0.00  0.00    +0.039 C 
BRANCH  15  16
ATOM     16  C   LIG    1       29.089 -20.433   7.203  0.00  0.00    +0.150 C 
BRANCH  16  19
ATOM     17  O   LIG    1       31.900 -19.379   6.844  0.00  0.00    -0.244 OA
ATOM     18  C   LIG    1       31.152 -19.023   7.737  0.00  0.00    +0.351 C 
ATOM     19  N   LIG    1       29.836 -19.463   7.975  0.00  0.00    -0.212 N 
ATOM     20  N   LIG    1       29.308 -18.841   9.093  0.00  0.00    -0.149 NA
ATOM     21  C   LIG    1       30.267 -18.063   9.492  0.00  0.00    +0.162 C 
ATOM     22  C   LIG    1       30.262 -17.149  10.654  0.00  0.00    +0.049 C 
ATOM     23  C   LIG    1       31.367 -16.418  10.879  0.00  0.00    +0.005 C 
ATOM     24  C   LIG    1       32.530 -16.517  10.015  0.00  0.00    +0.018 C 
ATOM     25  C   LIG    1       32.516 -17.361   8.970  0.00  0.00    +0.098 C 
ATOM     26  N   LIG    1       31.396 -18.108   8.738  0.00  0.00    -0.251 N 
ENDBRANCH  16  19
ENDBRANCH  15  16
ENDBRANCH   1  15
TORSDOF 5
ENDMDL
MODEL 4
REMARK VINA RESULT:      -9.0      6.057      9.454
REMARK  Name = *****
REMARK                            x       y       z     vdW  Elec       q    Type
REMARK                         _______ _______ _______ _____ _____    ______ ____
ROOT
ATOM      1  C   LIG    1       25.123 -25.017   5.164  0.00  0.00    +0.086 C 
ENDROOT
BRANCH   1   2
ATOM      2  N   LIG    1       24.921 -24.661   6.586  0.00  0.00    -0.299 NA
ATOM      3  C   LIG    1       25.766 -23.531   7.026  0.00  0.00    +0.103 C 
ATOM      4  C   LIG    1       25.528 -22.213   6.265  0.00  0.00    +0.120 C 
ATOM      5  N   LIG    1       24.102 -21.812   6.194  0.00  0.00    -0.327 N 
ATOM      6  C   LIG    1       23.120 -22.921   6.052  0.00  0.00    +0.120 C 
ATOM      7  C   LIG    1       23.524 -24.215   6.802  0.00  0.00    +0.103 C 
BRANCH   5   8
ATOM      8  C   LIG    1       23.827 -20.655   5.425  0.00  0.00    +0.031 A 
ATOM      9  C   LIG    1       24.838 -19.976   4.721  0.00  0.00    +0.043 A 
ATOM     10  C   LIG    1       24.568 -18.826   3.972  0.00  0.00    +0.043 A 
ATOM     11 CL   LIG    1       25.854 -18.022   3.154  0.00  0.00    -0.084 Cl
ATOM     12  C   LIG    1       23.279 -18.320   3.883  0.00  0.00    +0.020 A 
ATOM     13  C   LIG    1       22.251 -18.978   4.543  0.00  0.00    +0.003 A 
ATOM     14  C   LIG    1       22.524 -20.131   5.288  0.00  0.00    +0.023 A 
ENDBRANCH   5   8
ENDBRANCH   1   2
BRANCH   1  15
ATOM     15  C   LIG    1       25.650 -26.440   4.940  0.00  0.00    +0.039 C 
BRANCH  15  16
ATOM     16  C   LIG    1       24.631 -27.512   5.335  0.00  0.00    +0.150 C 
BRANCH  16  19
ATOM     17  O   LIG    1       23.597 -30.124   6.454  0.00  0.00    -0.244 OA
ATOM     18  C   LIG    1       24.434 -29.433   7.009  0.00  0.00    +0.351 C 
ATOM     19  N   LIG    1       24.965 -28.209   6.559  0.00  0.00    -0.212 N 
ATOM     20  N   LIG    1       25.885 -27.713   7.467  0.00  0.00    -0.149 NA
ATOM     21  C   LIG    1       25.901 -28.609   8.406  0.00  0.00    +0.162 C 
ATOM     22  C   LIG    1       26.711 -28.604   9.642  0.00  0.00    +0.049 C 
ATOM     23  C   LIG    1       26.582 -29.648  10.479  0.00  0.00    +0.005 C 
ATOM     24  C   LIG    1       25.678 -30.746  10.186  0.00  0.00    +0.018 C 
ATOM     25  C   LIG    1       24.944 -30.725   9.062  0.00  0.00    +0.098 C 
ATOM     26  N   LIG    1       25.070 -29.665   8.208  0.00  0.00    -0.251 N 
ENDBRANCH  16  19
ENDBRANCH  15  16
ENDBRANCH   1  15
TORSDOF 5
ENDMDL
MODEL 5
REMARK VINA RESULT:      -9.0      3.921      9.017
REMARK  Name = *****
REMARK                            x       y       z     vdW  Elec       q    Type
REMARK                         _______ _______ _______ _____ _____    ______ ____
ROOT
ATOM      1  C   LIG    1       28.021 -20.312   8.004  0.00  0.00    +0.086 C 
ENDROOT
BRANCH   1   2
ATOM      2  N   LIG    1       29.176 -20.707   7.167  0.00  0.00    -0.299 NA
ATOM      3  C   LIG    1       29.764 -19.575   6.420  0.00  0.00    +0.103 C 
ATOM      4  C   LIG    1       30.303 -18.433   7.299  0.00  0.00    +0.120 C 
ATOM      5  N   LIG    1       31.214 -18.886   8.378  0.00  0.00    -0.327 N 
ATOM      6  C   LIG    1       30.880 -20.192   9.009  0.00  0.00    +0.120 C 
ATOM      7  C   LIG    1       30.269 -21.222   8.026  0.00  0.00    +0.103 C 
BRANCH   5   8
ATOM      8  C   LIG    1       31.662 -17.879   9.269  0.00  0.00    +0.031 A 
ATOM      9  C   LIG    1       31.529 -18.012  10.663  0.00  0.00    +0.043 A 
ATOM     10  C   LIG    1       31.960 -17.012  11.541  0.00  0.00    +0.043 A 
ATOM     11 CL   LIG    1       31.744 -17.220  13.238  0.00  0.00    -0.084 Cl
ATOM     12  C   LIG    1       32.554 -15.852  11.065  0.00  0.00    +0.020 A 
ATOM     13  C   LIG    1       32.725 -15.698   9.697  0.00  0.00    +0.003 A 
ATOM     14  C   LIG    1       32.297 -16.701   8.820  0.00  0.00    +0.023 A 
ENDBRANCH   5   8
ENDBRANCH   1   2
BRANCH   1  15
ATOM     15  C   LIG    1       27.082 -21.470   8.368  0.00  0.00    +0.039 C 
BRANCH  15  16
ATOM     16  C   LIG    1       26.508 -22.169   7.132  0.00  0.00    +0.150 C 
BRANCH  16  19
ATOM     17  O   LIG    1       23.602 -21.551   7.695  0.00  0.00    -0.244 OA
ATOM     18  C   LIG    1       24.212 -21.122   6.731  0.00  0.00    +0.351 C 
ATOM     19  N   LIG    1       25.558 -21.362   6.396  0.00  0.00    -0.212 N 
ATOM     20  N   LIG    1       25.891 -20.715   5.219  0.00  0.00    -0.149 NA
ATOM     21  C   LIG    1       24.791 -20.114   4.879  0.00  0.00    +0.162 C 
ATOM     22  C   LIG    1       24.560 -19.263   3.693  0.00  0.00    +0.049 C 
ATOM     23  C   LIG    1       23.339 -18.722   3.540  0.00  0.00    +0.005 C 
ATOM     24  C   LIG    1       22.278 -18.964   4.502  0.00  0.00    +0.018 C 
ATOM     25  C   LIG    1       22.508 -19.748   5.568  0.00  0.00    +0.098 C 
ATOM     26  N   LIG    1       23.747 -20.302   5.727  0.00  0.00    -0.251 N 
ENDBRANCH  16  19
ENDBRANCH  15  16
ENDBRANCH   1  15
TORSDOF 5
ENDMDL
MODEL 6
REMARK VINA RESULT:      -8.9      3.240      5.176
REMARK  Name = *****
REMARK                            x       y       z     vdW  Elec       q    Type
REMARK                         _______ _______ _______ _____ _____    ______ ____
ROOT
ATOM      1  C   LIG    1       23.769 -24.274   6.686  0.00  0.00    +0.086 C 
ENDROOT
BRANCH   1   2
ATOM      2  N   LIG    1       25.029 -24.313   5.912  0.00  0.00    -0.299 NA
ATOM      3  C   LIG    1       26.142 -24.949   6.648  0.00  0.00    +0.103 C 
ATOM      4  C   LIG    1       25.895 -26.415   7.049  0.00  0.00    +0.120 C 
ATOM      5  N   LIG    1       25.441 -27.275   5.929  0.00  0.00    -0.327 N 
ATOM      6  C   LIG    1       24.537 -26.630   4.938  0.00  0.00    +0.120 C 
ATOM      7  C   LIG    1       24.846 -25.133   4.690  0.00  0.00    +0.103 C 
BRANCH   5   8
ATOM      8  C   LIG    1       25.114 -28.610   6.271  0.00  0.00    +0.031 A 
ATOM      9  C   LIG    1       24.556 -28.937   7.520  0.00  0.00    +0.043 A 
ATOM     10  C   LIG    1       24.244 -30.257   7.863  0.00  0.00    +0.043 A 
ATOM     11 CL   LIG    1       23.588 -30.600   9.419  0.00  0.00    -0.084 Cl
ATOM     12  C   LIG    1       24.461 -31.296   6.968  0.00  0.00    +0.020 A 
ATOM     13  C   LIG    1       24.986 -31.007   5.717  0.00  0.00    +0.003 A 
ATOM     14  C   LIG    1       25.293 -29.685   5.375  0.00  0.00    +0.023 A 
ENDBRANCH   5   8
ENDBRANCH   1   2
BRANCH   1  15
ATOM     15  C   LIG    1       22.948 -22.994   6.488  0.00  0.00    +0.039 C 
BRANCH  15  16
ATOM     16  C   LIG    1       23.327 -21.894   7.484  0.00  0.00    +0.150 C 
BRANCH  16  19
ATOM     17  O   LIG    1       25.638 -21.522   9.398  0.00  0.00    -0.244 OA
ATOM     18  C   LIG    1       25.675 -21.207   8.221  0.00  0.00    +0.351 C 
ATOM     19  N   LIG    1       24.648 -21.344   7.268  0.00  0.00    -0.212 N 
ATOM     20  N   LIG    1       25.058 -20.861   6.037  0.00  0.00    -0.149 NA
ATOM     21  C   LIG    1       26.275 -20.465   6.253  0.00  0.00    +0.162 C 
ATOM     22  C   LIG    1       27.211 -19.859   5.283  0.00  0.00    +0.049 C 
ATOM     23  C   LIG    1       28.440 -19.532   5.719  0.00  0.00    +0.005 C 
ATOM     24  C   LIG    1       28.840 -19.763   7.096  0.00  0.00    +0.018 C 
ATOM     25  C   LIG    1       27.971 -20.307   7.963  0.00  0.00    +0.098 C 
ATOM     26  N   LIG    1       26.719 -20.639   7.525  0.00  0.00    -0.251 N 
ENDBRANCH  16  19
ENDBRANCH  15  16
ENDBRANCH   1  15
TORSDOF 5
ENDMDL
MODEL 7
REMARK VINA RESULT:      -8.7      3.895      9.031
REMARK  Name = *****
REMARK                            x       y       z     vdW  Elec       q    Type
REMARK                         _______ _______ _______ _____ _____    ______ ____
ROOT
ATOM      1  C   LIG    1       24.907 -23.471   5.796  0.00  0.00    +0.086 C 
ENDROOT
BRANCH   1   2
ATOM      2  N   LIG    1       24.196 -22.245   6.221  0.00  0.00    -0.299 NA
ATOM      3  C   LIG    1       24.519 -21.837   7.605  0.00  0.00    +0.103 C 
ATOM      4  C   LIG    1       26.006 -21.522   7.853  0.00  0.00    +0.120 C 
ATOM      5  N   LIG    1       26.590 -20.575   6.872  0.00  0.00    -0.327 N 
ATOM      6  C   LIG    1       26.097 -20.700   5.473  0.00  0.00    +0.120 C 
ATOM      7  C   LIG    1       24.605 -21.103   5.368  0.00  0.00    +0.103 C 
BRANCH   5   8
ATOM      8  C   LIG    1       27.978 -20.327   7.007  0.00  0.00    +0.031 A 
ATOM      9  C   LIG    1       28.782 -21.083   7.879  0.00  0.00    +0.043 A 
ATOM     10  C   LIG    1       30.151 -20.830   8.021  0.00  0.00    +0.043 A 
ATOM     11 CL   LIG    1       31.079 -21.771   9.127  0.00  0.00    -0.084 Cl
ATOM     12  C   LIG    1       30.770 -19.828   7.289  0.00  0.00    +0.020 A 
ATOM     13  C   LIG    1       30.013 -19.079   6.400  0.00  0.00    +0.003 A 
ATOM     14  C   LIG    1       28.645 -19.337   6.256  0.00  0.00    +0.023 A 
ENDBRANCH   5   8
ENDBRANCH   1   2
BRANCH   1  15
ATOM     15  C   LIG    1       24.170 -24.774   6.132  0.00  0.00    +0.039 C 
BRANCH  15  16
ATOM     16  C   LIG    1       24.774 -25.989   5.422  0.00  0.00    +0.150 C 
BRANCH  16  19
ATOM     17  O   LIG    1       23.803 -28.852   5.384  0.00  0.00    -0.244 OA
ATOM     18  C   LIG    1       24.572 -28.408   6.219  0.00  0.00    +0.351 C 
ATOM     19  N   LIG    1       25.069 -27.094   6.309  0.00  0.00    -0.212 N 
ATOM     20  N   LIG    1       25.909 -26.964   7.401  0.00  0.00    -0.149 NA
ATOM     21  C   LIG    1       25.913 -28.151   7.927  0.00  0.00    +0.162 C 
ATOM     22  C   LIG    1       26.649 -28.602   9.127  0.00  0.00    +0.049 C 
ATOM     23  C   LIG    1       26.520 -29.889   9.492  0.00  0.00    +0.005 C 
ATOM     24  C   LIG    1       25.689 -30.810   8.739  0.00  0.00    +0.018 C 
ATOM     25  C   LIG    1       25.022 -30.376   7.656  0.00  0.00    +0.098 C 
ATOM     26  N   LIG    1       25.147 -29.068   7.282  0.00  0.00    -0.251 N 
ENDBRANCH  16  19
ENDBRANCH  15  16
ENDBRANCH   1  15
TORSDOF 5
ENDMDL
MODEL 8
REMARK VINA RESULT:      -8.5      6.319      9.934
REMARK  Name = *****
REMARK                            x       y       z     vdW  Elec       q    Type
REMARK                         _______ _______ _______ _____ _____    ______ ____
ROOT
ATOM      1  C   LIG    1       24.362 -27.745   6.130  0.00  0.00    +0.086 C 
ENDROOT
BRANCH   1   2
ATOM      2  N   LIG    1       25.732 -27.375   5.710  0.00  0.00    -0.299 NA
ATOM      3  C   LIG    1       25.760 -26.563   4.475  0.00  0.00    +0.103 C 
ATOM      4  C   LIG    1       25.014 -25.220   4.569  0.00  0.00    +0.120 C 
ATOM      5  N   LIG    1       25.394 -24.404   5.749  0.00  0.00    -0.327 N 
ATOM      6  C   LIG    1       25.690 -25.160   6.996  0.00  0.00    +0.120 C 
ATOM      7  C   LIG    1       26.368 -26.531   6.751  0.00  0.00    +0.103 C 
BRANCH   5   8
ATOM      8  C   LIG    1       24.667 -23.201   5.925  0.00  0.00    +0.031 A 
ATOM      9  C   LIG    1       24.673 -22.184   4.954  0.00  0.00    +0.043 A 
ATOM     10  C   LIG    1       23.964 -20.992   5.134  0.00  0.00    +0.043 A 
ATOM     11 CL   LIG    1       24.032 -19.770   3.921  0.00  0.00    -0.084 Cl
ATOM     12  C   LIG    1       23.211 -20.776   6.279  0.00  0.00    +0.020 A 
ATOM     13  C   LIG    1       23.161 -21.768   7.248  0.00  0.00    +0.003 A 
ATOM     14  C   LIG    1       23.868 -22.962   7.063  0.00  0.00    +0.023 A 
ENDBRANCH   5   8
ENDBRANCH   1   2
BRANCH   1  15
ATOM     15  C   LIG    1       24.017 -29.225   5.919  0.00  0.00    +0.039 C 
BRANCH  15  16
ATOM     16  C   LIG    1       24.847 -30.153   6.811  0.00  0.00    +0.150 C 
BRANCH  16  19
ATOM     17  O   LIG    1       26.560 -29.233   9.126  0.00  0.00    -0.244 OA
ATOM     18  C   LIG    1       25.401 -29.591   9.241  0.00  0.00    +0.351 C 
ATOM     19  N   LIG    1       24.539 -30.034   8.220  0.00  0.00    -0.212 N 
ATOM     20  N   LIG    1       23.300 -30.369   8.738  0.00  0.00    -0.149 NA
ATOM     21  C   LIG    1       23.424 -30.127  10.008  0.00  0.00    +0.162 C 
ATOM     22  C   LIG    1       22.403 -30.302  11.062  0.00  0.00    +0.049 C 
ATOM     23  C   LIG    1       22.742 -29.975  12.321  0.00  0.00    +0.005 C 
ATOM     24  C   LIG    1       24.064 -29.467  12.642  0.00  0.00    +0.018 C 
ATOM     25  C   LIG    1       24.979 -29.325  11.669  0.00  0.00    +0.098 C 
ATOM     26  N   LIG    1       24.641 -29.658  10.388  0.00  0.00    -0.251 N 
ENDBRANCH  16  19
ENDBRANCH  15  16
ENDBRANCH   1  15
TORSDOF 5
ENDMDL
MODEL 9
REMARK VINA RESULT:      -8.5      3.423      5.170
REMARK  Name = *****
REMARK                            x       y       z     vdW  Elec       q    Type
REMARK                         _______ _______ _______ _____ _____    ______ ____
ROOT
ATOM      1  C   LIG    1       23.774 -24.379   6.657  0.00  0.00    +0.086 C 
ENDROOT
BRANCH   1   2
ATOM      2  N   LIG    1       25.038 -24.428   5.888  0.00  0.00    -0.299 NA
ATOM      3  C   LIG    1       26.144 -25.065   6.632  0.00  0.00    +0.103 C 
ATOM      4  C   LIG    1       25.889 -26.528   7.039  0.00  0.00    +0.120 C 
ATOM      5  N   LIG    1       25.436 -27.391   5.921  0.00  0.00    -0.327 N 
ATOM      6  C   LIG    1       24.538 -26.747   4.924  0.00  0.00    +0.120 C 
ATOM      7  C   LIG    1       24.855 -25.253   4.669  0.00  0.00    +0.103 C 
BRANCH   5   8
ATOM      8  C   LIG    1       25.101 -28.723   6.269  0.00  0.00    +0.031 A 
ATOM      9  C   LIG    1       24.532 -29.041   7.516  0.00  0.00    +0.043 A 
ATOM     10  C   LIG    1       24.212 -30.358   7.863  0.00  0.00    +0.043 A 
ATOM     11 CL   LIG    1       23.543 -30.688   9.416  0.00  0.00    -0.084 Cl
ATOM     12  C   LIG    1       24.433 -31.402   6.978  0.00  0.00    +0.020 A 
ATOM     13  C   LIG    1       24.970 -31.123   5.729  0.00  0.00    +0.003 A 
ATOM     14  C   LIG    1       25.284 -29.804   5.382  0.00  0.00    +0.023 A 
ENDBRANCH   5   8
ENDBRANCH   1   2
BRANCH   1  15
ATOM     15  C   LIG    1       23.004 -23.059   6.520  0.00  0.00    +0.039 C 
BRANCH  15  16
ATOM     16  C   LIG    1       23.490 -21.992   7.505  0.00  0.00    +0.150 C 
BRANCH  16  19
ATOM     17  O   LIG    1       24.638 -20.330   5.255  0.00  0.00    -0.244 OA
ATOM     18  C   LIG    1       25.300 -20.769   6.180  0.00  0.00    +0.351 C 
ATOM     19  N   LIG    1       24.846 -21.549   7.260  0.00  0.00    -0.212 N 
ATOM     20  N   LIG    1       25.895 -21.870   8.105  0.00  0.00    -0.149 NA
ATOM     21  C   LIG    1       26.920 -21.298   7.550  0.00  0.00    +0.162 C 
ATOM     22  C   LIG    1       28.320 -21.304   8.023  0.00  0.00    +0.049 C 
ATOM     23  C   LIG    1       29.229 -20.630   7.298  0.00  0.00    +0.005 C 
ATOM     24  C   LIG    1       28.855 -19.919   6.088  0.00  0.00    +0.018 C 
ATOM     25  C   LIG    1       27.578 -19.934   5.672  0.00  0.00    +0.098 C 
ATOM     26  N   LIG    1       26.651 -20.620   6.404  0.00  0.00    -0.251 N 
ENDBRANCH  16  19
ENDBRANCH  15  16
ENDBRANCH   1  15
TORSDOF 5
ENDMDL
