MODEL 1
REMARK VINA RESULT:      -8.7      0.000      0.000
REMARK  Name = *****
REMARK                            x       y       z     vdW  Elec       q    Type
REMARK                         _______ _______ _______ _____ _____    ______ ____
ROOT
ATOM      1  O   LIG    1       32.197 -20.921   9.297  0.00  0.00    -0.227 OA
ATOM      2  C   LIG    1       31.164 -20.504   8.811  0.00  0.00    +0.401 C 
ATOM      3  O   LIG    1       30.355 -21.208   7.966  0.00  0.00    -0.442 OA
ATOM      4  C   LIG    1       29.178 -20.417   7.681  0.00  0.00    +0.133 C 
ATOM      5  C   LIG    1       28.018 -20.944   8.541  0.00  0.00    +0.065 C 
ATOM      6  C   LIG    1       26.684 -20.329   8.118  0.00  0.00    +0.088 C 
ATOM      7  N   LIG    1       26.383 -20.505   6.690  0.00  0.00    -0.302 NA
ATOM      8  C   LIG    1       27.474 -19.955   5.866  0.00  0.00    +0.088 C 
ATOM      9  C   LIG    1       28.846 -20.547   6.193  0.00  0.00    +0.065 C 
ATOM     10  C   LIG    1       29.604 -19.003   8.070  0.00  0.00    +0.155 C 
ATOM     11  N   LIG    1       30.655 -19.249   8.997  0.00  0.00    -0.277 N 
ATOM     12  H   LIG    1       31.238 -18.550   9.439  0.00  0.00    +0.152 HD
ENDROOT
BRANCH   7  13
ATOM     13  C   LIG    1       26.075 -21.901   6.303  0.00  0.00    +0.089 C 
BRANCH  13  14
ATOM     14  C   LIG    1       24.617 -22.152   5.874  0.00  0.00    +0.050 C 
BRANCH  14  15
ATOM     15  C   LIG    1       24.004 -20.934   5.219  0.00  0.00    -0.046 A 
ATOM     16  C   LIG    1       24.503 -20.442   4.006  0.00  0.00    +0.003 A 
ATOM     17  C   LIG    1       23.929 -19.319   3.406  0.00  0.00    +0.000 A 
ATOM     18  C   LIG    1       22.847 -18.679   4.009  0.00  0.00    +0.000 A 
ATOM     19  C   LIG    1       22.338 -19.163   5.211  0.00  0.00    +0.000 A 
ATOM     20  C   LIG    1       22.911 -20.286   5.813  0.00  0.00    +0.003 A 
ENDBRANCH  14  15
ENDBRANCH  13  14
ENDBRANCH   7  13
TORSDOF 3
ENDMDL
MODEL 2
REMARK VINA RESULT:      -8.7      1.476      2.216
REMARK  Name = *****
REMARK                            x       y       z     vdW  Elec       q    Type
REMARK                         _______ _______ _______ _____ _____    ______ ____
ROOT
ATOM      1  O   LIG    1       32.007 -17.823  10.439  0.00  0.00    -0.227 OA
ATOM      2  C   LIG    1       31.564 -18.421   9.478  0.00  0.00    +0.401 C 
ATOM      3  O   LIG    1       30.342 -19.026   9.426  0.00  0.00    -0.442 OA
ATOM      4  C   LIG    1       30.134 -19.546   8.093  0.00  0.00    +0.133 C 
ATOM      5  C   LIG    1       29.213 -18.579   7.332  0.00  0.00    +0.065 C 
ATOM      6  C   LIG    1       28.745 -19.178   6.006  0.00  0.00    +0.088 C 
ATOM      7  N   LIG    1       28.101 -20.492   6.150  0.00  0.00    -0.302 NA
ATOM      8  C   LIG    1       29.005 -21.432   6.836  0.00  0.00    +0.088 C 
ATOM      9  C   LIG    1       29.493 -20.930   8.197  0.00  0.00    +0.065 C 
ATOM     10  C   LIG    1       31.546 -19.591   7.512  0.00  0.00    +0.155 C 
ATOM     11  N   LIG    1       32.228 -18.622   8.301  0.00  0.00    -0.277 N 
ATOM     12  H   LIG    1       33.214 -18.403   8.257  0.00  0.00    +0.152 HD
ENDROOT
BRANCH   7  13
ATOM     13  C   LIG    1       26.776 -20.448   6.812  0.00  0.00    +0.089 C 
BRANCH  13  14
ATOM     14  C   LIG    1       25.687 -21.310   6.147  0.00  0.00    +0.050 C 
BRANCH  14  15
ATOM     15  C   LIG    1       24.665 -20.465   5.417  0.00  0.00    -0.046 A 
ATOM     16  C   LIG    1       23.364 -20.321   5.916  0.00  0.00    +0.003 A 
ATOM     17  C   LIG    1       22.428 -19.537   5.238  0.00  0.00    +0.000 A 
ATOM     18  C   LIG    1       22.784 -18.884   4.058  0.00  0.00    +0.000 A 
ATOM     19  C   LIG    1       24.078 -19.014   3.558  0.00  0.00    +0.000 A 
ATOM     20  C   LIG    1       25.015 -19.799   4.234  0.00  0.00    +0.003 A 
ENDBRANCH  14  15
ENDBRANCH  13  14
ENDBRANCH   7  13
TORSDOF 3
ENDMDL
MODEL 3
REMARK VINA RESULT:      -8.6      2.536      3.476
REMARK  Name = *****
REMARK                            x       y       z     vdW  Elec       q    Type
REMARK                         _______ _______ _______ _____ _____    ______ ____
ROOT
ATOM      1  O   LIG    1       32.494 -17.595  10.432  0.00  0.00    -0.227 OA
ATOM      2  C   LIG    1       31.933 -18.237   9.566  0.00  0.00    +0.401 C 
ATOM      3  O   LIG    1       30.969 -19.178   9.789  0.00  0.00    -0.442 OA
ATOM      4  C   LIG    1       30.476 -19.651   8.514  0.00  0.00    +0.133 C 
ATOM      5  C   LIG    1       29.133 -18.962   8.226  0.00  0.00    +0.065 C 
ATOM      6  C   LIG    1       28.428 -19.590   7.024  0.00  0.00    +0.088 C 
ATOM      7  N   LIG    1       28.241 -21.043   7.147  0.00  0.00    -0.302 NA
ATOM      8  C   LIG    1       29.536 -21.708   7.375  0.00  0.00    +0.088 C 
ATOM      9  C   LIG    1       30.297 -21.169   8.588  0.00  0.00    +0.065 C 
ATOM     10  C   LIG    1       31.573 -19.233   7.537  0.00  0.00    +0.155 C 
ATOM     11  N   LIG    1       32.196 -18.155   8.228  0.00  0.00    -0.277 N 
ATOM     12  H   LIG    1       33.016 -17.647   7.925  0.00  0.00    +0.152 HD
ENDROOT
BRANCH   7  13
ATOM     13  C   LIG    1       27.250 -21.442   8.173  0.00  0.00    +0.089 C 
BRANCH  13  14
ATOM     14  C   LIG    1       25.791 -21.067   7.851  0.00  0.00    +0.050 C 
BRANCH  14  15
ATOM     15  C   LIG    1       24.987 -22.266   7.395  0.00  0.00    -0.046 A 
ATOM     16  C   LIG    1       23.600 -22.178   7.226  0.00  0.00    +0.003 A 
ATOM     17  C   LIG    1       22.866 -23.288   6.801  0.00  0.00    +0.000 A 
ATOM     18  C   LIG    1       23.512 -24.496   6.537  0.00  0.00    +0.000 A 
ATOM     19  C   LIG    1       24.892 -24.592   6.696  0.00  0.00    +0.000 A 
ATOM     20  C   LIG    1       25.628 -23.483   7.120  0.00  0.00    +0.003 A 
ENDBRANCH  14  15
ENDBRANCH  13  14
ENDBRANCH   7  13
TORSDOF 3
ENDMDL
MODEL 4
REMARK VINA RESULT:      -8.4      2.331      3.666
REMARK  Name = *****
REMARK                            x       y       z     vdW  Elec       q    Type
REMARK                         _______ _______ _______ _____ _____    ______ ____
ROOT
ATOM      1  O   LIG    1       30.759 -16.194  11.830  0.00  0.00    -0.227 OA
ATOM      2  C   LIG    1       30.958 -16.869  10.839  0.00  0.00    +0.401 C 
ATOM      3  O   LIG    1       30.193 -17.929  10.446  0.00  0.00    -0.442 OA
ATOM      4  C   LIG    1       30.684 -18.413   9.175  0.00  0.00    +0.133 C 
ATOM      5  C   LIG    1       29.763 -17.884   8.064  0.00  0.00    +0.065 C 
ATOM      6  C   LIG    1       30.065 -18.551   6.723  0.00  0.00    +0.088 C 
ATOM      7  N   LIG    1       30.015 -20.020   6.772  0.00  0.00    -0.302 NA
ATOM      8  C   LIG    1       30.935 -20.527   7.805  0.00  0.00    +0.088 C 
ATOM      9  C   LIG    1       30.679 -19.943   9.195  0.00  0.00    +0.065 C 
ATOM     10  C   LIG    1       32.093 -17.828   9.099  0.00  0.00    +0.155 C 
ATOM     11  N   LIG    1       32.001 -16.707   9.971  0.00  0.00    -0.277 N 
ATOM     12  H   LIG    1       32.759 -16.091  10.234  0.00  0.00    +0.152 HD
ENDROOT
BRANCH   7  13
ATOM     13  C   LIG    1       28.653 -20.574   6.953  0.00  0.00    +0.089 C 
BRANCH  13  14
ATOM     14  C   LIG    1       27.645 -20.201   5.849  0.00  0.00    +0.050 C 
BRANCH  14  15
ATOM     15  C   LIG    1       26.216 -20.449   6.282  0.00  0.00    -0.046 A 
ATOM     16  C   LIG    1       25.899 -20.652   7.631  0.00  0.00    +0.003 A 
ATOM     17  C   LIG    1       24.577 -20.878   8.022  0.00  0.00    +0.000 A 
ATOM     18  C   LIG    1       23.558 -20.897   7.070  0.00  0.00    +0.000 A 
ATOM     19  C   LIG    1       23.862 -20.689   5.726  0.00  0.00    +0.000 A 
ATOM     20  C   LIG    1       25.183 -20.464   5.333  0.00  0.00    +0.003 A 
ENDBRANCH  14  15
ENDBRANCH  13  14
ENDBRANCH   7  13
TORSDOF 3
ENDMDL
MODEL 5
REMARK VINA RESULT:      -8.3      3.332      6.616
REMARK  Name = *****
REMARK                            x       y       z     vdW  Elec       q    Type
REMARK                         _______ _______ _______ _____ _____    ______ ____
ROOT
ATOM      1  O   LIG    1       25.562 -27.134   4.612  0.00  0.00    -0.227 OA
ATOM      2  C   LIG    1       25.150 -26.138   5.173  0.00  0.00    +0.401 C 
ATOM      3  O   LIG    1       25.927 -25.099   5.598  0.00  0.00    -0.442 OA
ATOM      4  C   LIG    1       25.070 -24.061   6.128  0.00  0.00    +0.133 C 
ATOM      5  C   LIG    1       24.924 -22.960   5.066  0.00  0.00    +0.065 C 
ATOM      6  C   LIG    1       24.242 -21.718   5.638  0.00  0.00    +0.088 C 
ATOM      7  N   LIG    1       24.901 -21.186   6.840  0.00  0.00    -0.302 NA
ATOM      8  C   LIG    1       24.996 -22.231   7.875  0.00  0.00    +0.088 C 
ATOM      9  C   LIG    1       25.705 -23.501   7.402  0.00  0.00    +0.065 C 
ATOM     10  C   LIG    1       23.758 -24.796   6.397  0.00  0.00    +0.155 C 
ATOM     11  N   LIG    1       23.846 -25.905   5.509  0.00  0.00    -0.277 N 
ATOM     12  H   LIG    1       23.183 -26.666   5.436  0.00  0.00    +0.152 HD
ENDROOT
BRANCH   7  13
ATOM     13  C   LIG    1       26.224 -20.570   6.583  0.00  0.00    +0.089 C 
BRANCH  13  14
ATOM     14  C   LIG    1       27.088 -20.335   7.836  0.00  0.00    +0.050 C 
BRANCH  14  15
ATOM     15  C   LIG    1       28.514 -19.975   7.479  0.00  0.00    -0.046 A 
ATOM     16  C   LIG    1       28.801 -19.231   6.327  0.00  0.00    +0.003 A 
ATOM     17  C   LIG    1       30.119 -18.901   6.007  0.00  0.00    +0.000 A 
ATOM     18  C   LIG    1       31.165 -19.306   6.836  0.00  0.00    +0.000 A 
ATOM     19  C   LIG    1       30.891 -20.040   7.988  0.00  0.00    +0.000 A 
ATOM     20  C   LIG    1       29.572 -20.372   8.310  0.00  0.00    +0.003 A 
ENDBRANCH  14  15
ENDBRANCH  13  14
ENDBRANCH   7  13
TORSDOF 3
ENDMDL
MODEL 6
REMARK VINA RESULT:      -8.2      2.200      3.743
REMARK  Name = *****
REMARK                            x       y       z     vdW  Elec       q    Type
REMARK                         _______ _______ _______ _____ _____    ______ ____
ROOT
ATOM      1  O   LIG    1       32.104 -21.027   9.198  0.00  0.00    -0.227 OA
ATOM      2  C   LIG    1       31.067 -20.582   8.748  0.00  0.00    +0.401 C 
ATOM      3  O   LIG    1       30.256 -21.230   7.862  0.00  0.00    -0.442 OA
ATOM      4  C   LIG    1       29.074 -20.427   7.638  0.00  0.00    +0.133 C 
ATOM      5  C   LIG    1       27.921 -21.016   8.467  0.00  0.00    +0.065 C 
ATOM      6  C   LIG    1       26.583 -20.379   8.096  0.00  0.00    +0.088 C 
ATOM      7  N   LIG    1       26.273 -20.459   6.661  0.00  0.00    -0.302 NA
ATOM      8  C   LIG    1       27.356 -19.850   5.869  0.00  0.00    +0.088 C 
ATOM      9  C   LIG    1       28.733 -20.457   6.147  0.00  0.00    +0.065 C 
ATOM     10  C   LIG    1       29.496 -19.041   8.120  0.00  0.00    +0.155 C 
ATOM     11  N   LIG    1       30.555 -19.345   9.022  0.00  0.00    -0.277 N 
ATOM     12  H   LIG    1       31.138 -18.675   9.506  0.00  0.00    +0.152 HD
ENDROOT
BRANCH   7  13
ATOM     13  C   LIG    1       25.967 -21.827   6.182  0.00  0.00    +0.089 C 
BRANCH  13  14
ATOM     14  C   LIG    1       25.035 -22.644   7.096  0.00  0.00    +0.050 C 
BRANCH  14  15
ATOM     15  C   LIG    1       25.023 -24.112   6.724  0.00  0.00    -0.046 A 
ATOM     16  C   LIG    1       23.844 -24.734   6.293  0.00  0.00    +0.003 A 
ATOM     17  C   LIG    1       23.843 -26.088   5.949  0.00  0.00    +0.000 A 
ATOM     18  C   LIG    1       25.021 -26.832   6.025  0.00  0.00    +0.000 A 
ATOM     19  C   LIG    1       26.200 -26.221   6.445  0.00  0.00    +0.000 A 
ATOM     20  C   LIG    1       26.203 -24.867   6.791  0.00  0.00    +0.003 A 
ENDBRANCH  14  15
ENDBRANCH  13  14
ENDBRANCH   7  13
TORSDOF 3
ENDMDL
MODEL 7
REMARK VINA RESULT:      -8.1      4.791      6.473
REMARK  Name = *****
REMARK                            x       y       z     vdW  Elec       q    Type
REMARK                         _______ _______ _______ _____ _____    ______ ____
ROOT
ATOM      1  O   LIG    1       24.313 -30.065   6.548  0.00  0.00    -0.227 OA
ATOM      2  C   LIG    1       24.730 -28.979   6.198  0.00  0.00    +0.401 C 
ATOM      3  O   LIG    1       24.066 -27.797   6.353  0.00  0.00    -0.442 OA
ATOM      4  C   LIG    1       24.920 -26.719   5.906  0.00  0.00    +0.133 C 
ATOM      5  C   LIG    1       25.537 -26.043   7.140  0.00  0.00    +0.065 C 
ATOM      6  C   LIG    1       26.251 -24.744   6.768  0.00  0.00    +0.088 C 
ATOM      7  N   LIG    1       25.400 -23.794   6.036  0.00  0.00    -0.302 NA
ATOM      8  C   LIG    1       24.849 -24.430   4.826  0.00  0.00    +0.088 C 
ATOM      9  C   LIG    1       24.078 -25.721   5.109  0.00  0.00    +0.065 C 
ATOM     10  C   LIG    1       25.961 -27.433   5.045  0.00  0.00    +0.155 C 
ATOM     11  N   LIG    1       25.917 -28.760   5.558  0.00  0.00    -0.277 N 
ATOM     12  H   LIG    1       26.429 -29.555   5.200  0.00  0.00    +0.152 HD
ENDROOT
BRANCH   7  13
ATOM     13  C   LIG    1       24.326 -23.187   6.856  0.00  0.00    +0.089 C 
BRANCH  13  14
ATOM     14  C   LIG    1       24.532 -21.701   7.204  0.00  0.00    +0.050 C 
BRANCH  14  15
ATOM     15  C   LIG    1       24.186 -20.796   6.041  0.00  0.00    -0.046 A 
ATOM     16  C   LIG    1       25.146 -20.470   5.074  0.00  0.00    +0.003 A 
ATOM     17  C   LIG    1       24.817 -19.636   4.003  0.00  0.00    +0.000 A 
ATOM     18  C   LIG    1       23.525 -19.124   3.884  0.00  0.00    +0.000 A 
ATOM     19  C   LIG    1       22.561 -19.448   4.836  0.00  0.00    +0.000 A 
ATOM     20  C   LIG    1       22.888 -20.281   5.908  0.00  0.00    +0.003 A 
ENDBRANCH  14  15
ENDBRANCH  13  14
ENDBRANCH   7  13
TORSDOF 3
ENDMDL
MODEL 8
REMARK VINA RESULT:      -8.1      3.125      6.738
REMARK  Name = *****
REMARK                            x       y       z     vdW  Elec       q    Type
REMARK                         _______ _______ _______ _____ _____    ______ ____
ROOT
ATOM      1  O   LIG    1       23.699 -26.057   6.185  0.00  0.00    -0.227 OA
ATOM      2  C   LIG    1       23.877 -24.867   6.357  0.00  0.00    +0.401 C 
ATOM      3  O   LIG    1       25.092 -24.245   6.337  0.00  0.00    -0.442 OA
ATOM      4  C   LIG    1       24.890 -22.820   6.483  0.00  0.00    +0.133 C 
ATOM      5  C   LIG    1       25.012 -22.167   5.097  0.00  0.00    +0.065 C 
ATOM      6  C   LIG    1       25.059 -20.643   5.199  0.00  0.00    +0.088 C 
ATOM      7  N   LIG    1       26.115 -20.147   6.094  0.00  0.00    -0.302 NA
ATOM      8  C   LIG    1       25.967 -20.737   7.436  0.00  0.00    +0.088 C 
ATOM      9  C   LIG    1       25.952 -22.267   7.435  0.00  0.00    +0.065 C 
ATOM     10  C   LIG    1       23.477 -22.725   7.055  0.00  0.00    +0.155 C 
ATOM     11  N   LIG    1       22.898 -23.955   6.635  0.00  0.00    -0.277 N 
ATOM     12  H   LIG    1       21.974 -24.293   6.874  0.00  0.00    +0.152 HD
ENDROOT
BRANCH   7  13
ATOM     13  C   LIG    1       27.489 -20.341   5.575  0.00  0.00    +0.089 C 
BRANCH  13  14
ATOM     14  C   LIG    1       28.448 -19.159   5.811  0.00  0.00    +0.050 C 
BRANCH  14  15
ATOM     15  C   LIG    1       29.438 -19.448   6.919  0.00  0.00    -0.046 A 
ATOM     16  C   LIG    1       29.589 -20.745   7.428  0.00  0.00    +0.003 A 
ATOM     17  C   LIG    1       30.507 -21.003   8.448  0.00  0.00    +0.000 A 
ATOM     18  C   LIG    1       31.288 -19.971   8.966  0.00  0.00    +0.000 A 
ATOM     19  C   LIG    1       31.151 -18.679   8.463  0.00  0.00    +0.000 A 
ATOM     20  C   LIG    1       30.233 -18.418   7.443  0.00  0.00    +0.003 A 
ENDBRANCH  14  15
ENDBRANCH  13  14
ENDBRANCH   7  13
TORSDOF 3
ENDMDL
MODEL 9
REMARK VINA RESULT:      -8.0      1.779      2.369
REMARK  Name = *****
REMARK                            x       y       z     vdW  Elec       q    Type
REMARK                         _______ _______ _______ _____ _____    ______ ____
ROOT
ATOM      1  O   LIG    1       30.190 -18.713   6.267  0.00  0.00    -0.227 OA
ATOM      2  C   LIG    1       29.485 -19.579   6.746  0.00  0.00    +0.401 C 
ATOM      3  O   LIG    1       28.151 -19.449   7.007  0.00  0.00    -0.442 OA
ATOM      4  C   LIG    1       27.642 -20.717   7.480  0.00  0.00    +0.133 C 
ATOM      5  C   LIG    1       26.912 -21.412   6.319  0.00  0.00    +0.065 C 
ATOM      6  C   LIG    1       26.134 -22.636   6.801  0.00  0.00    +0.088 C 
ATOM      7  N   LIG    1       25.196 -22.344   7.894  0.00  0.00    -0.302 NA
ATOM      8  C   LIG    1       25.907 -21.722   9.025  0.00  0.00    +0.088 C 
ATOM      9  C   LIG    1       26.682 -20.460   8.643  0.00  0.00    +0.065 C 
ATOM     10  C   LIG    1       28.905 -21.462   7.909  0.00  0.00    +0.155 C 
ATOM     11  N   LIG    1       29.912 -20.816   7.140  0.00  0.00    -0.277 N 
ATOM     12  H   LIG    1       30.907 -20.991   7.190  0.00  0.00    +0.152 HD
ENDROOT
BRANCH   7  13
ATOM     13  C   LIG    1       24.027 -21.529   7.487  0.00  0.00    +0.089 C 
BRANCH  13  14
ATOM     14  C   LIG    1       23.457 -21.857   6.094  0.00  0.00    +0.050 C 
BRANCH  14  15
ATOM     15  C   LIG    1       23.404 -20.634   5.204  0.00  0.00    -0.046 A 
ATOM     16  C   LIG    1       24.344 -20.447   4.182  0.00  0.00    +0.003 A 
ATOM     17  C   LIG    1       24.285 -19.317   3.364  0.00  0.00    +0.000 A 
ATOM     18  C   LIG    1       23.284 -18.365   3.553  0.00  0.00    +0.000 A 
ATOM     19  C   LIG    1       22.340 -18.544   4.562  0.00  0.00    +0.000 A 
ATOM     20  C   LIG    1       22.397 -19.673   5.382  0.00  0.00    +0.003 A 
ENDBRANCH  14  15
ENDBRANCH  13  14
ENDBRANCH   7  13
TORSDOF 3
ENDMDL
