MODEL 1
REMARK VINA RESULT:      -9.3      0.000      0.000
REMARK  Name = *****
REMARK                            x       y       z     vdW  Elec       q    Type
REMARK                         _______ _______ _______ _____ _____    ______ ____
ROOT
ATOM      1  C   LIG    1       24.553 -21.106   5.830  0.00  0.00    +0.021 C 
ATOM      2  C   LIG    1       25.170 -20.573   4.489  0.00  0.00    +0.016 C 
ATOM      3  C   LIG    1       24.187 -20.596   3.307  0.00  0.00    +0.001 C 
ATOM      4  C   LIG    1       22.910 -19.818   3.591  0.00  0.00    +0.000 C 
ATOM      5  C   LIG    1       22.273 -20.168   4.929  0.00  0.00    +0.001 C 
ATOM      6  C   LIG    1       23.276 -20.235   6.082  0.00  0.00    +0.016 C 
ENDROOT
BRANCH   1  10
ATOM      7  C   LIG    1       23.981 -25.511   5.560  0.00  0.00    +0.122 A 
ATOM      8  C   LIG    1       24.812 -24.789   4.718  0.00  0.00    +0.046 A 
ATOM      9  C   LIG    1       24.846 -23.395   4.731  0.00  0.00    +0.008 A 
ATOM     10  C   LIG    1       24.205 -22.635   5.716  0.00  0.00    -0.037 A 
ATOM     11  C   LIG    1       23.403 -23.363   6.614  0.00  0.00    +0.008 A 
ATOM     12  C   LIG    1       23.249 -24.774   6.496  0.00  0.00    +0.046 A 
BRANCH   7  13
ATOM     13  O   LIG    1       23.822 -26.881   5.534  0.00  0.00    -0.475 OA
BRANCH  13  14
ATOM     14  C   LIG    1       24.969 -27.746   5.751  0.00  0.00    +0.203 C 
ATOM     15  C   LIG    1       25.522 -27.470   7.172  0.00  0.00    +0.068 C 
BRANCH  14  17
ATOM     16  C   LIG    1       27.458 -27.017   5.359  0.00  0.00    +0.008 C 
ATOM     17  C   LIG    1       26.092 -27.363   4.751  0.00  0.00    +0.056 C 
ENDBRANCH  14  17
BRANCH  14  18
ATOM     18  C   LIG    1       24.603 -29.286   5.835  0.00  0.00    +0.349 C 
ATOM     19  O   LIG    1       25.376 -30.171   6.103  0.00  0.00    -0.246 OA
BRANCH  18  20
ATOM     20  O   LIG    1       23.292 -29.575   5.554  0.00  0.00    -0.478 OA
ATOM     21  H   LIG    1       23.097 -29.987   4.711  0.00  0.00    +0.295 HD
ENDBRANCH  18  20
ENDBRANCH  14  18
ENDBRANCH  13  14
ENDBRANCH   7  13
ENDBRANCH   1  10
BRANCH   1  22
ATOM     22  C   LIG    1       25.599 -20.876   7.000  0.00  0.00    -0.033 A 
ATOM     23  C   LIG    1       27.001 -20.889   6.804  0.00  0.00    +0.050 A 
ATOM     24  C   LIG    1       27.922 -20.510   7.810  0.00  0.00    +0.122 A 
ATOM     25  C   LIG    1       27.444 -20.131   9.051  0.00  0.00    +0.045 A 
ATOM     26  C   LIG    1       26.085 -20.243   9.320  0.00  0.00    +0.004 A 
ATOM     27  C   LIG    1       25.185 -20.630   8.322  0.00  0.00    +0.005 A 
BRANCH  24  28
ATOM     28  O   LIG    1       29.234 -20.600   7.451  0.00  0.00    -0.475 OA
BRANCH  28  29
ATOM     29  C   LIG    1       30.255 -19.660   7.818  0.00  0.00    +0.203 C 
ATOM     30  C   LIG    1       29.709 -18.433   8.577  0.00  0.00    +0.068 C 
BRANCH  29  31
ATOM     31  C   LIG    1       31.482 -20.211   8.588  0.00  0.00    +0.349 C 
ATOM     32  O   LIG    1       32.219 -19.540   9.305  0.00  0.00    -0.246 OA
BRANCH  31  33
ATOM     33  O   LIG    1       31.757 -21.525   8.350  0.00  0.00    -0.478 OA
ATOM     34  H   LIG    1       31.072 -21.970   7.806  0.00  0.00    +0.295 HD
ENDBRANCH  31  33
ENDBRANCH  29  31
BRANCH  29  35
ATOM     35  C   LIG    1       30.824 -19.173   6.449  0.00  0.00    +0.056 C 
ATOM     36  C   LIG    1       29.831 -18.420   5.562  0.00  0.00    +0.008 C 
ENDBRANCH  29  35
ENDBRANCH  28  29
ENDBRANCH  24  28
ENDBRANCH   1  22
TORSDOF 12
ENDMDL
MODEL 2
REMARK VINA RESULT:      -8.9      1.698      8.343
REMARK  Name = *****
REMARK                            x       y       z     vdW  Elec       q    Type
REMARK                         _______ _______ _______ _____ _____    ______ ____
ROOT
ATOM      1  C   LIG    1       24.777 -23.278   6.044  0.00  0.00    +0.021 C 
ATOM      2  C   LIG    1       23.499 -23.267   6.955  0.00  0.00    +0.016 C 
ATOM      3  C   LIG    1       22.861 -21.876   7.105  0.00  0.00    +0.001 C 
ATOM      4  C   LIG    1       22.501 -21.248   5.767  0.00  0.00    +0.000 C 
ATOM      5  C   LIG    1       23.634 -21.300   4.750  0.00  0.00    +0.001 C 
ATOM      6  C   LIG    1       24.324 -22.664   4.676  0.00  0.00    +0.016 C 
ENDROOT
BRANCH   1  10
ATOM      7  C   LIG    1       27.834 -20.582   7.830  0.00  0.00    +0.122 A 
ATOM      8  C   LIG    1       27.367 -20.464   6.531  0.00  0.00    +0.046 A 
ATOM      9  C   LIG    1       26.529 -21.418   5.957  0.00  0.00    +0.008 A 
ATOM     10  C   LIG    1       25.940 -22.447   6.701  0.00  0.00    -0.037 A 
ATOM     11  C   LIG    1       26.362 -22.543   8.039  0.00  0.00    +0.008 A 
ATOM     12  C   LIG    1       27.340 -21.657   8.575  0.00  0.00    +0.046 A 
BRANCH   7  13
ATOM     13  O   LIG    1       28.741 -19.732   8.428  0.00  0.00    -0.475 OA
BRANCH  13  14
ATOM     14  C   LIG    1       30.164 -19.917   8.199  0.00  0.00    +0.203 C 
ATOM     15  C   LIG    1       30.519 -19.292   6.827  0.00  0.00    +0.068 C 
BRANCH  14  17
ATOM     16  C   LIG    1       31.100 -22.091   9.329  0.00  0.00    +0.008 C 
ATOM     17  C   LIG    1       30.470 -21.434   8.093  0.00  0.00    +0.056 C 
ENDBRANCH  14  17
BRANCH  14  18
ATOM     18  C   LIG    1       31.085 -19.085   9.186  0.00  0.00    +0.349 C 
ATOM     19  O   LIG    1       32.225 -18.763   8.967  0.00  0.00    -0.246 OA
BRANCH  18  20
ATOM     20  O   LIG    1       30.487 -18.750  10.374  0.00  0.00    -0.478 OA
ATOM     21  H   LIG    1       29.991 -17.931  10.409  0.00  0.00    +0.295 HD
ENDBRANCH  18  20
ENDBRANCH  14  18
ENDBRANCH  13  14
ENDBRANCH   7  13
ENDBRANCH   1  10
BRANCH   1  22
ATOM     22  C   LIG    1       25.241 -24.779   5.831  0.00  0.00    -0.033 A 
ATOM     23  C   LIG    1       25.538 -25.660   6.899  0.00  0.00    +0.050 A 
ATOM     24  C   LIG    1       25.778 -27.042   6.712  0.00  0.00    +0.122 A 
ATOM     25  C   LIG    1       25.746 -27.563   5.431  0.00  0.00    +0.045 A 
ATOM     26  C   LIG    1       25.597 -26.703   4.350  0.00  0.00    +0.004 A 
ATOM     27  C   LIG    1       25.372 -25.336   4.546  0.00  0.00    +0.005 A 
BRANCH  24  28
ATOM     28  O   LIG    1       26.066 -27.735   7.850  0.00  0.00    -0.475 OA
BRANCH  28  29
ATOM     29  C   LIG    1       25.486 -28.996   8.216  0.00  0.00    +0.203 C 
ATOM     30  C   LIG    1       23.961 -29.051   7.997  0.00  0.00    +0.068 C 
BRANCH  29  31
ATOM     31  C   LIG    1       26.119 -30.272   7.605  0.00  0.00    +0.349 C 
ATOM     32  O   LIG    1       25.826 -30.745   6.511  0.00  0.00    -0.246 OA
BRANCH  31  33
ATOM     33  O   LIG    1       27.002 -30.914   8.422  0.00  0.00    -0.478 OA
ATOM     34  H   LIG    1       26.642 -31.086   9.319  0.00  0.00    +0.295 HD
ENDBRANCH  31  33
ENDBRANCH  29  31
BRANCH  29  35
ATOM     35  C   LIG    1       25.763 -29.104   9.748  0.00  0.00    +0.056 C 
ATOM     36  C   LIG    1       26.729 -28.058  10.310  0.00  0.00    +0.008 C 
ENDBRANCH  29  35
ENDBRANCH  28  29
ENDBRANCH  24  28
ENDBRANCH   1  22
TORSDOF 12
ENDMDL
MODEL 3
REMARK VINA RESULT:      -8.9      1.339      8.390
REMARK  Name = *****
REMARK                            x       y       z     vdW  Elec       q    Type
REMARK                         _______ _______ _______ _____ _____    ______ ____
ROOT
ATOM      1  C   LIG    1       24.431 -23.178   5.782  0.00  0.00    +0.021 C 
ATOM      2  C   LIG    1       23.114 -23.046   6.626  0.00  0.00    +0.016 C 
ATOM      3  C   LIG    1       22.590 -21.604   6.729  0.00  0.00    +0.001 C 
ATOM      4  C   LIG    1       22.353 -20.968   5.368  0.00  0.00    +0.000 C 
ATOM      5  C   LIG    1       23.527 -21.130   4.411  0.00  0.00    +0.001 C 
ATOM      6  C   LIG    1       24.101 -22.548   4.387  0.00  0.00    +0.016 C 
ENDROOT
BRANCH   1  10
ATOM      7  C   LIG    1       27.543 -20.769   7.858  0.00  0.00    +0.122 A 
ATOM      8  C   LIG    1       26.847 -20.332   6.743  0.00  0.00    +0.046 A 
ATOM      9  C   LIG    1       25.994 -21.171   6.028  0.00  0.00    +0.008 A 
ATOM     10  C   LIG    1       25.625 -22.440   6.490  0.00  0.00    -0.037 A 
ATOM     11  C   LIG    1       26.283 -22.873   7.655  0.00  0.00    +0.008 A 
ATOM     12  C   LIG    1       27.271 -22.070   8.293  0.00  0.00    +0.046 A 
BRANCH   7  13
ATOM     13  O   LIG    1       28.475 -20.027   8.553  0.00  0.00    -0.475 OA
BRANCH  13  14
ATOM     14  C   LIG    1       29.771 -19.750   7.956  0.00  0.00    +0.203 C 
ATOM     15  C   LIG    1       30.159 -18.290   8.297  0.00  0.00    +0.068 C 
BRANCH  14  17
ATOM     16  C   LIG    1       29.670 -18.498   5.653  0.00  0.00    +0.008 C 
ATOM     17  C   LIG    1       29.647 -19.832   6.411  0.00  0.00    +0.056 C 
ENDBRANCH  14  17
BRANCH  14  18
ATOM     18  C   LIG    1       30.964 -20.568   8.606  0.00  0.00    +0.349 C 
ATOM     19  O   LIG    1       31.936 -20.083   9.126  0.00  0.00    -0.246 OA
BRANCH  18  20
ATOM     20  O   LIG    1       30.831 -21.930   8.523  0.00  0.00    -0.478 OA
ATOM     21  H   LIG    1       30.559 -22.302   7.683  0.00  0.00    +0.295 HD
ENDBRANCH  18  20
ENDBRANCH  14  18
ENDBRANCH  13  14
ENDBRANCH   7  13
ENDBRANCH   1  10
BRANCH   1  22
ATOM     22  C   LIG    1       24.774 -24.717   5.609  0.00  0.00    -0.033 A 
ATOM     23  C   LIG    1       24.300 -25.723   6.484  0.00  0.00    +0.050 A 
ATOM     24  C   LIG    1       24.461 -27.105   6.226  0.00  0.00    +0.122 A 
ATOM     25  C   LIG    1       25.130 -27.503   5.083  0.00  0.00    +0.045 A 
ATOM     26  C   LIG    1       25.730 -26.543   4.277  0.00  0.00    +0.004 A 
ATOM     27  C   LIG    1       25.574 -25.179   4.548  0.00  0.00    +0.005 A 
BRANCH  24  28
ATOM     28  O   LIG    1       23.957 -27.932   7.186  0.00  0.00    -0.475 OA
BRANCH  28  29
ATOM     29  C   LIG    1       24.521 -29.197   7.562  0.00  0.00    +0.203 C 
ATOM     30  C   LIG    1       23.869 -29.807   8.819  0.00  0.00    +0.068 C 
BRANCH  29  31
ATOM     31  C   LIG    1       24.598 -30.292   6.466  0.00  0.00    +0.349 C 
ATOM     32  O   LIG    1       25.618 -30.895   6.149  0.00  0.00    -0.246 OA
BRANCH  31  33
ATOM     33  O   LIG    1       23.432 -30.499   5.789  0.00  0.00    -0.478 OA
ATOM     34  H   LIG    1       22.725 -29.865   6.036  0.00  0.00    +0.295 HD
ENDBRANCH  31  33
ENDBRANCH  29  31
BRANCH  29  35
ATOM     35  C   LIG    1       26.007 -28.859   7.897  0.00  0.00    +0.056 C 
ATOM     36  C   LIG    1       26.355 -28.863   9.388  0.00  0.00    +0.008 C 
ENDBRANCH  29  35
ENDBRANCH  28  29
ENDBRANCH  24  28
ENDBRANCH   1  22
TORSDOF 12
ENDMDL
MODEL 4
REMARK VINA RESULT:      -8.6      1.154      7.734
REMARK  Name = *****
REMARK                            x       y       z     vdW  Elec       q    Type
REMARK                         _______ _______ _______ _____ _____    ______ ____
ROOT
ATOM      1  C   LIG    1       24.236 -21.167   5.270  0.00  0.00    +0.021 C 
ATOM      2  C   LIG    1       22.905 -20.407   5.608  0.00  0.00    +0.016 C 
ATOM      3  C   LIG    1       22.927 -18.921   5.213  0.00  0.00    +0.001 C 
ATOM      4  C   LIG    1       23.238 -18.710   3.739  0.00  0.00    +0.000 C 
ATOM      5  C   LIG    1       24.453 -19.492   3.259  0.00  0.00    +0.001 C 
ATOM      6  C   LIG    1       24.469 -20.946   3.737  0.00  0.00    +0.016 C 
ENDROOT
BRANCH   1  10
ATOM      7  C   LIG    1       27.619 -19.968   7.900  0.00  0.00    +0.122 A 
ATOM      8  C   LIG    1       26.382 -20.375   8.373  0.00  0.00    +0.046 A 
ATOM      9  C   LIG    1       25.300 -20.592   7.522  0.00  0.00    +0.008 A 
ATOM     10  C   LIG    1       25.431 -20.611   6.128  0.00  0.00    -0.037 A 
ATOM     11  C   LIG    1       26.700 -20.255   5.636  0.00  0.00    +0.008 A 
ATOM     12  C   LIG    1       27.759 -19.882   6.511  0.00  0.00    +0.046 A 
BRANCH   7  13
ATOM     13  O   LIG    1       28.702 -19.640   8.689  0.00  0.00    -0.475 OA
BRANCH  13  14
ATOM     14  C   LIG    1       30.050 -19.897   8.210  0.00  0.00    +0.203 C 
ATOM     15  C   LIG    1       30.182 -19.294   6.789  0.00  0.00    +0.068 C 
BRANCH  14  17
ATOM     16  C   LIG    1       31.022 -22.122   9.203  0.00  0.00    +0.008 C 
ATOM     17  C   LIG    1       30.256 -21.428   8.068  0.00  0.00    +0.056 C 
ENDBRANCH  14  17
BRANCH  14  18
ATOM     18  C   LIG    1       31.174 -19.111   9.006  0.00  0.00    +0.349 C 
ATOM     19  O   LIG    1       32.265 -18.836   8.578  0.00  0.00    -0.246 OA
BRANCH  18  20
ATOM     20  O   LIG    1       30.823 -18.758  10.284  0.00  0.00    -0.478 OA
ATOM     21  H   LIG    1       30.997 -19.387  10.985  0.00  0.00    +0.295 HD
ENDBRANCH  18  20
ENDBRANCH  14  18
ENDBRANCH  13  14
ENDBRANCH   7  13
ENDBRANCH   1  10
BRANCH   1  22
ATOM     22  C   LIG    1       24.032 -22.711   5.565  0.00  0.00    -0.033 A 
ATOM     23  C   LIG    1       24.855 -23.723   5.014  0.00  0.00    +0.050 A 
ATOM     24  C   LIG    1       24.781 -25.078   5.418  0.00  0.00    +0.122 A 
ATOM     25  C   LIG    1       23.852 -25.446   6.374  0.00  0.00    +0.045 A 
ATOM     26  C   LIG    1       22.936 -24.506   6.830  0.00  0.00    +0.004 A 
ATOM     27  C   LIG    1       23.011 -23.171   6.416  0.00  0.00    +0.005 A 
BRANCH  24  28
ATOM     28  O   LIG    1       25.637 -25.918   4.769  0.00  0.00    -0.475 OA
BRANCH  28  29
ATOM     29  C   LIG    1       26.198 -27.115   5.329  0.00  0.00    +0.203 C 
ATOM     30  C   LIG    1       26.647 -26.950   6.795  0.00  0.00    +0.068 C 
BRANCH  29  31
ATOM     31  C   LIG    1       25.359 -28.413   5.213  0.00  0.00    +0.349 C 
ATOM     32  O   LIG    1       24.190 -28.461   4.843  0.00  0.00    -0.246 OA
BRANCH  31  33
ATOM     33  O   LIG    1       25.996 -29.540   5.641  0.00  0.00    -0.478 OA
ATOM     34  H   LIG    1       25.450 -30.085   6.248  0.00  0.00    +0.295 HD
ENDBRANCH  31  33
ENDBRANCH  29  31
BRANCH  29  35
ATOM     35  C   LIG    1       27.466 -27.377   4.457  0.00  0.00    +0.056 C 
ATOM     36  C   LIG    1       28.795 -26.992   5.109  0.00  0.00    +0.008 C 
ENDBRANCH  29  35
ENDBRANCH  28  29
ENDBRANCH  24  28
ENDBRANCH   1  22
TORSDOF 12
ENDMDL
MODEL 5
REMARK VINA RESULT:      -8.4      0.809      1.435
REMARK  Name = *****
REMARK                            x       y       z     vdW  Elec       q    Type
REMARK                         _______ _______ _______ _____ _____    ______ ____
ROOT
ATOM      1  C   LIG    1       24.703 -21.016   5.875  0.00  0.00    +0.021 C 
ATOM      2  C   LIG    1       25.322 -20.503   4.527  0.00  0.00    +0.016 C 
ATOM      3  C   LIG    1       24.325 -20.491   3.357  0.00  0.00    +0.001 C 
ATOM      4  C   LIG    1       23.079 -19.670   3.655  0.00  0.00    +0.000 C 
ATOM      5  C   LIG    1       22.446 -19.999   5.001  0.00  0.00    +0.001 C 
ATOM      6  C   LIG    1       23.459 -20.102   6.142  0.00  0.00    +0.016 C 
ENDROOT
BRANCH   1  10
ATOM      7  C   LIG    1       23.976 -25.398   5.614  0.00  0.00    +0.122 A 
ATOM      8  C   LIG    1       24.832 -24.707   4.771  0.00  0.00    +0.046 A 
ATOM      9  C   LIG    1       24.915 -23.316   4.781  0.00  0.00    +0.008 A 
ATOM     10  C   LIG    1       24.301 -22.532   5.765  0.00  0.00    -0.037 A 
ATOM     11  C   LIG    1       23.474 -23.229   6.663  0.00  0.00    +0.008 A 
ATOM     12  C   LIG    1       23.270 -24.634   6.549  0.00  0.00    +0.046 A 
BRANCH   7  13
ATOM     13  O   LIG    1       23.769 -26.762   5.592  0.00  0.00    -0.475 OA
BRANCH  13  14
ATOM     14  C   LIG    1       24.867 -27.665   5.892  0.00  0.00    +0.203 C 
ATOM     15  C   LIG    1       25.600 -27.134   7.149  0.00  0.00    +0.068 C 
BRANCH  14  17
ATOM     16  C   LIG    1       27.316 -27.185   5.085  0.00  0.00    +0.008 C 
ATOM     17  C   LIG    1       25.891 -27.626   4.726  0.00  0.00    +0.056 C 
ENDBRANCH  14  17
BRANCH  14  18
ATOM     18  C   LIG    1       24.401 -29.104   6.366  0.00  0.00    +0.349 C 
ATOM     19  O   LIG    1       24.890 -29.729   7.272  0.00  0.00    -0.246 OA
BRANCH  18  20
ATOM     20  O   LIG    1       23.368 -29.635   5.638  0.00  0.00    -0.478 OA
ATOM     21  H   LIG    1       22.527 -29.759   6.080  0.00  0.00    +0.295 HD
ENDBRANCH  18  20
ENDBRANCH  14  18
ENDBRANCH  13  14
ENDBRANCH   7  13
ENDBRANCH   1  10
BRANCH   1  22
ATOM     22  C   LIG    1       25.769 -20.823   7.033  0.00  0.00    -0.033 A 
ATOM     23  C   LIG    1       27.167 -20.914   6.826  0.00  0.00    +0.050 A 
ATOM     24  C   LIG    1       28.115 -20.568   7.818  0.00  0.00    +0.122 A 
ATOM     25  C   LIG    1       27.669 -20.144   9.057  0.00  0.00    +0.045 A 
ATOM     26  C   LIG    1       26.308 -20.179   9.339  0.00  0.00    +0.004 A 
ATOM     27  C   LIG    1       25.380 -20.533   8.353  0.00  0.00    +0.005 A 
BRANCH  24  28
ATOM     28  O   LIG    1       29.418 -20.734   7.451  0.00  0.00    -0.475 OA
BRANCH  28  29
ATOM     29  C   LIG    1       30.490 -19.844   7.796  0.00  0.00    +0.203 C 
ATOM     30  C   LIG    1       31.187 -19.224   6.569  0.00  0.00    +0.068 C 
BRANCH  29  31
ATOM     31  C   LIG    1       30.174 -18.712   8.808  0.00  0.00    +0.349 C 
ATOM     32  O   LIG    1       29.718 -17.613   8.509  0.00  0.00    -0.246 OA
BRANCH  31  33
ATOM     33  O   LIG    1       30.523 -18.991  10.097  0.00  0.00    -0.478 OA
ATOM     34  H   LIG    1       31.007 -18.256  10.532  0.00  0.00    +0.295 HD
ENDBRANCH  31  33
ENDBRANCH  29  31
BRANCH  29  35
ATOM     35  C   LIG    1       31.517 -20.763   8.529  0.00  0.00    +0.056 C 
ATOM     36  C   LIG    1       30.947 -22.081   9.059  0.00  0.00    +0.008 C 
ENDBRANCH  29  35
ENDBRANCH  28  29
ENDBRANCH  24  28
ENDBRANCH   1  22
TORSDOF 12
ENDMDL
MODEL 6
REMARK VINA RESULT:      -8.2      1.537      2.533
REMARK  Name = *****
REMARK                            x       y       z     vdW  Elec       q    Type
REMARK                         _______ _______ _______ _____ _____    ______ ____
ROOT
ATOM      1  C   LIG    1       25.259 -21.092   6.071  0.00  0.00    +0.021 C 
ATOM      2  C   LIG    1       24.567 -20.664   4.728  0.00  0.00    +0.016 C 
ATOM      3  C   LIG    1       23.121 -21.169   4.592  0.00  0.00    +0.001 C 
ATOM      4  C   LIG    1       22.235 -20.730   5.749  0.00  0.00    +0.000 C 
ATOM      5  C   LIG    1       22.853 -20.992   7.117  0.00  0.00    +0.001 C 
ATOM      6  C   LIG    1       24.321 -20.572   7.212  0.00  0.00    +0.016 C 
ENDROOT
BRANCH   1  10
ATOM      7  C   LIG    1       25.969 -25.480   5.865  0.00  0.00    +0.122 A 
ATOM      8  C   LIG    1       25.252 -24.771   4.916  0.00  0.00    +0.046 A 
ATOM      9  C   LIG    1       24.917 -23.429   5.093  0.00  0.00    +0.008 A 
ATOM     10  C   LIG    1       25.443 -22.652   6.132  0.00  0.00    -0.037 A 
ATOM     11  C   LIG    1       26.222 -23.351   7.072  0.00  0.00    +0.008 A 
ATOM     12  C   LIG    1       26.430 -24.756   6.969  0.00  0.00    +0.046 A 
BRANCH   7  13
ATOM     13  O   LIG    1       26.250 -26.830   5.803  0.00  0.00    -0.475 OA
BRANCH  13  14
ATOM     14  C   LIG    1       25.335 -27.786   6.403  0.00  0.00    +0.203 C 
ATOM     15  C   LIG    1       23.972 -27.083   6.619  0.00  0.00    +0.068 C 
BRANCH  14  17
ATOM     16  C   LIG    1       25.192 -29.396   8.469  0.00  0.00    +0.008 C 
ATOM     17  C   LIG    1       25.862 -28.184   7.807  0.00  0.00    +0.056 C 
ENDBRANCH  14  17
BRANCH  14  18
ATOM     18  C   LIG    1       24.938 -28.983   5.440  0.00  0.00    +0.349 C 
ATOM     19  O   LIG    1       25.678 -29.866   5.089  0.00  0.00    -0.246 OA
BRANCH  18  20
ATOM     20  O   LIG    1       23.643 -28.945   4.992  0.00  0.00    -0.478 OA
ATOM     21  H   LIG    1       23.271 -29.752   4.634  0.00  0.00    +0.295 HD
ENDBRANCH  18  20
ENDBRANCH  14  18
ENDBRANCH  13  14
ENDBRANCH   7  13
ENDBRANCH   1  10
BRANCH   1  22
ATOM     22  C   LIG    1       26.671 -20.378   6.168  0.00  0.00    -0.033 A 
ATOM     23  C   LIG    1       27.526 -20.496   7.290  0.00  0.00    +0.050 A 
ATOM     24  C   LIG    1       28.854 -20.005   7.301  0.00  0.00    +0.122 A 
ATOM     25  C   LIG    1       29.341 -19.358   6.179  0.00  0.00    +0.045 A 
ATOM     26  C   LIG    1       28.483 -19.101   5.116  0.00  0.00    +0.004 A 
ATOM     27  C   LIG    1       27.169 -19.582   5.121  0.00  0.00    +0.005 A 
BRANCH  24  28
ATOM     28  O   LIG    1       29.526 -20.190   8.472  0.00  0.00    -0.475 OA
BRANCH  28  29
ATOM     29  C   LIG    1       30.844 -19.695   8.752  0.00  0.00    +0.203 C 
ATOM     30  C   LIG    1       31.618 -19.272   7.487  0.00  0.00    +0.068 C 
BRANCH  29  31
ATOM     31  C   LIG    1       30.967 -18.565   9.807  0.00  0.00    +0.349 C 
ATOM     32  O   LIG    1       32.024 -18.163  10.284  0.00  0.00    -0.246 OA
BRANCH  31  33
ATOM     33  O   LIG    1       29.775 -18.076  10.255  0.00  0.00    -0.478 OA
ATOM     34  H   LIG    1       29.050 -18.164   9.598  0.00  0.00    +0.295 HD
ENDBRANCH  31  33
ENDBRANCH  29  31
BRANCH  29  35
ATOM     35  C   LIG    1       31.576 -20.918   9.387  0.00  0.00    +0.056 C 
ATOM     36  C   LIG    1       30.876 -22.266   9.197  0.00  0.00    +0.008 C 
ENDBRANCH  29  35
ENDBRANCH  28  29
ENDBRANCH  24  28
ENDBRANCH   1  22
TORSDOF 12
ENDMDL
MODEL 7
REMARK VINA RESULT:      -8.1      4.293      9.114
REMARK  Name = *****
REMARK                            x       y       z     vdW  Elec       q    Type
REMARK                         _______ _______ _______ _____ _____    ______ ____
ROOT
ATOM      1  C   LIG    1       24.872 -30.559   7.765  0.00  0.00    +0.021 C 
ATOM      2  C   LIG    1       23.709 -31.411   7.145  0.00  0.00    +0.016 C 
ATOM      3  C   LIG    1       23.867 -31.665   5.637  0.00  0.00    +0.001 C 
ATOM      4  C   LIG    1       25.190 -32.334   5.290  0.00  0.00    +0.000 C 
ATOM      5  C   LIG    1       26.395 -31.660   5.931  0.00  0.00    +0.001 C 
ATOM      6  C   LIG    1       26.191 -31.326   7.410  0.00  0.00    +0.016 C 
ENDROOT
BRANCH   1  10
ATOM      7  C   LIG    1       25.281 -26.474   6.048  0.00  0.00    +0.122 A 
ATOM      8  C   LIG    1       25.981 -26.916   7.160  0.00  0.00    +0.046 A 
ATOM      9  C   LIG    1       25.712 -28.145   7.761  0.00  0.00    +0.008 A 
ATOM     10  C   LIG    1       24.870 -29.100   7.180  0.00  0.00    -0.037 A 
ATOM     11  C   LIG    1       24.197 -28.683   6.017  0.00  0.00    +0.008 A 
ATOM     12  C   LIG    1       24.358 -27.367   5.496  0.00  0.00    +0.046 A 
BRANCH   7  13
ATOM     13  O   LIG    1       25.424 -25.233   5.463  0.00  0.00    -0.475 OA
BRANCH  13  14
ATOM     14  C   LIG    1       24.878 -24.057   6.119  0.00  0.00    +0.203 C 
ATOM     15  C   LIG    1       25.781 -23.715   7.330  0.00  0.00    +0.068 C 
BRANCH  14  17
ATOM     16  C   LIG    1       22.477 -23.234   6.783  0.00  0.00    +0.008 C 
ATOM     17  C   LIG    1       23.474 -24.397   6.687  0.00  0.00    +0.056 C 
ENDBRANCH  14  17
BRANCH  14  18
ATOM     18  C   LIG    1       24.979 -22.734   5.250  0.00  0.00    +0.349 C 
ATOM     19  O   LIG    1       25.401 -21.677   5.642  0.00  0.00    -0.246 OA
BRANCH  18  20
ATOM     20  O   LIG    1       24.518 -22.862   3.965  0.00  0.00    -0.478 OA
ATOM     21  H   LIG    1       25.036 -23.388   3.355  0.00  0.00    +0.295 HD
ENDBRANCH  18  20
ENDBRANCH  14  18
ENDBRANCH  13  14
ENDBRANCH   7  13
ENDBRANCH   1  10
BRANCH   1  22
ATOM     22  C   LIG    1       24.687 -30.510   9.339  0.00  0.00    -0.033 A 
ATOM     23  C   LIG    1       25.766 -30.591  10.252  0.00  0.00    +0.050 A 
ATOM     24  C   LIG    1       25.616 -30.369  11.642  0.00  0.00    +0.122 A 
ATOM     25  C   LIG    1       24.360 -30.083  12.146  0.00  0.00    +0.045 A 
ATOM     26  C   LIG    1       23.259 -30.135  11.299  0.00  0.00    +0.004 A 
ATOM     27  C   LIG    1       23.418 -30.367   9.928  0.00  0.00    +0.005 A 
BRANCH  24  28
ATOM     28  O   LIG    1       26.758 -30.506  12.373  0.00  0.00    -0.475 OA
BRANCH  28  29
ATOM     29  C   LIG    1       27.536 -29.419  12.896  0.00  0.00    +0.203 C 
ATOM     30  C   LIG    1       27.021 -28.897  14.252  0.00  0.00    +0.068 C 
BRANCH  29  31
ATOM     31  C   LIG    1       29.069 -29.629  12.998  0.00  0.00    +0.349 C 
ATOM     32  O   LIG    1       29.657 -30.025  14.000  0.00  0.00    -0.246 OA
BRANCH  31  33
ATOM     33  O   LIG    1       29.767 -29.255  11.888  0.00  0.00    -0.478 OA
ATOM     34  H   LIG    1       29.224 -28.756  11.240  0.00  0.00    +0.295 HD
ENDBRANCH  31  33
ENDBRANCH  29  31
BRANCH  29  35
ATOM     35  C   LIG    1       27.355 -28.287  11.837  0.00  0.00    +0.056 C 
ATOM     36  C   LIG    1       26.810 -26.965  12.383  0.00  0.00    +0.008 C 
ENDBRANCH  29  35
ENDBRANCH  28  29
ENDBRANCH  24  28
ENDBRANCH   1  22
TORSDOF 12
ENDMDL
MODEL 8
REMARK VINA RESULT:      -7.6      4.418      9.367
REMARK  Name = *****
REMARK                            x       y       z     vdW  Elec       q    Type
REMARK                         _______ _______ _______ _____ _____    ______ ____
ROOT
ATOM      1  C   LIG    1       24.850 -30.587   7.816  0.00  0.00    +0.021 C 
ATOM      2  C   LIG    1       23.712 -31.460   7.178  0.00  0.00    +0.016 C 
ATOM      3  C   LIG    1       23.913 -31.734   5.678  0.00  0.00    +0.001 C 
ATOM      4  C   LIG    1       25.251 -32.394   5.377  0.00  0.00    +0.000 C 
ATOM      5  C   LIG    1       26.432 -31.699   6.040  0.00  0.00    +0.001 C 
ATOM      6  C   LIG    1       26.185 -31.346   7.508  0.00  0.00    +0.016 C 
ENDROOT
BRANCH   1  10
ATOM      7  C   LIG    1       25.263 -26.530   6.034  0.00  0.00    +0.122 A 
ATOM      8  C   LIG    1       25.972 -26.960   7.144  0.00  0.00    +0.046 A 
ATOM      9  C   LIG    1       25.704 -28.178   7.767  0.00  0.00    +0.008 A 
ATOM     10  C   LIG    1       24.849 -29.136   7.209  0.00  0.00    -0.037 A 
ATOM     11  C   LIG    1       24.166 -28.733   6.048  0.00  0.00    +0.008 A 
ATOM     12  C   LIG    1       24.329 -27.426   5.505  0.00  0.00    +0.046 A 
BRANCH   7  13
ATOM     13  O   LIG    1       25.406 -25.299   5.428  0.00  0.00    -0.475 OA
BRANCH  13  14
ATOM     14  C   LIG    1       24.892 -24.108   6.083  0.00  0.00    +0.203 C 
ATOM     15  C   LIG    1       25.822 -23.771   7.275  0.00  0.00    +0.068 C 
BRANCH  14  17
ATOM     16  C   LIG    1       22.520 -23.235   6.782  0.00  0.00    +0.008 C 
ATOM     17  C   LIG    1       23.493 -24.417   6.678  0.00  0.00    +0.056 C 
ENDBRANCH  14  17
BRANCH  14  18
ATOM     18  C   LIG    1       25.002 -22.795   5.200  0.00  0.00    +0.349 C 
ATOM     19  O   LIG    1       24.434 -22.611   4.154  0.00  0.00    -0.246 OA
BRANCH  18  20
ATOM     20  O   LIG    1       25.837 -21.835   5.711  0.00  0.00    -0.478 OA
ATOM     21  H   LIG    1       26.734 -22.093   5.928  0.00  0.00    +0.295 HD
ENDBRANCH  18  20
ENDBRANCH  14  18
ENDBRANCH  13  14
ENDBRANCH   7  13
ENDBRANCH   1  10
BRANCH   1  22
ATOM     22  C   LIG    1       24.622 -30.516   9.384  0.00  0.00    -0.033 A 
ATOM     23  C   LIG    1       25.670 -30.634  10.328  0.00  0.00    +0.050 A 
ATOM     24  C   LIG    1       25.489 -30.394  11.711  0.00  0.00    +0.122 A 
ATOM     25  C   LIG    1       24.232 -30.052  12.176  0.00  0.00    +0.045 A 
ATOM     26  C   LIG    1       23.155 -30.067  11.298  0.00  0.00    +0.004 A 
ATOM     27  C   LIG    1       23.344 -30.316   9.935  0.00  0.00    +0.005 A 
BRANCH  24  28
ATOM     28  O   LIG    1       26.604 -30.571  12.476  0.00  0.00    -0.475 OA
BRANCH  28  29
ATOM     29  C   LIG    1       27.543 -29.539  12.813  0.00  0.00    +0.203 C 
ATOM     30  C   LIG    1       28.791 -29.531  11.908  0.00  0.00    +0.068 C 
BRANCH  29  31
ATOM     31  C   LIG    1       26.999 -28.092  12.917  0.00  0.00    +0.349 C 
ATOM     32  O   LIG    1       27.003 -27.274  12.002  0.00  0.00    -0.246 OA
BRANCH  31  33
ATOM     33  O   LIG    1       26.569 -27.735  14.162  0.00  0.00    -0.478 OA
ATOM     34  H   LIG    1       26.760 -26.798  14.382  0.00  0.00    +0.295 HD
ENDBRANCH  31  33
ENDBRANCH  29  31
BRANCH  29  35
ATOM     35  C   LIG    1       27.994 -29.904  14.263  0.00  0.00    +0.056 C 
ATOM     36  C   LIG    1       27.338 -31.155  14.852  0.00  0.00    +0.008 C 
ENDBRANCH  29  35
ENDBRANCH  28  29
ENDBRANCH  24  28
ENDBRANCH   1  22
TORSDOF 12
ENDMDL
MODEL 9
REMARK VINA RESULT:      -7.6      1.477      2.443
REMARK  Name = *****
REMARK                            x       y       z     vdW  Elec       q    Type
REMARK                         _______ _______ _______ _____ _____    ______ ____
ROOT
ATOM      1  C   LIG    1       25.005 -20.842   5.498  0.00  0.00    +0.021 C 
ATOM      2  C   LIG    1       24.503 -20.358   4.092  0.00  0.00    +0.016 C 
ATOM      3  C   LIG    1       23.014 -20.644   3.838  0.00  0.00    +0.001 C 
ATOM      4  C   LIG    1       22.110 -20.042   4.904  0.00  0.00    +0.000 C 
ATOM      5  C   LIG    1       22.562 -20.350   6.325  0.00  0.00    +0.001 C 
ATOM      6  C   LIG    1       24.064 -20.152   6.542  0.00  0.00    +0.016 C 
ENDROOT
BRANCH   1  10
ATOM      7  C   LIG    1       24.451 -25.232   5.973  0.00  0.00    +0.122 A 
ATOM      8  C   LIG    1       24.408 -24.331   7.026  0.00  0.00    +0.046 A 
ATOM      9  C   LIG    1       24.739 -22.987   6.862  0.00  0.00    +0.008 A 
ATOM     10  C   LIG    1       24.945 -22.410   5.604  0.00  0.00    -0.037 A 
ATOM     11  C   LIG    1       24.934 -23.306   4.520  0.00  0.00    +0.008 A 
ATOM     12  C   LIG    1       24.749 -24.705   4.713  0.00  0.00    +0.046 A 
BRANCH   7  13
ATOM     13  O   LIG    1       24.233 -26.590   6.081  0.00  0.00    -0.475 OA
BRANCH  13  14
ATOM     14  C   LIG    1       25.363 -27.502   6.135  0.00  0.00    +0.203 C 
ATOM     15  C   LIG    1       24.903 -28.876   5.589  0.00  0.00    +0.068 C 
BRANCH  14  17
ATOM     16  C   LIG    1       25.519 -29.121   8.192  0.00  0.00    +0.008 C 
ATOM     17  C   LIG    1       25.771 -27.721   7.616  0.00  0.00    +0.056 C 
ENDBRANCH  14  17
BRANCH  14  18
ATOM     18  C   LIG    1       26.536 -27.128   5.135  0.00  0.00    +0.349 C 
ATOM     19  O   LIG    1       26.466 -27.175   3.933  0.00  0.00    -0.246 OA
BRANCH  18  20
ATOM     20  O   LIG    1       27.702 -26.743   5.745  0.00  0.00    -0.478 OA
ATOM     21  H   LIG    1       28.266 -27.430   6.103  0.00  0.00    +0.295 HD
ENDBRANCH  18  20
ENDBRANCH  14  18
ENDBRANCH  13  14
ENDBRANCH   7  13
ENDBRANCH   1  10
BRANCH   1  22
ATOM     22  C   LIG    1       26.496 -20.345   5.708  0.00  0.00    -0.033 A 
ATOM     23  C   LIG    1       27.378 -20.909   6.661  0.00  0.00    +0.050 A 
ATOM     24  C   LIG    1       28.754 -20.585   6.722  0.00  0.00    +0.122 A 
ATOM     25  C   LIG    1       29.267 -19.658   5.833  0.00  0.00    +0.045 A 
ATOM     26  C   LIG    1       28.403 -18.982   4.980  0.00  0.00    +0.004 A 
ATOM     27  C   LIG    1       27.042 -19.303   4.936  0.00  0.00    +0.005 A 
BRANCH  24  28
ATOM     28  O   LIG    1       29.449 -21.211   7.715  0.00  0.00    -0.475 OA
BRANCH  28  29
ATOM     29  C   LIG    1       30.383 -20.570   8.596  0.00  0.00    +0.203 C 
ATOM     30  C   LIG    1       29.735 -19.498   9.496  0.00  0.00    +0.068 C 
BRANCH  29  31
ATOM     31  C   LIG    1       31.267 -21.487   9.479  0.00  0.00    +0.349 C 
ATOM     32  O   LIG    1       32.493 -21.515   9.452  0.00  0.00    -0.246 OA
BRANCH  31  33
ATOM     33  O   LIG    1       30.572 -22.357  10.266  0.00  0.00    -0.478 OA
ATOM     34  H   LIG    1       31.137 -23.059  10.657  0.00  0.00    +0.295 HD
ENDBRANCH  31  33
ENDBRANCH  29  31
BRANCH  29  35
ATOM     35  C   LIG    1       31.381 -19.858   7.630  0.00  0.00    +0.056 C 
ATOM     36  C   LIG    1       31.799 -18.448   8.050  0.00  0.00    +0.008 C 
ENDBRANCH  29  35
ENDBRANCH  28  29
ENDBRANCH  24  28
ENDBRANCH   1  22
TORSDOF 12
ENDMDL
