MODEL 1
REMARK VINA RESULT:       5.8      0.000      0.000
REMARK  Name = *****
REMARK                            x       y       z     vdW  Elec       q    Type
REMARK                         _______ _______ _______ _____ _____    ______ ____
ROOT
ATOM      1  C   LIG    1       28.373 -18.295   4.914  0.00  0.00    +0.132 A 
ATOM      2  C   LIG    1       28.748 -16.997   5.223  0.00  0.00    +0.050 A 
ATOM      3  C   LIG    1       28.208 -15.920   4.509  0.00  0.00    -0.040 A 
ATOM      4  C   LIG    1       28.620 -14.544   4.911  0.00  0.00    +0.036 C 
ATOM      5  C   LIG    1       27.396 -13.657   4.876  0.00  0.00    +0.009 C 
ATOM      6  C   LIG    1       26.862 -13.538   3.436  0.00  0.00    +0.001 C 
ATOM      7  C   LIG    1       26.545 -14.942   2.811  0.00  0.00    +0.023 C 
ATOM      8  C   LIG    1       25.036 -15.235   2.787  0.00  0.00    +0.009 C 
ATOM      9  C   LIG    1       24.219 -14.126   2.158  0.00  0.00    +0.011 C 
ATOM     10  C   LIG    1       24.345 -12.763   2.837  0.00  0.00    +0.008 C 
ATOM     11  C   LIG    1       23.807 -11.722   1.812  0.00  0.00    +0.015 C 
ATOM     12  C   LIG    1       23.502 -12.536   4.147  0.00  0.00    +0.183 C 
ATOM     13  C   LIG    1       24.506 -12.136   5.224  0.00  0.00    +0.045 C 
ATOM     14  C   LIG    1       25.599 -11.447   4.420  0.00  0.00    +0.008 C 
ATOM     15  C   LIG    1       25.811 -12.386   3.215  0.00  0.00    +0.002 C 
ATOM     16  C   LIG    1       27.286 -16.127   3.467  0.00  0.00    -0.041 A 
ATOM     17  C   LIG    1       27.013 -17.459   3.100  0.00  0.00    +0.008 A 
ATOM     18  C   LIG    1       27.538 -18.537   3.829  0.00  0.00    +0.046 A 
ENDROOT
BRANCH   1  19
ATOM     19  O   LIG    1       28.920 -19.399   5.590  0.00  0.00    -0.426 OA
BRANCH  19  20
ATOM     20  C   LIG    1       28.068 -20.327   6.202  0.00  0.00    +0.312 C 
ATOM     21  O   LIG    1       28.358 -21.141   7.062  0.00  0.00    -0.250 OA
BRANCH  20  22
ATOM     22  C   LIG    1       26.697 -20.211   5.580  0.00  0.00    +0.121 C 
BRANCH  22  23
ATOM     23  C   LIG    1       25.615 -20.663   6.556  0.00  0.00    +0.011 C 
BRANCH  23  24
ATOM     24  C   LIG    1       24.514 -21.447   5.835  0.00  0.00    +0.000 C 
BRANCH  24  25
ATOM     25  C   LIG    1       23.119 -21.208   6.421  0.00  0.00    -0.000 C 
BRANCH  25  27
ATOM     26  C   LIG    1       21.309 -21.124   4.661  0.00  0.00    +0.004 C 
ATOM     27  C   LIG    1       22.246 -20.313   5.538  0.00  0.00    -0.003 C 
ENDBRANCH  25  27
ENDBRANCH  24  25
ENDBRANCH  23  24
ENDBRANCH  22  23
ENDBRANCH  20  22
ENDBRANCH  19  20
ENDBRANCH   1  19
BRANCH  12  28
ATOM     28  O   LIG    1       22.682 -13.648   4.526  0.00  0.00    -0.461 OA
BRANCH  28  29
ATOM     29  C   LIG    1       23.305 -14.559   5.336  0.00  0.00    +0.307 C 
ATOM     30  O   LIG    1       24.495 -14.551   5.626  0.00  0.00    -0.251 OA
BRANCH  29  31
ATOM     31  C   LIG    1       22.322 -15.556   5.906  0.00  0.00    +0.120 C 
BRANCH  31  32
ATOM     32  C   LIG    1       22.090 -16.758   4.998  0.00  0.00    +0.011 C 
BRANCH  32  33
ATOM     33  C   LIG    1       23.410 -17.431   4.591  0.00  0.00    +0.000 C 
BRANCH  33  34
ATOM     34  C   LIG    1       23.209 -18.408   3.425  0.00  0.00    -0.000 C 
BRANCH  34  35
ATOM     35  C   LIG    1       24.450 -19.268   3.177  0.00  0.00    -0.003 C 
ATOM     36  C   LIG    1       24.091 -20.645   2.632  0.00  0.00    +0.004 C 
ENDBRANCH  34  35
ENDBRANCH  33  34
ENDBRANCH  32  33
ENDBRANCH  31  32
ENDBRANCH  29  31
ENDBRANCH  28  29
ENDBRANCH  12  28
TORSDOF 14
ENDMDL
MODEL 2
REMARK VINA RESULT:       6.2      1.666      3.212
REMARK  Name = *****
REMARK                            x       y       z     vdW  Elec       q    Type
REMARK                         _______ _______ _______ _____ _____    ______ ____
ROOT
ATOM      1  C   LIG    1       26.028 -19.767   4.937  0.00  0.00    +0.132 A 
ATOM      2  C   LIG    1       27.230 -19.110   5.147  0.00  0.00    +0.050 A 
ATOM      3  C   LIG    1       27.506 -17.916   4.469  0.00  0.00    -0.040 A 
ATOM      4  C   LIG    1       28.800 -17.233   4.763  0.00  0.00    +0.036 C 
ATOM      5  C   LIG    1       28.538 -15.747   4.854  0.00  0.00    +0.009 C 
ATOM      6  C   LIG    1       28.069 -15.201   3.492  0.00  0.00    +0.001 C 
ATOM      7  C   LIG    1       26.797 -15.956   2.965  0.00  0.00    +0.023 C 
ATOM      8  C   LIG    1       25.518 -15.124   3.148  0.00  0.00    +0.009 C 
ATOM      9  C   LIG    1       25.629 -13.721   2.589  0.00  0.00    +0.011 C 
ATOM     10  C   LIG    1       26.742 -12.869   3.195  0.00  0.00    +0.008 C 
ATOM     11  C   LIG    1       26.958 -11.682   2.211  0.00  0.00    +0.015 C 
ATOM     12  C   LIG    1       26.455 -12.205   4.594  0.00  0.00    +0.183 C 
ATOM     13  C   LIG    1       27.575 -12.678   5.516  0.00  0.00    +0.045 C 
ATOM     14  C   LIG    1       28.734 -12.885   4.553  0.00  0.00    +0.008 C 
ATOM     15  C   LIG    1       28.092 -13.633   3.366  0.00  0.00    +0.002 C 
ATOM     16  C   LIG    1       26.583 -17.363   3.564  0.00  0.00    -0.041 A 
ATOM     17  C   LIG    1       25.423 -18.111   3.284  0.00  0.00    +0.008 A 
ATOM     18  C   LIG    1       25.137 -19.296   3.980  0.00  0.00    +0.046 A 
ENDROOT
BRANCH   1  19
ATOM     19  O   LIG    1       25.734 -20.983   5.578  0.00  0.00    -0.426 OA
BRANCH  19  20
ATOM     20  C   LIG    1       24.405 -21.297   5.889  0.00  0.00    +0.312 C 
ATOM     21  O   LIG    1       23.910 -21.391   6.999  0.00  0.00    -0.250 OA
BRANCH  20  22
ATOM     22  C   LIG    1       23.656 -21.569   4.607  0.00  0.00    +0.121 C 
BRANCH  22  23
ATOM     23  C   LIG    1       22.156 -21.364   4.796  0.00  0.00    +0.011 C 
BRANCH  23  24
ATOM     24  C   LIG    1       21.800 -19.875   4.809  0.00  0.00    +0.000 C 
BRANCH  24  25
ATOM     25  C   LIG    1       21.336 -19.352   3.446  0.00  0.00    -0.000 C 
BRANCH  25  27
ATOM     26  C   LIG    1       19.355 -17.842   3.025  0.00  0.00    +0.004 C 
ATOM     27  C   LIG    1       19.813 -19.257   3.330  0.00  0.00    -0.003 C 
ENDBRANCH  25  27
ENDBRANCH  24  25
ENDBRANCH  23  24
ENDBRANCH  22  23
ENDBRANCH  20  22
ENDBRANCH  19  20
ENDBRANCH   1  19
BRANCH  12  28
ATOM     28  O   LIG    1       25.147 -12.465   5.117  0.00  0.00    -0.461 OA
BRANCH  28  29
ATOM     29  C   LIG    1       24.144 -12.402   4.188  0.00  0.00    +0.307 C 
ATOM     30  O   LIG    1       24.151 -11.699   3.186  0.00  0.00    -0.251 OA
BRANCH  29  31
ATOM     31  C   LIG    1       23.034 -13.377   4.506  0.00  0.00    +0.120 C 
BRANCH  31  32
ATOM     32  C   LIG    1       23.543 -14.751   4.929  0.00  0.00    +0.011 C 
BRANCH  32  33
ATOM     33  C   LIG    1       22.890 -15.879   4.115  0.00  0.00    +0.000 C 
BRANCH  33  34
ATOM     34  C   LIG    1       21.704 -16.501   4.863  0.00  0.00    -0.000 C 
BRANCH  34  35
ATOM     35  C   LIG    1       21.810 -16.299   6.376  0.00  0.00    -0.003 C 
ATOM     36  C   LIG    1       21.474 -14.870   6.785  0.00  0.00    +0.004 C 
ENDBRANCH  34  35
ENDBRANCH  33  34
ENDBRANCH  32  33
ENDBRANCH  31  32
ENDBRANCH  29  31
ENDBRANCH  28  29
ENDBRANCH  12  28
TORSDOF 14
ENDMDL
MODEL 3
REMARK VINA RESULT:       6.9      1.581      3.644
REMARK  Name = *****
REMARK                            x       y       z     vdW  Elec       q    Type
REMARK                         _______ _______ _______ _____ _____    ______ ____
ROOT
ATOM      1  C   LIG    1       25.865 -20.201   4.840  0.00  0.00    +0.132 A 
ATOM      2  C   LIG    1       26.999 -19.583   5.343  0.00  0.00    +0.050 A 
ATOM      3  C   LIG    1       27.476 -18.405   4.756  0.00  0.00    -0.040 A 
ATOM      4  C   LIG    1       28.679 -17.764   5.364  0.00  0.00    +0.036 C 
ATOM      5  C   LIG    1       28.454 -16.269   5.388  0.00  0.00    +0.009 C 
ATOM      6  C   LIG    1       28.358 -15.718   3.953  0.00  0.00    +0.001 C 
ATOM      7  C   LIG    1       27.232 -16.434   3.125  0.00  0.00    +0.023 C 
ATOM      8  C   LIG    1       25.976 -15.558   2.984  0.00  0.00    +0.009 C 
ATOM      9  C   LIG    1       26.271 -14.164   2.472  0.00  0.00    +0.011 C 
ATOM     10  C   LIG    1       27.227 -13.345   3.337  0.00  0.00    +0.008 C 
ATOM     11  C   LIG    1       27.722 -12.173   2.438  0.00  0.00    +0.015 C 
ATOM     12  C   LIG    1       26.624 -12.661   4.621  0.00  0.00    +0.183 C 
ATOM     13  C   LIG    1       27.463 -13.164   5.792  0.00  0.00    +0.045 C 
ATOM     14  C   LIG    1       28.817 -13.418   5.147  0.00  0.00    +0.008 C 
ATOM     15  C   LIG    1       28.465 -14.152   3.838  0.00  0.00    +0.002 C 
ATOM     16  C   LIG    1       26.827 -17.828   3.650  0.00  0.00    -0.041 A 
ATOM     17  C   LIG    1       25.747 -18.539   3.090  0.00  0.00    +0.008 A 
ATOM     18  C   LIG    1       25.257 -19.709   3.691  0.00  0.00    +0.046 A 
ENDROOT
BRANCH   1  19
ATOM     19  O   LIG    1       25.379 -21.402   5.386  0.00  0.00    -0.426 OA
BRANCH  19  20
ATOM     20  C   LIG    1       24.074 -21.454   5.891  0.00  0.00    +0.312 C 
ATOM     21  O   LIG    1       23.738 -21.512   7.061  0.00  0.00    -0.250 OA
BRANCH  20  22
ATOM     22  C   LIG    1       23.105 -21.487   4.733  0.00  0.00    +0.121 C 
BRANCH  22  23
ATOM     23  C   LIG    1       21.825 -20.730   5.071  0.00  0.00    +0.011 C 
BRANCH  23  24
ATOM     24  C   LIG    1       22.102 -19.237   5.270  0.00  0.00    +0.000 C 
BRANCH  24  25
ATOM     25  C   LIG    1       22.234 -18.465   3.953  0.00  0.00    -0.000 C 
BRANCH  25  27
ATOM     26  C   LIG    1       19.832 -18.922   3.319  0.00  0.00    +0.004 C 
ATOM     27  C   LIG    1       20.909 -17.864   3.479  0.00  0.00    -0.003 C 
ENDBRANCH  25  27
ENDBRANCH  24  25
ENDBRANCH  23  24
ENDBRANCH  22  23
ENDBRANCH  20  22
ENDBRANCH  19  20
ENDBRANCH   1  19
BRANCH  12  28
ATOM     28  O   LIG    1       25.219 -12.873   4.802  0.00  0.00    -0.461 OA
BRANCH  28  29
ATOM     29  C   LIG    1       24.906 -13.800   5.759  0.00  0.00    +0.307 C 
ATOM     30  O   LIG    1       25.531 -13.985   6.795  0.00  0.00    -0.251 OA
BRANCH  29  31
ATOM     31  C   LIG    1       23.628 -14.534   5.421  0.00  0.00    +0.120 C 
BRANCH  31  32
ATOM     32  C   LIG    1       23.583 -15.029   3.980  0.00  0.00    +0.011 C 
BRANCH  32  33
ATOM     33  C   LIG    1       22.759 -14.095   3.079  0.00  0.00    +0.000 C 
BRANCH  33  34
ATOM     34  C   LIG    1       23.580 -13.597   1.882  0.00  0.00    -0.000 C 
BRANCH  34  35
ATOM     35  C   LIG    1       23.624 -12.069   1.812  0.00  0.00    -0.003 C 
ATOM     36  C   LIG    1       24.027 -11.448   3.144  0.00  0.00    +0.004 C 
ENDBRANCH  34  35
ENDBRANCH  33  34
ENDBRANCH  32  33
ENDBRANCH  31  32
ENDBRANCH  29  31
ENDBRANCH  28  29
ENDBRANCH  12  28
TORSDOF 14
ENDMDL
