MODEL 1
REMARK VINA RESULT:      -7.5      0.000      0.000
REMARK  Name = *****
REMARK                            x       y       z     vdW  Elec       q    Type
REMARK                         _______ _______ _______ _____ _____    ______ ____
ROOT
ATOM      1  C   LIG    1       25.257 -20.543   5.553  0.00  0.00    +0.033 C 
ATOM      2  C   LIG    1       24.124 -20.592   6.506  0.00  0.00    +0.257 C 
ATOM      3  O   LIG    1       22.960 -20.517   6.139  0.00  0.00    -0.267 OA
ATOM      4  N   LIG    1       24.464 -20.716   7.823  0.00  0.00    -0.275 N 
ATOM      5  H   LIG    1       23.705 -20.737   8.485  0.00  0.00    +0.173 HD
ATOM      6  C   LIG    1       25.733 -20.719   8.340  0.00  0.00    +0.331 C 
ATOM      7  O   LIG    1       25.902 -20.759   9.557  0.00  0.00    -0.246 OA
ATOM      8  N   LIG    1       26.764 -20.682   7.409  0.00  0.00    -0.274 N 
ATOM      9  C   LIG    1       26.498 -20.567   6.057  0.00  0.00    +0.102 C 
ENDROOT
BRANCH   8  10
ATOM     10  C1* LIG    1       28.143 -20.683   7.916  0.00  0.00    +0.226 C 
ATOM     11  O4* LIG    1       28.577 -19.341   8.234  0.00  0.00    -0.348 OA
ATOM     12  C4* LIG    1       29.699 -18.994   7.389  0.00  0.00    +0.175 C 
ATOM     13  C3* LIG    1       30.355 -20.333   7.092  0.00  0.00    +0.150 C 
ATOM     14  C2* LIG    1       29.169 -21.257   6.936  0.00  0.00    +0.088 C 
BRANCH  13  15
ATOM     15  O3* LIG    1       31.145 -20.770   8.203  0.00  0.00    -0.389 OA
ATOM     16  H3* LIG    1       32.064 -20.892   7.899  0.00  0.00    +0.210 HD
ENDBRANCH  13  15
BRANCH  12  17
ATOM     17  C5* LIG    1       29.215 -18.269   6.124  0.00  0.00    +0.190 C 
BRANCH  17  18
ATOM     18  O5* LIG    1       30.225 -18.320   5.117  0.00  0.00    -0.392 OA
ATOM     19  H5* LIG    1       29.937 -18.965   4.448  0.00  0.00    +0.209 HD
ENDBRANCH  17  18
ENDBRANCH  12  17
ENDBRANCH   8  10
BRANCH   1  21
ATOM     20  C   LIG    1       25.002 -18.980   3.613  0.00  0.00    +0.009 C 
ATOM     21  C   LIG    1       24.964 -20.427   4.086  0.00  0.00    +0.039 C 
ENDBRANCH   1  21
TORSDOF 5
ENDMDL
MODEL 2
REMARK VINA RESULT:      -7.2      2.273      3.872
REMARK  Name = *****
REMARK                            x       y       z     vdW  Elec       q    Type
REMARK                         _______ _______ _______ _____ _____    ______ ____
ROOT
ATOM      1  C   LIG    1       26.869 -20.599   7.261  0.00  0.00    +0.033 C 
ATOM      2  C   LIG    1       26.576 -20.405   5.822  0.00  0.00    +0.257 C 
ATOM      3  O   LIG    1       25.601 -20.907   5.281  0.00  0.00    -0.267 OA
ATOM      4  N   LIG    1       27.472 -19.636   5.136  0.00  0.00    -0.275 N 
ATOM      5  H   LIG    1       27.294 -19.505   4.152  0.00  0.00    +0.173 HD
ATOM      6  C   LIG    1       28.635 -19.105   5.628  0.00  0.00    +0.331 C 
ATOM      7  O   LIG    1       29.397 -18.492   4.881  0.00  0.00    -0.246 OA
ATOM      8  N   LIG    1       28.863 -19.303   6.984  0.00  0.00    -0.274 N 
ATOM      9  C   LIG    1       27.996 -20.063   7.748  0.00  0.00    +0.102 C 
ENDROOT
BRANCH   8  10
ATOM     10  C1* LIG    1       30.099 -18.752   7.556  0.00  0.00    +0.226 C 
ATOM     11  O4* LIG    1       31.215 -19.641   7.329  0.00  0.00    -0.348 OA
ATOM     12  C4* LIG    1       31.730 -20.091   8.604  0.00  0.00    +0.175 C 
ATOM     13  C3* LIG    1       31.393 -18.952   9.552  0.00  0.00    +0.150 C 
ATOM     14  C2* LIG    1       30.032 -18.507   9.066  0.00  0.00    +0.088 C 
BRANCH  13  15
ATOM     15  O3* LIG    1       32.320 -17.872   9.399  0.00  0.00    -0.389 OA
ATOM     16  H3* LIG    1       33.225 -18.230   9.469  0.00  0.00    +0.210 HD
ENDBRANCH  13  15
BRANCH  12  17
ATOM     17  C5* LIG    1       31.076 -21.422   9.008  0.00  0.00    +0.190 C 
BRANCH  17  18
ATOM     18  O5* LIG    1       31.986 -22.499   8.786  0.00  0.00    -0.392 OA
ATOM     19  H5* LIG    1       32.015 -23.028   9.603  0.00  0.00    +0.209 HD
ENDBRANCH  17  18
ENDBRANCH  12  17
ENDBRANCH   8  10
BRANCH   1  21
ATOM     20  C   LIG    1       26.051 -22.906   7.795  0.00  0.00    +0.009 C 
ATOM     21  C   LIG    1       25.921 -21.417   8.088  0.00  0.00    +0.039 C 
ENDBRANCH   1  21
TORSDOF 5
ENDMDL
MODEL 3
REMARK VINA RESULT:      -6.8      1.652      5.176
REMARK  Name = *****
REMARK                            x       y       z     vdW  Elec       q    Type
REMARK                         _______ _______ _______ _____ _____    ______ ____
ROOT
ATOM      1  C   LIG    1       27.936 -20.097   6.424  0.00  0.00    +0.033 C 
ATOM      2  C   LIG    1       28.068 -20.170   7.897  0.00  0.00    +0.257 C 
ATOM      3  O   LIG    1       29.107 -19.883   8.474  0.00  0.00    -0.267 OA
ATOM      4  N   LIG    1       26.955 -20.589   8.570  0.00  0.00    -0.275 N 
ATOM      5  H   LIG    1       27.033 -20.658   9.572  0.00  0.00    +0.173 HD
ATOM      6  C   LIG    1       25.779 -21.016   8.012  0.00  0.00    +0.331 C 
ATOM      7  O   LIG    1       24.876 -21.444   8.730  0.00  0.00    -0.246 OA
ATOM      8  N   LIG    1       25.696 -20.919   6.629  0.00  0.00    -0.274 N 
ATOM      9  C   LIG    1       26.778 -20.494   5.879  0.00  0.00    +0.102 C 
ENDROOT
BRANCH   8  10
ATOM     10  C1* LIG    1       24.454 -21.366   5.986  0.00  0.00    +0.226 C 
ATOM     11  O4* LIG    1       24.607 -21.425   4.550  0.00  0.00    -0.348 OA
ATOM     12  C4* LIG    1       23.689 -20.490   3.937  0.00  0.00    +0.175 C 
ATOM     13  C3* LIG    1       22.539 -20.409   4.929  0.00  0.00    +0.150 C 
ATOM     14  C2* LIG    1       23.248 -20.463   6.263  0.00  0.00    +0.088 C 
BRANCH  13  15
ATOM     15  O3* LIG    1       21.682 -21.548   4.808  0.00  0.00    -0.389 OA
ATOM     16  H3* LIG    1       21.748 -22.073   5.628  0.00  0.00    +0.210 HD
ENDBRANCH  13  15
BRANCH  12  17
ATOM     17  C5* LIG    1       24.376 -19.136   3.703  0.00  0.00    +0.190 C 
BRANCH  17  18
ATOM     18  O5* LIG    1       25.654 -19.336   3.101  0.00  0.00    -0.392 OA
ATOM     19  H5* LIG    1       25.942 -20.238   3.323  0.00  0.00    +0.209 HD
ENDBRANCH  17  18
ENDBRANCH  12  17
ENDBRANCH   8  10
BRANCH   1  21
ATOM     20  C   LIG    1       29.055 -18.126   5.355  0.00  0.00    +0.009 C 
ATOM     21  C   LIG    1       29.109 -19.626   5.615  0.00  0.00    +0.039 C 
ENDBRANCH   1  21
TORSDOF 5
ENDMDL
MODEL 4
REMARK VINA RESULT:      -6.5      4.788      6.599
REMARK  Name = *****
REMARK                            x       y       z     vdW  Elec       q    Type
REMARK                         _______ _______ _______ _____ _____    ______ ____
ROOT
ATOM      1  C   LIG    1       25.983 -22.469   7.202  0.00  0.00    +0.033 C 
ATOM      2  C   LIG    1       24.805 -21.710   7.683  0.00  0.00    +0.257 C 
ATOM      3  O   LIG    1       24.913 -20.655   8.294  0.00  0.00    -0.267 OA
ATOM      4  N   LIG    1       23.590 -22.269   7.408  0.00  0.00    -0.275 N 
ATOM      5  H   LIG    1       22.778 -21.772   7.741  0.00  0.00    +0.173 HD
ATOM      6  C   LIG    1       23.367 -23.482   6.812  0.00  0.00    +0.331 C 
ATOM      7  O   LIG    1       22.220 -23.908   6.692  0.00  0.00    -0.246 OA
ATOM      8  N   LIG    1       24.500 -24.153   6.368  0.00  0.00    -0.274 N 
ATOM      9  C   LIG    1       25.765 -23.645   6.600  0.00  0.00    +0.102 C 
ENDROOT
BRANCH   8  10
ATOM     10  C1* LIG    1       24.311 -25.459   5.723  0.00  0.00    +0.226 C 
ATOM     11  O4* LIG    1       24.065 -26.491   6.705  0.00  0.00    -0.348 OA
ATOM     12  C4* LIG    1       25.129 -27.469   6.640  0.00  0.00    +0.175 C 
ATOM     13  C3* LIG    1       25.596 -27.400   5.195  0.00  0.00    +0.150 C 
ATOM     14  C2* LIG    1       25.508 -25.922   4.888  0.00  0.00    +0.088 C 
BRANCH  13  15
ATOM     15  O3* LIG    1       24.699 -28.110   4.336  0.00  0.00    -0.389 OA
ATOM     16  H3* LIG    1       23.806 -27.733   4.443  0.00  0.00    +0.210 HD
ENDBRANCH  13  15
BRANCH  12  17
ATOM     17  C5* LIG    1       26.238 -27.124   7.647  0.00  0.00    +0.190 C 
BRANCH  17  18
ATOM     18  O5* LIG    1       26.567 -28.276   8.422  0.00  0.00    -0.392 OA
ATOM     19  H5* LIG    1       27.366 -28.672   8.031  0.00  0.00    +0.209 HD
ENDBRANCH  17  18
ENDBRANCH  12  17
ENDBRANCH   8  10
BRANCH   1  21
ATOM     20  C   LIG    1       27.660 -20.732   6.532  0.00  0.00    +0.009 C 
ATOM     21  C   LIG    1       27.353 -21.909   7.449  0.00  0.00    +0.039 C 
ENDBRANCH   1  21
TORSDOF 5
ENDMDL
MODEL 5
REMARK VINA RESULT:      -6.4      1.904      2.250
REMARK  Name = *****
REMARK                            x       y       z     vdW  Elec       q    Type
REMARK                         _______ _______ _______ _____ _____    ______ ____
ROOT
ATOM      1  C   LIG    1       25.366 -22.998   6.614  0.00  0.00    +0.033 C 
ATOM      2  C   LIG    1       24.223 -22.445   7.375  0.00  0.00    +0.257 C 
ATOM      3  O   LIG    1       23.065 -22.754   7.130  0.00  0.00    -0.267 OA
ATOM      4  N   LIG    1       24.545 -21.559   8.363  0.00  0.00    -0.275 N 
ATOM      5  H   LIG    1       23.777 -21.162   8.882  0.00  0.00    +0.173 HD
ATOM      6  C   LIG    1       25.796 -21.084   8.656  0.00  0.00    +0.331 C 
ATOM      7  O   LIG    1       25.942 -20.225   9.524  0.00  0.00    -0.246 OA
ATOM      8  N   LIG    1       26.839 -21.639   7.924  0.00  0.00    -0.274 N 
ATOM      9  C   LIG    1       26.592 -22.550   6.913  0.00  0.00    +0.102 C 
ENDROOT
BRANCH   8  10
ATOM     10  C1* LIG    1       28.199 -21.160   8.202  0.00  0.00    +0.226 C 
ATOM     11  O4* LIG    1       28.276 -19.722   8.081  0.00  0.00    -0.348 OA
ATOM     12  C4* LIG    1       29.196 -19.384   7.017  0.00  0.00    +0.175 C 
ATOM     13  C3* LIG    1       30.167 -20.554   6.994  0.00  0.00    +0.150 C 
ATOM     14  C2* LIG    1       29.267 -21.737   7.268  0.00  0.00    +0.088 C 
BRANCH  13  15
ATOM     15  O3* LIG    1       31.125 -20.440   8.051  0.00  0.00    -0.389 OA
ATOM     16  H3* LIG    1       31.931 -20.925   7.790  0.00  0.00    +0.210 HD
ENDBRANCH  13  15
BRANCH  12  17
ATOM     17  C5* LIG    1       28.442 -19.204   5.690  0.00  0.00    +0.190 C 
BRANCH  17  18
ATOM     18  O5* LIG    1       29.080 -18.203   4.899  0.00  0.00    -0.392 OA
ATOM     19  H5* LIG    1       29.471 -17.554   5.509  0.00  0.00    +0.209 HD
ENDBRANCH  17  18
ENDBRANCH  12  17
ENDBRANCH   8  10
BRANCH   1  21
ATOM     20  C   LIG    1       25.512 -25.403   5.924  0.00  0.00    +0.009 C 
ATOM     21  C   LIG    1       25.095 -23.994   5.524  0.00  0.00    +0.039 C 
ENDBRANCH   1  21
TORSDOF 5
ENDMDL
MODEL 6
REMARK VINA RESULT:      -6.4      4.049      5.107
REMARK  Name = *****
REMARK                            x       y       z     vdW  Elec       q    Type
REMARK                         _______ _______ _______ _____ _____    ______ ____
ROOT
ATOM      1  C   LIG    1       25.763 -25.772   6.228  0.00  0.00    +0.033 C 
ATOM      2  C   LIG    1       25.337 -25.584   4.822  0.00  0.00    +0.257 C 
ATOM      3  O   LIG    1       25.415 -26.478   3.991  0.00  0.00    -0.267 OA
ATOM      4  N   LIG    1       24.859 -24.343   4.511  0.00  0.00    -0.275 N 
ATOM      5  H   LIG    1       24.577 -24.194   3.554  0.00  0.00    +0.173 HD
ATOM      6  C   LIG    1       24.814 -23.255   5.342  0.00  0.00    +0.331 C 
ATOM      7  O   LIG    1       24.431 -22.167   4.914  0.00  0.00    -0.246 OA
ATOM      8  N   LIG    1       25.214 -23.480   6.654  0.00  0.00    -0.274 N 
ATOM      9  C   LIG    1       25.700 -24.714   7.047  0.00  0.00    +0.102 C 
ENDROOT
BRANCH   8  10
ATOM     10  C1* LIG    1       25.183 -22.343   7.582  0.00  0.00    +0.226 C 
ATOM     11  O4* LIG    1       25.102 -21.091   6.864  0.00  0.00    -0.348 OA
ATOM     12  C4* LIG    1       26.284 -20.307   7.145  0.00  0.00    +0.175 C 
ATOM     13  C3* LIG    1       26.701 -20.765   8.533  0.00  0.00    +0.150 C 
ATOM     14  C2* LIG    1       26.410 -22.248   8.494  0.00  0.00    +0.088 C 
BRANCH  13  15
ATOM     15  O3* LIG    1       25.885 -20.155   9.537  0.00  0.00    -0.389 OA
ATOM     16  H3* LIG    1       25.713 -19.231   9.275  0.00  0.00    +0.210 HD
ENDBRANCH  13  15
BRANCH  12  17
ATOM     17  C5* LIG    1       27.363 -20.559   6.080  0.00  0.00    +0.190 C 
BRANCH  17  18
ATOM     18  O5* LIG    1       26.825 -20.329   4.778  0.00  0.00    -0.392 OA
ATOM     19  H5* LIG    1       27.211 -19.499   4.447  0.00  0.00    +0.209 HD
ENDBRANCH  17  18
ENDBRANCH  12  17
ENDBRANCH   8  10
BRANCH   1  21
ATOM     20  C   LIG    1       25.153 -28.073   7.008  0.00  0.00    +0.009 C 
ATOM     21  C   LIG    1       26.282 -27.114   6.652  0.00  0.00    +0.039 C 
ENDBRANCH   1  21
TORSDOF 5
ENDMDL
MODEL 7
REMARK VINA RESULT:      -6.2      1.476      2.433
REMARK  Name = *****
REMARK                            x       y       z     vdW  Elec       q    Type
REMARK                         _______ _______ _______ _____ _____    ______ ____
ROOT
ATOM      1  C   LIG    1       24.771 -20.680   6.507  0.00  0.00    +0.033 C 
ATOM      2  C   LIG    1       25.142 -20.375   5.105  0.00  0.00    +0.257 C 
ATOM      3  O   LIG    1       24.312 -20.319   4.208  0.00  0.00    -0.267 OA
ATOM      4  N   LIG    1       26.473 -20.170   4.879  0.00  0.00    -0.275 N 
ATOM      5  H   LIG    1       26.744 -19.975   3.927  0.00  0.00    +0.173 HD
ATOM      6  C   LIG    1       27.484 -20.297   5.794  0.00  0.00    +0.331 C 
ATOM      7  O   LIG    1       28.655 -20.160   5.441  0.00  0.00    -0.246 OA
ATOM      8  N   LIG    1       27.089 -20.573   7.097  0.00  0.00    -0.274 N 
ATOM      9  C   LIG    1       25.757 -20.783   7.406  0.00  0.00    +0.102 C 
ENDROOT
BRANCH   8  10
ATOM     10  C1* LIG    1       28.139 -20.718   8.113  0.00  0.00    +0.226 C 
ATOM     11  O4* LIG    1       28.488 -19.437   8.683  0.00  0.00    -0.348 OA
ATOM     12  C4* LIG    1       29.875 -19.151   8.390  0.00  0.00    +0.175 C 
ATOM     13  C3* LIG    1       30.512 -20.526   8.278  0.00  0.00    +0.150 C 
ATOM     14  C2* LIG    1       29.438 -21.334   7.586  0.00  0.00    +0.088 C 
BRANCH  13  15
ATOM     15  O3* LIG    1       30.753 -21.083   9.574  0.00  0.00    -0.389 OA
ATOM     16  H3* LIG    1       30.795 -22.054   9.489  0.00  0.00    +0.210 HD
ENDBRANCH  13  15
BRANCH  12  17
ATOM     17  C5* LIG    1       29.994 -18.327   7.099  0.00  0.00    +0.190 C 
BRANCH  17  18
ATOM     18  O5* LIG    1       31.041 -18.849   6.282  0.00  0.00    -0.392 OA
ATOM     19  H5* LIG    1       31.104 -18.283   5.493  0.00  0.00    +0.209 HD
ENDBRANCH  17  18
ENDBRANCH  12  17
ENDBRANCH   8  10
BRANCH   1  21
ATOM     20  C   LIG    1       22.984 -22.380   6.947  0.00  0.00    +0.009 C 
ATOM     21  C   LIG    1       23.324 -20.899   6.840  0.00  0.00    +0.039 C 
ENDBRANCH   1  21
TORSDOF 5
ENDMDL
MODEL 8
REMARK VINA RESULT:      -6.2      1.938      5.608
REMARK  Name = *****
REMARK                            x       y       z     vdW  Elec       q    Type
REMARK                         _______ _______ _______ _____ _____    ______ ____
ROOT
ATOM      1  C   LIG    1       29.120 -19.536   7.563  0.00  0.00    +0.033 C 
ATOM      2  C   LIG    1       29.249 -19.253   6.115  0.00  0.00    +0.257 C 
ATOM      3  O   LIG    1       30.257 -18.753   5.634  0.00  0.00    -0.267 OA
ATOM      4  N   LIG    1       28.165 -19.579   5.351  0.00  0.00    -0.275 N 
ATOM      5  H   LIG    1       28.231 -19.381   4.365  0.00  0.00    +0.173 HD
ATOM      6  C   LIG    1       26.964 -20.059   5.804  0.00  0.00    +0.331 C 
ATOM      7  O   LIG    1       26.036 -20.240   5.016  0.00  0.00    -0.246 OA
ATOM      8  N   LIG    1       26.893 -20.318   7.167  0.00  0.00    -0.274 N 
ATOM      9  C   LIG    1       27.954 -20.024   8.003  0.00  0.00    +0.102 C 
ENDROOT
BRANCH   8  10
ATOM     10  C1* LIG    1       25.624 -20.833   7.699  0.00  0.00    +0.226 C 
ATOM     11  O4* LIG    1       25.728 -22.240   8.014  0.00  0.00    -0.348 OA
ATOM     12  C4* LIG    1       24.801 -22.980   7.186  0.00  0.00    +0.175 C 
ATOM     13  C3* LIG    1       23.686 -21.983   6.912  0.00  0.00    +0.150 C 
ATOM     14  C2* LIG    1       24.439 -20.683   6.741  0.00  0.00    +0.088 C 
BRANCH  13  15
ATOM     15  O3* LIG    1       22.813 -21.874   8.040  0.00  0.00    -0.389 OA
ATOM     16  H3* LIG    1       21.916 -21.665   7.716  0.00  0.00    +0.210 HD
ENDBRANCH  13  15
BRANCH  12  17
ATOM     17  C5* LIG    1       25.495 -23.471   5.906  0.00  0.00    +0.190 C 
BRANCH  17  18
ATOM     18  O5* LIG    1       24.725 -23.104   4.762  0.00  0.00    -0.392 OA
ATOM     19  H5* LIG    1       24.481 -23.924   4.300  0.00  0.00    +0.209 HD
ENDBRANCH  17  18
ENDBRANCH  12  17
ENDBRANCH   8  10
BRANCH   1  21
ATOM     20  C   LIG    1       30.130 -17.858   9.126  0.00  0.00    +0.009 C 
ATOM     21  C   LIG    1       30.278 -19.223   8.466  0.00  0.00    +0.039 C 
ENDBRANCH   1  21
TORSDOF 5
ENDMDL
MODEL 9
REMARK VINA RESULT:      -6.1      2.044      5.330
REMARK  Name = *****
REMARK                            x       y       z     vdW  Elec       q    Type
REMARK                         _______ _______ _______ _____ _____    ______ ____
ROOT
ATOM      1  C   LIG    1       27.022 -20.788   6.631  0.00  0.00    +0.033 C 
ATOM      2  C   LIG    1       26.788 -21.292   8.004  0.00  0.00    +0.257 C 
ATOM      3  O   LIG    1       27.706 -21.568   8.763  0.00  0.00    -0.267 OA
ATOM      4  N   LIG    1       25.479 -21.438   8.364  0.00  0.00    -0.275 N 
ATOM      5  H   LIG    1       25.302 -21.794   9.291  0.00  0.00    +0.173 HD
ATOM      6  C   LIG    1       24.386 -21.242   7.562  0.00  0.00    +0.331 C 
ATOM      7  O   LIG    1       23.258 -21.484   7.987  0.00  0.00    -0.246 OA
ATOM      8  N   LIG    1       24.653 -20.759   6.286  0.00  0.00    -0.274 N 
ATOM      9  C   LIG    1       25.953 -20.575   5.853  0.00  0.00    +0.102 C 
ENDROOT
BRANCH   8  10
ATOM     10  C1* LIG    1       23.512 -20.533   5.389  0.00  0.00    +0.226 C 
ATOM     11  O4* LIG    1       23.951 -20.403   4.018  0.00  0.00    -0.348 OA
ATOM     12  C4* LIG    1       23.612 -19.082   3.535  0.00  0.00    +0.175 C 
ATOM     13  C3* LIG    1       22.385 -18.704   4.349  0.00  0.00    +0.150 C 
ATOM     14  C2* LIG    1       22.702 -19.274   5.713  0.00  0.00    +0.088 C 
BRANCH  13  15
ATOM     15  O3* LIG    1       21.215 -19.347   3.834  0.00  0.00    -0.389 OA
ATOM     16  H3* LIG    1       20.527 -18.668   3.692  0.00  0.00    +0.210 HD
ENDBRANCH  13  15
BRANCH  12  17
ATOM     17  C5* LIG    1       24.789 -18.116   3.740  0.00  0.00    +0.190 C 
BRANCH  17  18
ATOM     18  O5* LIG    1       25.961 -18.637   3.114  0.00  0.00    -0.392 OA
ATOM     19  H5* LIG    1       26.610 -18.819   3.816  0.00  0.00    +0.209 HD
ENDBRANCH  17  18
ENDBRANCH  12  17
ENDBRANCH   8  10
BRANCH   1  21
ATOM     20  C   LIG    1       28.833 -19.112   6.194  0.00  0.00    +0.009 C 
ATOM     21  C   LIG    1       28.434 -20.582   6.168  0.00  0.00    +0.039 C 
ENDBRANCH   1  21
TORSDOF 5
ENDMDL
