MODEL 1
REMARK VINA RESULT:      36.2      0.000      0.000
REMARK  Name = *****
REMARK                            x       y       z     vdW  Elec       q    Type
REMARK                         _______ _______ _______ _____ _____    ______ ____
ROOT
ATOM      1  C   LIG    1       26.581 -20.068   5.035  0.00  0.00    +0.160 C 
ENDROOT
BRANCH   1   2
ATOM      2  N   LIG    1       27.034 -18.689   4.679  0.00  0.00    -0.302 N 
ATOM      3  H   LIG    1       26.916 -18.387   3.710  0.00  0.00    +0.149 HD
ATOM      4  C   LIG    1       28.102 -18.151   5.386  0.00  0.00    +0.234 C 
ATOM      5  O   LIG    1       28.582 -18.811   6.304  0.00  0.00    -0.274 OA
BRANCH   4   6
ATOM      6  C   LIG    1       28.632 -16.731   5.026  0.00  0.00    +0.163 C 
BRANCH   6   7
ATOM      7  N   LIG    1       27.869 -16.239   3.857  0.00  0.00    -0.304 N 
ATOM      8  H   LIG    1       28.391 -15.687   3.184  0.00  0.00    +0.149 HD
ATOM      9  C   LIG    1       26.768 -16.933   3.393  0.00  0.00    +0.215 C 
ATOM     10  O   LIG    1       26.329 -17.917   3.982  0.00  0.00    -0.276 OA
BRANCH   9  11
ATOM     11  C   LIG    1       26.162 -16.348   2.123  0.00  0.00    +0.114 C 
BRANCH  11  12
ATOM     12  C   LIG    1       25.317 -15.102   2.340  0.00  0.00    +0.117 C 
BRANCH  12  13
ATOM     13  N   LIG    1       25.698 -14.379   3.535  0.00  0.00    -0.281 N 
ATOM     14  H   LIG    1       25.876 -14.869   4.418  0.00  0.00    +0.152 HD
ATOM     15  C   LIG    1       26.128 -13.086   3.496  0.00  0.00    +0.401 C 
ATOM     16  O   LIG    1       26.151 -12.361   2.468  0.00  0.00    -0.227 OA
BRANCH  15  17
ATOM     17  O   LIG    1       26.597 -12.738   4.679  0.00  0.00    -0.445 OA
BRANCH  17  18
ATOM     18  C   LIG    1       25.818 -13.026   5.865  0.00  0.00    +0.107 C 
ATOM     19  C   LIG    1       24.870 -11.846   6.123  0.00  0.00    +0.055 C 
ATOM     20  C   LIG    1       26.769 -13.107   7.057  0.00  0.00    +0.055 C 
ATOM     21  C   LIG    1       25.092 -14.383   5.741  0.00  0.00    +0.055 C 
ENDBRANCH  17  18
ENDBRANCH  15  17
ENDBRANCH  12  13
ENDBRANCH  11  12
ENDBRANCH   9  11
ENDBRANCH   6   7
BRANCH   6  22
ATOM     22  C   LIG    1       28.488 -15.701   6.183  0.00  0.00    +0.069 C 
BRANCH  22  23
ATOM     23  C   LIG    1       28.819 -14.267   5.863  0.00  0.00    -0.020 C 
ATOM     24  C   LIG    1       28.971 -13.680   4.559  0.00  0.00    +0.003 C 
ATOM     25  C   LIG    1       29.285 -12.333   4.731  0.00  0.00    +0.047 C 
ATOM     26  C   LIG    1       29.472 -11.450   3.658  0.00  0.00    +0.026 C 
ATOM     27  C   LIG    1       29.245 -11.940   2.368  0.00  0.00    +0.002 C 
ATOM     28  C   LIG    1       28.911 -13.274   2.161  0.00  0.00    +0.001 C 
ATOM     29  N   LIG    1       29.338 -12.104   6.085  0.00  0.00    -0.360 NA
ATOM     30  H   LIG    1       29.505 -11.196   6.498  0.00  0.00    +0.165 HD
ATOM     31  C   LIG    1       28.835 -14.160   3.238  0.00  0.00    +0.010 C 
ATOM     32  C   LIG    1       29.052 -13.253   6.774  0.00  0.00    +0.087 C 
ENDBRANCH  22  23
ENDBRANCH   6  22
ENDBRANCH   4   6
ENDBRANCH   1   2
BRANCH   1  33
ATOM     33  C   LIG    1       25.322 -20.497   4.224  0.00  0.00    +0.234 C 
ATOM     34  N   LIG    1       24.176 -19.688   4.336  0.00  0.00    -0.302 N 
ATOM     35  H   LIG    1       24.319 -18.690   4.496  0.00  0.00    +0.149 HD
ATOM     36  O   LIG    1       25.326 -21.569   3.622  0.00  0.00    -0.274 OA
BRANCH  34  37
ATOM     37  C   LIG    1       22.930 -19.901   3.564  0.00  0.00    +0.169 C 
BRANCH  37  38
ATOM     38  C   LIG    1       21.885 -18.821   4.018  0.00  0.00    +0.234 C 
ATOM     39  N   LIG    1       22.288 -17.895   4.961  0.00  0.00    -0.302 N 
ATOM     40  H   LIG    1       23.199 -17.940   5.393  0.00  0.00    +0.149 HD
ATOM     41  O   LIG    1       20.827 -18.700   3.397  0.00  0.00    -0.274 OA
BRANCH  39  42
ATOM     42  C   LIG    1       21.440 -16.840   5.533  0.00  0.00    +0.163 C 
BRANCH  42  43
ATOM     43  C   LIG    1       20.237 -16.541   4.588  0.00  0.00    +0.231 C 
ATOM     44  O   LIG    1       19.391 -15.670   4.800  0.00  0.00    -0.274 OA
ATOM     45  N   LIG    1       20.155 -17.261   3.427  0.00  0.00    -0.328 N 
ATOM     46  H   LIG    1       19.322 -17.117   2.869  0.00  0.00    +0.145 HD
ATOM     47  H   LIG    1       20.778 -18.008   3.153  0.00  0.00    +0.145 HD
ENDBRANCH  42  43
BRANCH  42  48
ATOM     48  C   LIG    1       22.148 -15.536   5.919  0.00  0.00    +0.067 C 
BRANCH  48  49
ATOM     49  C   LIG    1       22.434 -14.388   4.975  0.00  0.00    -0.045 C 
ATOM     50  C   LIG    1       22.696 -14.784   3.645  0.00  0.00    +0.003 C 
ATOM     51  C   LIG    1       22.969 -13.865   2.636  0.00  0.00    +0.000 C 
ATOM     52  C   LIG    1       23.018 -12.512   2.955  0.00  0.00    +0.000 C 
ATOM     53  C   LIG    1       22.771 -12.094   4.267  0.00  0.00    +0.000 C 
ATOM     54  C   LIG    1       22.457 -13.024   5.276  0.00  0.00    +0.003 C 
ENDBRANCH  48  49
ENDBRANCH  42  48
ENDBRANCH  39  42
ENDBRANCH  37  38
BRANCH  37  55
ATOM     55  C   LIG    1       22.421 -21.332   3.590  0.00  0.00    +0.152 C 
BRANCH  55  56
ATOM     56  C   LIG    1       21.043 -21.499   4.192  0.00  0.00    +0.307 C 
ATOM     57  O   LIG    1       20.022 -21.452   3.516  0.00  0.00    -0.251 OA
BRANCH  56  58
ATOM     58  O   LIG    1       20.966 -21.566   5.544  0.00  0.00    -0.481 OA
ATOM     59  H   LIG    1       21.525 -20.930   6.042  0.00  0.00    +0.295 HD
ENDBRANCH  56  58
ENDBRANCH  55  56
ENDBRANCH  37  55
ENDBRANCH  34  37
ENDBRANCH   1  33
BRANCH   1  60
ATOM     60  C   LIG    1       26.363 -20.252   6.549  0.00  0.00    +0.042 C 
BRANCH  60  61
ATOM     61  C   LIG    1       25.641 -21.570   6.798  0.00  0.00    +0.071 C 
BRANCH  61  63
ATOM     62  C   LIG    1       23.879 -19.518   6.700  0.00  0.00    +0.084 C 
ATOM     63  S   LIG    1       23.876 -21.288   7.056  0.00  0.00    -0.164 S 
ENDBRANCH  61  63
ENDBRANCH  60  61
ENDBRANCH   1  60
TORSDOF 23
ENDMDL
MODEL 2
REMARK VINA RESULT:      37.1      1.982      5.361
REMARK  Name = *****
REMARK                            x       y       z     vdW  Elec       q    Type
REMARK                         _______ _______ _______ _____ _____    ______ ____
ROOT
ATOM      1  C   LIG    1       24.990 -16.393   2.924  0.00  0.00    +0.160 C 
ENDROOT
BRANCH   1   2
ATOM      2  N   LIG    1       26.258 -15.938   3.570  0.00  0.00    -0.302 N 
ATOM      3  H   LIG    1       26.587 -14.995   3.355  0.00  0.00    +0.149 HD
ATOM      4  C   LIG    1       27.221 -16.895   3.862  0.00  0.00    +0.234 C 
ATOM      5  O   LIG    1       26.960 -18.072   3.626  0.00  0.00    -0.274 OA
BRANCH   4   6
ATOM      6  C   LIG    1       28.574 -16.464   4.503  0.00  0.00    +0.163 C 
BRANCH   6   7
ATOM      7  N   LIG    1       28.539 -14.997   4.701  0.00  0.00    -0.304 N 
ATOM      8  H   LIG    1       28.793 -14.666   5.627  0.00  0.00    +0.149 HD
ATOM      9  C   LIG    1       28.748 -14.138   3.640  0.00  0.00    +0.215 C 
ATOM     10  O   LIG    1       28.873 -14.551   2.489  0.00  0.00    -0.276 OA
BRANCH   9  11
ATOM     11  C   LIG    1       28.783 -12.667   4.035  0.00  0.00    +0.114 C 
BRANCH  11  12
ATOM     12  C   LIG    1       28.230 -12.370   5.421  0.00  0.00    +0.117 C 
BRANCH  12  13
ATOM     13  N   LIG    1       26.872 -11.869   5.377  0.00  0.00    -0.281 N 
ATOM     14  H   LIG    1       26.576 -11.086   5.969  0.00  0.00    +0.152 HD
ATOM     15  C   LIG    1       26.012 -12.187   4.368  0.00  0.00    +0.401 C 
ATOM     16  O   LIG    1       26.254 -13.002   3.441  0.00  0.00    -0.227 OA
BRANCH  15  17
ATOM     17  O   LIG    1       24.924 -11.447   4.463  0.00  0.00    -0.445 OA
BRANCH  17  18
ATOM     18  C   LIG    1       23.646 -12.089   4.685  0.00  0.00    +0.107 C 
ATOM     19  C   LIG    1       23.314 -12.010   6.182  0.00  0.00    +0.055 C 
ATOM     20  C   LIG    1       23.784 -13.569   4.334  0.00  0.00    +0.055 C 
ATOM     21  C   LIG    1       22.552 -11.484   3.779  0.00  0.00    +0.055 C 
ENDBRANCH  17  18
ENDBRANCH  15  17
ENDBRANCH  12  13
ENDBRANCH  11  12
ENDBRANCH   9  11
ENDBRANCH   6   7
BRANCH   6  22
ATOM     22  C   LIG    1       28.859 -17.144   5.873  0.00  0.00    +0.069 C 
BRANCH  22  23
ATOM     23  C   LIG    1       28.592 -18.623   5.967  0.00  0.00    -0.020 C 
ATOM     24  C   LIG    1       27.380 -19.260   6.409  0.00  0.00    +0.003 C 
ATOM     25  C   LIG    1       27.576 -20.640   6.344  0.00  0.00    +0.047 C 
ATOM     26  C   LIG    1       26.579 -21.568   6.676  0.00  0.00    +0.026 C 
ATOM     27  C   LIG    1       25.313 -21.071   7.002  0.00  0.00    +0.002 C 
ATOM     28  C   LIG    1       25.077 -19.702   7.057  0.00  0.00    +0.001 C 
ATOM     29  N   LIG    1       28.859 -20.841   5.894  0.00  0.00    -0.360 NA
ATOM     30  H   LIG    1       29.257 -21.753   5.712  0.00  0.00    +0.165 HD
ATOM     31  C   LIG    1       26.115 -18.795   6.826  0.00  0.00    +0.010 C 
ATOM     32  C   LIG    1       29.475 -19.640   5.657  0.00  0.00    +0.087 C 
ENDBRANCH  22  23
ENDBRANCH   6  22
ENDBRANCH   4   6
ENDBRANCH   1   2
BRANCH   1  33
ATOM     33  C   LIG    1       23.937 -16.866   3.971  0.00  0.00    +0.234 C 
ATOM     34  N   LIG    1       24.213 -16.605   5.327  0.00  0.00    -0.302 N 
ATOM     35  H   LIG    1       24.754 -15.766   5.543  0.00  0.00    +0.149 HD
ATOM     36  O   LIG    1       22.981 -17.544   3.604  0.00  0.00    -0.274 OA
BRANCH  34  37
ATOM     37  C   LIG    1       23.280 -16.904   6.436  0.00  0.00    +0.169 C 
BRANCH  37  38
ATOM     38  C   LIG    1       22.550 -18.254   6.107  0.00  0.00    +0.234 C 
ATOM     39  N   LIG    1       23.246 -19.200   5.381  0.00  0.00    -0.302 N 
ATOM     40  H   LIG    1       24.169 -19.016   5.018  0.00  0.00    +0.149 HD
ATOM     41  O   LIG    1       21.478 -18.515   6.659  0.00  0.00    -0.274 OA
BRANCH  39  42
ATOM     42  C   LIG    1       22.715 -20.499   4.946  0.00  0.00    +0.163 C 
BRANCH  42  43
ATOM     43  C   LIG    1       23.626 -21.113   3.840  0.00  0.00    +0.231 C 
ATOM     44  O   LIG    1       24.792 -21.467   4.023  0.00  0.00    -0.274 OA
ATOM     45  N   LIG    1       23.068 -21.317   2.607  0.00  0.00    -0.328 N 
ATOM     46  H   LIG    1       23.697 -21.633   1.879  0.00  0.00    +0.145 HD
ATOM     47  H   LIG    1       22.131 -21.055   2.335  0.00  0.00    +0.145 HD
ENDBRANCH  42  43
BRANCH  42  48
ATOM     48  C   LIG    1       21.249 -20.518   4.497  0.00  0.00    +0.067 C 
BRANCH  48  49
ATOM     49  C   LIG    1       20.579 -19.444   3.666  0.00  0.00    -0.045 C 
ATOM     50  C   LIG    1       20.631 -18.153   4.238  0.00  0.00    +0.003 C 
ATOM     51  C   LIG    1       20.078 -17.041   3.611  0.00  0.00    +0.000 C 
ATOM     52  C   LIG    1       19.424 -17.210   2.396  0.00  0.00    +0.000 C 
ATOM     53  C   LIG    1       19.351 -18.480   1.812  0.00  0.00    +0.000 C 
ATOM     54  C   LIG    1       19.946 -19.595   2.430  0.00  0.00    +0.003 C 
ENDBRANCH  48  49
ENDBRANCH  42  48
ENDBRANCH  39  42
ENDBRANCH  37  38
BRANCH  37  55
ATOM     55  C   LIG    1       22.359 -15.752   6.800  0.00  0.00    +0.152 C 
BRANCH  55  56
ATOM     56  C   LIG    1       21.291 -15.451   5.771  0.00  0.00    +0.307 C 
ATOM     57  O   LIG    1       21.514 -15.480   4.566  0.00  0.00    -0.251 OA
BRANCH  56  58
ATOM     58  O   LIG    1       20.097 -15.008   6.235  0.00  0.00    -0.481 OA
ATOM     59  H   LIG    1       19.317 -15.570   6.029  0.00  0.00    +0.295 HD
ENDBRANCH  56  58
ENDBRANCH  55  56
ENDBRANCH  37  55
ENDBRANCH  34  37
ENDBRANCH   1  33
BRANCH   1  60
ATOM     60  C   LIG    1       25.223 -17.464   1.840  0.00  0.00    +0.042 C 
BRANCH  60  61
ATOM     61  C   LIG    1       25.172 -18.846   2.478  0.00  0.00    +0.071 C 
BRANCH  61  63
ATOM     62  C   LIG    1       26.198 -21.310   2.928  0.00  0.00    +0.084 C 
ATOM     63  S   LIG    1       26.605 -19.827   1.983  0.00  0.00    -0.164 S 
ENDBRANCH  61  63
ENDBRANCH  60  61
ENDBRANCH   1  60
TORSDOF 23
ENDMDL
MODEL 3
REMARK VINA RESULT:      37.1      2.115      6.966
REMARK  Name = *****
REMARK                            x       y       z     vdW  Elec       q    Type
REMARK                         _______ _______ _______ _____ _____    ______ ____
ROOT
ATOM      1  C   LIG    1       28.027 -18.438   5.583  0.00  0.00    +0.160 C 
ENDROOT
BRANCH   1   2
ATOM      2  N   LIG    1       27.304 -19.657   5.108  0.00  0.00    -0.302 N 
ATOM      3  H   LIG    1       27.157 -19.759   4.103  0.00  0.00    +0.149 HD
ATOM      4  C   LIG    1       26.353 -20.220   5.949  0.00  0.00    +0.234 C 
ATOM      5  O   LIG    1       26.194 -19.722   7.061  0.00  0.00    -0.274 OA
BRANCH   4   6
ATOM      6  C   LIG    1       25.549 -21.470   5.483  0.00  0.00    +0.163 C 
BRANCH   6   7
ATOM      7  N   LIG    1       24.201 -21.400   6.092  0.00  0.00    -0.304 N 
ATOM      8  H   LIG    1       23.999 -22.091   6.808  0.00  0.00    +0.149 HD
ATOM      9  C   LIG    1       23.519 -20.201   6.155  0.00  0.00    +0.215 C 
ATOM     10  O   LIG    1       23.957 -19.180   5.630  0.00  0.00    -0.276 OA
BRANCH   9  11
ATOM     11  C   LIG    1       22.194 -20.284   6.903  0.00  0.00    +0.114 C 
BRANCH  11  12
ATOM     12  C   LIG    1       21.052 -19.513   6.257  0.00  0.00    +0.117 C 
BRANCH  12  13
ATOM     13  N   LIG    1       21.515 -18.595   5.238  0.00  0.00    -0.281 N 
ATOM     14  H   LIG    1       21.513 -18.857   4.247  0.00  0.00    +0.152 HD
ATOM     15  C   LIG    1       21.688 -17.265   5.482  0.00  0.00    +0.401 C 
ATOM     16  O   LIG    1       21.567 -16.713   6.606  0.00  0.00    -0.227 OA
BRANCH  15  17
ATOM     17  O   LIG    1       21.918 -16.631   4.348  0.00  0.00    -0.445 OA
BRANCH  17  18
ATOM     18  C   LIG    1       20.800 -16.147   3.566  0.00  0.00    +0.107 C 
ATOM     19  C   LIG    1       19.617 -15.894   4.512  0.00  0.00    +0.055 C 
ATOM     20  C   LIG    1       20.375 -17.251   2.601  0.00  0.00    +0.055 C 
ATOM     21  C   LIG    1       21.196 -14.910   2.731  0.00  0.00    +0.055 C 
ENDBRANCH  17  18
ENDBRANCH  15  17
ENDBRANCH  12  13
ENDBRANCH  11  12
ENDBRANCH   9  11
ENDBRANCH   6   7
BRANCH   6  22
ATOM     22  C   LIG    1       25.393 -21.570   3.939  0.00  0.00    +0.069 C 
BRANCH  22  23
ATOM     23  C   LIG    1       24.335 -20.706   3.304  0.00  0.00    -0.020 C 
ATOM     24  C   LIG    1       22.913 -20.782   3.509  0.00  0.00    +0.003 C 
ATOM     25  C   LIG    1       22.316 -19.802   2.717  0.00  0.00    +0.047 C 
ATOM     26  C   LIG    1       20.932 -19.577   2.698  0.00  0.00    +0.026 C 
ATOM     27  C   LIG    1       20.142 -20.319   3.581  0.00  0.00    +0.002 C 
ATOM     28  C   LIG    1       20.707 -21.290   4.399  0.00  0.00    +0.001 C 
ATOM     29  N   LIG    1       23.326 -19.160   2.044  0.00  0.00    -0.360 NA
ATOM     30  H   LIG    1       23.183 -18.372   1.427  0.00  0.00    +0.165 HD
ATOM     31  C   LIG    1       22.074 -21.571   4.324  0.00  0.00    +0.010 C 
ATOM     32  C   LIG    1       24.542 -19.687   2.393  0.00  0.00    +0.087 C 
ENDBRANCH  22  23
ENDBRANCH   6  22
ENDBRANCH   4   6
ENDBRANCH   1   2
BRANCH   1  33
ATOM     33  C   LIG    1       27.973 -17.283   4.538  0.00  0.00    +0.234 C 
ATOM     34  N   LIG    1       26.936 -17.322   3.586  0.00  0.00    -0.302 N 
ATOM     35  H   LIG    1       26.052 -17.744   3.872  0.00  0.00    +0.149 HD
ATOM     36  O   LIG    1       28.884 -16.460   4.498  0.00  0.00    -0.274 OA
BRANCH  34  37
ATOM     37  C   LIG    1       26.688 -16.260   2.585  0.00  0.00    +0.169 C 
BRANCH  37  38
ATOM     38  C   LIG    1       27.315 -14.926   3.126  0.00  0.00    +0.234 C 
ATOM     39  N   LIG    1       27.094 -13.772   2.401  0.00  0.00    -0.302 N 
ATOM     40  H   LIG    1       26.599 -13.785   1.521  0.00  0.00    +0.149 HD
ATOM     41  O   LIG    1       27.806 -14.901   4.257  0.00  0.00    -0.274 OA
BRANCH  39  42
ATOM     42  C   LIG    1       27.632 -12.444   2.729  0.00  0.00    +0.163 C 
BRANCH  42  43
ATOM     43  C   LIG    1       28.901 -12.582   3.624  0.00  0.00    +0.231 C 
ATOM     44  O   LIG    1       29.386 -11.659   4.281  0.00  0.00    -0.274 OA
ATOM     45  N   LIG    1       29.471 -13.822   3.721  0.00  0.00    -0.328 N 
ATOM     46  H   LIG    1       30.343 -13.874   4.234  0.00  0.00    +0.145 HD
ATOM     47  H   LIG    1       29.173 -14.647   3.219  0.00  0.00    +0.145 HD
ENDBRANCH  42  43
BRANCH  42  48
ATOM     48  C   LIG    1       26.647 -11.448   3.353  0.00  0.00    +0.067 C 
BRANCH  48  49
ATOM     49  C   LIG    1       25.328 -11.815   3.999  0.00  0.00    -0.045 C 
ATOM     50  C   LIG    1       25.445 -12.292   5.324  0.00  0.00    +0.003 C 
ATOM     51  C   LIG    1       24.338 -12.667   6.079  0.00  0.00    +0.000 C 
ATOM     52  C   LIG    1       23.076 -12.601   5.498  0.00  0.00    +0.000 C 
ATOM     53  C   LIG    1       22.933 -12.140   4.185  0.00  0.00    +0.000 C 
ATOM     54  C   LIG    1       24.052 -11.725   3.439  0.00  0.00    +0.003 C 
ENDBRANCH  48  49
ENDBRANCH  42  48
ENDBRANCH  39  42
ENDBRANCH  37  38
BRANCH  37  55
ATOM     55  C   LIG    1       25.239 -16.150   2.143  0.00  0.00    +0.152 C 
BRANCH  55  56
ATOM     56  C   LIG    1       24.253 -15.925   3.268  0.00  0.00    +0.307 C 
ATOM     57  O   LIG    1       24.418 -15.062   4.123  0.00  0.00    -0.251 OA
BRANCH  56  58
ATOM     58  O   LIG    1       23.233 -16.812   3.380  0.00  0.00    -0.481 OA
ATOM     59  H   LIG    1       23.474 -17.710   3.696  0.00  0.00    +0.295 HD
ENDBRANCH  56  58
ENDBRANCH  55  56
ENDBRANCH  37  55
ENDBRANCH  34  37
ENDBRANCH   1  33
BRANCH   1  60
ATOM     60  C   LIG    1       29.475 -18.734   6.018  0.00  0.00    +0.042 C 
BRANCH  60  61
ATOM     61  C   LIG    1       29.471 -19.847   7.057  0.00  0.00    +0.071 C 
BRANCH  61  63
ATOM     62  C   LIG    1       27.584 -21.571   6.166  0.00  0.00    +0.084 C 
ATOM     63  S   LIG    1       29.384 -21.463   6.255  0.00  0.00    -0.164 S 
ENDBRANCH  61  63
ENDBRANCH  60  61
ENDBRANCH   1  60
TORSDOF 23
ENDMDL
MODEL 4
REMARK VINA RESULT:      37.3      2.223      6.675
REMARK  Name = *****
REMARK                            x       y       z     vdW  Elec       q    Type
REMARK                         _______ _______ _______ _____ _____    ______ ____
ROOT
ATOM      1  C   LIG    1       22.521 -18.337   2.444  0.00  0.00    +0.160 C 
ENDROOT
BRANCH   1   2
ATOM      2  N   LIG    1       23.583 -19.366   2.232  0.00  0.00    -0.302 N 
ATOM      3  H   LIG    1       23.284 -20.331   2.082  0.00  0.00    +0.149 HD
ATOM      4  C   LIG    1       24.812 -19.172   2.849  0.00  0.00    +0.234 C 
ATOM      5  O   LIG    1       24.982 -18.138   3.491  0.00  0.00    -0.274 OA
BRANCH   4   6
ATOM      6  C   LIG    1       25.938 -20.236   2.687  0.00  0.00    +0.163 C 
BRANCH   6   7
ATOM      7  N   LIG    1       27.193 -19.658   3.220  0.00  0.00    -0.304 N 
ATOM      8  H   LIG    1       27.443 -18.738   2.872  0.00  0.00    +0.149 HD
ATOM      9  C   LIG    1       27.653 -20.011   4.473  0.00  0.00    +0.215 C 
ATOM     10  O   LIG    1       27.099 -20.878   5.145  0.00  0.00    -0.276 OA
BRANCH   9  11
ATOM     11  C   LIG    1       28.899 -19.250   4.909  0.00  0.00    +0.114 C 
BRANCH  11  12
ATOM     12  C   LIG    1       29.150 -19.253   6.410  0.00  0.00    +0.117 C 
BRANCH  12  13
ATOM     13  N   LIG    1       28.879 -17.968   7.017  0.00  0.00    -0.281 N 
ATOM     14  H   LIG    1       29.238 -17.734   7.949  0.00  0.00    +0.152 HD
ATOM     15  C   LIG    1       28.409 -16.908   6.299  0.00  0.00    +0.401 C 
ATOM     16  O   LIG    1       28.073 -16.948   5.087  0.00  0.00    -0.227 OA
BRANCH  15  17
ATOM     17  O   LIG    1       28.442 -15.818   7.041  0.00  0.00    -0.445 OA
BRANCH  17  18
ATOM     18  C   LIG    1       28.049 -14.552   6.459  0.00  0.00    +0.107 C 
ATOM     19  C   LIG    1       28.013 -14.707   4.932  0.00  0.00    +0.055 C 
ATOM     20  C   LIG    1       29.130 -13.521   6.780  0.00  0.00    +0.055 C 
ATOM     21  C   LIG    1       26.718 -14.050   7.060  0.00  0.00    +0.055 C 
ENDBRANCH  17  18
ENDBRANCH  15  17
ENDBRANCH  12  13
ENDBRANCH  11  12
ENDBRANCH   9  11
ENDBRANCH   6   7
BRANCH   6  22
ATOM     22  C   LIG    1       25.647 -21.569   3.434  0.00  0.00    +0.069 C 
BRANCH  22  23
ATOM     23  C   LIG    1       24.909 -21.470   4.743  0.00  0.00    -0.020 C 
ATOM     24  C   LIG    1       23.484 -21.425   4.935  0.00  0.00    +0.003 C 
ATOM     25  C   LIG    1       23.241 -21.323   6.304  0.00  0.00    +0.047 C 
ATOM     26  C   LIG    1       21.950 -21.288   6.849  0.00  0.00    +0.026 C 
ATOM     27  C   LIG    1       20.872 -21.447   5.973  0.00  0.00    +0.002 C 
ATOM     28  C   LIG    1       21.078 -21.570   4.604  0.00  0.00    +0.001 C 
ATOM     29  N   LIG    1       24.466 -21.295   6.927  0.00  0.00    -0.360 NA
ATOM     30  H   LIG    1       24.589 -21.268   7.930  0.00  0.00    +0.165 HD
ATOM     31  C   LIG    1       22.368 -21.496   4.073  0.00  0.00    +0.010 C 
ATOM     32  C   LIG    1       25.473 -21.390   6.002  0.00  0.00    +0.087 C 
ENDBRANCH  22  23
ENDBRANCH   6  22
ENDBRANCH   4   6
ENDBRANCH   1   2
BRANCH   1  33
ATOM     33  C   LIG    1       23.054 -17.099   3.227  0.00  0.00    +0.234 C 
ATOM     34  N   LIG    1       22.354 -15.887   3.072  0.00  0.00    -0.302 N 
ATOM     35  H   LIG    1       21.350 -15.943   2.903  0.00  0.00    +0.149 HD
ATOM     36  O   LIG    1       24.114 -17.184   3.843  0.00  0.00    -0.274 OA
BRANCH  34  37
ATOM     37  C   LIG    1       22.672 -14.645   3.813  0.00  0.00    +0.169 C 
BRANCH  37  38
ATOM     38  C   LIG    1       23.824 -13.903   3.046  0.00  0.00    +0.234 C 
ATOM     39  N   LIG    1       24.852 -14.669   2.533  0.00  0.00    -0.302 N 
ATOM     40  H   LIG    1       24.902 -15.665   2.694  0.00  0.00    +0.149 HD
ATOM     41  O   LIG    1       23.688 -12.713   2.750  0.00  0.00    -0.274 OA
BRANCH  39  42
ATOM     42  C   LIG    1       26.029 -14.149   1.825  0.00  0.00    +0.163 C 
BRANCH  42  43
ATOM     43  C   LIG    1       27.249 -15.098   2.034  0.00  0.00    +0.231 C 
ATOM     44  O   LIG    1       28.423 -14.756   1.887  0.00  0.00    -0.274 OA
ATOM     45  N   LIG    1       26.989 -16.372   2.459  0.00  0.00    -0.328 N 
ATOM     46  H   LIG    1       27.783 -16.999   2.505  0.00  0.00    +0.145 HD
ATOM     47  H   LIG    1       26.070 -16.770   2.599  0.00  0.00    +0.145 HD
ENDBRANCH  42  43
BRANCH  42  48
ATOM     48  C   LIG    1       26.424 -12.701   2.136  0.00  0.00    +0.067 C 
BRANCH  48  49
ATOM     49  C   LIG    1       27.314 -12.268   3.282  0.00  0.00    -0.045 C 
ATOM     50  C   LIG    1       26.631 -12.069   4.502  0.00  0.00    +0.003 C 
ATOM     51  C   LIG    1       27.288 -11.681   5.667  0.00  0.00    +0.000 C 
ATOM     52  C   LIG    1       28.658 -11.450   5.619  0.00  0.00    +0.000 C 
ATOM     53  C   LIG    1       29.357 -11.632   4.421  0.00  0.00    +0.000 C 
ATOM     54  C   LIG    1       28.696 -12.063   3.256  0.00  0.00    +0.003 C 
ENDBRANCH  48  49
ENDBRANCH  42  48
ENDBRANCH  39  42
ENDBRANCH  37  38
BRANCH  37  55
ATOM     55  C   LIG    1       22.925 -14.853   5.296  0.00  0.00    +0.152 C 
BRANCH  55  56
ATOM     56  C   LIG    1       21.677 -15.084   6.120  0.00  0.00    +0.307 C 
ATOM     57  O   LIG    1       20.893 -15.996   5.883  0.00  0.00    -0.251 OA
BRANCH  56  58
ATOM     58  O   LIG    1       21.379 -14.153   7.060  0.00  0.00    -0.481 OA
ATOM     59  H   LIG    1       20.814 -13.405   6.764  0.00  0.00    +0.295 HD
ENDBRANCH  56  58
ENDBRANCH  55  56
ENDBRANCH  37  55
ENDBRANCH  34  37
ENDBRANCH   1  33
BRANCH   1  60
ATOM     60  C   LIG    1       21.253 -18.914   3.103  0.00  0.00    +0.042 C 
BRANCH  60  61
ATOM     61  C   LIG    1       21.000 -18.197   4.423  0.00  0.00    +0.071 C 
BRANCH  61  63
ATOM     62  C   LIG    1       22.950 -17.966   6.286  0.00  0.00    +0.084 C 
ATOM     63  S   LIG    1       21.675 -19.149   5.801  0.00  0.00    -0.164 S 
ENDBRANCH  61  63
ENDBRANCH  60  61
ENDBRANCH   1  60
TORSDOF 23
ENDMDL
MODEL 5
REMARK VINA RESULT:      39.0      2.161      4.977
REMARK  Name = *****
REMARK                            x       y       z     vdW  Elec       q    Type
REMARK                         _______ _______ _______ _____ _____    ______ ____
ROOT
ATOM      1  C   LIG    1       24.098 -19.759   4.603  0.00  0.00    +0.160 C 
ENDROOT
BRANCH   1   2
ATOM      2  N   LIG    1       25.273 -18.948   5.048  0.00  0.00    -0.302 N 
ATOM      3  H   LIG    1       25.448 -18.881   6.052  0.00  0.00    +0.149 HD
ATOM      4  C   LIG    1       25.655 -17.868   4.263  0.00  0.00    +0.234 C 
ATOM      5  O   LIG    1       25.045 -17.668   3.215  0.00  0.00    -0.274 OA
BRANCH   4   6
ATOM      6  C   LIG    1       26.850 -16.973   4.706  0.00  0.00    +0.163 C 
BRANCH   6   7
ATOM      7  N   LIG    1       27.712 -17.772   5.606  0.00  0.00    -0.304 N 
ATOM      8  H   LIG    1       27.349 -17.936   6.540  0.00  0.00    +0.149 HD
ATOM      9  C   LIG    1       28.593 -18.703   5.093  0.00  0.00    +0.215 C 
ATOM     10  O   LIG    1       28.763 -18.834   3.884  0.00  0.00    -0.276 OA
BRANCH   9  11
ATOM     11  C   LIG    1       29.327 -19.509   6.158  0.00  0.00    +0.114 C 
BRANCH  11  12
ATOM     12  C   LIG    1       28.596 -20.762   6.620  0.00  0.00    +0.117 C 
BRANCH  12  13
ATOM     13  N   LIG    1       27.645 -21.238   5.639  0.00  0.00    -0.281 N 
ATOM     14  H   LIG    1       27.216 -22.165   5.721  0.00  0.00    +0.152 HD
ATOM     15  C   LIG    1       27.044 -20.403   4.743  0.00  0.00    +0.401 C 
ATOM     16  O   LIG    1       27.309 -19.181   4.603  0.00  0.00    -0.227 OA
BRANCH  15  17
ATOM     17  O   LIG    1       26.085 -21.048   4.108  0.00  0.00    -0.445 OA
BRANCH  17  18
ATOM     18  C   LIG    1       25.795 -20.712   2.730  0.00  0.00    +0.107 C 
ATOM     19  C   LIG    1       25.343 -19.247   2.670  0.00  0.00    +0.055 C 
ATOM     20  C   LIG    1       24.617 -21.565   2.265  0.00  0.00    +0.055 C 
ATOM     21  C   LIG    1       26.999 -21.023   1.814  0.00  0.00    +0.055 C 
ENDBRANCH  17  18
ENDBRANCH  15  17
ENDBRANCH  12  13
ENDBRANCH  11  12
ENDBRANCH   9  11
ENDBRANCH   6   7
BRANCH   6  22
ATOM     22  C   LIG    1       27.714 -16.457   3.519  0.00  0.00    +0.069 C 
BRANCH  22  23
ATOM     23  C   LIG    1       27.300 -15.152   2.892  0.00  0.00    -0.020 C 
ATOM     24  C   LIG    1       25.970 -14.608   2.815  0.00  0.00    +0.003 C 
ATOM     25  C   LIG    1       26.047 -13.388   2.144  0.00  0.00    +0.047 C 
ATOM     26  C   LIG    1       24.930 -12.570   1.920  0.00  0.00    +0.026 C 
ATOM     27  C   LIG    1       23.710 -12.971   2.473  0.00  0.00    +0.002 C 
ATOM     28  C   LIG    1       23.602 -14.173   3.164  0.00  0.00    +0.001 C 
ATOM     29  N   LIG    1       27.366 -13.195   1.812  0.00  0.00    -0.360 NA
ATOM     30  H   LIG    1       27.718 -12.365   1.354  0.00  0.00    +0.165 HD
ATOM     31  C   LIG    1       24.705 -15.022   3.284  0.00  0.00    +0.010 C 
ATOM     32  C   LIG    1       28.128 -14.241   2.263  0.00  0.00    +0.087 C 
ENDBRANCH  22  23
ENDBRANCH   6  22
ENDBRANCH   4   6
ENDBRANCH   1   2
BRANCH   1  33
ATOM     33  C   LIG    1       22.889 -18.863   4.200  0.00  0.00    +0.234 C 
ATOM     34  N   LIG    1       22.624 -17.737   5.003  0.00  0.00    -0.302 N 
ATOM     35  H   LIG    1       23.420 -17.284   5.453  0.00  0.00    +0.149 HD
ATOM     36  O   LIG    1       22.146 -19.223   3.290  0.00  0.00    -0.274 OA
BRANCH  34  37
ATOM     37  C   LIG    1       21.574 -16.735   4.708  0.00  0.00    +0.169 C 
BRANCH  37  38
ATOM     38  C   LIG    1       21.621 -15.637   5.829  0.00  0.00    +0.234 C 
ATOM     39  N   LIG    1       22.160 -14.409   5.503  0.00  0.00    -0.302 N 
ATOM     40  H   LIG    1       22.568 -14.232   4.596  0.00  0.00    +0.149 HD
ATOM     41  O   LIG    1       21.012 -15.822   6.885  0.00  0.00    -0.274 OA
BRANCH  39  42
ATOM     42  C   LIG    1       22.324 -13.278   6.427  0.00  0.00    +0.163 C 
BRANCH  42  43
ATOM     43  C   LIG    1       20.941 -12.628   6.735  0.00  0.00    +0.231 C 
ATOM     44  O   LIG    1       20.789 -11.449   7.059  0.00  0.00    -0.274 OA
ATOM     45  N   LIG    1       19.829 -13.411   6.581  0.00  0.00    -0.328 N 
ATOM     46  H   LIG    1       18.949 -13.000   6.870  0.00  0.00    +0.145 HD
ATOM     47  H   LIG    1       19.830 -14.391   6.336  0.00  0.00    +0.145 HD
ENDBRANCH  42  43
BRANCH  42  48
ATOM     48  C   LIG    1       23.335 -12.203   6.012  0.00  0.00    +0.067 C 
BRANCH  48  49
ATOM     49  C   LIG    1       24.826 -12.420   5.867  0.00  0.00    -0.045 C 
ATOM     50  C   LIG    1       25.221 -13.776   5.910  0.00  0.00    +0.003 C 
ATOM     51  C   LIG    1       26.551 -14.167   5.781  0.00  0.00    +0.000 C 
ATOM     52  C   LIG    1       27.528 -13.188   5.637  0.00  0.00    +0.000 C 
ATOM     53  C   LIG    1       27.164 -11.838   5.599  0.00  0.00    +0.000 C 
ATOM     54  C   LIG    1       25.815 -11.449   5.690  0.00  0.00    +0.003 C 
ENDBRANCH  48  49
ENDBRANCH  42  48
ENDBRANCH  39  42
ENDBRANCH  37  38
BRANCH  37  55
ATOM     55  C   LIG    1       20.200 -17.332   4.456  0.00  0.00    +0.152 C 
BRANCH  55  56
ATOM     56  C   LIG    1       19.830 -17.466   2.995  0.00  0.00    +0.307 C 
ATOM     57  O   LIG    1       19.358 -16.537   2.350  0.00  0.00    -0.251 OA
BRANCH  56  58
ATOM     58  O   LIG    1       19.911 -18.705   2.451  0.00  0.00    -0.481 OA
ATOM     59  H   LIG    1       20.183 -18.747   1.508  0.00  0.00    +0.295 HD
ENDBRANCH  56  58
ENDBRANCH  55  56
ENDBRANCH  37  55
ENDBRANCH  34  37
ENDBRANCH   1  33
BRANCH   1  60
ATOM     60  C   LIG    1       23.686 -20.828   5.633  0.00  0.00    +0.042 C 
BRANCH  60  61
ATOM     61  C   LIG    1       22.190 -20.725   5.894  0.00  0.00    +0.071 C 
BRANCH  61  63
ATOM     62  C   LIG    1       19.984 -21.571   4.573  0.00  0.00    +0.084 C 
ATOM     63  S   LIG    1       21.302 -20.355   4.365  0.00  0.00    -0.164 S 
ENDBRANCH  61  63
ENDBRANCH  60  61
ENDBRANCH   1  60
TORSDOF 23
ENDMDL
