MODEL 1
REMARK VINA RESULT:      -5.2      0.000      0.000
REMARK  Name = *****
REMARK                            x       y       z     vdW  Elec       q    Type
REMARK                         _______ _______ _______ _____ _____    ______ ____
ROOT
ATOM      1  C   LIG    1       24.340 -21.186   5.102  0.00  0.00    +0.296 C 
ATOM      2  C   LIG    1       23.221 -20.671   6.021  0.00  0.00    +0.321 C 
ATOM      3  F   LIG    1       23.580 -19.552   6.689  0.00  0.00    -0.198 F 
ATOM      4  F   LIG    1       22.795 -21.572   6.936  0.00  0.00    -0.198 F 
ATOM      5  C   LIG    1       22.088 -20.382   5.056  0.00  0.00    +0.219 C 
ATOM      6  C   LIG    1       22.802 -20.005   3.763  0.00  0.00    +0.181 C 
ATOM      7  O   LIG    1       24.120 -20.595   3.794  0.00  0.00    -0.342 OA
ENDROOT
BRANCH   1  12
ATOM      8  C   LIG    1       28.186 -20.183   6.331  0.00  0.00    +0.123 C 
ATOM      9  N   LIG    1       27.668 -19.574   5.314  0.00  0.00    -0.178 NA
ATOM     10  C   LIG    1       26.407 -19.908   4.877  0.00  0.00    +0.352 C 
ATOM     11  O   LIG    1       25.886 -19.302   3.948  0.00  0.00    -0.244 OA
ATOM     12  N   LIG    1       25.716 -20.927   5.544  0.00  0.00    -0.267 N 
ATOM     13  C   LIG    1       26.275 -21.571   6.627  0.00  0.00    +0.096 C 
ATOM     14  C   LIG    1       27.496 -21.262   7.062  0.00  0.00    +0.061 C 
BRANCH   8  15
ATOM     15  N   LIG    1       29.424 -19.776   6.741  0.00  0.00    -0.343 N 
ATOM     16  H   LIG    1       30.032 -20.563   6.951  0.00  0.00    +0.144 HD
ATOM     17  H   LIG    1       29.881 -19.062   6.189  0.00  0.00    +0.144 HD
ENDBRANCH   8  15
ENDBRANCH   1  12
BRANCH   5  18
ATOM     18  O   LIG    1       21.293 -21.562   4.820  0.00  0.00    -0.383 OA
ATOM     19  H   LIG    1       21.528 -22.204   5.521  0.00  0.00    +0.210 HD
ENDBRANCH   5  18
BRANCH   6  20
ATOM     20  C   LIG    1       22.942 -18.495   3.555  0.00  0.00    +0.190 C 
BRANCH  20  21
ATOM     21  O   LIG    1       22.156 -17.756   4.478  0.00  0.00    -0.392 OA
ATOM     22  H   LIG    1       21.226 -18.023   4.361  0.00  0.00    +0.209 HD
ENDBRANCH  20  21
ENDBRANCH   6  20
TORSDOF 5
ENDMDL
MODEL 2
REMARK VINA RESULT:      -4.0      4.520      5.917
REMARK  Name = *****
REMARK                            x       y       z     vdW  Elec       q    Type
REMARK                         _______ _______ _______ _____ _____    ______ ____
ROOT
ATOM      1  C   LIG    1       25.756 -15.579   2.988  0.00  0.00    +0.296 C 
ATOM      2  C   LIG    1       24.929 -14.636   3.876  0.00  0.00    +0.321 C 
ATOM      3  F   LIG    1       25.403 -14.573   5.140  0.00  0.00    -0.198 F 
ATOM      4  F   LIG    1       23.616 -14.953   3.950  0.00  0.00    -0.198 F 
ATOM      5  C   LIG    1       25.069 -13.297   3.180  0.00  0.00    +0.219 C 
ATOM      6  C   LIG    1       26.442 -13.374   2.521  0.00  0.00    +0.181 C 
ATOM      7  O   LIG    1       26.769 -14.769   2.337  0.00  0.00    -0.342 OA
ENDROOT
BRANCH   1  12
ATOM      8  C   LIG    1       27.443 -18.978   4.696  0.00  0.00    +0.123 C 
ATOM      9  N   LIG    1       26.232 -19.032   4.243  0.00  0.00    -0.178 NA
ATOM     10  C   LIG    1       25.648 -17.912   3.697  0.00  0.00    +0.352 C 
ATOM     11  O   LIG    1       24.521 -17.965   3.218  0.00  0.00    -0.244 OA
ATOM     12  N   LIG    1       26.385 -16.722   3.663  0.00  0.00    -0.267 N 
ATOM     13  C   LIG    1       27.675 -16.674   4.147  0.00  0.00    +0.096 C 
ATOM     14  C   LIG    1       28.255 -17.747   4.682  0.00  0.00    +0.061 C 
BRANCH   8  15
ATOM     15  N   LIG    1       27.980 -20.134   5.187  0.00  0.00    -0.343 N 
ATOM     16  H   LIG    1       28.687 -19.954   5.895  0.00  0.00    +0.144 HD
ATOM     17  H   LIG    1       27.334 -20.866   5.453  0.00  0.00    +0.144 HD
ENDBRANCH   8  15
ENDBRANCH   1  12
BRANCH   5  18
ATOM     18  O   LIG    1       24.071 -13.137   2.152  0.00  0.00    -0.383 OA
ATOM     19  H   LIG    1       23.810 -12.193   2.159  0.00  0.00    +0.210 HD
ENDBRANCH   5  18
BRANCH   6  20
ATOM     20  C   LIG    1       27.554 -12.710   3.338  0.00  0.00    +0.190 C 
BRANCH  20  21
ATOM     21  O   LIG    1       28.776 -13.428   3.256  0.00  0.00    -0.392 OA
ATOM     22  H   LIG    1       28.710 -14.200   3.845  0.00  0.00    +0.209 HD
ENDBRANCH  20  21
ENDBRANCH   6  20
TORSDOF 5
ENDMDL
MODEL 3
REMARK VINA RESULT:      -3.7      1.571      1.943
REMARK  Name = *****
REMARK                            x       y       z     vdW  Elec       q    Type
REMARK                         _______ _______ _______ _____ _____    ______ ____
ROOT
ATOM      1  C   LIG    1       23.621 -19.573   4.184  0.00  0.00    +0.296 C 
ATOM      2  C   LIG    1       22.313 -19.626   4.989  0.00  0.00    +0.321 C 
ATOM      3  F   LIG    1       22.514 -19.421   6.310  0.00  0.00    -0.198 F 
ATOM      4  F   LIG    1       21.626 -20.784   4.857  0.00  0.00    -0.198 F 
ATOM      5  C   LIG    1       21.493 -18.501   4.388  0.00  0.00    +0.219 C 
ATOM      6  C   LIG    1       22.542 -17.494   3.931  0.00  0.00    +0.181 C 
ATOM      7  O   LIG    1       23.783 -18.205   3.727  0.00  0.00    -0.342 OA
ENDROOT
BRANCH   1  12
ATOM      8  C   LIG    1       27.142 -20.561   6.168  0.00  0.00    +0.123 C 
ATOM      9  N   LIG    1       27.191 -19.756   5.157  0.00  0.00    -0.178 NA
ATOM     10  C   LIG    1       26.040 -19.436   4.473  0.00  0.00    +0.352 C 
ATOM     11  O   LIG    1       26.066 -18.633   3.547  0.00  0.00    -0.244 OA
ATOM     12  N   LIG    1       24.834 -20.015   4.885  0.00  0.00    -0.267 N 
ATOM     13  C   LIG    1       24.792 -20.872   5.963  0.00  0.00    +0.096 C 
ATOM     14  C   LIG    1       25.895 -21.194   6.635  0.00  0.00    +0.061 C 
BRANCH   8  15
ATOM     15  N   LIG    1       28.312 -20.805   6.830  0.00  0.00    -0.343 N 
ATOM     16  H   LIG    1       29.123 -20.663   6.233  0.00  0.00    +0.144 HD
ATOM     17  H   LIG    1       28.420 -20.390   7.746  0.00  0.00    +0.144 HD
ENDBRANCH   8  15
ENDBRANCH   1  12
BRANCH   5  18
ATOM     18  O   LIG    1       20.754 -18.954   3.236  0.00  0.00    -0.383 OA
ATOM     19  H   LIG    1       20.651 -19.924   3.332  0.00  0.00    +0.210 HD
ENDBRANCH   5  18
BRANCH   6  20
ATOM     20  C   LIG    1       22.783 -16.360   4.931  0.00  0.00    +0.190 C 
BRANCH  20  21
ATOM     21  O   LIG    1       23.202 -15.165   4.290  0.00  0.00    -0.392 OA
ATOM     22  H   LIG    1       23.922 -15.391   3.675  0.00  0.00    +0.209 HD
ENDBRANCH  20  21
ENDBRANCH   6  20
TORSDOF 5
ENDMDL
MODEL 4
REMARK VINA RESULT:      -3.7      3.284      4.685
REMARK  Name = *****
REMARK                            x       y       z     vdW  Elec       q    Type
REMARK                         _______ _______ _______ _____ _____    ______ ____
ROOT
ATOM      1  C   LIG    1       23.765 -18.532   3.585  0.00  0.00    +0.296 C 
ATOM      2  C   LIG    1       24.888 -19.529   3.911  0.00  0.00    +0.321 C 
ATOM      3  F   LIG    1       25.650 -19.122   4.950  0.00  0.00    -0.198 F 
ATOM      4  F   LIG    1       25.719 -19.789   2.875  0.00  0.00    -0.198 F 
ATOM      5  C   LIG    1       24.133 -20.796   4.261  0.00  0.00    +0.219 C 
ATOM      6  C   LIG    1       22.820 -20.284   4.845  0.00  0.00    +0.181 C 
ATOM      7  O   LIG    1       22.593 -18.953   4.330  0.00  0.00    -0.342 OA
ENDROOT
BRANCH   1  12
ATOM      8  C   LIG    1       24.681 -14.507   4.107  0.00  0.00    +0.123 C 
ATOM      9  N   LIG    1       25.554 -15.287   3.557  0.00  0.00    -0.178 NA
ATOM     10  C   LIG    1       25.280 -16.626   3.398  0.00  0.00    +0.352 C 
ATOM     11  O   LIG    1       26.077 -17.366   2.832  0.00  0.00    -0.244 OA
ATOM     12  N   LIG    1       24.052 -17.117   3.859  0.00  0.00    -0.267 N 
ATOM     13  C   LIG    1       23.128 -16.278   4.443  0.00  0.00    +0.096 C 
ATOM     14  C   LIG    1       23.378 -14.980   4.608  0.00  0.00    +0.061 C 
BRANCH   8  15
ATOM     15  N   LIG    1       24.998 -13.180   4.198  0.00  0.00    -0.343 N 
ATOM     16  H   LIG    1       25.208 -12.905   5.154  0.00  0.00    +0.144 HD
ATOM     17  H   LIG    1       25.663 -12.818   3.527  0.00  0.00    +0.144 HD
ENDBRANCH   8  15
ENDBRANCH   1  12
BRANCH   5  18
ATOM     18  O   LIG    1       23.843 -21.572   3.081  0.00  0.00    -0.383 OA
ATOM     19  H   LIG    1       22.868 -21.640   3.022  0.00  0.00    +0.210 HD
ENDBRANCH   5  18
BRANCH   6  20
ATOM     20  C   LIG    1       22.807 -20.230   6.374  0.00  0.00    +0.190 C 
BRANCH  20  21
ATOM     21  O   LIG    1       23.822 -21.042   6.944  0.00  0.00    -0.392 OA
ATOM     22  H   LIG    1       23.983 -21.789   6.341  0.00  0.00    +0.209 HD
ENDBRANCH  20  21
ENDBRANCH   6  20
TORSDOF 5
ENDMDL
MODEL 5
REMARK VINA RESULT:      -3.6      4.697      6.181
REMARK  Name = *****
REMARK                            x       y       z     vdW  Elec       q    Type
REMARK                         _______ _______ _______ _____ _____    ______ ____
ROOT
ATOM      1  C   LIG    1       25.713 -15.362   2.863  0.00  0.00    +0.296 C 
ATOM      2  C   LIG    1       24.996 -14.454   3.874  0.00  0.00    +0.321 C 
ATOM      3  F   LIG    1       25.404 -14.676   5.143  0.00  0.00    -0.198 F 
ATOM      4  F   LIG    1       23.647 -14.561   3.858  0.00  0.00    -0.198 F 
ATOM      5  C   LIG    1       25.381 -13.060   3.420  0.00  0.00    +0.219 C 
ATOM      6  C   LIG    1       26.759 -13.252   2.796  0.00  0.00    +0.181 C 
ATOM      7  O   LIG    1       26.874 -14.632   2.386  0.00  0.00    -0.342 OA
ENDROOT
BRANCH   1  12
ATOM      8  C   LIG    1       26.955 -18.991   4.474  0.00  0.00    +0.123 C 
ATOM      9  N   LIG    1       27.738 -17.964   4.551  0.00  0.00    -0.178 NA
ATOM     10  C   LIG    1       27.356 -16.761   4.003  0.00  0.00    +0.352 C 
ATOM     11  O   LIG    1       28.066 -15.769   4.116  0.00  0.00    -0.244 OA
ATOM     12  N   LIG    1       26.119 -16.686   3.351  0.00  0.00    -0.267 N 
ATOM     13  C   LIG    1       25.291 -17.786   3.273  0.00  0.00    +0.096 C 
ATOM     14  C   LIG    1       25.646 -18.958   3.796  0.00  0.00    +0.061 C 
BRANCH   8  15
ATOM     15  N   LIG    1       27.375 -20.145   5.075  0.00  0.00    -0.343 N 
ATOM     16  H   LIG    1       28.366 -20.312   4.923  0.00  0.00    +0.144 HD
ATOM     17  H   LIG    1       27.092 -20.295   6.034  0.00  0.00    +0.144 HD
ENDBRANCH   8  15
ENDBRANCH   1  12
BRANCH   5  18
ATOM     18  O   LIG    1       24.477 -12.575   2.407  0.00  0.00    -0.383 OA
ATOM     19  H   LIG    1       23.917 -13.334   2.144  0.00  0.00    +0.210 HD
ENDBRANCH   5  18
BRANCH   6  20
ATOM     20  C   LIG    1       27.914 -12.920   3.743  0.00  0.00    +0.190 C 
BRANCH  20  21
ATOM     21  O   LIG    1       29.166 -13.348   3.228  0.00  0.00    -0.392 OA
ATOM     22  H   LIG    1       28.993 -14.000   2.525  0.00  0.00    +0.209 HD
ENDBRANCH  20  21
ENDBRANCH   6  20
TORSDOF 5
ENDMDL
MODEL 6
REMARK VINA RESULT:      -3.4      3.415      4.730
REMARK  Name = *****
REMARK                            x       y       z     vdW  Elec       q    Type
REMARK                         _______ _______ _______ _____ _____    ______ ____
ROOT
ATOM      1  C   LIG    1       23.811 -18.518   3.608  0.00  0.00    +0.296 C 
ATOM      2  C   LIG    1       24.877 -19.619   3.720  0.00  0.00    +0.321 C 
ATOM      3  F   LIG    1       25.912 -19.253   4.509  0.00  0.00    -0.198 F 
ATOM      4  F   LIG    1       25.392 -20.017   2.534  0.00  0.00    -0.198 F 
ATOM      5  C   LIG    1       24.115 -20.776   4.335  0.00  0.00    +0.219 C 
ATOM      6  C   LIG    1       23.047 -20.094   5.183  0.00  0.00    +0.181 C 
ATOM      7  O   LIG    1       22.828 -18.771   4.645  0.00  0.00    -0.342 OA
ENDROOT
BRANCH   1  12
ATOM      8  C   LIG    1       25.060 -14.583   4.121  0.00  0.00    +0.123 C 
ATOM      9  N   LIG    1       23.850 -14.910   4.443  0.00  0.00    -0.178 NA
ATOM     10  C   LIG    1       23.410 -16.200   4.258  0.00  0.00    +0.352 C 
ATOM     11  O   LIG    1       22.284 -16.534   4.608  0.00  0.00    -0.244 OA
ATOM     12  N   LIG    1       24.293 -17.134   3.700  0.00  0.00    -0.267 N 
ATOM     13  C   LIG    1       25.580 -16.777   3.360  0.00  0.00    +0.096 C 
ATOM     14  C   LIG    1       26.021 -15.532   3.530  0.00  0.00    +0.061 C 
BRANCH   8  15
ATOM     15  N   LIG    1       25.447 -13.296   4.368  0.00  0.00    -0.343 N 
ATOM     16  H   LIG    1       24.719 -12.628   4.127  0.00  0.00    +0.144 HD
ATOM     17  H   LIG    1       25.874 -13.107   5.265  0.00  0.00    +0.144 HD
ENDBRANCH   8  15
ENDBRANCH   1  12
BRANCH   5  18
ATOM     18  O   LIG    1       23.465 -21.568   3.321  0.00  0.00    -0.383 OA
ATOM     19  H   LIG    1       24.079 -22.298   3.098  0.00  0.00    +0.210 HD
ENDBRANCH   5  18
BRANCH   6  20
ATOM     20  C   LIG    1       23.423 -19.970   6.662  0.00  0.00    +0.190 C 
BRANCH  20  21
ATOM     21  O   LIG    1       24.502 -20.824   7.010  0.00  0.00    -0.392 OA
ATOM     22  H   LIG    1       24.130 -21.631   7.406  0.00  0.00    +0.209 HD
ENDBRANCH  20  21
ENDBRANCH   6  20
TORSDOF 5
ENDMDL
MODEL 7
REMARK VINA RESULT:      -3.3      4.659      6.426
REMARK  Name = *****
REMARK                            x       y       z     vdW  Elec       q    Type
REMARK                         _______ _______ _______ _____ _____    ______ ____
ROOT
ATOM      1  C   LIG    1       24.991 -15.229   3.124  0.00  0.00    +0.296 C 
ATOM      2  C   LIG    1       24.876 -14.216   4.274  0.00  0.00    +0.321 C 
ATOM      3  F   LIG    1       25.411 -14.683   5.424  0.00  0.00    -0.198 F 
ATOM      4  F   LIG    1       23.609 -13.825   4.545  0.00  0.00    -0.198 F 
ATOM      5  C   LIG    1       25.657 -13.023   3.763  0.00  0.00    +0.219 C 
ATOM      6  C   LIG    1       26.714 -13.644   2.857  0.00  0.00    +0.181 C 
ATOM      7  O   LIG    1       26.224 -14.931   2.418  0.00  0.00    -0.342 OA
ENDROOT
BRANCH   1  12
ATOM      8  C   LIG    1       24.655 -19.266   4.068  0.00  0.00    +0.123 C 
ATOM      9  N   LIG    1       23.637 -18.488   4.248  0.00  0.00    -0.178 NA
ATOM     10  C   LIG    1       23.736 -17.145   3.964  0.00  0.00    +0.352 C 
ATOM     11  O   LIG    1       22.763 -16.408   4.080  0.00  0.00    -0.244 OA
ATOM     12  N   LIG    1       24.960 -16.648   3.500  0.00  0.00    -0.267 N 
ATOM     13  C   LIG    1       26.039 -17.485   3.313  0.00  0.00    +0.096 C 
ATOM     14  C   LIG    1       25.961 -18.786   3.584  0.00  0.00    +0.061 C 
BRANCH   8  15
ATOM     15  N   LIG    1       24.479 -20.596   4.329  0.00  0.00    -0.343 N 
ATOM     16  H   LIG    1       24.510 -21.157   3.482  0.00  0.00    +0.144 HD
ATOM     17  H   LIG    1       25.020 -20.994   5.086  0.00  0.00    +0.144 HD
ENDBRANCH   8  15
ENDBRANCH   1  12
BRANCH   5  18
ATOM     18  O   LIG    1       24.822 -12.154   2.971  0.00  0.00    -0.383 OA
ATOM     19  H   LIG    1       24.799 -12.534   2.068  0.00  0.00    +0.210 HD
ENDBRANCH   5  18
BRANCH   6  20
ATOM     20  C   LIG    1       28.071 -13.840   3.539  0.00  0.00    +0.190 C 
BRANCH  20  21
ATOM     21  O   LIG    1       28.872 -12.669   3.476  0.00  0.00    -0.392 OA
ATOM     22  H   LIG    1       29.668 -12.822   4.016  0.00  0.00    +0.209 HD
ENDBRANCH  20  21
ENDBRANCH   6  20
TORSDOF 5
ENDMDL
MODEL 8
REMARK VINA RESULT:      -3.2      5.247      7.150
REMARK  Name = *****
REMARK                            x       y       z     vdW  Elec       q    Type
REMARK                         _______ _______ _______ _____ _____    ______ ____
ROOT
ATOM      1  C   LIG    1       25.496 -14.767   3.941  0.00  0.00    +0.296 C 
ATOM      2  C   LIG    1       25.675 -14.044   2.597  0.00  0.00    +0.321 C 
ATOM      3  F   LIG    1       24.535 -14.024   1.870  0.00  0.00    -0.198 F 
ATOM      4  F   LIG    1       26.647 -14.563   1.812  0.00  0.00    -0.198 F 
ATOM      5  C   LIG    1       26.075 -12.642   3.010  0.00  0.00    +0.219 C 
ATOM      6  C   LIG    1       25.383 -12.451   4.355  0.00  0.00    +0.181 C 
ATOM      7  O   LIG    1       25.144 -13.758   4.923  0.00  0.00    -0.342 OA
ENDROOT
BRANCH   1  12
ATOM      8  C   LIG    1       22.903 -18.016   4.128  0.00  0.00    +0.123 C 
ATOM      9  N   LIG    1       24.111 -18.195   3.701  0.00  0.00    -0.178 NA
ATOM     10  C   LIG    1       24.976 -17.129   3.609  0.00  0.00    +0.352 C 
ATOM     11  O   LIG    1       26.138 -17.295   3.255  0.00  0.00    -0.244 OA
ATOM     12  N   LIG    1       24.512 -15.857   3.967  0.00  0.00    -0.267 N 
ATOM     13  C   LIG    1       23.223 -15.676   4.421  0.00  0.00    +0.096 C 
ATOM     14  C   LIG    1       22.372 -16.697   4.515  0.00  0.00    +0.061 C 
BRANCH   8  15
ATOM     15  N   LIG    1       22.108 -19.122   4.236  0.00  0.00    -0.343 N 
ATOM     16  H   LIG    1       21.410 -19.161   3.497  0.00  0.00    +0.144 HD
ATOM     17  H   LIG    1       22.569 -20.009   4.390  0.00  0.00    +0.144 HD
ENDBRANCH   8  15
ENDBRANCH   1  12
BRANCH   5  18
ATOM     18  O   LIG    1       27.500 -12.545   3.204  0.00  0.00    -0.383 OA
ATOM     19  H   LIG    1       27.656 -12.591   4.170  0.00  0.00    +0.210 HD
ENDBRANCH   5  18
BRANCH   6  20
ATOM     20  C   LIG    1       24.052 -11.702   4.261  0.00  0.00    +0.190 C 
BRANCH  20  21
ATOM     21  O   LIG    1       23.626 -11.540   2.917  0.00  0.00    -0.392 OA
ATOM     22  H   LIG    1       23.009 -10.787   2.886  0.00  0.00    +0.209 HD
ENDBRANCH  20  21
ENDBRANCH   6  20
TORSDOF 5
ENDMDL
MODEL 9
REMARK VINA RESULT:      -3.2      4.546      6.404
REMARK  Name = *****
REMARK                            x       y       z     vdW  Elec       q    Type
REMARK                         _______ _______ _______ _____ _____    ______ ____
ROOT
ATOM      1  C   LIG    1       24.802 -15.458   3.176  0.00  0.00    +0.296 C 
ATOM      2  C   LIG    1       24.115 -14.172   3.661  0.00  0.00    +0.321 C 
ATOM      3  F   LIG    1       23.542 -14.323   4.876  0.00  0.00    -0.198 F 
ATOM      4  F   LIG    1       23.166 -13.698   2.821  0.00  0.00    -0.198 F 
ATOM      5  C   LIG    1       25.254 -13.175   3.723  0.00  0.00    +0.219 C 
ATOM      6  C   LIG    1       26.472 -14.037   4.037  0.00  0.00    +0.181 C 
ATOM      7  O   LIG    1       26.188 -15.384   3.599  0.00  0.00    -0.342 OA
ENDROOT
BRANCH   1  12
ATOM      8  C   LIG    1       23.361 -19.106   4.565  0.00  0.00    +0.123 C 
ATOM      9  N   LIG    1       24.522 -19.060   3.996  0.00  0.00    -0.178 NA
ATOM     10  C   LIG    1       25.005 -17.868   3.508  0.00  0.00    +0.352 C 
ATOM     11  O   LIG    1       26.125 -17.802   3.014  0.00  0.00    -0.244 OA
ATOM     12  N   LIG    1       24.207 -16.723   3.627  0.00  0.00    -0.267 N 
ATOM     13  C   LIG    1       22.971 -16.782   4.235  0.00  0.00    +0.096 C 
ATOM     14  C   LIG    1       22.487 -17.928   4.710  0.00  0.00    +0.061 C 
BRANCH   8  15
ATOM     15  N   LIG    1       22.956 -20.312   5.065  0.00  0.00    -0.343 N 
ATOM     16  H   LIG    1       22.683 -20.245   6.042  0.00  0.00    +0.144 HD
ATOM     17  H   LIG    1       22.303 -20.846   4.508  0.00  0.00    +0.144 HD
ENDBRANCH   8  15
ENDBRANCH   1  12
BRANCH   5  18
ATOM     18  O   LIG    1       25.456 -12.536   2.447  0.00  0.00    -0.383 OA
ATOM     19  H   LIG    1       25.212 -11.594   2.563  0.00  0.00    +0.210 HD
ENDBRANCH   5  18
BRANCH   6  20
ATOM     20  C   LIG    1       26.837 -14.067   5.524  0.00  0.00    +0.190 C 
BRANCH  20  21
ATOM     21  O   LIG    1       27.642 -12.959   5.897  0.00  0.00    -0.392 OA
ATOM     22  H   LIG    1       28.424 -12.948   5.317  0.00  0.00    +0.209 HD
ENDBRANCH  20  21
ENDBRANCH   6  20
TORSDOF 5
ENDMDL
