MODEL 1
REMARK VINA RESULT:      13.1      0.000      0.000
REMARK  Name = *****
REMARK                            x       y       z     vdW  Elec       q    Type
REMARK                         _______ _______ _______ _____ _____    ______ ____
ROOT
ATOM      1  C   LIG    1       26.880 -15.010   3.936  0.00  0.00    +0.238 C 
ATOM      2  C   LIG    1       26.689 -16.559   4.080  0.00  0.00    +0.152 C 
ATOM      3  C   LIG    1       25.260 -16.848   3.458  0.00  0.00    +0.086 C 
ATOM      4  C   LIG    1       23.842 -16.632   4.192  0.00  0.00    +0.006 C 
ATOM      5  C   LIG    1       23.833 -15.375   5.084  0.00  0.00    +0.009 C 
ATOM      6  C   LIG    1       23.113 -17.765   5.019  0.00  0.00    +0.009 C 
ATOM      7  C   LIG    1       22.943 -19.150   4.380  0.00  0.00    -0.000 C 
ATOM      8  C   LIG    1       23.152 -20.428   5.194  0.00  0.00    -0.028 C 
ATOM      9  C   LIG    1       22.205 -21.570   4.898  0.00  0.00    +0.011 C 
ATOM     10  C   LIG    1       23.623 -20.423   6.627  0.00  0.00    +0.011 C 
ATOM     11  C   LIG    1       24.141 -20.068   4.101  0.00  0.00    +0.013 C 
ATOM     12  C   LIG    1       25.375 -19.255   4.175  0.00  0.00    +0.083 C 
ATOM     13  C   LIG    1       26.738 -19.661   4.580  0.00  0.00    -0.012 C 
ATOM     14  C   LIG    1       27.519 -18.755   5.235  0.00  0.00    -0.017 C 
ATOM     15  C   LIG    1       25.340 -18.286   2.989  0.00  0.00    +0.153 C 
ATOM     16  O   LIG    1       25.266 -18.650   1.817  0.00  0.00    -0.296 OA
ATOM     17  C   LIG    1       25.301 -15.809   2.348  0.00  0.00    -0.007 C 
ATOM     18  C   LIG    1       27.064 -17.261   5.437  0.00  0.00    +0.179 C 
ATOM     19  C   LIG    1       26.126 -14.785   2.633  0.00  0.00    -0.033 C 
ATOM     20  C   LIG    1       26.248 -13.549   1.813  0.00  0.00    +0.043 C 
ENDROOT
BRANCH   2  21
ATOM     21  O   LIG    1       27.702 -17.109   3.136  0.00  0.00    -0.380 OA
ATOM     22  H   LIG    1       28.521 -16.641   3.381  0.00  0.00    +0.210 HD
ENDBRANCH   2  21
BRANCH  18  23
ATOM     23  O   LIG    1       28.104 -16.533   6.087  0.00  0.00    -0.384 OA
ATOM     24  H   LIG    1       28.811 -16.415   5.422  0.00  0.00    +0.210 HD
ENDBRANCH  18  23
BRANCH   1  25
ATOM     25  O   LIG    1       28.295 -14.756   3.811  0.00  0.00    -0.451 OA
BRANCH  25  26
ATOM     26  C   LIG    1       28.705 -13.475   3.676  0.00  0.00    +0.335 C 
ATOM     27  O   LIG    1       29.180 -12.978   2.676  0.00  0.00    -0.245 OA
BRANCH  26  30
ATOM     28  C   LIG    1       26.046 -13.650   5.397  0.00  0.00    +0.035 C 
ATOM     29  C   LIG    1       27.209 -12.733   5.596  0.00  0.00    -0.020 C 
ATOM     30  C   LIG    1       28.363 -12.680   4.903  0.00  0.00    +0.029 C 
ATOM     31  C   LIG    1       29.459 -11.732   5.309  0.00  0.00    +0.051 C 
ENDBRANCH  26  30
ENDBRANCH  25  26
ENDBRANCH   1  25
BRANCH  14  32
ATOM     32  C   LIG    1       28.909 -19.149   5.643  0.00  0.00    +0.189 C 
BRANCH  32  33
ATOM     33  O   LIG    1       28.957 -20.566   5.711  0.00  0.00    -0.391 OA
ATOM     34  H   LIG    1       28.234 -20.889   5.145  0.00  0.00    +0.210 HD
ENDBRANCH  32  33
ENDBRANCH  14  32
TORSDOF 7
ENDMDL
MODEL 2
REMARK VINA RESULT:      13.6      2.217      4.555
REMARK  Name = *****
REMARK                            x       y       z     vdW  Elec       q    Type
REMARK                         _______ _______ _______ _____ _____    ______ ____
ROOT
ATOM      1  C   LIG    1       22.942 -16.863   4.256  0.00  0.00    +0.238 C 
ATOM      2  C   LIG    1       24.460 -17.236   4.155  0.00  0.00    +0.152 C 
ATOM      3  C   LIG    1       24.500 -18.812   4.319  0.00  0.00    +0.086 C 
ATOM      4  C   LIG    1       24.419 -19.625   5.708  0.00  0.00    +0.006 C 
ATOM      5  C   LIG    1       23.450 -18.970   6.712  0.00  0.00    +0.009 C 
ATOM      6  C   LIG    1       25.696 -20.049   6.539  0.00  0.00    +0.009 C 
ATOM      7  C   LIG    1       26.847 -20.756   5.811  0.00  0.00    -0.000 C 
ATOM      8  C   LIG    1       28.306 -20.412   6.116  0.00  0.00    -0.028 C 
ATOM      9  C   LIG    1       29.278 -21.572   6.125  0.00  0.00    +0.011 C 
ATOM     10  C   LIG    1       28.711 -19.309   7.062  0.00  0.00    +0.011 C 
ATOM     11  C   LIG    1       27.714 -20.035   4.770  0.00  0.00    +0.013 C 
ATOM     12  C   LIG    1       27.013 -18.799   4.359  0.00  0.00    +0.083 C 
ATOM     13  C   LIG    1       27.581 -17.510   3.906  0.00  0.00    -0.012 C 
ATOM     14  C   LIG    1       26.924 -16.360   4.231  0.00  0.00    -0.017 C 
ATOM     15  C   LIG    1       25.760 -19.232   3.592  0.00  0.00    +0.153 C 
ATOM     16  O   LIG    1       25.790 -19.933   2.583  0.00  0.00    -0.296 OA
ATOM     17  C   LIG    1       23.203 -19.130   3.591  0.00  0.00    -0.007 C 
ATOM     18  C   LIG    1       25.520 -16.380   4.943  0.00  0.00    +0.179 C 
ATOM     19  C   LIG    1       22.336 -18.102   3.611  0.00  0.00    -0.033 C 
ATOM     20  C   LIG    1       20.932 -18.174   3.121  0.00  0.00    +0.043 C 
ENDROOT
BRANCH   2  21
ATOM     21  O   LIG    1       24.785 -16.930   2.733  0.00  0.00    -0.380 OA
ATOM     22  H   LIG    1       25.016 -15.984   2.750  0.00  0.00    +0.210 HD
ENDBRANCH   2  21
BRANCH  18  23
ATOM     23  O   LIG    1       25.046 -15.043   5.093  0.00  0.00    -0.384 OA
ATOM     24  H   LIG    1       24.088 -15.112   5.273  0.00  0.00    +0.210 HD
ENDBRANCH  18  23
BRANCH   1  25
ATOM     25  O   LIG    1       22.734 -15.669   3.471  0.00  0.00    -0.451 OA
BRANCH  25  26
ATOM     26  C   LIG    1       22.827 -14.472   4.092  0.00  0.00    +0.335 C 
ATOM     27  O   LIG    1       22.498 -14.232   5.236  0.00  0.00    -0.245 OA
BRANCH  26  30
ATOM     28  C   LIG    1       23.867 -11.590   4.915  0.00  0.00    +0.035 C 
ATOM     29  C   LIG    1       23.930 -12.239   3.571  0.00  0.00    -0.020 C 
ATOM     30  C   LIG    1       23.535 -13.478   3.218  0.00  0.00    +0.029 C 
ATOM     31  C   LIG    1       23.756 -13.984   1.818  0.00  0.00    +0.051 C 
ENDBRANCH  26  30
ENDBRANCH  25  26
ENDBRANCH   1  25
BRANCH  14  32
ATOM     32  C   LIG    1       27.482 -15.045   3.769  0.00  0.00    +0.189 C 
BRANCH  32  33
ATOM     33  O   LIG    1       26.714 -14.614   2.655  0.00  0.00    -0.391 OA
ATOM     34  H   LIG    1       27.187 -14.926   1.864  0.00  0.00    +0.210 HD
ENDBRANCH  32  33
ENDBRANCH  14  32
TORSDOF 7
ENDMDL
MODEL 3
REMARK VINA RESULT:      13.9      1.800      6.612
REMARK  Name = *****
REMARK                            x       y       z     vdW  Elec       q    Type
REMARK                         _______ _______ _______ _____ _____    ______ ____
ROOT
ATOM      1  C   LIG    1       23.553 -16.988   3.618  0.00  0.00    +0.238 C 
ATOM      2  C   LIG    1       25.003 -16.538   4.006  0.00  0.00    +0.152 C 
ATOM      3  C   LIG    1       24.882 -14.982   4.280  0.00  0.00    +0.086 C 
ATOM      4  C   LIG    1       24.848 -13.820   3.165  0.00  0.00    +0.006 C 
ATOM      5  C   LIG    1       24.061 -14.240   1.909  0.00  0.00    +0.009 C 
ATOM      6  C   LIG    1       26.144 -13.078   2.647  0.00  0.00    +0.009 C 
ATOM      7  C   LIG    1       27.132 -12.514   3.677  0.00  0.00    -0.000 C 
ATOM      8  C   LIG    1       28.643 -12.641   3.476  0.00  0.00    -0.028 C 
ATOM      9  C   LIG    1       29.475 -11.451   3.903  0.00  0.00    +0.011 C 
ATOM     10  C   LIG    1       29.259 -13.396   2.325  0.00  0.00    +0.011 C 
ATOM     11  C   LIG    1       27.967 -13.427   4.585  0.00  0.00    +0.013 C 
ATOM     12  C   LIG    1       27.372 -14.781   4.554  0.00  0.00    +0.083 C 
ATOM     13  C   LIG    1       28.034 -16.095   4.709  0.00  0.00    -0.012 C 
ATOM     14  C   LIG    1       27.545 -17.156   4.005  0.00  0.00    -0.017 C 
ATOM     15  C   LIG    1       26.009 -14.684   5.246  0.00  0.00    +0.153 C 
ATOM     16  O   LIG    1       25.862 -14.295   6.403  0.00  0.00    -0.296 OA
ATOM     17  C   LIG    1       23.492 -14.986   4.900  0.00  0.00    -0.007 C 
ATOM     18  C   LIG    1       26.224 -17.049   3.155  0.00  0.00    +0.179 C 
ATOM     19  C   LIG    1       22.752 -16.034   4.493  0.00  0.00    -0.033 C 
ATOM     20  C   LIG    1       21.308 -16.215   4.804  0.00  0.00    +0.043 C 
ENDROOT
BRANCH   2  21
ATOM     21  O   LIG    1       25.219 -17.205   5.321  0.00  0.00    -0.380 OA
ATOM     22  H   LIG    1       26.136 -17.528   5.265  0.00  0.00    +0.210 HD
ENDBRANCH   2  21
BRANCH  18  23
ATOM     23  O   LIG    1       25.919 -18.324   2.590  0.00  0.00    -0.384 OA
ATOM     24  H   LIG    1       26.528 -18.961   3.012  0.00  0.00    +0.210 HD
ENDBRANCH  18  23
BRANCH   1  25
ATOM     25  O   LIG    1       23.404 -18.367   4.018  0.00  0.00    -0.451 OA
BRANCH  25  26
ATOM     26  C   LIG    1       22.172 -18.921   3.955  0.00  0.00    +0.335 C 
ATOM     27  O   LIG    1       21.208 -18.457   3.382  0.00  0.00    -0.245 OA
BRANCH  26  30
ATOM     28  C   LIG    1       24.536 -20.286   5.571  0.00  0.00    +0.035 C 
ATOM     29  C   LIG    1       23.206 -20.870   5.223  0.00  0.00    -0.020 C 
ATOM     30  C   LIG    1       22.176 -20.287   4.579  0.00  0.00    +0.029 C 
ATOM     31  C   LIG    1       20.875 -21.020   4.390  0.00  0.00    +0.051 C 
ENDBRANCH  26  30
ENDBRANCH  25  26
ENDBRANCH   1  25
BRANCH  14  32
ATOM     32  C   LIG    1       28.198 -18.499   4.160  0.00  0.00    +0.189 C 
BRANCH  32  33
ATOM     33  O   LIG    1       29.343 -18.333   4.983  0.00  0.00    -0.391 OA
ATOM     34  H   LIG    1       29.087 -17.702   5.679  0.00  0.00    +0.210 HD
ENDBRANCH  32  33
ENDBRANCH  14  32
TORSDOF 7
ENDMDL
