MODEL 1
REMARK VINA RESULT:      -1.9      0.000      0.000
REMARK  Name = *****
REMARK                            x       y       z     vdW  Elec       q    Type
REMARK                         _______ _______ _______ _____ _____    ______ ____
ROOT
ATOM      1  C   LIG    1       26.883 -16.492   3.919  0.00  0.00    -0.002 A 
ATOM      2  C   LIG    1       25.655 -16.783   3.318  0.00  0.00    +0.012 A 
ATOM      3  C   LIG    1       25.201 -18.100   3.227  0.00  0.00    +0.025 A 
ATOM      4  C   LIG    1       25.971 -19.163   3.705  0.00  0.00    +0.048 A 
ATOM      5  C   LIG    1       27.178 -18.870   4.350  0.00  0.00    +0.025 A 
ATOM      6  C   LIG    1       27.639 -17.549   4.443  0.00  0.00    +0.012 A 
ENDROOT
BRANCH   1   9
ATOM      7  C   LIG    1       25.584 -13.422   4.382  0.00  0.00    +0.014 C 
ATOM      8  C   LIG    1       26.779 -14.128   5.022  0.00  0.00    +0.045 C 
ATOM      9  C   LIG    1       27.401 -15.084   4.011  0.00  0.00    +0.070 C 
ATOM     10  N   LIG    1       28.330 -14.688   3.186  0.00  0.00    -0.184 NA
ATOM     11  N   LIG    1       28.793 -13.409   3.299  0.00  0.00    -0.207 N 
ATOM     12  H   LIG    1       29.398 -13.075   2.555  0.00  0.00    +0.177 HD
ATOM     13  C   LIG    1       28.608 -12.572   4.370  0.00  0.00    +0.233 C 
ATOM     14  O   LIG    1       29.102 -11.449   4.417  0.00  0.00    -0.274 OA
ATOM     15  C   LIG    1       27.838 -13.159   5.515  0.00  0.00    +0.107 C 
ENDBRANCH   1   9
BRANCH   4  16
ATOM     16  N   LIG    1       25.518 -20.502   3.617  0.00  0.00    -0.236 N 
ATOM     17  H   LIG    1       26.029 -21.014   2.891  0.00  0.00    +0.174 HD
BRANCH  16  18
ATOM     18  N   LIG    1       24.161 -20.675   3.714  0.00  0.00    -0.160 NA
ATOM     19  C   LIG    1       23.618 -20.845   4.881  0.00  0.00    +0.234 C 
BRANCH  19  20
ATOM     20  C   LIG    1       22.197 -21.046   4.856  0.00  0.00    +0.132 C 
ATOM     21  N   LIG    1       21.052 -21.228   4.830  0.00  0.00    -0.189 NA
ENDBRANCH  19  20
BRANCH  19  22
ATOM     22  C   LIG    1       24.399 -20.829   6.082  0.00  0.00    +0.132 C 
ATOM     23  N   LIG    1       25.055 -20.820   7.045  0.00  0.00    -0.189 NA
ENDBRANCH  19  22
ENDBRANCH  16  18
ENDBRANCH   4  16
TORSDOF 5
ENDMDL
MODEL 2
REMARK VINA RESULT:      -0.1      3.286      7.772
REMARK  Name = *****
REMARK                            x       y       z     vdW  Elec       q    Type
REMARK                         _______ _______ _______ _____ _____    ______ ____
ROOT
ATOM      1  C   LIG    1       24.717 -17.166   3.714  0.00  0.00    -0.002 A 
ATOM      2  C   LIG    1       26.063 -17.210   3.342  0.00  0.00    +0.012 A 
ATOM      3  C   LIG    1       26.734 -16.049   2.954  0.00  0.00    +0.025 A 
ATOM      4  C   LIG    1       26.074 -14.819   2.899  0.00  0.00    +0.048 A 
ATOM      5  C   LIG    1       24.739 -14.764   3.318  0.00  0.00    +0.025 A 
ATOM      6  C   LIG    1       24.060 -15.928   3.706  0.00  0.00    +0.012 A 
ENDROOT
BRANCH   1   9
ATOM      7  C   LIG    1       24.914 -20.466   3.081  0.00  0.00    +0.014 C 
ATOM      8  C   LIG    1       24.748 -19.689   4.387  0.00  0.00    +0.045 C 
ATOM      9  C   LIG    1       23.969 -18.407   4.115  0.00  0.00    +0.070 C 
ATOM     10  N   LIG    1       22.667 -18.382   4.166  0.00  0.00    -0.184 NA
ATOM     11  N   LIG    1       22.012 -19.517   4.546  0.00  0.00    -0.207 N 
ATOM     12  H   LIG    1       21.003 -19.523   4.430  0.00  0.00    +0.177 HD
ATOM     13  C   LIG    1       22.571 -20.605   5.168  0.00  0.00    +0.233 C 
ATOM     14  O   LIG    1       21.902 -21.571   5.526  0.00  0.00    -0.274 OA
ATOM     15  C   LIG    1       24.037 -20.491   5.461  0.00  0.00    +0.107 C 
ENDBRANCH   1   9
BRANCH   4  16
ATOM     16  N   LIG    1       26.746 -13.636   2.507  0.00  0.00    -0.236 N 
ATOM     17  H   LIG    1       26.916 -13.629   1.497  0.00  0.00    +0.174 HD
BRANCH  16  18
ATOM     18  N   LIG    1       27.747 -13.219   3.346  0.00  0.00    -0.160 NA
ATOM     19  C   LIG    1       27.445 -12.639   4.467  0.00  0.00    +0.234 C 
BRANCH  19  20
ATOM     20  C   LIG    1       28.575 -12.220   5.248  0.00  0.00    +0.132 C 
ATOM     21  N   LIG    1       29.475 -11.868   5.889  0.00  0.00    -0.189 NA
ENDBRANCH  19  20
BRANCH  19  22
ATOM     22  C   LIG    1       26.084 -12.444   4.869  0.00  0.00    +0.132 C 
ATOM     23  N   LIG    1       24.985 -12.267   5.211  0.00  0.00    -0.189 NA
ENDBRANCH  19  22
ENDBRANCH  16  18
ENDBRANCH   4  16
TORSDOF 5
ENDMDL
MODEL 3
REMARK VINA RESULT:      -0.1      1.374      2.144
REMARK  Name = *****
REMARK                            x       y       z     vdW  Elec       q    Type
REMARK                         _______ _______ _______ _____ _____    ______ ____
ROOT
ATOM      1  C   LIG    1       26.989 -16.694   3.817  0.00  0.00    -0.002 A 
ATOM      2  C   LIG    1       27.977 -17.417   4.493  0.00  0.00    +0.012 A 
ATOM      3  C   LIG    1       27.782 -18.762   4.813  0.00  0.00    +0.025 A 
ATOM      4  C   LIG    1       26.588 -19.413   4.494  0.00  0.00    +0.048 A 
ATOM      5  C   LIG    1       25.619 -18.706   3.775  0.00  0.00    +0.025 A 
ATOM      6  C   LIG    1       25.808 -17.354   3.452  0.00  0.00    +0.012 A 
ENDROOT
BRANCH   1   9
ATOM      7  C   LIG    1       26.892 -13.761   5.465  0.00  0.00    +0.014 C 
ATOM      8  C   LIG    1       27.897 -14.333   4.466  0.00  0.00    +0.045 C 
ATOM      9  C   LIG    1       27.168 -15.240   3.480  0.00  0.00    +0.070 C 
ATOM     10  N   LIG    1       26.647 -14.767   2.383  0.00  0.00    -0.184 NA
ATOM     11  N   LIG    1       26.835 -13.447   2.093  0.00  0.00    -0.207 N 
ATOM     12  H   LIG    1       26.295 -13.068   1.322  0.00  0.00    +0.177 HD
ATOM     13  C   LIG    1       27.760 -12.615   2.672  0.00  0.00    +0.233 C 
ATOM     14  O   LIG    1       27.902 -11.447   2.319  0.00  0.00    -0.274 OA
ATOM     15  C   LIG    1       28.642 -13.256   3.701  0.00  0.00    +0.107 C 
ENDBRANCH   1   9
BRANCH   4  16
ATOM     16  N   LIG    1       26.382 -20.777   4.814  0.00  0.00    -0.236 N 
ATOM     17  H   LIG    1       26.478 -21.367   3.983  0.00  0.00    +0.174 HD
BRANCH  16  18
ATOM     18  N   LIG    1       25.356 -21.031   5.688  0.00  0.00    -0.160 NA
ATOM     19  C   LIG    1       24.148 -21.172   5.235  0.00  0.00    +0.234 C 
BRANCH  19  20
ATOM     20  C   LIG    1       23.154 -21.404   6.244  0.00  0.00    +0.132 C 
ATOM     21  N   LIG    1       22.344 -21.571   7.057  0.00  0.00    -0.189 NA
ENDBRANCH  19  20
BRANCH  19  22
ATOM     22  C   LIG    1       23.858 -21.097   3.834  0.00  0.00    +0.132 C 
ATOM     23  N   LIG    1       23.645 -21.028   2.691  0.00  0.00    -0.189 NA
ENDBRANCH  19  22
ENDBRANCH  16  18
ENDBRANCH   4  16
TORSDOF 5
ENDMDL
