MODEL 1
REMARK VINA RESULT:      -7.2      0.000      0.000
REMARK  Name = *****
REMARK                            x       y       z     vdW  Elec       q    Type
REMARK                         _______ _______ _______ _____ _____    ______ ____
ROOT
ATOM      1  C   LIG    1       24.017 -21.421   5.879  0.00  0.00    +0.131 C 
ATOM      2  C   LIG    1       24.531 -20.764   7.156  0.00  0.00    +0.234 C 
ATOM      3  O   LIG    1       23.866 -20.658   8.185  0.00  0.00    -0.274 OA
ATOM      4  N   LIG    1       25.837 -20.385   7.153  0.00  0.00    -0.266 N 
ATOM      5  H   LIG    1       26.230 -20.045   8.023  0.00  0.00    +0.157 HD
ATOM      6  C   LIG    1       26.617 -20.462   6.056  0.00  0.00    +0.150 C 
ATOM      7  N   LIG    1       26.237 -20.814   4.892  0.00  0.00    -0.158 NA
ATOM      8  C   LIG    1       24.911 -21.105   4.681  0.00  0.00    +0.254 C 
ATOM      9  O   LIG    1       24.473 -21.172   3.543  0.00  0.00    -0.273 OA
ENDROOT
BRANCH   1  10
ATOM     10  C   LIG    1       23.971 -22.999   6.105  0.00  0.00    +0.010 C 
ATOM     11  C   LIG    1       22.647 -23.475   6.738  0.00  0.00    +0.009 C 
BRANCH  10  12
ATOM     12  C   LIG    1       25.177 -23.551   6.923  0.00  0.00    +0.004 C 
BRANCH  12  13
ATOM     13  C   LIG    1       25.678 -24.940   6.495  0.00  0.00    -0.003 C 
ATOM     14  C   LIG    1       25.271 -25.267   5.060  0.00  0.00    +0.004 C 
ENDBRANCH  12  13
ENDBRANCH  10  12
ENDBRANCH   1  10
BRANCH   6  15
ATOM     15  S   LIG    1       28.268 -20.036   6.355  0.00  0.00    -0.110 S 
ATOM     16  H   LIG    1       28.014 -19.339   7.472  0.00  0.00    +0.110 HD
ENDBRANCH   6  15
BRANCH   1  17
ATOM     17  C   LIG    1       22.590 -20.838   5.611  0.00  0.00    +0.052 C 
BRANCH  17  19
ATOM     18  C   LIG    1       22.086 -18.721   4.311  0.00  0.00    +0.004 C 
ATOM     19  C   LIG    1       22.523 -19.334   5.419  0.00  0.00    -0.033 C 
ENDBRANCH  17  19
ENDBRANCH   1  17
TORSDOF 6
ENDMDL
MODEL 2
REMARK VINA RESULT:      -7.1      2.104      3.839
REMARK  Name = *****
REMARK                            x       y       z     vdW  Elec       q    Type
REMARK                         _______ _______ _______ _____ _____    ______ ____
ROOT
ATOM      1  C   LIG    1       23.920 -21.360   5.764  0.00  0.00    +0.131 C 
ATOM      2  C   LIG    1       24.305 -22.195   4.546  0.00  0.00    +0.234 C 
ATOM      3  O   LIG    1       24.239 -21.786   3.389  0.00  0.00    -0.274 OA
ATOM      4  N   LIG    1       24.850 -23.415   4.802  0.00  0.00    -0.266 N 
ATOM      5  H   LIG    1       25.211 -23.943   4.017  0.00  0.00    +0.157 HD
ATOM      6  C   LIG    1       24.939 -23.928   6.046  0.00  0.00    +0.150 C 
ATOM      7  N   LIG    1       24.475 -23.399   7.108  0.00  0.00    -0.158 NA
ATOM      8  C   LIG    1       23.772 -22.222   7.017  0.00  0.00    +0.254 C 
ATOM      9  O   LIG    1       23.090 -21.843   7.957  0.00  0.00    -0.273 OA
ENDROOT
BRANCH   1  10
ATOM     10  C   LIG    1       25.053 -20.264   6.004  0.00  0.00    +0.010 C 
ATOM     11  C   LIG    1       25.954 -20.054   4.771  0.00  0.00    +0.009 C 
BRANCH  10  12
ATOM     12  C   LIG    1       25.932 -20.536   7.261  0.00  0.00    +0.004 C 
BRANCH  12  13
ATOM     13  C   LIG    1       27.367 -21.007   6.969  0.00  0.00    -0.003 C 
ATOM     14  C   LIG    1       28.401 -20.117   7.653  0.00  0.00    +0.004 C 
ENDBRANCH  12  13
ENDBRANCH  10  12
ENDBRANCH   1  10
BRANCH   6  15
ATOM     15  S   LIG    1       25.786 -25.437   6.108  0.00  0.00    -0.110 S 
ATOM     16  H   LIG    1       24.808 -26.150   5.530  0.00  0.00    +0.110 HD
ENDBRANCH   6  15
BRANCH   1  17
ATOM     17  C   LIG    1       22.540 -20.698   5.441  0.00  0.00    +0.052 C 
BRANCH  17  19
ATOM     18  C   LIG    1       22.192 -18.475   4.274  0.00  0.00    +0.004 C 
ATOM     19  C   LIG    1       22.546 -19.183   5.354  0.00  0.00    -0.033 C 
ENDBRANCH  17  19
ENDBRANCH   1  17
TORSDOF 6
ENDMDL
MODEL 3
REMARK VINA RESULT:      -7.0      2.345      4.108
REMARK  Name = *****
REMARK                            x       y       z     vdW  Elec       q    Type
REMARK                         _______ _______ _______ _____ _____    ______ ____
ROOT
ATOM      1  C   LIG    1       25.034 -21.826   6.687  0.00  0.00    +0.131 C 
ATOM      2  C   LIG    1       25.764 -22.621   7.765  0.00  0.00    +0.234 C 
ATOM      3  O   LIG    1       26.132 -22.142   8.836  0.00  0.00    -0.274 OA
ATOM      4  N   LIG    1       25.902 -23.955   7.539  0.00  0.00    -0.266 N 
ATOM      5  H   LIG    1       26.287 -24.522   8.285  0.00  0.00    +0.157 HD
ATOM      6  C   LIG    1       25.533 -24.541   6.382  0.00  0.00    +0.150 C 
ATOM      7  N   LIG    1       25.091 -23.942   5.348  0.00  0.00    -0.158 NA
ATOM      8  C   LIG    1       25.013 -22.570   5.353  0.00  0.00    +0.254 C 
ATOM      9  O   LIG    1       24.863 -21.963   4.304  0.00  0.00    -0.273 OA
ENDROOT
BRANCH   1  10
ATOM     10  C   LIG    1       23.537 -21.570   7.175  0.00  0.00    +0.010 C 
ATOM     11  C   LIG    1       22.582 -22.725   6.812  0.00  0.00    +0.009 C 
BRANCH  10  12
ATOM     12  C   LIG    1       22.941 -20.217   6.684  0.00  0.00    +0.004 C 
BRANCH  12  13
ATOM     13  C   LIG    1       22.301 -20.251   5.286  0.00  0.00    -0.003 C 
ATOM     14  C   LIG    1       22.441 -18.910   4.571  0.00  0.00    +0.004 C 
ENDBRANCH  12  13
ENDBRANCH  10  12
ENDBRANCH   1  10
BRANCH   6  15
ATOM     15  S   LIG    1       25.697 -26.265   6.401  0.00  0.00    -0.110 S 
ATOM     16  H   LIG    1       24.542 -26.504   5.763  0.00  0.00    +0.110 HD
ENDBRANCH   6  15
BRANCH   1  17
ATOM     17  C   LIG    1       25.816 -20.484   6.504  0.00  0.00    +0.052 C 
BRANCH  17  19
ATOM     18  C   LIG    1       28.134 -19.815   5.726  0.00  0.00    +0.004 C 
ATOM     19  C   LIG    1       27.327 -20.611   6.439  0.00  0.00    -0.033 C 
ENDBRANCH  17  19
ENDBRANCH   1  17
TORSDOF 6
ENDMDL
MODEL 4
REMARK VINA RESULT:      -6.6      2.413      4.154
REMARK  Name = *****
REMARK                            x       y       z     vdW  Elec       q    Type
REMARK                         _______ _______ _______ _____ _____    ______ ____
ROOT
ATOM      1  C   LIG    1       24.602 -21.337   6.391  0.00  0.00    +0.131 C 
ATOM      2  C   LIG    1       24.805 -21.870   4.976  0.00  0.00    +0.234 C 
ATOM      3  O   LIG    1       25.156 -21.172   4.027  0.00  0.00    -0.274 OA
ATOM      4  N   LIG    1       24.689 -23.216   4.819  0.00  0.00    -0.266 N 
ATOM      5  H   LIG    1       24.924 -23.606   3.914  0.00  0.00    +0.157 HD
ATOM      6  C   LIG    1       24.295 -24.036   5.814  0.00  0.00    +0.150 C 
ATOM      7  N   LIG    1       23.918 -23.674   6.976  0.00  0.00    -0.158 NA
ATOM      8  C   LIG    1       23.845 -22.334   7.268  0.00  0.00    +0.254 C 
ATOM      9  O   LIG    1       23.234 -21.955   8.255  0.00  0.00    -0.273 OA
ENDROOT
BRANCH   1  10
ATOM     10  C   LIG    1       26.033 -21.047   7.033  0.00  0.00    +0.010 C 
ATOM     11  C   LIG    1       25.944 -20.481   8.465  0.00  0.00    +0.009 C 
BRANCH  10  12
ATOM     12  C   LIG    1       26.938 -20.129   6.158  0.00  0.00    +0.004 C 
BRANCH  12  13
ATOM     13  C   LIG    1       28.450 -20.379   6.293  0.00  0.00    -0.003 C 
ATOM     14  C   LIG    1       29.244 -19.078   6.208  0.00  0.00    +0.004 C 
ENDBRANCH  12  13
ENDBRANCH  10  12
ENDBRANCH   1  10
BRANCH   6  15
ATOM     15  S   LIG    1       24.353 -25.713   5.387  0.00  0.00    -0.110 S 
ATOM     16  H   LIG    1       25.381 -25.586   4.535  0.00  0.00    +0.110 HD
ENDBRANCH   6  15
BRANCH   1  17
ATOM     17  C   LIG    1       23.753 -20.029   6.266  0.00  0.00    +0.052 C 
BRANCH  17  19
ATOM     18  C   LIG    1       22.197 -19.104   4.492  0.00  0.00    +0.004 C 
ATOM     19  C   LIG    1       22.584 -20.098   5.301  0.00  0.00    -0.033 C 
ENDBRANCH  17  19
ENDBRANCH   1  17
TORSDOF 6
ENDMDL
MODEL 5
REMARK VINA RESULT:      -6.3      1.276      4.313
REMARK  Name = *****
REMARK                            x       y       z     vdW  Elec       q    Type
REMARK                         _______ _______ _______ _____ _____    ______ ____
ROOT
ATOM      1  C   LIG    1       24.855 -22.381   6.927  0.00  0.00    +0.131 C 
ATOM      2  C   LIG    1       25.259 -22.161   5.472  0.00  0.00    +0.234 C 
ATOM      3  O   LIG    1       24.715 -22.717   4.520  0.00  0.00    -0.274 OA
ATOM      4  N   LIG    1       26.203 -21.207   5.249  0.00  0.00    -0.266 N 
ATOM      5  H   LIG    1       26.411 -20.968   4.287  0.00  0.00    +0.157 HD
ATOM      6  C   LIG    1       26.847 -20.570   6.247  0.00  0.00    +0.150 C 
ATOM      7  N   LIG    1       26.724 -20.813   7.492  0.00  0.00    -0.158 NA
ATOM      8  C   LIG    1       25.908 -21.842   7.894  0.00  0.00    +0.254 C 
ATOM      9  O   LIG    1       25.983 -22.273   9.035  0.00  0.00    -0.273 OA
ENDROOT
BRANCH   1  10
ATOM     10  C   LIG    1       23.468 -21.638   7.184  0.00  0.00    +0.010 C 
ATOM     11  C   LIG    1       22.245 -22.520   6.856  0.00  0.00    +0.009 C 
BRANCH  10  12
ATOM     12  C   LIG    1       23.344 -20.269   6.452  0.00  0.00    +0.004 C 
BRANCH  12  13
ATOM     13  C   LIG    1       22.404 -20.259   5.234  0.00  0.00    -0.003 C 
ATOM     14  C   LIG    1       22.339 -18.879   4.585  0.00  0.00    +0.004 C 
ENDBRANCH  12  13
ENDBRANCH  10  12
ENDBRANCH   1  10
BRANCH   6  15
ATOM     15  S   LIG    1       27.905 -19.316   5.693  0.00  0.00    -0.110 S 
ATOM     16  H   LIG    1       27.493 -18.405   6.587  0.00  0.00    +0.110 HD
ENDBRANCH   6  15
BRANCH   1  17
ATOM     17  C   LIG    1       24.725 -23.927   7.132  0.00  0.00    +0.052 C 
BRANCH  17  19
ATOM     18  C   LIG    1       25.898 -25.940   6.136  0.00  0.00    +0.004 C 
ATOM     19  C   LIG    1       25.940 -24.744   6.735  0.00  0.00    -0.033 C 
ENDBRANCH  17  19
ENDBRANCH   1  17
TORSDOF 6
ENDMDL
MODEL 6
REMARK VINA RESULT:      -6.2      2.906      4.673
REMARK  Name = *****
REMARK                            x       y       z     vdW  Elec       q    Type
REMARK                         _______ _______ _______ _____ _____    ______ ____
ROOT
ATOM      1  C   LIG    1       24.448 -22.831   6.567  0.00  0.00    +0.131 C 
ATOM      2  C   LIG    1       23.383 -23.922   6.580  0.00  0.00    +0.234 C 
ATOM      3  O   LIG    1       22.199 -23.719   6.845  0.00  0.00    -0.274 OA
ATOM      4  N   LIG    1       23.780 -25.155   6.164  0.00  0.00    -0.266 N 
ATOM      5  H   LIG    1       23.069 -25.869   6.062  0.00  0.00    +0.157 HD
ATOM      6  C   LIG    1       25.064 -25.448   5.872  0.00  0.00    +0.150 C 
ATOM      7  N   LIG    1       26.059 -24.665   6.010  0.00  0.00    -0.158 NA
ATOM      8  C   LIG    1       25.859 -23.417   6.548  0.00  0.00    +0.254 C 
ATOM      9  O   LIG    1       26.810 -22.762   6.946  0.00  0.00    -0.273 OA
ENDROOT
BRANCH   1  10
ATOM     10  C   LIG    1       24.231 -21.929   5.270  0.00  0.00    +0.010 C 
ATOM     11  C   LIG    1       25.337 -20.869   5.085  0.00  0.00    +0.009 C 
BRANCH  10  12
ATOM     12  C   LIG    1       22.831 -21.249   5.205  0.00  0.00    +0.004 C 
BRANCH  12  13
ATOM     13  C   LIG    1       22.813 -19.751   5.553  0.00  0.00    -0.003 C 
ATOM     14  C   LIG    1       22.199 -18.920   4.429  0.00  0.00    +0.004 C 
ENDBRANCH  12  13
ENDBRANCH  10  12
ENDBRANCH   1  10
BRANCH   6  15
ATOM     15  S   LIG    1       25.278 -27.048   5.246  0.00  0.00    -0.110 S 
ATOM     16  H   LIG    1       23.981 -27.382   5.318  0.00  0.00    +0.110 HD
ENDBRANCH   6  15
BRANCH   1  17
ATOM     17  C   LIG    1       24.264 -22.001   7.880  0.00  0.00    +0.052 C 
BRANCH  17  19
ATOM     18  C   LIG    1       25.991 -20.490   8.956  0.00  0.00    +0.004 C 
ATOM     19  C   LIG    1       25.106 -20.743   7.983  0.00  0.00    -0.033 C 
ENDBRANCH  17  19
ENDBRANCH   1  17
TORSDOF 6
ENDMDL
MODEL 7
REMARK VINA RESULT:      -6.1      2.174      4.132
REMARK  Name = *****
REMARK                            x       y       z     vdW  Elec       q    Type
REMARK                         _______ _______ _______ _____ _____    ______ ____
ROOT
ATOM      1  C   LIG    1       24.478 -21.866   6.395  0.00  0.00    +0.131 C 
ATOM      2  C   LIG    1       23.371 -21.078   7.089  0.00  0.00    +0.234 C 
ATOM      3  O   LIG    1       23.077 -21.213   8.275  0.00  0.00    -0.274 OA
ATOM      4  N   LIG    1       22.773 -20.106   6.350  0.00  0.00    -0.266 N 
ATOM      5  H   LIG    1       22.111 -19.499   6.819  0.00  0.00    +0.157 HD
ATOM      6  C   LIG    1       23.039 -19.914   5.042  0.00  0.00    +0.150 C 
ATOM      7  N   LIG    1       23.802 -20.636   4.321  0.00  0.00    -0.158 NA
ATOM      8  C   LIG    1       24.388 -21.748   4.874  0.00  0.00    +0.254 C 
ATOM      9  O   LIG    1       24.889 -22.598   4.153  0.00  0.00    -0.273 OA
ENDROOT
BRANCH   1  10
ATOM     10  C   LIG    1       25.886 -21.302   6.888  0.00  0.00    +0.010 C 
ATOM     11  C   LIG    1       25.806 -20.615   8.267  0.00  0.00    +0.009 C 
BRANCH  10  12
ATOM     12  C   LIG    1       26.576 -20.352   5.864  0.00  0.00    +0.004 C 
BRANCH  12  13
ATOM     13  C   LIG    1       28.047 -20.022   6.165  0.00  0.00    -0.003 C 
ATOM     14  C   LIG    1       28.760 -21.191   6.840  0.00  0.00    +0.004 C 
ENDBRANCH  12  13
ENDBRANCH  10  12
ENDBRANCH   1  10
BRANCH   6  15
ATOM     15  S   LIG    1       22.238 -18.532   4.372  0.00  0.00    -0.110 S 
ATOM     16  H   LIG    1       21.888 -18.009   5.557  0.00  0.00    +0.110 HD
ENDBRANCH   6  15
BRANCH   1  17
ATOM     17  C   LIG    1       24.288 -23.366   6.797  0.00  0.00    +0.052 C 
BRANCH  17  19
ATOM     18  C   LIG    1       25.905 -25.288   6.456  0.00  0.00    +0.004 C 
ATOM     19  C   LIG    1       25.567 -24.140   7.058  0.00  0.00    -0.033 C 
ENDBRANCH  17  19
ENDBRANCH   1  17
TORSDOF 6
ENDMDL
MODEL 8
REMARK VINA RESULT:      -6.0      2.233      3.618
REMARK  Name = *****
REMARK                            x       y       z     vdW  Elec       q    Type
REMARK                         _______ _______ _______ _____ _____    ______ ____
ROOT
ATOM      1  C   LIG    1       24.810 -21.790   6.691  0.00  0.00    +0.131 C 
ATOM      2  C   LIG    1       25.404 -20.936   5.575  0.00  0.00    +0.234 C 
ATOM      3  O   LIG    1       26.563 -21.041   5.178  0.00  0.00    -0.274 OA
ATOM      4  N   LIG    1       24.543 -20.102   4.933  0.00  0.00    -0.266 N 
ATOM      5  H   LIG    1       24.887 -19.604   4.121  0.00  0.00    +0.157 HD
ATOM      6  C   LIG    1       23.264 -19.930   5.326  0.00  0.00    +0.150 C 
ATOM      7  N   LIG    1       22.723 -20.447   6.357  0.00  0.00    -0.158 NA
ATOM      8  C   LIG    1       23.489 -21.215   7.200  0.00  0.00    +0.254 C 
ATOM      9  O   LIG    1       23.082 -21.488   8.319  0.00  0.00    -0.273 OA
ENDROOT
BRANCH   1  10
ATOM     10  C   LIG    1       24.568 -23.262   6.128  0.00  0.00    +0.010 C 
ATOM     11  C   LIG    1       23.243 -23.881   6.619  0.00  0.00    +0.009 C 
BRANCH  10  12
ATOM     12  C   LIG    1       25.745 -24.243   6.408  0.00  0.00    +0.004 C 
BRANCH  12  13
ATOM     13  C   LIG    1       25.383 -25.736   6.345  0.00  0.00    -0.003 C 
ATOM     14  C   LIG    1       25.598 -26.309   4.946  0.00  0.00    +0.004 C 
ENDBRANCH  12  13
ENDBRANCH  10  12
ENDBRANCH   1  10
BRANCH   6  15
ATOM     15  S   LIG    1       22.350 -18.912   4.265  0.00  0.00    -0.110 S 
ATOM     16  H   LIG    1       22.044 -19.887   3.395  0.00  0.00    +0.110 HD
ENDBRANCH   6  15
BRANCH   1  17
ATOM     17  C   LIG    1       25.846 -21.788   7.864  0.00  0.00    +0.052 C 
BRANCH  17  19
ATOM     18  C   LIG    1       27.741 -20.141   8.213  0.00  0.00    +0.004 C 
ATOM     19  C   LIG    1       26.434 -20.433   8.214  0.00  0.00    -0.033 C 
ENDBRANCH  17  19
ENDBRANCH   1  17
TORSDOF 6
ENDMDL
MODEL 9
REMARK VINA RESULT:      -6.0      1.478      4.019
REMARK  Name = *****
REMARK                            x       y       z     vdW  Elec       q    Type
REMARK                         _______ _______ _______ _____ _____    ______ ____
ROOT
ATOM      1  C   LIG    1       25.470 -21.483   5.939  0.00  0.00    +0.131 C 
ATOM      2  C   LIG    1       25.924 -20.654   4.741  0.00  0.00    +0.234 C 
ATOM      3  O   LIG    1       25.263 -20.520   3.713  0.00  0.00    -0.274 OA
ATOM      4  N   LIG    1       27.078 -19.952   4.900  0.00  0.00    -0.266 N 
ATOM      5  H   LIG    1       27.344 -19.312   4.161  0.00  0.00    +0.157 HD
ATOM      6  C   LIG    1       27.857 -20.064   5.995  0.00  0.00    +0.150 C 
ATOM      7  N   LIG    1       27.670 -20.868   6.966  0.00  0.00    -0.158 NA
ATOM      8  C   LIG    1       26.620 -21.751   6.909  0.00  0.00    +0.254 C 
ATOM      9  O   LIG    1       26.579 -22.703   7.674  0.00  0.00    -0.273 OA
ENDROOT
BRANCH   1  10
ATOM     10  C   LIG    1       24.313 -20.689   6.694  0.00  0.00    +0.010 C 
ATOM     11  C   LIG    1       24.487 -20.689   8.227  0.00  0.00    +0.009 C 
BRANCH  10  12
ATOM     12  C   LIG    1       22.878 -21.170   6.326  0.00  0.00    +0.004 C 
BRANCH  12  13
ATOM     13  C   LIG    1       22.295 -20.568   5.036  0.00  0.00    -0.003 C 
ATOM     14  C   LIG    1       22.406 -19.046   5.026  0.00  0.00    +0.004 C 
ENDBRANCH  12  13
ENDBRANCH  10  12
ENDBRANCH   1  10
BRANCH   6  15
ATOM     15  S   LIG    1       29.198 -18.969   6.000  0.00  0.00    -0.110 S 
ATOM     16  H   LIG    1       29.351 -18.970   7.333  0.00  0.00    +0.110 HD
ENDBRANCH   6  15
BRANCH   1  17
ATOM     17  C   LIG    1       24.956 -22.849   5.376  0.00  0.00    +0.052 C 
BRANCH  17  19
ATOM     18  C   LIG    1       24.050 -25.086   6.153  0.00  0.00    +0.004 C 
ATOM     19  C   LIG    1       24.600 -23.893   6.418  0.00  0.00    -0.033 C 
ENDBRANCH  17  19
ENDBRANCH   1  17
TORSDOF 6
ENDMDL
