MODEL 1
REMARK VINA RESULT:      -8.8      0.000      0.000
REMARK  Name = *****
REMARK                            x       y       z     vdW  Elec       q    Type
REMARK                         _______ _______ _______ _____ _____    ______ ____
ROOT
ATOM      1  S   LIG    1       30.891 -19.439   7.962  0.00  0.00    +0.102 S 
ATOM      2  O   LIG    1       31.497 -20.693   8.365  0.00  0.00    -0.146 OA
ATOM      3  O   LIG    1       31.282 -18.813   6.710  0.00  0.00    -0.146 OA
ENDROOT
BRANCH   1   7
ATOM      4  C   LIG    1       31.731 -16.389  11.267  0.00  0.00    +0.025 A 
ATOM      5  C   LIG    1       30.703 -17.328  11.406  0.00  0.00    +0.024 A 
ATOM      6  C   LIG    1       30.431 -18.245  10.388  0.00  0.00    +0.031 A 
ATOM      7  C   LIG    1       31.226 -18.247   9.238  0.00  0.00    +0.113 A 
ATOM      8  C   LIG    1       32.289 -17.355   9.106  0.00  0.00    +0.031 A 
ATOM      9  C   LIG    1       32.549 -16.445  10.133  0.00  0.00    +0.024 A 
BRANCH   4  10
ATOM     10  N   LIG    1       32.081 -15.566  12.342  0.00  0.00    -0.358 N 
ATOM     11  H   LIG    1       31.301 -15.328  12.948  0.00  0.00    +0.142 HD
ATOM     12  H   LIG    1       32.619 -14.747  12.074  0.00  0.00    +0.142 HD
ENDBRANCH   4  10
ENDBRANCH   1   7
BRANCH   1  13
ATOM     13  N   LIG    1       29.289 -19.598   8.023  0.00  0.00    -0.091 NA
ATOM     14  C   LIG    1       28.636 -20.340   7.199  0.00  0.00    +0.239 C 
BRANCH  14  15
ATOM     15  C   LIG    1       27.161 -20.496   7.241  0.00  0.00    +0.038 A 
ATOM     16  C   LIG    1       26.489 -20.661   8.460  0.00  0.00    +0.013 A 
ATOM     17  C   LIG    1       25.104 -20.819   8.486  0.00  0.00    +0.001 A 
ATOM     18  C   LIG    1       24.381 -20.815   7.295  0.00  0.00    +0.000 A 
ATOM     19  C   LIG    1       25.040 -20.651   6.077  0.00  0.00    +0.001 A 
ATOM     20  C   LIG    1       26.427 -20.492   6.046  0.00  0.00    +0.013 A 
ENDBRANCH  14  15
BRANCH  14  21
ATOM     21  O   LIG    1       29.164 -21.051   6.183  0.00  0.00    -0.491 OA
ATOM     22  H   LIG    1       30.110 -20.848   6.028  0.00  0.00    +0.294 HD
ENDBRANCH  14  21
ENDBRANCH   1  13
TORSDOF 5
ENDMDL
MODEL 2
REMARK VINA RESULT:      -8.4      4.111      7.992
REMARK  Name = *****
REMARK                            x       y       z     vdW  Elec       q    Type
REMARK                         _______ _______ _______ _____ _____    ______ ____
ROOT
ATOM      1  S   LIG    1       24.573 -20.957   6.847  0.00  0.00    +0.102 S 
ATOM      2  O   LIG    1       23.723 -20.619   7.972  0.00  0.00    -0.146 OA
ATOM      3  O   LIG    1       24.266 -20.440   5.524  0.00  0.00    -0.146 OA
ENDROOT
BRANCH   1   7
ATOM      4  C   LIG    1       24.574 -25.515   6.452  0.00  0.00    +0.025 A 
ATOM      5  C   LIG    1       23.372 -24.799   6.457  0.00  0.00    +0.024 A 
ATOM      6  C   LIG    1       23.369 -23.410   6.600  0.00  0.00    +0.031 A 
ATOM      7  C   LIG    1       24.586 -22.729   6.696  0.00  0.00    +0.113 A 
ATOM      8  C   LIG    1       25.795 -23.420   6.638  0.00  0.00    +0.031 A 
ATOM      9  C   LIG    1       25.782 -24.809   6.493  0.00  0.00    +0.024 A 
BRANCH   4  10
ATOM     10  N   LIG    1       24.574 -26.886   6.175  0.00  0.00    -0.358 N 
ATOM     11  H   LIG    1       23.893 -27.414   6.713  0.00  0.00    +0.142 HD
ATOM     12  H   LIG    1       25.496 -27.311   6.206  0.00  0.00    +0.142 HD
ENDBRANCH   4  10
ENDBRANCH   1   7
BRANCH   1  13
ATOM     13  N   LIG    1       26.099 -20.613   7.233  0.00  0.00    -0.091 NA
ATOM     14  C   LIG    1       26.997 -20.364   6.346  0.00  0.00    +0.239 C 
BRANCH  14  15
ATOM     15  C   LIG    1       28.407 -20.048   6.686  0.00  0.00    +0.038 A 
ATOM     16  C   LIG    1       29.115 -19.067   5.978  0.00  0.00    +0.013 A 
ATOM     17  C   LIG    1       30.444 -18.788   6.298  0.00  0.00    +0.001 A 
ATOM     18  C   LIG    1       31.073 -19.487   7.326  0.00  0.00    +0.000 A 
ATOM     19  C   LIG    1       30.377 -20.464   8.036  0.00  0.00    +0.001 A 
ATOM     20  C   LIG    1       29.046 -20.747   7.719  0.00  0.00    +0.013 A 
ENDBRANCH  14  15
BRANCH  14  21
ATOM     21  O   LIG    1       26.818 -20.374   5.011  0.00  0.00    -0.491 OA
ATOM     22  H   LIG    1       26.165 -21.045   4.721  0.00  0.00    +0.294 HD
ENDBRANCH  14  21
ENDBRANCH   1  13
TORSDOF 5
ENDMDL
MODEL 3
REMARK VINA RESULT:      -8.4      4.712      6.503
REMARK  Name = *****
REMARK                            x       y       z     vdW  Elec       q    Type
REMARK                         _______ _______ _______ _____ _____    ______ ____
ROOT
ATOM      1  S   LIG    1       24.331 -21.251   6.809  0.00  0.00    +0.102 S 
ATOM      2  O   LIG    1       23.721 -21.005   5.517  0.00  0.00    -0.146 OA
ATOM      3  O   LIG    1       23.748 -20.674   8.009  0.00  0.00    -0.146 OA
ENDROOT
BRANCH   1   7
ATOM      4  C   LIG    1       28.644 -19.735   6.649  0.00  0.00    +0.025 A 
ATOM      5  C   LIG    1       28.101 -20.217   7.844  0.00  0.00    +0.024 A 
ATOM      6  C   LIG    1       26.777 -20.659   7.900  0.00  0.00    +0.031 A 
ATOM      7  C   LIG    1       26.005 -20.657   6.735  0.00  0.00    +0.113 A 
ATOM      8  C   LIG    1       26.546 -20.232   5.523  0.00  0.00    +0.031 A 
ATOM      9  C   LIG    1       27.873 -19.794   5.483  0.00  0.00    +0.024 A 
BRANCH   4  10
ATOM     10  N   LIG    1       30.005 -19.421   6.572  0.00  0.00    -0.358 N 
ATOM     11  H   LIG    1       30.264 -18.586   7.089  0.00  0.00    +0.142 HD
ATOM     12  H   LIG    1       30.371 -19.411   5.624  0.00  0.00    +0.142 HD
ENDBRANCH   4  10
ENDBRANCH   1   7
BRANCH   1  13
ATOM     13  N   LIG    1       24.517 -22.841   6.995  0.00  0.00    -0.091 NA
ATOM     14  C   LIG    1       24.760 -23.629   6.007  0.00  0.00    +0.239 C 
BRANCH  14  15
ATOM     15  C   LIG    1       24.931 -25.095   6.162  0.00  0.00    +0.038 A 
ATOM     16  C   LIG    1       24.100 -25.992   5.477  0.00  0.00    +0.013 A 
ATOM     17  C   LIG    1       24.262 -27.368   5.640  0.00  0.00    +0.001 A 
ATOM     18  C   LIG    1       25.252 -27.855   6.490  0.00  0.00    +0.000 A 
ATOM     19  C   LIG    1       26.083 -26.971   7.176  0.00  0.00    +0.001 A 
ATOM     20  C   LIG    1       25.925 -25.592   7.015  0.00  0.00    +0.013 A 
ENDBRANCH  14  15
BRANCH  14  21
ATOM     21  O   LIG    1       24.869 -23.268   4.713  0.00  0.00    -0.491 OA
ATOM     22  H   LIG    1       24.877 -22.296   4.590  0.00  0.00    +0.294 HD
ENDBRANCH  14  21
ENDBRANCH   1  13
TORSDOF 5
ENDMDL
MODEL 4
REMARK VINA RESULT:      -8.3      4.711      6.505
REMARK  Name = *****
REMARK                            x       y       z     vdW  Elec       q    Type
REMARK                         _______ _______ _______ _____ _____    ______ ____
ROOT
ATOM      1  S   LIG    1       24.312 -21.279   6.810  0.00  0.00    +0.102 S 
ATOM      2  O   LIG    1       23.714 -21.045   5.510  0.00  0.00    -0.146 OA
ATOM      3  O   LIG    1       23.716 -20.693   7.999  0.00  0.00    -0.146 OA
ENDROOT
BRANCH   1   7
ATOM      4  C   LIG    1       28.612 -19.730   6.615  0.00  0.00    +0.025 A 
ATOM      5  C   LIG    1       27.804 -19.740   5.473  0.00  0.00    +0.024 A 
ATOM      6  C   LIG    1       26.499 -20.234   5.526  0.00  0.00    +0.031 A 
ATOM      7  C   LIG    1       25.986 -20.682   6.746  0.00  0.00    +0.113 A 
ATOM      8  C   LIG    1       26.757 -20.628   7.906  0.00  0.00    +0.031 A 
ATOM      9  C   LIG    1       28.060 -20.130   7.837  0.00  0.00    +0.024 A 
BRANCH   4  10
ATOM     10  N   LIG    1       29.867 -19.113   6.583  0.00  0.00    -0.358 N 
ATOM     11  H   LIG    1       30.639 -19.759   6.442  0.00  0.00    +0.142 HD
ATOM     12  H   LIG    1       30.035 -18.483   7.362  0.00  0.00    +0.142 HD
ENDBRANCH   4  10
ENDBRANCH   1   7
BRANCH   1  13
ATOM     13  N   LIG    1       24.499 -22.867   7.011  0.00  0.00    -0.091 NA
ATOM     14  C   LIG    1       24.745 -23.663   6.031  0.00  0.00    +0.239 C 
BRANCH  14  15
ATOM     15  C   LIG    1       24.917 -25.128   6.200  0.00  0.00    +0.038 A 
ATOM     16  C   LIG    1       25.912 -25.643   7.042  0.00  0.00    +0.013 A 
ATOM     17  C   LIG    1       26.073 -27.021   7.184  0.00  0.00    +0.001 A 
ATOM     18  C   LIG    1       25.242 -27.893   6.484  0.00  0.00    +0.000 A 
ATOM     19  C   LIG    1       24.250 -27.391   5.643  0.00  0.00    +0.001 A 
ATOM     20  C   LIG    1       24.084 -26.011   5.499  0.00  0.00    +0.013 A 
ENDBRANCH  14  15
BRANCH  14  21
ATOM     21  O   LIG    1       24.856 -23.315   4.734  0.00  0.00    -0.491 OA
ATOM     22  H   LIG    1       24.378 -23.926   4.135  0.00  0.00    +0.294 HD
ENDBRANCH  14  21
ENDBRANCH   1  13
TORSDOF 5
ENDMDL
MODEL 5
REMARK VINA RESULT:      -8.2      1.700      6.762
REMARK  Name = *****
REMARK                            x       y       z     vdW  Elec       q    Type
REMARK                         _______ _______ _______ _____ _____    ______ ____
ROOT
ATOM      1  S   LIG    1       28.928 -19.891   6.561  0.00  0.00    +0.102 S 
ATOM      2  O   LIG    1       28.927 -19.057   5.375  0.00  0.00    -0.146 OA
ATOM      3  O   LIG    1       29.646 -21.154   6.559  0.00  0.00    -0.146 OA
ENDROOT
BRANCH   1   7
ATOM      4  C   LIG    1       24.570 -20.902   7.516  0.00  0.00    +0.025 A 
ATOM      5  C   LIG    1       24.995 -20.755   6.192  0.00  0.00    +0.024 A 
ATOM      6  C   LIG    1       26.320 -20.424   5.899  0.00  0.00    +0.031 A 
ATOM      7  C   LIG    1       27.236 -20.281   6.945  0.00  0.00    +0.113 A 
ATOM      8  C   LIG    1       26.844 -20.478   8.268  0.00  0.00    +0.031 A 
ATOM      9  C   LIG    1       25.515 -20.811   8.544  0.00  0.00    +0.024 A 
BRANCH   4  10
ATOM     10  N   LIG    1       23.278 -21.363   7.793  0.00  0.00    -0.358 N 
ATOM     11  H   LIG    1       22.575 -20.630   7.805  0.00  0.00    +0.142 HD
ATOM     12  H   LIG    1       23.222 -21.959   8.614  0.00  0.00    +0.142 HD
ENDBRANCH   4  10
ENDBRANCH   1   7
BRANCH   1  13
ATOM     13  N   LIG    1       29.390 -18.996   7.819  0.00  0.00    -0.091 NA
ATOM     14  C   LIG    1       30.609 -18.619   7.988  0.00  0.00    +0.239 C 
BRANCH  14  15
ATOM     15  C   LIG    1       31.050 -17.797   9.142  0.00  0.00    +0.038 A 
ATOM     16  C   LIG    1       30.237 -17.652  10.275  0.00  0.00    +0.013 A 
ATOM     17  C   LIG    1       30.657 -16.867  11.348  0.00  0.00    +0.001 A 
ATOM     18  C   LIG    1       31.889 -16.219  11.296  0.00  0.00    +0.000 A 
ATOM     19  C   LIG    1       32.705 -16.356  10.173  0.00  0.00    +0.001 A 
ATOM     20  C   LIG    1       32.289 -17.143   9.096  0.00  0.00    +0.013 A 
ENDBRANCH  14  15
BRANCH  14  21
ATOM     21  O   LIG    1       31.651 -18.921   7.189  0.00  0.00    -0.491 OA
ATOM     22  H   LIG    1       32.487 -18.503   7.482  0.00  0.00    +0.294 HD
ENDBRANCH  14  21
ENDBRANCH   1  13
TORSDOF 5
ENDMDL
MODEL 6
REMARK VINA RESULT:      -8.2      4.303      5.771
REMARK  Name = *****
REMARK                            x       y       z     vdW  Elec       q    Type
REMARK                         _______ _______ _______ _____ _____    ______ ____
ROOT
ATOM      1  S   LIG    1       25.840 -21.116   6.427  0.00  0.00    +0.102 S 
ATOM      2  O   LIG    1       25.482 -20.739   5.074  0.00  0.00    -0.146 OA
ATOM      3  O   LIG    1       25.068 -20.610   7.549  0.00  0.00    -0.146 OA
ENDROOT
BRANCH   1   7
ATOM      4  C   LIG    1       30.162 -19.808   7.157  0.00  0.00    +0.025 A 
ATOM      5  C   LIG    1       29.598 -20.853   7.897  0.00  0.00    +0.024 A 
ATOM      6  C   LIG    1       28.271 -21.238   7.691  0.00  0.00    +0.031 A 
ATOM      7  C   LIG    1       27.518 -20.597   6.704  0.00  0.00    +0.113 A 
ATOM      8  C   LIG    1       28.080 -19.591   5.919  0.00  0.00    +0.031 A 
ATOM      9  C   LIG    1       29.409 -19.219   6.136  0.00  0.00    +0.024 A 
BRANCH   4  10
ATOM     10  N   LIG    1       31.526 -19.520   7.277  0.00  0.00    -0.358 N 
ATOM     11  H   LIG    1       32.061 -19.708   6.435  0.00  0.00    +0.142 HD
ATOM     12  H   LIG    1       31.959 -19.923   8.102  0.00  0.00    +0.142 HD
ENDBRANCH   4  10
ENDBRANCH   1   7
BRANCH   1  13
ATOM     13  N   LIG    1       25.938 -22.723   6.505  0.00  0.00    -0.091 NA
ATOM     14  C   LIG    1       24.948 -23.490   6.211  0.00  0.00    +0.239 C 
BRANCH  14  15
ATOM     15  C   LIG    1       25.022 -24.971   6.280  0.00  0.00    +0.038 A 
ATOM     16  C   LIG    1       25.990 -25.607   7.069  0.00  0.00    +0.013 A 
ATOM     17  C   LIG    1       26.058 -26.999   7.116  0.00  0.00    +0.001 A 
ATOM     18  C   LIG    1       25.162 -27.764   6.374  0.00  0.00    +0.000 A 
ATOM     19  C   LIG    1       24.195 -27.142   5.585  0.00  0.00    +0.001 A 
ATOM     20  C   LIG    1       24.122 -25.747   5.536  0.00  0.00    +0.013 A 
ENDBRANCH  14  15
BRANCH  14  21
ATOM     21  O   LIG    1       23.719 -23.090   5.831  0.00  0.00    -0.491 OA
ATOM     22  H   LIG    1       23.032 -23.771   5.987  0.00  0.00    +0.294 HD
ENDBRANCH  14  21
ENDBRANCH   1  13
TORSDOF 5
ENDMDL
MODEL 7
REMARK VINA RESULT:      -8.0      4.295      8.062
REMARK  Name = *****
REMARK                            x       y       z     vdW  Elec       q    Type
REMARK                         _______ _______ _______ _____ _____    ______ ____
ROOT
ATOM      1  S   LIG    1       24.457 -21.846   6.562  0.00  0.00    +0.102 S 
ATOM      2  O   LIG    1       23.603 -21.921   7.731  0.00  0.00    -0.146 OA
ATOM      3  O   LIG    1       23.947 -21.281   5.325  0.00  0.00    -0.146 OA
ENDROOT
BRANCH   1   7
ATOM      4  C   LIG    1       25.816 -26.106   5.597  0.00  0.00    +0.025 A 
ATOM      5  C   LIG    1       26.028 -25.560   6.867  0.00  0.00    +0.024 A 
ATOM      6  C   LIG    1       25.634 -24.251   7.157  0.00  0.00    +0.031 A 
ATOM      7  C   LIG    1       24.983 -23.500   6.174  0.00  0.00    +0.113 A 
ATOM      8  C   LIG    1       24.715 -24.046   4.921  0.00  0.00    +0.031 A 
ATOM      9  C   LIG    1       25.113 -25.357   4.647  0.00  0.00    +0.024 A 
BRANCH   4  10
ATOM     10  N   LIG    1       26.093 -27.457   5.358  0.00  0.00    -0.358 N 
ATOM     11  H   LIG    1       26.779 -27.612   4.626  0.00  0.00    +0.142 HD
ATOM     12  H   LIG    1       25.263 -28.029   5.231  0.00  0.00    +0.142 HD
ENDBRANCH   4  10
ENDBRANCH   1   7
BRANCH   1  13
ATOM     13  N   LIG    1       25.833 -21.114   6.977  0.00  0.00    -0.091 NA
ATOM     14  C   LIG    1       26.626 -20.592   6.109  0.00  0.00    +0.239 C 
BRANCH  14  15
ATOM     15  C   LIG    1       27.896 -19.918   6.475  0.00  0.00    +0.038 A 
ATOM     16  C   LIG    1       28.433 -20.045   7.764  0.00  0.00    +0.013 A 
ATOM     17  C   LIG    1       29.621 -19.396   8.100  0.00  0.00    +0.001 A 
ATOM     18  C   LIG    1       30.279 -18.615   7.153  0.00  0.00    +0.000 A 
ATOM     19  C   LIG    1       29.753 -18.481   5.868  0.00  0.00    +0.001 A 
ATOM     20  C   LIG    1       28.564 -19.130   5.527  0.00  0.00    +0.013 A 
ENDBRANCH  14  15
BRANCH  14  21
ATOM     21  O   LIG    1       26.454 -20.596   4.773  0.00  0.00    -0.491 OA
ATOM     22  H   LIG    1       27.188 -21.036   4.297  0.00  0.00    +0.294 HD
ENDBRANCH  14  21
ENDBRANCH   1  13
TORSDOF 5
ENDMDL
MODEL 8
REMARK VINA RESULT:      -8.0      3.618      4.707
REMARK  Name = *****
REMARK                            x       y       z     vdW  Elec       q    Type
REMARK                         _______ _______ _______ _____ _____    ______ ____
ROOT
ATOM      1  S   LIG    1       26.800 -21.838   7.760  0.00  0.00    +0.102 S 
ATOM      2  O   LIG    1       26.397 -21.881   9.152  0.00  0.00    -0.146 OA
ATOM      3  O   LIG    1       26.955 -23.074   7.011  0.00  0.00    -0.146 OA
ENDROOT
BRANCH   1   7
ATOM      4  C   LIG    1       30.824 -19.674   7.542  0.00  0.00    +0.025 A 
ATOM      5  C   LIG    1       29.701 -19.160   6.887  0.00  0.00    +0.024 A 
ATOM      6  C   LIG    1       28.477 -19.831   6.934  0.00  0.00    +0.031 A 
ATOM      7  C   LIG    1       28.370 -21.008   7.681  0.00  0.00    +0.113 A 
ATOM      8  C   LIG    1       29.464 -21.507   8.385  0.00  0.00    +0.031 A 
ATOM      9  C   LIG    1       30.681 -20.822   8.330  0.00  0.00    +0.024 A 
BRANCH   4  10
ATOM     10  N   LIG    1       32.007 -18.929   7.600  0.00  0.00    -0.358 N 
ATOM     11  H   LIG    1       32.126 -18.286   6.823  0.00  0.00    +0.142 HD
ATOM     12  H   LIG    1       32.838 -19.490   7.761  0.00  0.00    +0.142 HD
ENDBRANCH   4  10
ENDBRANCH   1   7
BRANCH   1  13
ATOM     13  N   LIG    1       25.816 -20.834   6.971  0.00  0.00    -0.091 NA
ATOM     14  C   LIG    1       25.158 -21.193   5.924  0.00  0.00    +0.239 C 
BRANCH  14  15
ATOM     15  C   LIG    1       24.251 -20.279   5.186  0.00  0.00    +0.038 A 
ATOM     16  C   LIG    1       24.701 -19.573   4.061  0.00  0.00    +0.013 A 
ATOM     17  C   LIG    1       23.843 -18.708   3.382  0.00  0.00    +0.001 A 
ATOM     18  C   LIG    1       22.532 -18.541   3.824  0.00  0.00    +0.000 A 
ATOM     19  C   LIG    1       22.075 -19.238   4.942  0.00  0.00    +0.001 A 
ATOM     20  C   LIG    1       22.931 -20.107   5.624  0.00  0.00    +0.013 A 
ENDBRANCH  14  15
BRANCH  14  21
ATOM     21  O   LIG    1       25.204 -22.403   5.334  0.00  0.00    -0.491 OA
ATOM     22  H   LIG    1       24.396 -22.934   5.494  0.00  0.00    +0.294 HD
ENDBRANCH  14  21
ENDBRANCH   1  13
TORSDOF 5
ENDMDL
MODEL 9
REMARK VINA RESULT:      -7.9      3.997      7.456
REMARK  Name = *****
REMARK                            x       y       z     vdW  Elec       q    Type
REMARK                         _______ _______ _______ _____ _____    ______ ____
ROOT
ATOM      1  S   LIG    1       25.462 -22.366   7.025  0.00  0.00    +0.102 S 
ATOM      2  O   LIG    1       25.387 -23.660   6.375  0.00  0.00    -0.146 OA
ATOM      3  O   LIG    1       24.996 -22.213   8.393  0.00  0.00    -0.146 OA
ENDROOT
BRANCH   1   7
ATOM      4  C   LIG    1       23.018 -19.406   4.537  0.00  0.00    +0.025 A 
ATOM      5  C   LIG    1       22.550 -19.854   5.776  0.00  0.00    +0.024 A 
ATOM      6  C   LIG    1       23.284 -20.775   6.527  0.00  0.00    +0.031 A 
ATOM      7  C   LIG    1       24.520 -21.218   6.047  0.00  0.00    +0.113 A 
ATOM      8  C   LIG    1       25.029 -20.740   4.841  0.00  0.00    +0.031 A 
ATOM      9  C   LIG    1       24.283 -19.818   4.103  0.00  0.00    +0.024 A 
BRANCH   4  10
ATOM     10  N   LIG    1       22.343 -18.387   3.857  0.00  0.00    -0.358 N 
ATOM     11  H   LIG    1       22.009 -18.657   2.937  0.00  0.00    +0.142 HD
ATOM     12  H   LIG    1       22.846 -17.504   3.836  0.00  0.00    +0.142 HD
ENDBRANCH   4  10
ENDBRANCH   1   7
BRANCH   1  13
ATOM     13  N   LIG    1       26.969 -21.809   6.890  0.00  0.00    -0.091 NA
ATOM     14  C   LIG    1       27.430 -20.873   7.642  0.00  0.00    +0.239 C 
BRANCH  14  15
ATOM     15  C   LIG    1       28.813 -20.348   7.528  0.00  0.00    +0.038 A 
ATOM     16  C   LIG    1       29.833 -20.820   8.365  0.00  0.00    +0.013 A 
ATOM     17  C   LIG    1       31.127 -20.311   8.257  0.00  0.00    +0.001 A 
ATOM     18  C   LIG    1       31.409 -19.325   7.315  0.00  0.00    +0.000 A 
ATOM     19  C   LIG    1       30.402 -18.847   6.477  0.00  0.00    +0.001 A 
ATOM     20  C   LIG    1       29.105 -19.356   6.581  0.00  0.00    +0.013 A 
ENDBRANCH  14  15
BRANCH  14  21
ATOM     21  O   LIG    1       26.748 -20.220   8.604  0.00  0.00    -0.491 OA
ATOM     22  H   LIG    1       25.855 -20.593   8.755  0.00  0.00    +0.294 HD
ENDBRANCH  14  21
ENDBRANCH   1  13
TORSDOF 5
ENDMDL
