MODEL 1
REMARK VINA RESULT:      -2.9      0.000      0.000
REMARK  Name = *****
REMARK                            x       y       z     vdW  Elec       q    Type
REMARK                         _______ _______ _______ _____ _____    ______ ____
ROOT
ATOM      1  C   LIG    1       23.432 -18.425   4.023  0.00  0.00    +0.067 C 
ENDROOT
BRANCH   1   2
ATOM      2  C   LIG    1       24.511 -19.199   4.818  0.00  0.00    +0.087 C 
ATOM      3  C   LIG    1       25.828 -19.110   4.562  0.00  0.00    +0.138 C 
ATOM      4  C   LIG    1       26.827 -19.846   5.355  0.00  0.00    +0.059 A 
ATOM      5  C   LIG    1       26.356 -20.803   6.248  0.00  0.00    +0.143 A 
ATOM      6  C   LIG    1       27.195 -21.563   7.062  0.00  0.00    +0.047 A 
ATOM      7  C   LIG    1       28.566 -21.354   7.003  0.00  0.00    +0.004 A 
ATOM      8  C   LIG    1       29.074 -20.390   6.132  0.00  0.00    +0.001 A 
ATOM      9  O   LIG    1       24.987 -21.020   6.413  0.00  0.00    -0.422 OA
ATOM     10  C   LIG    1       28.212 -19.640   5.315  0.00  0.00    +0.015 A 
ATOM     11  C   LIG    1       24.059 -20.137   5.892  0.00  0.00    +0.345 C 
ATOM     12  O   LIG    1       22.906 -20.200   6.280  0.00  0.00    -0.245 OA
BRANCH   3  13
ATOM     13  O   LIG    1       26.294 -18.310   3.532  0.00  0.00    -0.505 OA
ATOM     14  H   LIG    1       27.073 -18.731   3.131  0.00  0.00    +0.292 HD
ENDBRANCH   3  13
ENDBRANCH   1   2
BRANCH   1  15
ATOM     15  C   LIG    1       23.682 -16.908   4.049  0.00  0.00    -0.039 A 
ATOM     16  C   LIG    1       22.767 -16.012   4.626  0.00  0.00    +0.011 A 
ATOM     17  C   LIG    1       22.992 -14.630   4.586  0.00  0.00    +0.084 A 
ATOM     18  C   LIG    1       24.155 -14.127   3.989  0.00  0.00    +0.273 A 
ATOM     19  C   LIG    1       25.100 -15.001   3.446  0.00  0.00    +0.084 A 
ATOM     20  C   LIG    1       24.859 -16.381   3.477  0.00  0.00    +0.011 A 
BRANCH  18  21
ATOM     21  N   LIG    1       24.377 -12.675   3.931  0.00  0.00    +0.080 N 
ATOM     22  O   LIG    1       24.853 -12.205   2.886  0.00  0.00    -0.576 OA
ATOM     23  O   LIG    1       24.077 -12.002   4.928  0.00  0.00    +0.041 OA
ENDBRANCH  18  21
ENDBRANCH   1  15
BRANCH   1  24
ATOM     24  C   LIG    1       21.983 -18.809   4.418  0.00  0.00    +0.087 C 
BRANCH  24  26
ATOM     25  C   LIG    1       19.629 -19.408   3.597  0.00  0.00    +0.086 C 
ATOM     26  C   LIG    1       20.910 -18.632   3.365  0.00  0.00    +0.131 C 
ATOM     27  O   LIG    1       21.073 -17.940   2.361  0.00  0.00    -0.298 OA
ENDBRANCH  24  26
ENDBRANCH   1  24
TORSDOF 6
ENDMDL
