MODEL 1
REMARK VINA RESULT:      -5.4      0.000      0.000
REMARK  Name = *****
REMARK                            x       y       z     vdW  Elec       q    Type
REMARK                         _______ _______ _______ _____ _____    ______ ____
ROOT
ATOM      1  C   LIG    1       24.651 -20.046   5.094  0.00  0.00    -0.003 A 
ATOM      2  C   LIG    1       26.050 -19.907   5.056  0.00  0.00    +0.124 A 
ATOM      3  C   LIG    1       26.889 -20.498   6.020  0.00  0.00    -0.003 A 
ATOM      4  C   LIG    1       26.286 -21.284   7.018  0.00  0.00    +0.007 A 
ATOM      5  C   LIG    1       24.904 -21.454   7.061  0.00  0.00    +0.001 A 
ATOM      6  C   LIG    1       24.093 -20.833   6.113  0.00  0.00    +0.007 A 
ENDROOT
BRANCH   1   8
ATOM      7  C   LIG    1       23.590 -20.256   2.810  0.00  0.00    +0.012 C 
ATOM      8  C   LIG    1       23.759 -19.379   4.055  0.00  0.00    +0.016 C 
ATOM      9  C   LIG    1       22.400 -18.999   4.646  0.00  0.00    +0.012 C 
ENDBRANCH   1   8
BRANCH   3  10
ATOM     10  C   LIG    1       28.397 -20.295   6.021  0.00  0.00    +0.016 C 
ATOM     11  C   LIG    1       29.076 -21.192   7.061  0.00  0.00    +0.012 C 
ATOM     12  C   LIG    1       28.780 -18.828   6.235  0.00  0.00    +0.012 C 
ENDBRANCH   3  10
BRANCH   2  13
ATOM     13  O   LIG    1       26.583 -19.172   4.033  0.00  0.00    -0.506 OA
ATOM     14  H   LIG    1       26.426 -18.236   4.245  0.00  0.00    +0.292 HD
ENDBRANCH   2  13
TORSDOF 3
ENDMDL
MODEL 2
REMARK VINA RESULT:      -5.2      0.210      4.546
REMARK  Name = *****
REMARK                            x       y       z     vdW  Elec       q    Type
REMARK                         _______ _______ _______ _____ _____    ______ ____
ROOT
ATOM      1  C   LIG    1       26.940 -20.373   5.968  0.00  0.00    -0.003 A 
ATOM      2  C   LIG    1       26.096 -19.840   4.978  0.00  0.00    +0.124 A 
ATOM      3  C   LIG    1       24.703 -20.046   4.989  0.00  0.00    -0.003 A 
ATOM      4  C   LIG    1       24.159 -20.779   6.058  0.00  0.00    +0.007 A 
ATOM      5  C   LIG    1       24.974 -21.298   7.062  0.00  0.00    +0.001 A 
ATOM      6  C   LIG    1       26.354 -21.104   7.012  0.00  0.00    +0.007 A 
ENDROOT
BRANCH   1   8
ATOM      7  C   LIG    1       28.805 -18.669   5.957  0.00  0.00    +0.012 C 
ATOM      8  C   LIG    1       28.447 -20.158   5.926  0.00  0.00    +0.016 C 
ATOM      9  C   LIG    1       29.153 -20.914   7.054  0.00  0.00    +0.012 C 
ENDBRANCH   1   8
BRANCH   3  10
ATOM     10  C   LIG    1       23.795 -19.527   3.884  0.00  0.00    +0.016 C 
ATOM     11  C   LIG    1       22.484 -18.978   4.456  0.00  0.00    +0.012 C 
ATOM     12  C   LIG    1       23.518 -20.591   2.817  0.00  0.00    +0.012 C 
ENDBRANCH   3  10
BRANCH   2  13
ATOM     13  O   LIG    1       26.676 -19.093   3.989  0.00  0.00    -0.506 OA
ATOM     14  H   LIG    1       27.147 -19.713   3.406  0.00  0.00    +0.292 HD
ENDBRANCH   2  13
TORSDOF 3
ENDMDL
MODEL 3
REMARK VINA RESULT:      -4.8      1.553      4.778
REMARK  Name = *****
REMARK                            x       y       z     vdW  Elec       q    Type
REMARK                         _______ _______ _______ _____ _____    ______ ____
ROOT
ATOM      1  C   LIG    1       26.747 -19.705   5.014  0.00  0.00    -0.003 A 
ATOM      2  C   LIG    1       25.723 -20.551   5.476  0.00  0.00    +0.124 A 
ATOM      3  C   LIG    1       24.400 -20.454   5.003  0.00  0.00    -0.003 A 
ATOM      4  C   LIG    1       24.129 -19.499   4.007  0.00  0.00    +0.007 A 
ATOM      5  C   LIG    1       25.134 -18.666   3.519  0.00  0.00    +0.001 A 
ATOM      6  C   LIG    1       26.429 -18.762   4.025  0.00  0.00    +0.007 A 
ENDROOT
BRANCH   1   8
ATOM      7  C   LIG    1       28.996 -18.570   5.210  0.00  0.00    +0.012 C 
ATOM      8  C   LIG    1       28.167 -19.811   5.554  0.00  0.00    +0.016 C 
ATOM      9  C   LIG    1       28.174 -20.074   7.062  0.00  0.00    +0.012 C 
ENDBRANCH   1   8
BRANCH   3  10
ATOM     10  C   LIG    1       23.275 -21.322   5.548  0.00  0.00    +0.016 C 
ATOM     11  C   LIG    1       21.957 -21.042   4.820  0.00  0.00    +0.012 C 
ATOM     12  C   LIG    1       23.105 -21.161   7.062  0.00  0.00    +0.012 C 
ENDBRANCH   3  10
BRANCH   2  13
ATOM     13  O   LIG    1       26.056 -21.494   6.409  0.00  0.00    -0.506 OA
ATOM     14  H   LIG    1       26.493 -22.220   5.933  0.00  0.00    +0.292 HD
ENDBRANCH   2  13
TORSDOF 3
ENDMDL
MODEL 4
REMARK VINA RESULT:      -4.7      3.626      5.646
REMARK  Name = *****
REMARK                            x       y       z     vdW  Elec       q    Type
REMARK                         _______ _______ _______ _____ _____    ______ ____
ROOT
ATOM      1  C   LIG    1       25.340 -15.531   3.572  0.00  0.00    -0.003 A 
ATOM      2  C   LIG    1       25.149 -16.921   3.475  0.00  0.00    +0.124 A 
ATOM      3  C   LIG    1       23.959 -17.546   3.896  0.00  0.00    -0.003 A 
ATOM      4  C   LIG    1       22.928 -16.727   4.387  0.00  0.00    +0.007 A 
ATOM      5  C   LIG    1       23.087 -15.345   4.471  0.00  0.00    +0.001 A 
ATOM      6  C   LIG    1       24.286 -14.754   4.075  0.00  0.00    +0.007 A 
ENDROOT
BRANCH   1   8
ATOM      7  C   LIG    1       26.388 -13.625   2.286  0.00  0.00    +0.012 C 
ATOM      8  C   LIG    1       26.643 -14.877   3.132  0.00  0.00    +0.016 C 
ATOM      9  C   LIG    1       27.540 -14.557   4.330  0.00  0.00    +0.012 C 
ENDBRANCH   1   8
BRANCH   3  10
ATOM     10  C   LIG    1       23.774 -19.056   3.854  0.00  0.00    +0.016 C 
ATOM     11  C   LIG    1       22.506 -19.479   4.601  0.00  0.00    +0.012 C 
ATOM     12  C   LIG    1       24.998 -19.802   4.394  0.00  0.00    +0.012 C 
ENDBRANCH   3  10
BRANCH   2  13
ATOM     13  O   LIG    1       26.168 -17.663   2.942  0.00  0.00    -0.506 OA
ATOM     14  H   LIG    1       26.695 -17.995   3.689  0.00  0.00    +0.292 HD
ENDBRANCH   2  13
TORSDOF 3
ENDMDL
MODEL 5
REMARK VINA RESULT:      -4.6      3.691      5.096
REMARK  Name = *****
REMARK                            x       y       z     vdW  Elec       q    Type
REMARK                         _______ _______ _______ _____ _____    ______ ____
ROOT
ATOM      1  C   LIG    1       23.974 -17.467   3.898  0.00  0.00    -0.003 A 
ATOM      2  C   LIG    1       25.158 -16.840   3.468  0.00  0.00    +0.124 A 
ATOM      3  C   LIG    1       25.333 -15.445   3.530  0.00  0.00    -0.003 A 
ATOM      4  C   LIG    1       24.292 -14.678   4.083  0.00  0.00    +0.007 A 
ATOM      5  C   LIG    1       23.120 -15.280   4.537  0.00  0.00    +0.001 A 
ATOM      6  C   LIG    1       22.959 -16.662   4.436  0.00  0.00    +0.007 A 
ENDROOT
BRANCH   1   8
ATOM      7  C   LIG    1       25.012 -19.725   4.353  0.00  0.00    +0.012 C 
ATOM      8  C   LIG    1       23.795 -18.976   3.801  0.00  0.00    +0.016 C 
ATOM      9  C   LIG    1       22.510 -19.433   4.494  0.00  0.00    +0.012 C 
ENDBRANCH   1   8
BRANCH   3  10
ATOM     10  C   LIG    1       26.585 -14.757   3.005  0.00  0.00    +0.016 C 
ATOM     11  C   LIG    1       27.637 -14.603   4.107  0.00  0.00    +0.012 C 
ATOM     12  C   LIG    1       26.271 -13.403   2.360  0.00  0.00    +0.012 C 
ENDBRANCH   3  10
BRANCH   2  13
ATOM     13  O   LIG    1       26.156 -17.641   2.985  0.00  0.00    -0.506 OA
ATOM     14  H   LIG    1       26.996 -17.188   3.171  0.00  0.00    +0.292 HD
ENDBRANCH   2  13
TORSDOF 3
ENDMDL
MODEL 6
REMARK VINA RESULT:      -4.1      3.894      5.494
REMARK  Name = *****
REMARK                            x       y       z     vdW  Elec       q    Type
REMARK                         _______ _______ _______ _____ _____    ______ ____
ROOT
ATOM      1  C   LIG    1       23.493 -17.630   4.221  0.00  0.00    -0.003 A 
ATOM      2  C   LIG    1       23.509 -16.230   4.347  0.00  0.00    +0.124 A 
ATOM      3  C   LIG    1       24.613 -15.453   3.946  0.00  0.00    -0.003 A 
ATOM      4  C   LIG    1       25.706 -16.119   3.367  0.00  0.00    +0.007 A 
ATOM      5  C   LIG    1       25.703 -17.505   3.212  0.00  0.00    +0.001 A 
ATOM      6  C   LIG    1       24.610 -18.254   3.644  0.00  0.00    +0.007 A 
ENDROOT
BRANCH   1   8
ATOM      7  C   LIG    1       21.237 -18.572   3.584  0.00  0.00    +0.012 C 
ATOM      8  C   LIG    1       22.298 -18.455   4.682  0.00  0.00    +0.016 C 
ATOM      9  C   LIG    1       22.730 -19.837   5.177  0.00  0.00    +0.012 C 
ENDBRANCH   1   8
BRANCH   3  10
ATOM     10  C   LIG    1       24.660 -13.944   4.141  0.00  0.00    +0.016 C 
ATOM     11  C   LIG    1       24.356 -13.207   2.833  0.00  0.00    +0.012 C 
ATOM     12  C   LIG    1       25.997 -13.481   4.729  0.00  0.00    +0.012 C 
ENDBRANCH   3  10
BRANCH   2  13
ATOM     13  O   LIG    1       22.396 -15.631   4.872  0.00  0.00    -0.506 OA
ATOM     14  H   LIG    1       21.940 -15.188   4.136  0.00  0.00    +0.292 HD
ENDBRANCH   2  13
TORSDOF 3
ENDMDL
MODEL 7
REMARK VINA RESULT:      -4.1      3.913      5.986
REMARK  Name = *****
REMARK                            x       y       z     vdW  Elec       q    Type
REMARK                         _______ _______ _______ _____ _____    ______ ____
ROOT
ATOM      1  C   LIG    1       24.564 -15.435   3.937  0.00  0.00    -0.003 A 
ATOM      2  C   LIG    1       23.479 -16.212   4.379  0.00  0.00    +0.124 A 
ATOM      3  C   LIG    1       23.449 -17.612   4.229  0.00  0.00    -0.003 A 
ATOM      4  C   LIG    1       24.571 -18.233   3.653  0.00  0.00    +0.007 A 
ATOM      5  C   LIG    1       25.667 -17.484   3.227  0.00  0.00    +0.001 A 
ATOM      6  C   LIG    1       25.659 -16.096   3.360  0.00  0.00    +0.007 A 
ENDROOT
BRANCH   1   8
ATOM      7  C   LIG    1       25.879 -13.417   4.699  0.00  0.00    +0.012 C 
ATOM      8  C   LIG    1       24.568 -13.920   4.088  0.00  0.00    +0.016 C 
ATOM      9  C   LIG    1       24.282 -13.224   2.755  0.00  0.00    +0.012 C 
ENDBRANCH   1   8
BRANCH   3  10
ATOM     10  C   LIG    1       22.249 -18.450   4.646  0.00  0.00    +0.016 C 
ATOM     11  C   LIG    1       22.682 -19.842   5.116  0.00  0.00    +0.012 C 
ATOM     12  C   LIG    1       21.203 -18.553   3.532  0.00  0.00    +0.012 C 
ENDBRANCH   3  10
BRANCH   2  13
ATOM     13  O   LIG    1       22.437 -15.559   4.978  0.00  0.00    -0.506 OA
ATOM     14  H   LIG    1       21.928 -16.228   5.466  0.00  0.00    +0.292 HD
ENDBRANCH   2  13
TORSDOF 3
ENDMDL
MODEL 8
REMARK VINA RESULT:      -3.7      3.995      5.760
REMARK  Name = *****
REMARK                            x       y       z     vdW  Elec       q    Type
REMARK                         _______ _______ _______ _____ _____    ______ ____
ROOT
ATOM      1  C   LIG    1       24.805 -15.320   3.891  0.00  0.00    -0.003 A 
ATOM      2  C   LIG    1       23.917 -16.405   3.999  0.00  0.00    +0.124 A 
ATOM      3  C   LIG    1       24.315 -17.729   3.727  0.00  0.00    -0.003 A 
ATOM      4  C   LIG    1       25.659 -17.950   3.380  0.00  0.00    +0.007 A 
ATOM      5  C   LIG    1       26.561 -16.892   3.289  0.00  0.00    +0.001 A 
ATOM      6  C   LIG    1       26.135 -15.587   3.534  0.00  0.00    +0.007 A 
ENDROOT
BRANCH   1   8
ATOM      7  C   LIG    1       25.404 -13.106   4.952  0.00  0.00    +0.012 C 
ATOM      8  C   LIG    1       24.350 -13.893   4.167  0.00  0.00    +0.016 C 
ATOM      9  C   LIG    1       23.973 -13.166   2.874  0.00  0.00    +0.012 C 
ENDBRANCH   1   8
BRANCH   3  10
ATOM     10  C   LIG    1       23.342 -18.898   3.778  0.00  0.00    +0.016 C 
ATOM     11  C   LIG    1       22.617 -18.957   5.126  0.00  0.00    +0.012 C 
ATOM     12  C   LIG    1       24.029 -20.232   3.470  0.00  0.00    +0.012 C 
ENDBRANCH   3  10
BRANCH   2  13
ATOM     13  O   LIG    1       22.635 -16.135   4.390  0.00  0.00    -0.506 OA
ATOM     14  H   LIG    1       22.653 -16.017   5.355  0.00  0.00    +0.292 HD
ENDBRANCH   2  13
TORSDOF 3
ENDMDL
MODEL 9
REMARK VINA RESULT:      -3.5      3.960      5.515
REMARK  Name = *****
REMARK                            x       y       z     vdW  Elec       q    Type
REMARK                         _______ _______ _______ _____ _____    ______ ____
ROOT
ATOM      1  C   LIG    1       24.322 -17.781   3.741  0.00  0.00    -0.003 A 
ATOM      2  C   LIG    1       23.919 -16.456   3.984  0.00  0.00    +0.124 A 
ATOM      3  C   LIG    1       24.816 -15.373   3.905  0.00  0.00    -0.003 A 
ATOM      4  C   LIG    1       26.142 -15.648   3.529  0.00  0.00    +0.007 A 
ATOM      5  C   LIG    1       26.558 -16.951   3.262  0.00  0.00    +0.001 A 
ATOM      6  C   LIG    1       25.657 -18.009   3.376  0.00  0.00    +0.007 A 
ENDROOT
BRANCH   1   8
ATOM      7  C   LIG    1       24.017 -20.282   3.549  0.00  0.00    +0.012 C 
ATOM      8  C   LIG    1       23.342 -18.941   3.853  0.00  0.00    +0.016 C 
ATOM      9  C   LIG    1       22.662 -18.969   5.224  0.00  0.00    +0.012 C 
ENDBRANCH   1   8
BRANCH   3  10
ATOM     10  C   LIG    1       24.400 -13.946   4.231  0.00  0.00    +0.016 C 
ATOM     11  C   LIG    1       23.984 -13.188   2.968  0.00  0.00    +0.012 C 
ATOM     12  C   LIG    1       25.494 -13.185   4.987  0.00  0.00    +0.012 C 
ENDBRANCH   3  10
BRANCH   2  13
ATOM     13  O   LIG    1       22.604 -16.243   4.297  0.00  0.00    -0.506 OA
ATOM     14  H   LIG    1       22.545 -15.349   4.673  0.00  0.00    +0.292 HD
ENDBRANCH   2  13
TORSDOF 3
ENDMDL
