MODEL 1
REMARK VINA RESULT:      56.8      0.000      0.000
REMARK  Name = *****
REMARK                            x       y       z     vdW  Elec       q    Type
REMARK                         _______ _______ _______ _____ _____    ______ ____
ROOT
ATOM      1  C   LIG    1       24.501 -21.149   5.315  0.00  0.00    +0.230 C 
ATOM      2  C   LIG    1       25.040 -19.659   5.540  0.00  0.00    +0.014 C 
ATOM      3  C   LIG    1       24.061 -18.883   6.467  0.00  0.00    +0.015 C 
ATOM      4  C   LIG    1       25.148 -19.133   4.094  0.00  0.00    +0.007 C 
ATOM      5  C   LIG    1       26.295 -18.216   3.650  0.00  0.00    -0.003 C 
ATOM      6  C   LIG    1       26.776 -17.234   4.732  0.00  0.00    -0.001 C 
ATOM      7  C   LIG    1       26.976 -18.010   6.082  0.00  0.00    +0.005 C 
ATOM      8  C   LIG    1       26.097 -15.747   4.778  0.00  0.00    -0.025 C 
ATOM      9  C   LIG    1       24.960 -15.685   5.818  0.00  0.00    +0.012 C 
ATOM     10  C   LIG    1       25.468 -15.300   3.411  0.00  0.00    -0.001 C 
ATOM     11  C   LIG    1       26.440 -14.479   2.562  0.00  0.00    +0.050 C 
ATOM     12  C   LIG    1       26.672 -13.132   3.234  0.00  0.00    +0.194 C 
ATOM     13  C   LIG    1       27.166 -13.219   4.716  0.00  0.00    +0.098 C 
ATOM     14  C   LIG    1       24.879 -16.428   2.578  0.00  0.00    +0.004 C 
ATOM     15  C   LIG    1       27.206 -14.712   5.210  0.00  0.00    +0.029 C 
ATOM     16  C   LIG    1       25.909 -17.516   2.339  0.00  0.00    +0.004 C 
ATOM     17  C   LIG    1       25.115 -20.391   3.189  0.00  0.00    +0.062 C 
ATOM     18  C   LIG    1       26.459 -19.495   6.133  0.00  0.00    +0.011 C 
ATOM     19  C   LIG    1       24.063 -21.311   3.798  0.00  0.00    +0.108 C 
ENDROOT
BRANCH  19  20
ATOM     20  N   LIG    1       22.562 -20.934   3.288  0.00  0.00    +0.246 N 
ATOM     21  C   LIG    1       22.402 -19.378   3.245  0.00  0.00    +0.133 C 
ATOM     22  C   LIG    1       20.962 -18.934   2.939  0.00  0.00    +0.051 C 
ATOM     23  C   LIG    1       19.927 -19.585   3.847  0.00  0.00    +0.010 C 
ATOM     24  C   LIG    1       20.061 -21.095   3.816  0.00  0.00    +0.051 C 
ATOM     25  C   LIG    1       21.474 -21.495   4.170  0.00  0.00    +0.133 C 
ATOM     26  C   LIG    1       22.394 -21.452   1.861  0.00  0.00    +0.193 C 
ENDBRANCH  19  20
BRANCH  13  27
ATOM     27  N   LIG    1       26.475 -12.183   5.547  0.00  0.00    -0.296 NA
ATOM     28  C   LIG    1       25.414 -11.447   4.843  0.00  0.00    +0.085 C 
ATOM     29  C   LIG    1       24.216 -12.317   4.456  0.00  0.00    +0.015 C 
ATOM     30  C   LIG    1       23.574 -12.952   5.685  0.00  0.00    +0.002 C 
ATOM     31  C   LIG    1       24.610 -13.619   6.584  0.00  0.00    +0.015 C 
ATOM     32  C   LIG    1       25.871 -12.759   6.787  0.00  0.00    +0.085 C 
ENDBRANCH  13  27
BRANCH   1  33
ATOM     33  O   LIG    1       23.584 -21.571   6.326  0.00  0.00    -0.455 OA
BRANCH  33  35
ATOM     34  C   LIG    1       21.341 -21.548   7.038  0.00  0.00    +0.136 C 
ATOM     35  C   LIG    1       22.505 -20.756   6.521  0.00  0.00    +0.304 C 
ATOM     36  O   LIG    1       22.521 -19.564   6.338  0.00  0.00    -0.251 OA
ENDBRANCH  33  35
ENDBRANCH   1  33
BRANCH  12  37
ATOM     37  O   LIG    1       27.502 -12.286   2.400  0.00  0.00    -0.460 OA
BRANCH  37  38
ATOM     38  C   LIG    1       28.845 -12.452   2.418  0.00  0.00    +0.304 C 
ATOM     39  O   LIG    1       29.475 -13.331   1.812  0.00  0.00    -0.251 OA
ATOM     40  C   LIG    1       29.462 -11.447   3.317  0.00  0.00    +0.136 C 
ENDBRANCH  37  38
ENDBRANCH  12  37
TORSDOF 6
ENDMDL
