MODEL 1
REMARK VINA RESULT:      -0.1      0.000      0.000
REMARK  Name = *****
REMARK                            x       y       z     vdW  Elec       q    Type
REMARK                         _______ _______ _______ _____ _____    ______ ____
ROOT
ATOM      1  O   LIG    1       25.021 -18.601   3.921  0.00  0.00    -0.362 OA
ENDROOT
BRANCH   1   5
ATOM      2  N   LIG    1       22.259 -17.963   4.546  0.00  0.00    -0.302 NA
ATOM      3  C   LIG    1       22.731 -18.838   5.644  0.00  0.00    +0.087 C 
ATOM      4  C   LIG    1       23.440 -20.098   5.134  0.00  0.00    +0.047 C 
ATOM      5  C   LIG    1       24.185 -19.783   3.845  0.00  0.00    +0.122 C 
ATOM      6  C   LIG    1       22.991 -19.598   2.836  0.00  0.00    +0.047 C 
ATOM      7  C   LIG    1       21.810 -18.762   3.413  0.00  0.00    +0.087 C 
BRANCH   2   8
ATOM      8  C   LIG    1       21.366 -16.902   5.020  0.00  0.00    +0.085 C 
BRANCH   8   9
ATOM      9  C   LIG    1       22.074 -15.565   5.306  0.00  0.00    +0.026 C 
BRANCH   9  10
ATOM     10  C   LIG    1       23.378 -15.355   4.516  0.00  0.00    +0.121 C 
BRANCH  10  12
ATOM     11  O   LIG    1       24.125 -13.073   4.943  0.00  0.00    -0.251 OA
ATOM     12  C   LIG    1       23.662 -13.946   4.138  0.00  0.00    +0.305 C 
BRANCH  12  13
ATOM     13  O   LIG    1       23.416 -13.659   2.848  0.00  0.00    -0.481 OA
ATOM     14  H   LIG    1       22.464 -13.758   2.602  0.00  0.00    +0.295 HD
ENDBRANCH  12  13
ENDBRANCH  10  12
ENDBRANCH   9  10
ENDBRANCH   8   9
ENDBRANCH   2   8
ENDBRANCH   1   5
BRANCH   1  15
ATOM     15  C   LIG    1       26.480 -18.700   3.812  0.00  0.00    +0.197 C 
BRANCH  15  16
ATOM     16  C   LIG    1       27.071 -17.230   3.698  0.00  0.00    -0.013 A 
ATOM     17  C   LIG    1       28.149 -16.818   4.527  0.00  0.00    +0.008 A 
ATOM     18  C   LIG    1       28.444 -15.456   4.729  0.00  0.00    +0.020 A 
ATOM     19  C   LIG    1       27.780 -14.487   3.989  0.00  0.00    +0.041 A 
ATOM     20 CL   LIG    1       28.169 -12.822   4.205  0.00  0.00    -0.084 Cl
ATOM     21  C   LIG    1       26.797 -14.868   3.081  0.00  0.00    +0.020 A 
ATOM     22  C   LIG    1       26.426 -16.222   2.955  0.00  0.00    +0.008 A 
ENDBRANCH  15  16
BRANCH  15  23
ATOM     23  C   LIG    1       27.199 -19.472   4.995  0.00  0.00    +0.074 A 
ATOM     24  N   LIG    1       26.530 -20.426   5.713  0.00  0.00    -0.257 NA
ATOM     25  C   LIG    1       27.175 -21.044   6.752  0.00  0.00    +0.111 A 
ATOM     26  C   LIG    1       28.508 -20.848   7.062  0.00  0.00    +0.020 A 
ATOM     27  C   LIG    1       29.211 -19.958   6.278  0.00  0.00    +0.003 A 
ATOM     28  C   LIG    1       28.552 -19.233   5.287  0.00  0.00    +0.026 A 
ENDBRANCH  15  23
ENDBRANCH   1  15
TORSDOF 9
ENDMDL
MODEL 2
REMARK VINA RESULT:       0.6      2.797      4.889
REMARK  Name = *****
REMARK                            x       y       z     vdW  Elec       q    Type
REMARK                         _______ _______ _______ _____ _____    ______ ____
ROOT
ATOM      1  O   LIG    1       26.526 -17.226   3.275  0.00  0.00    -0.362 OA
ENDROOT
BRANCH   1   5
ATOM      2  N   LIG    1       25.157 -14.742   3.890  0.00  0.00    -0.302 NA
ATOM      3  C   LIG    1       25.614 -14.615   2.487  0.00  0.00    +0.087 C 
ATOM      4  C   LIG    1       27.088 -14.999   2.308  0.00  0.00    +0.047 C 
ATOM      5  C   LIG    1       27.452 -16.110   3.281  0.00  0.00    +0.122 C 
ATOM      6  C   LIG    1       27.437 -15.339   4.652  0.00  0.00    +0.047 C 
ATOM      7  C   LIG    1       26.225 -14.373   4.812  0.00  0.00    +0.087 C 
BRANCH   2   8
ATOM      8  C   LIG    1       23.839 -14.137   4.107  0.00  0.00    +0.085 C 
BRANCH   8   9
ATOM      9  C   LIG    1       23.561 -12.904   3.228  0.00  0.00    +0.026 C 
BRANCH   9  10
ATOM     10  C   LIG    1       23.948 -11.563   3.874  0.00  0.00    +0.121 C 
BRANCH  10  12
ATOM     11  O   LIG    1       22.792 -11.448   6.018  0.00  0.00    -0.251 OA
ATOM     12  C   LIG    1       23.879 -11.539   5.358  0.00  0.00    +0.305 C 
BRANCH  12  13
ATOM     13  O   LIG    1       25.070 -11.649   5.970  0.00  0.00    -0.481 OA
ATOM     14  H   LIG    1       25.243 -12.555   6.325  0.00  0.00    +0.295 HD
ENDBRANCH  12  13
ENDBRANCH  10  12
ENDBRANCH   9  10
ENDBRANCH   8   9
ENDBRANCH   2   8
ENDBRANCH   1   5
BRANCH   1  15
ATOM     15  C   LIG    1       26.156 -17.907   4.520  0.00  0.00    +0.197 C 
BRANCH  15  16
ATOM     16  C   LIG    1       24.863 -18.786   4.240  0.00  0.00    -0.013 A 
ATOM     17  C   LIG    1       23.569 -18.197   4.264  0.00  0.00    +0.008 A 
ATOM     18  C   LIG    1       22.407 -18.978   4.400  0.00  0.00    +0.020 A 
ATOM     19  C   LIG    1       22.494 -20.363   4.352  0.00  0.00    +0.041 A 
ATOM     20 CL   LIG    1       21.066 -21.321   4.477  0.00  0.00    -0.084 Cl
ATOM     21  C   LIG    1       23.738 -20.970   4.213  0.00  0.00    +0.020 A 
ATOM     22  C   LIG    1       24.914 -20.193   4.183  0.00  0.00    +0.008 A 
ENDBRANCH  15  16
BRANCH  15  23
ATOM     23  C   LIG    1       27.287 -18.814   5.162  0.00  0.00    +0.074 A 
ATOM     24  N   LIG    1       28.500 -18.278   5.503  0.00  0.00    -0.257 NA
ATOM     25  C   LIG    1       29.464 -19.102   6.020  0.00  0.00    +0.111 A 
ATOM     26  C   LIG    1       29.260 -20.434   6.328  0.00  0.00    +0.020 A 
ATOM     27  C   LIG    1       28.008 -20.953   6.075  0.00  0.00    +0.003 A 
ATOM     28  C   LIG    1       27.043 -20.168   5.446  0.00  0.00    +0.026 A 
ENDBRANCH  15  23
ENDBRANCH   1  15
TORSDOF 9
ENDMDL
MODEL 3
REMARK VINA RESULT:       0.7      2.237      4.157
REMARK  Name = *****
REMARK                            x       y       z     vdW  Elec       q    Type
REMARK                         _______ _______ _______ _____ _____    ______ ____
ROOT
ATOM      1  O   LIG    1       24.786 -18.329   3.743  0.00  0.00    -0.362 OA
ENDROOT
BRANCH   1   5
ATOM      2  N   LIG    1       22.636 -20.060   4.638  0.00  0.00    -0.302 NA
ATOM      3  C   LIG    1       22.559 -20.052   3.159  0.00  0.00    +0.087 C 
ATOM      4  C   LIG    1       22.608 -18.637   2.572  0.00  0.00    +0.047 C 
ATOM      5  C   LIG    1       23.492 -17.751   3.437  0.00  0.00    +0.122 C 
ATOM      6  C   LIG    1       22.601 -17.585   4.723  0.00  0.00    +0.047 C 
ATOM      7  C   LIG    1       21.931 -18.911   5.193  0.00  0.00    +0.087 C 
BRANCH   2   8
ATOM      8  C   LIG    1       22.334 -21.377   5.208  0.00  0.00    +0.085 C 
BRANCH   8   9
ATOM      9  C   LIG    1       22.813 -21.559   6.660  0.00  0.00    +0.026 C 
BRANCH   9  10
ATOM     10  C   LIG    1       24.102 -20.794   7.004  0.00  0.00    +0.121 C 
BRANCH  10  12
ATOM     11  O   LIG    1       26.414 -21.569   7.007  0.00  0.00    -0.251 OA
ATOM     12  C   LIG    1       25.336 -21.328   6.371  0.00  0.00    +0.305 C 
BRANCH  12  13
ATOM     13  O   LIG    1       25.223 -21.572   5.054  0.00  0.00    -0.481 OA
ATOM     14  H   LIG    1       26.033 -21.332   4.543  0.00  0.00    +0.295 HD
ENDBRANCH  12  13
ENDBRANCH  10  12
ENDBRANCH   9  10
ENDBRANCH   8   9
ENDBRANCH   2   8
ENDBRANCH   1   5
BRANCH   1  15
ATOM     15  C   LIG    1       26.027 -17.618   3.416  0.00  0.00    +0.197 C 
BRANCH  15  16
ATOM     16  C   LIG    1       25.744 -16.058   3.508  0.00  0.00    -0.013 A 
ATOM     17  C   LIG    1       24.740 -15.555   4.380  0.00  0.00    +0.008 A 
ATOM     18  C   LIG    1       24.205 -14.263   4.220  0.00  0.00    +0.020 A 
ATOM     19  C   LIG    1       24.765 -13.391   3.297  0.00  0.00    +0.041 A 
ATOM     20 CL   LIG    1       24.137 -11.795   3.128  0.00  0.00    -0.084 Cl
ATOM     21  C   LIG    1       25.828 -13.816   2.505  0.00  0.00    +0.020 A 
ATOM     22  C   LIG    1       26.296 -15.143   2.590  0.00  0.00    +0.008 A 
ENDBRANCH  15  16
BRANCH  15  23
ATOM     23  C   LIG    1       27.279 -17.986   4.316  0.00  0.00    +0.074 A 
ATOM     24  N   LIG    1       28.324 -17.112   4.448  0.00  0.00    -0.257 NA
ATOM     25  C   LIG    1       29.404 -17.483   5.204  0.00  0.00    +0.111 A 
ATOM     26  C   LIG    1       29.466 -18.649   5.944  0.00  0.00    +0.020 A 
ATOM     27  C   LIG    1       28.373 -19.487   5.890  0.00  0.00    +0.003 A 
ATOM     28  C   LIG    1       27.309 -19.189   5.041  0.00  0.00    +0.026 A 
ENDBRANCH  15  23
ENDBRANCH   1  15
TORSDOF 9
ENDMDL
MODEL 4
REMARK VINA RESULT:       1.1      2.956      6.396
REMARK  Name = *****
REMARK                            x       y       z     vdW  Elec       q    Type
REMARK                         _______ _______ _______ _____ _____    ______ ____
ROOT
ATOM      1  O   LIG    1       27.555 -17.145   5.055  0.00  0.00    -0.362 OA
ENDROOT
BRANCH   1   5
ATOM      2  N   LIG    1       27.880 -19.900   5.906  0.00  0.00    -0.302 NA
ATOM      3  C   LIG    1       28.301 -19.070   7.057  0.00  0.00    +0.087 C 
ATOM      4  C   LIG    1       29.280 -17.959   6.659  0.00  0.00    +0.047 C 
ATOM      5  C   LIG    1       28.955 -17.465   5.257  0.00  0.00    +0.122 C 
ATOM      6  C   LIG    1       29.412 -18.690   4.383  0.00  0.00    +0.047 C 
ATOM      7  C   LIG    1       28.982 -20.069   4.967  0.00  0.00    +0.087 C 
BRANCH   2   8
ATOM      8  C   LIG    1       27.156 -21.106   6.321  0.00  0.00    +0.085 C 
BRANCH   8   9
ATOM      9  C   LIG    1       25.727 -20.838   6.828  0.00  0.00    +0.026 C 
BRANCH   9  10
ATOM     10  C   LIG    1       24.626 -21.572   6.041  0.00  0.00    +0.121 C 
BRANCH  10  12
ATOM     11  O   LIG    1       22.207 -21.563   5.735  0.00  0.00    -0.251 OA
ATOM     12  C   LIG    1       23.254 -21.034   6.233  0.00  0.00    +0.305 C 
BRANCH  12  13
ATOM     13  O   LIG    1       23.192 -19.939   7.010  0.00  0.00    -0.481 OA
ATOM     14  H   LIG    1       24.081 -19.574   7.241  0.00  0.00    +0.295 HD
ENDBRANCH  12  13
ENDBRANCH  10  12
ENDBRANCH   9  10
ENDBRANCH   8   9
ENDBRANCH   2   8
ENDBRANCH   1   5
BRANCH   1  15
ATOM     15  C   LIG    1       27.061 -16.714   3.743  0.00  0.00    +0.197 C 
BRANCH  15  16
ATOM     16  C   LIG    1       25.590 -17.280   3.555  0.00  0.00    -0.013 A 
ATOM     17  C   LIG    1       24.460 -16.479   3.879  0.00  0.00    +0.008 A 
ATOM     18  C   LIG    1       23.190 -17.048   4.090  0.00  0.00    +0.020 A 
ATOM     19  C   LIG    1       22.983 -18.395   3.827  0.00  0.00    +0.041 A 
ATOM     20 CL   LIG    1       21.418 -19.085   4.045  0.00  0.00    -0.084 Cl
ATOM     21  C   LIG    1       24.045 -19.184   3.396  0.00  0.00    +0.020 A 
ATOM     22  C   LIG    1       25.341 -18.640   3.286  0.00  0.00    +0.008 A 
ENDBRANCH  15  16
BRANCH  15  23
ATOM     23  C   LIG    1       27.065 -15.147   3.496  0.00  0.00    +0.074 A 
ATOM     24  N   LIG    1       26.308 -14.597   2.498  0.00  0.00    -0.257 NA
ATOM     25  C   LIG    1       26.367 -13.244   2.293  0.00  0.00    +0.111 A 
ATOM     26  C   LIG    1       27.064 -12.368   3.105  0.00  0.00    +0.020 A 
ATOM     27  C   LIG    1       27.750 -12.910   4.170  0.00  0.00    +0.003 A 
ATOM     28  C   LIG    1       27.799 -14.293   4.336  0.00  0.00    +0.026 A 
ENDBRANCH  15  23
ENDBRANCH   1  15
TORSDOF 9
ENDMDL
MODEL 5
REMARK VINA RESULT:       1.5      2.602      5.698
REMARK  Name = *****
REMARK                            x       y       z     vdW  Elec       q    Type
REMARK                         _______ _______ _______ _____ _____    ______ ____
ROOT
ATOM      1  O   LIG    1       26.178 -17.595   4.218  0.00  0.00    -0.362 OA
ENDROOT
BRANCH   1   5
ATOM      2  N   LIG    1       25.735 -20.012   5.762  0.00  0.00    -0.302 NA
ATOM      3  C   LIG    1       27.183 -19.722   5.873  0.00  0.00    +0.087 C 
ATOM      4  C   LIG    1       27.834 -19.434   4.515  0.00  0.00    +0.047 C 
ATOM      5  C   LIG    1       26.837 -18.731   3.605  0.00  0.00    +0.122 C 
ATOM      6  C   LIG    1       25.830 -19.898   3.290  0.00  0.00    +0.047 C 
ATOM      7  C   LIG    1       25.453 -20.752   4.538  0.00  0.00    +0.087 C 
BRANCH   2   8
ATOM      8  C   LIG    1       25.171 -20.534   7.011  0.00  0.00    +0.085 C 
BRANCH   8   9
ATOM      9  C   LIG    1       23.753 -21.117   6.866  0.00  0.00    +0.026 C 
BRANCH   9  10
ATOM     10  C   LIG    1       22.728 -20.148   6.251  0.00  0.00    +0.121 C 
BRANCH  10  12
ATOM     11  O   LIG    1       21.054 -20.116   4.479  0.00  0.00    -0.251 OA
ATOM     12  C   LIG    1       22.122 -20.603   4.973  0.00  0.00    +0.305 C 
BRANCH  12  13
ATOM     13  O   LIG    1       22.813 -21.571   4.347  0.00  0.00    -0.481 OA
ATOM     14  H   LIG    1       22.788 -21.494   3.362  0.00  0.00    +0.295 HD
ENDBRANCH  12  13
ENDBRANCH  10  12
ENDBRANCH   9  10
ENDBRANCH   8   9
ENDBRANCH   2   8
ENDBRANCH   1   5
BRANCH   1  15
ATOM     15  C   LIG    1       25.602 -16.523   3.399  0.00  0.00    +0.197 C 
BRANCH  15  16
ATOM     16  C   LIG    1       24.192 -16.130   4.015  0.00  0.00    -0.013 A 
ATOM     17  C   LIG    1       23.953 -14.812   4.490  0.00  0.00    +0.008 A 
ATOM     18  C   LIG    1       22.889 -14.527   5.366  0.00  0.00    +0.020 A 
ATOM     19  C   LIG    1       21.951 -15.507   5.659  0.00  0.00    +0.041 A 
ATOM     20 CL   LIG    1       20.625 -15.148   6.700  0.00  0.00    -0.084 Cl
ATOM     21  C   LIG    1       22.094 -16.781   5.115  0.00  0.00    +0.020 A 
ATOM     22  C   LIG    1       23.216 -17.098   4.323  0.00  0.00    +0.008 A 
ENDBRANCH  15  16
BRANCH  15  23
ATOM     23  C   LIG    1       26.499 -15.224   3.249  0.00  0.00    +0.074 A 
ATOM     24  N   LIG    1       26.158 -14.241   2.360  0.00  0.00    -0.257 NA
ATOM     25  C   LIG    1       26.980 -13.152   2.234  0.00  0.00    +0.111 A 
ATOM     26  C   LIG    1       28.086 -12.920   3.031  0.00  0.00    +0.020 A 
ATOM     27  C   LIG    1       28.376 -13.863   3.993  0.00  0.00    +0.003 A 
ATOM     28  C   LIG    1       27.624 -15.034   4.068  0.00  0.00    +0.026 A 
ENDBRANCH  15  23
ENDBRANCH   1  15
TORSDOF 9
ENDMDL
MODEL 6
REMARK VINA RESULT:       1.6      2.509      5.121
REMARK  Name = *****
REMARK                            x       y       z     vdW  Elec       q    Type
REMARK                         _______ _______ _______ _____ _____    ______ ____
ROOT
ATOM      1  O   LIG    1       24.362 -16.999   4.066  0.00  0.00    -0.362 OA
ENDROOT
BRANCH   1   5
ATOM      2  N   LIG    1       24.583 -14.132   4.455  0.00  0.00    -0.302 NA
ATOM      3  C   LIG    1       23.892 -14.650   5.657  0.00  0.00    +0.087 C 
ATOM      4  C   LIG    1       22.729 -15.589   5.313  0.00  0.00    +0.047 C 
ATOM      5  C   LIG    1       23.055 -16.370   4.050  0.00  0.00    +0.122 C 
ATOM      6  C   LIG    1       22.956 -15.244   2.955  0.00  0.00    +0.047 C 
ATOM      7  C   LIG    1       23.630 -13.904   3.375  0.00  0.00    +0.087 C 
BRANCH   2   8
ATOM      8  C   LIG    1       25.517 -13.047   4.770  0.00  0.00    +0.085 C 
BRANCH   8   9
ATOM      9  C   LIG    1       26.916 -13.526   5.200  0.00  0.00    +0.026 C 
BRANCH   9  10
ATOM     10  C   LIG    1       27.805 -14.012   4.042  0.00  0.00    +0.121 C 
BRANCH  10  12
ATOM     11  O   LIG    1       26.816 -14.021   1.812  0.00  0.00    -0.251 OA
ATOM     12  C   LIG    1       27.072 -14.627   2.904  0.00  0.00    +0.305 C 
BRANCH  12  13
ATOM     13  O   LIG    1       26.713 -15.906   3.104  0.00  0.00    -0.481 OA
ATOM     14  H   LIG    1       27.448 -16.468   3.451  0.00  0.00    +0.295 HD
ENDBRANCH  12  13
ENDBRANCH  10  12
ENDBRANCH   9  10
ENDBRANCH   8   9
ENDBRANCH   2   8
ENDBRANCH   1   5
BRANCH   1  15
ATOM     15  C   LIG    1       24.509 -18.440   3.836  0.00  0.00    +0.197 C 
BRANCH  15  16
ATOM     16  C   LIG    1       25.673 -18.976   4.773  0.00  0.00    -0.013 A 
ATOM     17  C   LIG    1       27.016 -18.555   4.571  0.00  0.00    +0.008 A 
ATOM     18  C   LIG    1       28.102 -19.272   5.108  0.00  0.00    +0.020 A 
ATOM     19  C   LIG    1       27.871 -20.323   5.985  0.00  0.00    +0.041 A 
ATOM     20 CL   LIG    1       29.200 -21.176   6.676  0.00  0.00    -0.084 Cl
ATOM     21  C   LIG    1       26.564 -20.687   6.295  0.00  0.00    +0.020 A 
ATOM     22  C   LIG    1       25.476 -20.040   5.676  0.00  0.00    +0.008 A 
ENDBRANCH  15  16
BRANCH  15  23
ATOM     23  C   LIG    1       23.199 -19.303   4.067  0.00  0.00    +0.074 A 
ATOM     24  N   LIG    1       23.271 -20.533   4.663  0.00  0.00    -0.257 NA
ATOM     25  C   LIG    1       22.121 -21.264   4.810  0.00  0.00    +0.111 A 
ATOM     26  C   LIG    1       20.860 -20.793   4.495  0.00  0.00    +0.020 A 
ATOM     27  C   LIG    1       20.775 -19.516   3.984  0.00  0.00    +0.003 A 
ATOM     28  C   LIG    1       21.937 -18.794   3.718  0.00  0.00    +0.026 A 
ENDBRANCH  15  23
ENDBRANCH   1  15
TORSDOF 9
ENDMDL
