MODEL 1
REMARK VINA RESULT:      -3.7      0.000      0.000
REMARK  Name = *****
REMARK                            x       y       z     vdW  Elec       q    Type
REMARK                         _______ _______ _______ _____ _____    ______ ____
ROOT
ATOM      1  C   LIG    1       26.515 -14.128   3.515  0.00  0.00    +0.175 C 
ENDROOT
BRANCH   1   3
ATOM      2  O   LIG    1       26.061 -16.449   3.027  0.00  0.00    -0.250 OA
ATOM      3  C   LIG    1       26.805 -15.622   3.534  0.00  0.00    +0.319 C 
BRANCH   3   4
ATOM      4  O   LIG    1       27.976 -15.968   4.116  0.00  0.00    -0.480 OA
ATOM      5  H   LIG    1       27.899 -16.769   4.679  0.00  0.00    +0.295 HD
ENDBRANCH   3   4
ENDBRANCH   1   3
BRANCH   1   6
ATOM      6  S   LIG    1       26.967 -13.388   5.140  0.00  0.00    -0.162 S 
ATOM      7  H   LIG    1       26.095 -14.090   5.886  0.00  0.00    +0.102 HD
ENDBRANCH   1   6
BRANCH   1   8
ATOM      8  C   LIG    1       25.075 -13.880   3.030  0.00  0.00    +0.175 C 
BRANCH   8   9
ATOM      9  S   LIG    1       24.960 -12.376   1.968  0.00  0.00    -0.162 S 
ATOM     10  H   LIG    1       24.484 -13.006   0.877  0.00  0.00    +0.102 HD
ENDBRANCH   8   9
BRANCH   8  11
ATOM     11  C   LIG    1       24.060 -13.788   4.168  0.00  0.00    +0.319 C 
ATOM     12  O   LIG    1       23.472 -14.747   4.649  0.00  0.00    -0.250 OA
BRANCH  11  13
ATOM     13  O   LIG    1       23.807 -12.529   4.597  0.00  0.00    -0.480 OA
ATOM     14  H   LIG    1       24.176 -12.284   5.480  0.00  0.00    +0.295 HD
ENDBRANCH  11  13
ENDBRANCH   8  11
ENDBRANCH   1   8
TORSDOF 7
ENDMDL
MODEL 2
REMARK VINA RESULT:      -3.6      2.055      4.067
REMARK  Name = *****
REMARK                            x       y       z     vdW  Elec       q    Type
REMARK                         _______ _______ _______ _____ _____    ______ ____
ROOT
ATOM      1  C   LIG    1       24.776 -14.144   3.530  0.00  0.00    +0.175 C 
ENDROOT
BRANCH   1   3
ATOM      2  O   LIG    1       23.889 -12.010   4.230  0.00  0.00    -0.250 OA
ATOM      3  C   LIG    1       24.448 -12.667   3.364  0.00  0.00    +0.319 C 
BRANCH   3   4
ATOM      4  O   LIG    1       24.864 -12.118   2.200  0.00  0.00    -0.480 OA
ATOM      5  H   LIG    1       25.836 -11.976   2.172  0.00  0.00    +0.295 HD
ENDBRANCH   3   4
ENDBRANCH   1   3
BRANCH   1   6
ATOM      6  S   LIG    1       23.416 -14.982   4.448  0.00  0.00    -0.162 S 
ATOM      7  H   LIG    1       22.397 -14.432   3.765  0.00  0.00    +0.102 HD
ENDBRANCH   1   6
BRANCH   1   8
ATOM      8  C   LIG    1       26.192 -14.304   4.114  0.00  0.00    +0.175 C 
BRANCH   8   9
ATOM      9  S   LIG    1       26.430 -13.272   5.626  0.00  0.00    -0.162 S 
ATOM     10  H   LIG    1       25.289 -13.646   6.236  0.00  0.00    +0.102 HD
ENDBRANCH   8   9
BRANCH   8  11
ATOM     11  C   LIG    1       27.300 -14.006   3.106  0.00  0.00    +0.319 C 
ATOM     12  O   LIG    1       28.409 -13.583   3.401  0.00  0.00    -0.250 OA
BRANCH  11  13
ATOM     13  O   LIG    1       26.952 -14.204   1.812  0.00  0.00    -0.480 OA
ATOM     14  H   LIG    1       27.558 -13.822   1.131  0.00  0.00    +0.295 HD
ENDBRANCH  11  13
ENDBRANCH   8  11
ENDBRANCH   1   8
TORSDOF 7
ENDMDL
MODEL 3
REMARK VINA RESULT:      -3.5      1.676      3.461
REMARK  Name = *****
REMARK                            x       y       z     vdW  Elec       q    Type
REMARK                         _______ _______ _______ _____ _____    ______ ____
ROOT
ATOM      1  C   LIG    1       24.883 -13.819   4.320  0.00  0.00    +0.175 C 
ENDROOT
BRANCH   1   3
ATOM      2  O   LIG    1       22.910 -15.198   4.510  0.00  0.00    -0.250 OA
ATOM      3  C   LIG    1       24.085 -15.108   4.186  0.00  0.00    +0.319 C 
BRANCH   3   4
ATOM      4  O   LIG    1       24.762 -16.142   3.636  0.00  0.00    -0.480 OA
ATOM      5  H   LIG    1       24.232 -16.631   2.969  0.00  0.00    +0.295 HD
ENDBRANCH   3   4
ENDBRANCH   1   3
BRANCH   1   6
ATOM      6  S   LIG    1       24.244 -12.567   3.130  0.00  0.00    -0.162 S 
ATOM      7  H   LIG    1       24.419 -11.491   3.916  0.00  0.00    +0.102 HD
ENDBRANCH   1   6
BRANCH   1   8
ATOM      8  C   LIG    1       26.390 -14.125   4.244  0.00  0.00    +0.175 C 
BRANCH   8   9
ATOM      9  S   LIG    1       27.330 -13.280   5.588  0.00  0.00    -0.162 S 
ATOM     10  H   LIG    1       28.540 -13.384   5.006  0.00  0.00    +0.102 HD
ENDBRANCH   8   9
BRANCH   8  11
ATOM     11  C   LIG    1       27.009 -13.787   2.889  0.00  0.00    +0.319 C 
ATOM     12  O   LIG    1       26.728 -14.350   1.840  0.00  0.00    -0.250 OA
BRANCH  11  13
ATOM     13  O   LIG    1       27.956 -12.821   2.928  0.00  0.00    -0.480 OA
ATOM     14  H   LIG    1       28.871 -13.092   2.672  0.00  0.00    +0.295 HD
ENDBRANCH  11  13
ENDBRANCH   8  11
ENDBRANCH   1   8
TORSDOF 7
ENDMDL
MODEL 4
REMARK VINA RESULT:      -3.5      2.066      3.968
REMARK  Name = *****
REMARK                            x       y       z     vdW  Elec       q    Type
REMARK                         _______ _______ _______ _____ _____    ______ ____
ROOT
ATOM      1  C   LIG    1       25.831 -12.847   3.240  0.00  0.00    +0.175 C 
ENDROOT
BRANCH   1   3
ATOM      2  O   LIG    1       24.071 -13.979   4.446  0.00  0.00    -0.250 OA
ATOM      3  C   LIG    1       25.080 -13.290   4.488  0.00  0.00    +0.319 C 
BRANCH   3   4
ATOM      4  O   LIG    1       25.638 -12.901   5.657  0.00  0.00    -0.480 OA
ATOM      5  H   LIG    1       25.517 -13.561   6.375  0.00  0.00    +0.295 HD
ENDBRANCH   3   4
ENDBRANCH   1   3
BRANCH   1   6
ATOM      6  S   LIG    1       24.669 -12.765   1.813  0.00  0.00    -0.162 S 
ATOM      7  H   LIG    1       25.446 -12.013   1.015  0.00  0.00    +0.102 HD
ENDBRANCH   1   6
BRANCH   1   8
ATOM      8  C   LIG    1       27.085 -13.718   3.048  0.00  0.00    +0.175 C 
BRANCH   8   9
ATOM      9  S   LIG    1       26.772 -15.481   3.495  0.00  0.00    -0.162 S 
ATOM     10  H   LIG    1       25.984 -15.760   2.440  0.00  0.00    +0.102 HD
ENDBRANCH   8   9
BRANCH   8  11
ATOM     11  C   LIG    1       28.304 -13.201   3.810  0.00  0.00    +0.319 C 
ATOM     12  O   LIG    1       28.261 -12.694   4.922  0.00  0.00    -0.250 OA
BRANCH  11  13
ATOM     13  O   LIG    1       29.474 -13.300   3.135  0.00  0.00    -0.480 OA
ATOM     14  H   LIG    1       29.428 -13.695   2.231  0.00  0.00    +0.295 HD
ENDBRANCH  11  13
ENDBRANCH   8  11
ENDBRANCH   1   8
TORSDOF 7
ENDMDL
MODEL 5
REMARK VINA RESULT:      -3.5      2.062      3.254
REMARK  Name = *****
REMARK                            x       y       z     vdW  Elec       q    Type
REMARK                         _______ _______ _______ _____ _____    ______ ____
ROOT
ATOM      1  C   LIG    1       27.225 -12.916   4.229  0.00  0.00    +0.175 C 
ENDROOT
BRANCH   1   3
ATOM      2  O   LIG    1       29.474 -13.258   3.419  0.00  0.00    -0.250 OA
ATOM      3  C   LIG    1       28.733 -12.707   4.220  0.00  0.00    +0.319 C 
BRANCH   3   4
ATOM      4  O   LIG    1       29.191 -11.826   5.137  0.00  0.00    -0.480 OA
ATOM      5  H   LIG    1       30.157 -11.910   5.297  0.00  0.00    +0.295 HD
ENDBRANCH   3   4
ENDBRANCH   1   3
BRANCH   1   6
ATOM      6  S   LIG    1       26.687 -13.482   5.897  0.00  0.00    -0.162 S 
ATOM      7  H   LIG    1       26.286 -14.712   5.530  0.00  0.00    +0.102 HD
ENDBRANCH   1   6
BRANCH   1   8
ATOM      8  C   LIG    1       26.812 -13.805   3.042  0.00  0.00    +0.175 C 
BRANCH   8   9
ATOM      9  S   LIG    1       25.270 -13.196   2.233  0.00  0.00    -0.162 S 
ATOM     10  H   LIG    1       24.827 -12.482   3.285  0.00  0.00    +0.102 HD
ENDBRANCH   8   9
BRANCH   8  11
ATOM     11  C   LIG    1       26.654 -15.278   3.415  0.00  0.00    +0.319 C 
ATOM     12  O   LIG    1       25.596 -15.892   3.373  0.00  0.00    -0.250 OA
BRANCH  11  13
ATOM     13  O   LIG    1       27.787 -15.873   3.855  0.00  0.00    -0.480 OA
ATOM     14  H   LIG    1       27.671 -16.662   4.438  0.00  0.00    +0.295 HD
ENDBRANCH  11  13
ENDBRANCH   8  11
ENDBRANCH   1   8
TORSDOF 7
ENDMDL
MODEL 6
REMARK VINA RESULT:      -3.4      2.105      2.899
REMARK  Name = *****
REMARK                            x       y       z     vdW  Elec       q    Type
REMARK                         _______ _______ _______ _____ _____    ______ ____
ROOT
ATOM      1  C   LIG    1       25.065 -13.981   3.236  0.00  0.00    +0.175 C 
ENDROOT
BRANCH   1   3
ATOM      2  O   LIG    1       26.439 -15.967   3.213  0.00  0.00    -0.250 OA
ATOM      3  C   LIG    1       26.251 -14.831   2.802  0.00  0.00    +0.319 C 
BRANCH   3   4
ATOM      4  O   LIG    1       27.064 -14.252   1.889  0.00  0.00    -0.480 OA
ATOM      5  H   LIG    1       27.005 -14.675   1.005  0.00  0.00    +0.295 HD
ENDBRANCH   3   4
ENDBRANCH   1   3
BRANCH   1   6
ATOM      6  S   LIG    1       24.777 -12.643   2.003  0.00  0.00    -0.162 S 
ATOM      7  H   LIG    1       24.477 -11.672   2.884  0.00  0.00    +0.102 HD
ENDBRANCH   1   6
BRANCH   1   8
ATOM      8  C   LIG    1       25.249 -13.532   4.697  0.00  0.00    +0.175 C 
BRANCH   8   9
ATOM      9  S   LIG    1       24.242 -12.036   5.087  0.00  0.00    -0.162 S 
ATOM     10  H   LIG    1       25.131 -11.138   4.620  0.00  0.00    +0.102 HD
ENDBRANCH   8   9
BRANCH   8  11
ATOM     11  C   LIG    1       26.708 -13.287   5.077  0.00  0.00    +0.319 C 
ATOM     12  O   LIG    1       27.576 -12.927   4.294  0.00  0.00    -0.250 OA
BRANCH  11  13
ATOM     13  O   LIG    1       27.004 -13.545   6.373  0.00  0.00    -0.480 OA
ATOM     14  H   LIG    1       27.646 -14.277   6.539  0.00  0.00    +0.295 HD
ENDBRANCH  11  13
ENDBRANCH   8  11
ENDBRANCH   1   8
TORSDOF 7
ENDMDL
MODEL 7
REMARK VINA RESULT:      -3.4      2.557      3.116
REMARK  Name = *****
REMARK                            x       y       z     vdW  Elec       q    Type
REMARK                         _______ _______ _______ _____ _____    ______ ____
ROOT
ATOM      1  C   LIG    1       26.646 -14.238   4.574  0.00  0.00    +0.175 C 
ENDROOT
BRANCH   1   3
ATOM      2  O   LIG    1       28.677 -13.326   3.638  0.00  0.00    -0.250 OA
ATOM      3  C   LIG    1       27.854 -13.312   4.541  0.00  0.00    +0.319 C 
BRANCH   3   4
ATOM      4  O   LIG    1       27.927 -12.434   5.567  0.00  0.00    -0.480 OA
ATOM      5  H   LIG    1       28.618 -12.672   6.224  0.00  0.00    +0.295 HD
ENDBRANCH   3   4
ENDBRANCH   1   3
BRANCH   1   6
ATOM      6  S   LIG    1       27.062 -15.829   3.745  0.00  0.00    -0.162 S 
ATOM      7  H   LIG    1       26.250 -15.676   2.684  0.00  0.00    +0.102 HD
ENDBRANCH   1   6
BRANCH   1   8
ATOM      8  C   LIG    1       25.405 -13.497   4.045  0.00  0.00    +0.175 C 
BRANCH   8   9
ATOM      9  S   LIG    1       23.865 -14.486   4.282  0.00  0.00    -0.162 S 
ATOM     10  H   LIG    1       23.031 -13.434   4.382  0.00  0.00    +0.102 HD
ENDBRANCH   8   9
BRANCH   8  11
ATOM     11  C   LIG    1       25.528 -13.076   2.582  0.00  0.00    +0.319 C 
ATOM     12  O   LIG    1       24.991 -12.089   2.098  0.00  0.00    -0.250 OA
BRANCH  11  13
ATOM     13  O   LIG    1       26.258 -13.918   1.813  0.00  0.00    -0.480 OA
ATOM     14  H   LIG    1       26.933 -13.501   1.224  0.00  0.00    +0.295 HD
ENDBRANCH  11  13
ENDBRANCH   8  11
ENDBRANCH   1   8
TORSDOF 7
ENDMDL
MODEL 8
REMARK VINA RESULT:      -3.4      1.719      3.939
REMARK  Name = *****
REMARK                            x       y       z     vdW  Elec       q    Type
REMARK                         _______ _______ _______ _____ _____    ______ ____
ROOT
ATOM      1  C   LIG    1       24.523 -14.145   3.496  0.00  0.00    +0.175 C 
ENDROOT
BRANCH   1   3
ATOM      2  O   LIG    1       24.007 -12.040   4.562  0.00  0.00    -0.250 OA
ATOM      3  C   LIG    1       24.080 -12.689   3.528  0.00  0.00    +0.319 C 
BRANCH   3   4
ATOM      4  O   LIG    1       23.813 -12.148   2.318  0.00  0.00    -0.480 OA
ATOM      5  H   LIG    1       24.538 -11.571   1.991  0.00  0.00    +0.295 HD
ENDBRANCH   3   4
ENDBRANCH   1   3
BRANCH   1   6
ATOM      6  S   LIG    1       23.360 -15.170   4.491  0.00  0.00    -0.162 S 
ATOM      7  H   LIG    1       23.956 -16.354   4.269  0.00  0.00    +0.102 HD
ENDBRANCH   1   6
BRANCH   1   8
ATOM      8  C   LIG    1       26.013 -14.247   3.870  0.00  0.00    +0.175 C 
BRANCH   8   9
ATOM      9  S   LIG    1       27.020 -12.947   3.035  0.00  0.00    -0.162 S 
ATOM     10  H   LIG    1       26.506 -11.906   3.717  0.00  0.00    +0.102 HD
ENDBRANCH   8   9
BRANCH   8  11
ATOM     11  C   LIG    1       26.614 -15.624   3.593  0.00  0.00    +0.319 C 
ATOM     12  O   LIG    1       26.018 -16.542   3.046  0.00  0.00    -0.250 OA
BRANCH  11  13
ATOM     13  O   LIG    1       27.878 -15.788   4.047  0.00  0.00    -0.480 OA
ATOM     14  H   LIG    1       28.106 -16.683   4.398  0.00  0.00    +0.295 HD
ENDBRANCH  11  13
ENDBRANCH   8  11
ENDBRANCH   1   8
TORSDOF 7
ENDMDL
MODEL 9
REMARK VINA RESULT:      -3.3      2.303      3.686
REMARK  Name = *****
REMARK                            x       y       z     vdW  Elec       q    Type
REMARK                         _______ _______ _______ _____ _____    ______ ____
ROOT
ATOM      1  C   LIG    1       24.841 -13.386   4.676  0.00  0.00    +0.175 C 
ENDROOT
BRANCH   1   3
ATOM      2  O   LIG    1       23.222 -15.110   4.185  0.00  0.00    -0.250 OA
ATOM      3  C   LIG    1       23.802 -14.098   3.820  0.00  0.00    +0.319 C 
BRANCH   3   4
ATOM      4  O   LIG    1       23.532 -13.499   2.638  0.00  0.00    -0.480 OA
ATOM      5  H   LIG    1       23.316 -12.546   2.734  0.00  0.00    +0.295 HD
ENDBRANCH   3   4
ENDBRANCH   1   3
BRANCH   1   6
ATOM      6  S   LIG    1       24.272 -11.674   5.047  0.00  0.00    -0.162 S 
ATOM      7  H   LIG    1       25.184 -11.034   4.294  0.00  0.00    +0.102 HD
ENDBRANCH   1   6
BRANCH   1   8
ATOM      8  C   LIG    1       26.232 -13.517   4.028  0.00  0.00    +0.175 C 
BRANCH   8   9
ATOM      9  S   LIG    1       26.506 -15.202   3.328  0.00  0.00    -0.162 S 
ATOM     10  H   LIG    1       27.185 -15.688   4.384  0.00  0.00    +0.102 HD
ENDBRANCH   8   9
BRANCH   8  11
ATOM     11  C   LIG    1       27.376 -13.158   4.973  0.00  0.00    +0.319 C 
ATOM     12  O   LIG    1       28.460 -12.721   4.612  0.00  0.00    -0.250 OA
BRANCH  11  13
ATOM     13  O   LIG    1       27.126 -13.404   6.280  0.00  0.00    -0.480 OA
ATOM     14  H   LIG    1       26.176 -13.418   6.551  0.00  0.00    +0.295 HD
ENDBRANCH  11  13
ENDBRANCH   8  11
ENDBRANCH   1   8
TORSDOF 7
ENDMDL
