MODEL 1
REMARK VINA RESULT:      -8.1      0.000      0.000
REMARK  Name = *****
REMARK                            x       y       z     vdW  Elec       q    Type
REMARK                         _______ _______ _______ _____ _____    ______ ____
ROOT
ATOM      1  C   LIG    1       24.883 -31.907  10.367  0.00  0.00    +0.015 C 
ATOM      2  C   LIG    1       24.741 -30.397  10.061  0.00  0.00    +0.008 C 
ATOM      3  C   LIG    1       25.756 -30.054   8.937  0.00  0.00    +0.183 C 
ATOM      4  C   LIG    1       27.102 -29.937   9.698  0.00  0.00    +0.045 C 
ATOM      5  C   LIG    1       26.750 -29.628  11.169  0.00  0.00    +0.008 C 
ATOM      6  C   LIG    1       25.241 -29.419  11.148  0.00  0.00    +0.002 C 
ATOM      7  C   LIG    1       24.453 -29.376  12.460  0.00  0.00    -0.003 C 
ATOM      8  C   LIG    1       22.959 -29.077  12.128  0.00  0.00    -0.000 C 
ATOM      9  C   LIG    1       22.111 -28.976  13.435  0.00  0.00    +0.019 C 
ATOM     10  C   LIG    1       22.350 -30.151  14.363  0.00  0.00    -0.063 C 
ATOM     11  C   LIG    1       23.797 -30.464  14.650  0.00  0.00    +0.031 C 
ATOM     12  C   LIG    1       21.363 -30.831  14.970  0.00  0.00    +0.045 C 
ATOM     13  C   LIG    1       19.963 -30.351  14.887  0.00  0.00    +0.156 C 
ATOM     14  O   LIG    1       19.051 -31.047  15.324  0.00  0.00    -0.293 OA
ATOM     15  C   LIG    1       19.746 -28.948  14.374  0.00  0.00    +0.079 C 
ATOM     16  C   LIG    1       20.616 -28.721  13.149  0.00  0.00    +0.016 C 
ATOM     17  C   LIG    1       22.413 -30.054  11.054  0.00  0.00    +0.005 C 
ATOM     18  C   LIG    1       24.621 -30.595  13.375  0.00  0.00    +0.008 C 
ATOM     19  C   LIG    1       23.268 -30.078   9.770  0.00  0.00    +0.011 C 
ENDROOT
BRANCH   3  20
ATOM     20  O   LIG    1       25.412 -28.778   8.362  0.00  0.00    -0.461 OA
BRANCH  20  21
ATOM     21  C   LIG    1       25.151 -28.767   7.030  0.00  0.00    +0.308 C 
ATOM     22  O   LIG    1       24.609 -29.676   6.411  0.00  0.00    -0.251 OA
BRANCH  21  23
ATOM     23  C   LIG    1       25.608 -27.464   6.429  0.00  0.00    +0.125 C 
BRANCH  23  24
ATOM     24  C   LIG    1       24.400 -26.646   5.984  0.00  0.00    +0.046 C 
BRANCH  24  25
ATOM     25  C   LIG    1       24.492 -25.208   6.425  0.00  0.00    -0.047 A 
ATOM     26  C   LIG    1       25.732 -24.648   6.757  0.00  0.00    +0.003 A 
ATOM     27  C   LIG    1       25.819 -23.319   7.170  0.00  0.00    +0.000 A 
ATOM     28  C   LIG    1       24.668 -22.536   7.250  0.00  0.00    +0.000 A 
ATOM     29  C   LIG    1       23.431 -23.081   6.914  0.00  0.00    +0.000 A 
ATOM     30  C   LIG    1       23.343 -24.411   6.500  0.00  0.00    +0.003 A 
ENDBRANCH  24  25
ENDBRANCH  23  24
ENDBRANCH  21  23
ENDBRANCH  20  21
ENDBRANCH   3  20
TORSDOF 5
ENDMDL
MODEL 2
REMARK VINA RESULT:      -8.0      2.084      3.491
REMARK  Name = *****
REMARK                            x       y       z     vdW  Elec       q    Type
REMARK                         _______ _______ _______ _____ _____    ______ ____
ROOT
ATOM      1  C   LIG    1       23.649 -32.055   6.872  0.00  0.00    +0.015 C 
ATOM      2  C   LIG    1       24.708 -30.936   7.005  0.00  0.00    +0.008 C 
ATOM      3  C   LIG    1       25.190 -30.580   5.572  0.00  0.00    +0.183 C 
ATOM      4  C   LIG    1       26.195 -31.713   5.244  0.00  0.00    +0.045 C 
ATOM      5  C   LIG    1       26.682 -32.276   6.596  0.00  0.00    +0.008 C 
ATOM      6  C   LIG    1       26.067 -31.336   7.626  0.00  0.00    +0.002 C 
ATOM      7  C   LIG    1       26.068 -31.714   9.109  0.00  0.00    -0.003 C 
ATOM      8  C   LIG    1       25.443 -30.536   9.919  0.00  0.00    -0.000 C 
ATOM      9  C   LIG    1       25.459 -30.846  11.449  0.00  0.00    +0.019 C 
ATOM     10  C   LIG    1       24.897 -32.220  11.759  0.00  0.00    -0.063 C 
ATOM     11  C   LIG    1       25.473 -33.352  10.946  0.00  0.00    +0.031 C 
ATOM     12  C   LIG    1       24.011 -32.455  12.741  0.00  0.00    +0.045 C 
ATOM     13  C   LIG    1       23.653 -31.382  13.699  0.00  0.00    +0.156 C 
ATOM     14  O   LIG    1       22.745 -31.561  14.504  0.00  0.00    -0.293 OA
ATOM     15  C   LIG    1       24.529 -30.152  13.714  0.00  0.00    +0.079 C 
ATOM     16  C   LIG    1       24.813 -29.721  12.284  0.00  0.00    +0.016 C 
ATOM     17  C   LIG    1       24.067 -30.119   9.339  0.00  0.00    +0.005 C 
ATOM     18  C   LIG    1       25.429 -33.066   9.450  0.00  0.00    +0.008 C 
ATOM     19  C   LIG    1       24.123 -29.783   7.833  0.00  0.00    +0.011 C 
ENDROOT
BRANCH   3  20
ATOM     20  O   LIG    1       25.880 -29.314   5.605  0.00  0.00    -0.461 OA
BRANCH  20  21
ATOM     21  C   LIG    1       25.210 -28.248   5.099  0.00  0.00    +0.308 C 
ATOM     22  O   LIG    1       24.055 -28.272   4.688  0.00  0.00    -0.251 OA
BRANCH  21  23
ATOM     23  C   LIG    1       26.090 -27.027   5.135  0.00  0.00    +0.125 C 
BRANCH  23  24
ATOM     24  C   LIG    1       26.135 -26.462   6.551  0.00  0.00    +0.046 C 
BRANCH  24  25
ATOM     25  C   LIG    1       25.318 -25.203   6.688  0.00  0.00    -0.047 A 
ATOM     26  C   LIG    1       23.936 -25.229   6.459  0.00  0.00    +0.003 A 
ATOM     27  C   LIG    1       23.178 -24.064   6.580  0.00  0.00    +0.000 A 
ATOM     28  C   LIG    1       23.793 -22.865   6.937  0.00  0.00    +0.000 A 
ATOM     29  C   LIG    1       25.166 -22.831   7.175  0.00  0.00    +0.000 A 
ATOM     30  C   LIG    1       25.925 -23.996   7.054  0.00  0.00    +0.003 A 
ENDBRANCH  24  25
ENDBRANCH  23  24
ENDBRANCH  21  23
ENDBRANCH  20  21
ENDBRANCH   3  20
TORSDOF 5
ENDMDL
MODEL 3
REMARK VINA RESULT:      -7.6      1.270      1.957
REMARK  Name = *****
REMARK                            x       y       z     vdW  Elec       q    Type
REMARK                         _______ _______ _______ _____ _____    ______ ____
ROOT
ATOM      1  C   LIG    1       24.083 -32.721   8.955  0.00  0.00    +0.015 C 
ATOM      2  C   LIG    1       24.596 -31.279   8.730  0.00  0.00    +0.008 C 
ATOM      3  C   LIG    1       25.340 -31.258   7.367  0.00  0.00    +0.183 C 
ATOM      4  C   LIG    1       26.723 -31.869   7.708  0.00  0.00    +0.045 C 
ATOM      5  C   LIG    1       26.934 -31.662   9.223  0.00  0.00    +0.008 C 
ATOM      6  C   LIG    1       25.749 -30.802   9.643  0.00  0.00    +0.002 C 
ATOM      7  C   LIG    1       25.425 -30.612  11.128  0.00  0.00    -0.003 C 
ATOM      8  C   LIG    1       24.217 -29.633  11.248  0.00  0.00    -0.000 C 
ATOM      9  C   LIG    1       23.869 -29.364  12.745  0.00  0.00    +0.019 C 
ATOM     10  C   LIG    1       23.749 -30.648  13.544  0.00  0.00    -0.063 C 
ATOM     11  C   LIG    1       24.899 -31.611  13.394  0.00  0.00    +0.031 C 
ATOM     12  C   LIG    1       22.743 -30.900  14.397  0.00  0.00    +0.045 C 
ATOM     13  C   LIG    1       21.762 -29.840  14.731  0.00  0.00    +0.156 C 
ATOM     14  O   LIG    1       20.771 -30.114  15.401  0.00  0.00    -0.293 OA
ATOM     15  C   LIG    1       22.110 -28.427  14.328  0.00  0.00    +0.079 C 
ATOM     16  C   LIG    1       22.652 -28.429  12.908  0.00  0.00    +0.016 C 
ATOM     17  C   LIG    1       23.030 -30.089  10.360  0.00  0.00    +0.005 C 
ATOM     18  C   LIG    1       25.221 -31.901  11.933  0.00  0.00    +0.008 C 
ATOM     19  C   LIG    1       23.426 -30.298   8.883  0.00  0.00    +0.011 C 
ENDROOT
BRANCH   3  20
ATOM     20  O   LIG    1       25.505 -29.891   6.939  0.00  0.00    -0.461 OA
BRANCH  20  21
ATOM     21  C   LIG    1       25.254 -29.635   5.630  0.00  0.00    +0.308 C 
ATOM     22  O   LIG    1       25.288 -30.466   4.730  0.00  0.00    -0.251 OA
BRANCH  21  23
ATOM     23  C   LIG    1       24.908 -28.180   5.451  0.00  0.00    +0.125 C 
BRANCH  23  24
ATOM     24  C   LIG    1       25.793 -27.323   6.351  0.00  0.00    +0.046 C 
BRANCH  24  25
ATOM     25  C   LIG    1       25.255 -25.925   6.513  0.00  0.00    -0.047 A 
ATOM     26  C   LIG    1       23.903 -25.653   6.264  0.00  0.00    +0.003 A 
ATOM     27  C   LIG    1       23.404 -24.359   6.408  0.00  0.00    +0.000 A 
ATOM     28  C   LIG    1       24.250 -23.325   6.809  0.00  0.00    +0.000 A 
ATOM     29  C   LIG    1       25.594 -23.586   7.067  0.00  0.00    +0.000 A 
ATOM     30  C   LIG    1       26.095 -24.881   6.923  0.00  0.00    +0.003 A 
ENDBRANCH  24  25
ENDBRANCH  23  24
ENDBRANCH  21  23
ENDBRANCH  20  21
ENDBRANCH   3  20
TORSDOF 5
ENDMDL
MODEL 4
REMARK VINA RESULT:      -7.4      3.664      7.124
REMARK  Name = *****
REMARK                            x       y       z     vdW  Elec       q    Type
REMARK                         _______ _______ _______ _____ _____    ______ ____
ROOT
ATOM      1  C   LIG    1       28.113 -29.428  11.615  0.00  0.00    +0.015 C 
ATOM      2  C   LIG    1       26.825 -28.571  11.614  0.00  0.00    +0.008 C 
ATOM      3  C   LIG    1       26.854 -27.686  12.889  0.00  0.00    +0.183 C 
ATOM      4  C   LIG    1       26.397 -28.659  14.006  0.00  0.00    +0.045 C 
ATOM      5  C   LIG    1       25.599 -29.783  13.312  0.00  0.00    +0.008 C 
ATOM      6  C   LIG    1       25.494 -29.317  11.866  0.00  0.00    +0.002 C 
ATOM      7  C   LIG    1       25.025 -30.287  10.778  0.00  0.00    -0.003 C 
ATOM      8  C   LIG    1       24.949 -29.513   9.426  0.00  0.00    -0.000 C 
ATOM      9  C   LIG    1       24.430 -30.442   8.284  0.00  0.00    +0.019 C 
ATOM     10  C   LIG    1       25.177 -31.761   8.238  0.00  0.00    -0.063 C 
ATOM     11  C   LIG    1       25.285 -32.488   9.554  0.00  0.00    +0.031 C 
ATOM     12  C   LIG    1       25.646 -32.310   7.105  0.00  0.00    +0.045 C 
ATOM     13  C   LIG    1       25.305 -31.717   5.790  0.00  0.00    +0.156 C 
ATOM     14  O   LIG    1       25.846 -32.137   4.772  0.00  0.00    -0.293 OA
ATOM     15  C   LIG    1       24.195 -30.694   5.763  0.00  0.00    +0.079 C 
ATOM     16  C   LIG    1       24.377 -29.724   6.919  0.00  0.00    +0.016 C 
ATOM     17  C   LIG    1       26.275 -28.766   9.126  0.00  0.00    +0.005 C 
ATOM     18  C   LIG    1       25.822 -31.593  10.665  0.00  0.00    +0.008 C 
ATOM     19  C   LIG    1       26.713 -27.831  10.273  0.00  0.00    +0.011 C 
ENDROOT
BRANCH   3  20
ATOM     20  O   LIG    1       25.891 -26.621  12.750  0.00  0.00    -0.461 OA
BRANCH  20  21
ATOM     21  C   LIG    1       26.143 -25.485  13.449  0.00  0.00    +0.308 C 
ATOM     22  O   LIG    1       27.249 -24.980  13.597  0.00  0.00    -0.251 OA
BRANCH  21  23
ATOM     23  C   LIG    1       24.856 -24.929  13.999  0.00  0.00    +0.125 C 
BRANCH  23  24
ATOM     24  C   LIG    1       24.228 -25.931  14.962  0.00  0.00    +0.046 C 
BRANCH  24  25
ATOM     25  C   LIG    1       22.816 -26.287  14.573  0.00  0.00    -0.047 A 
ATOM     26  C   LIG    1       21.773 -26.153  15.498  0.00  0.00    +0.003 A 
ATOM     27  C   LIG    1       20.466 -26.487  15.142  0.00  0.00    +0.000 A 
ATOM     28  C   LIG    1       20.189 -26.951  13.857  0.00  0.00    +0.000 A 
ATOM     29  C   LIG    1       21.219 -27.080  12.927  0.00  0.00    +0.000 A 
ATOM     30  C   LIG    1       22.527 -26.746  13.282  0.00  0.00    +0.003 A 
ENDBRANCH  24  25
ENDBRANCH  23  24
ENDBRANCH  21  23
ENDBRANCH  20  21
ENDBRANCH   3  20
TORSDOF 5
ENDMDL
MODEL 5
REMARK VINA RESULT:      -7.3      1.794      2.298
REMARK  Name = *****
REMARK                            x       y       z     vdW  Elec       q    Type
REMARK                         _______ _______ _______ _____ _____    ______ ____
ROOT
ATOM      1  C   LIG    1       25.196 -32.414  10.114  0.00  0.00    +0.015 C 
ATOM      2  C   LIG    1       24.480 -31.332   9.272  0.00  0.00    +0.008 C 
ATOM      3  C   LIG    1       25.514 -30.774   8.257  0.00  0.00    +0.183 C 
ATOM      4  C   LIG    1       26.351 -29.786   9.109  0.00  0.00    +0.045 C 
ATOM      5  C   LIG    1       25.465 -29.379  10.306  0.00  0.00    +0.008 C 
ATOM      6  C   LIG    1       24.117 -30.016   9.997  0.00  0.00    +0.002 C 
ATOM      7  C   LIG    1       23.037 -30.095  11.080  0.00  0.00    -0.003 C 
ATOM      8  C   LIG    1       21.755 -30.724  10.453  0.00  0.00    -0.000 C 
ATOM      9  C   LIG    1       20.601 -30.789  11.502  0.00  0.00    +0.019 C 
ATOM     10  C   LIG    1       21.054 -31.402  12.813  0.00  0.00    -0.063 C 
ATOM     11  C   LIG    1       22.317 -30.820  13.396  0.00  0.00    +0.031 C 
ATOM     12  C   LIG    1       20.356 -32.339  13.475  0.00  0.00    +0.045 C 
ATOM     13  C   LIG    1       18.992 -32.712  13.027  0.00  0.00    +0.156 C 
ATOM     14  O   LIG    1       18.416 -33.662  13.549  0.00  0.00    -0.293 OA
ATOM     15  C   LIG    1       18.326 -31.805  12.021  0.00  0.00    +0.079 C 
ATOM     16  C   LIG    1       19.324 -31.442  10.933  0.00  0.00    +0.016 C 
ATOM     17  C   LIG    1       22.075 -32.060   9.733  0.00  0.00    +0.005 C 
ATOM     18  C   LIG    1       23.455 -30.785  12.384  0.00  0.00    +0.008 C 
ATOM     19  C   LIG    1       23.194 -31.924   8.679  0.00  0.00    +0.011 C 
ENDROOT
BRANCH   3  20
ATOM     20  O   LIG    1       24.819 -30.052   7.220  0.00  0.00    -0.461 OA
BRANCH  20  21
ATOM     21  C   LIG    1       25.355 -30.118   5.975  0.00  0.00    +0.308 C 
ATOM     22  O   LIG    1       25.734 -31.146   5.424  0.00  0.00    -0.251 OA
BRANCH  21  23
ATOM     23  C   LIG    1       25.398 -28.743   5.363  0.00  0.00    +0.125 C 
BRANCH  23  24
ATOM     24  C   LIG    1       24.206 -27.924   5.847  0.00  0.00    +0.046 C 
BRANCH  24  25
ATOM     25  C   LIG    1       24.591 -26.509   6.195  0.00  0.00    -0.047 A 
ATOM     26  C   LIG    1       23.619 -25.500   6.229  0.00  0.00    +0.003 A 
ATOM     27  C   LIG    1       23.974 -24.188   6.546  0.00  0.00    +0.000 A 
ATOM     28  C   LIG    1       25.300 -23.875   6.837  0.00  0.00    +0.000 A 
ATOM     29  C   LIG    1       26.273 -24.873   6.814  0.00  0.00    +0.000 A 
ATOM     30  C   LIG    1       25.919 -26.185   6.498  0.00  0.00    +0.003 A 
ENDBRANCH  24  25
ENDBRANCH  23  24
ENDBRANCH  21  23
ENDBRANCH  20  21
ENDBRANCH   3  20
TORSDOF 5
ENDMDL
MODEL 6
REMARK VINA RESULT:      -7.3      2.646      7.383
REMARK  Name = *****
REMARK                            x       y       z     vdW  Elec       q    Type
REMARK                         _______ _______ _______ _____ _____    ______ ____
ROOT
ATOM      1  C   LIG    1       26.266 -32.775   9.346  0.00  0.00    +0.015 C 
ATOM      2  C   LIG    1       25.531 -31.733  10.221  0.00  0.00    +0.008 C 
ATOM      3  C   LIG    1       25.159 -32.429  11.558  0.00  0.00    +0.183 C 
ATOM      4  C   LIG    1       23.896 -33.250  11.192  0.00  0.00    +0.045 C 
ATOM      5  C   LIG    1       23.279 -32.577   9.947  0.00  0.00    +0.008 C 
ATOM      6  C   LIG    1       24.114 -31.316   9.762  0.00  0.00    +0.002 C 
ATOM      7  C   LIG    1       24.014 -30.512   8.463  0.00  0.00    -0.003 C 
ATOM      8  C   LIG    1       24.920 -29.249   8.594  0.00  0.00    -0.000 C 
ATOM      9  C   LIG    1       24.823 -28.363   7.313  0.00  0.00    +0.019 C 
ATOM     10  C   LIG    1       25.011 -29.171   6.043  0.00  0.00    -0.063 C 
ATOM     11  C   LIG    1       24.164 -30.414   5.938  0.00  0.00    +0.031 C 
ATOM     12  C   LIG    1       25.805 -28.788   5.030  0.00  0.00    +0.045 C 
ATOM     13  C   LIG    1       26.426 -27.442   5.034  0.00  0.00    +0.156 C 
ATOM     14  O   LIG    1       27.257 -27.150   4.179  0.00  0.00    -0.293 OA
ATOM     15  C   LIG    1       25.897 -26.442   6.034  0.00  0.00    +0.079 C 
ATOM     16  C   LIG    1       25.735 -27.121   7.385  0.00  0.00    +0.016 C 
ATOM     17  C   LIG    1       26.358 -29.628   9.033  0.00  0.00    +0.005 C 
ATOM     18  C   LIG    1       24.282 -31.298   7.174  0.00  0.00    +0.008 C 
ATOM     19  C   LIG    1       26.392 -30.467  10.328  0.00  0.00    +0.011 C 
ENDROOT
BRANCH   3  20
ATOM     20  O   LIG    1       24.818 -31.426  12.536  0.00  0.00    -0.461 OA
BRANCH  20  21
ATOM     21  C   LIG    1       25.800 -31.073  13.405  0.00  0.00    +0.308 C 
ATOM     22  O   LIG    1       26.823 -31.715  13.611  0.00  0.00    -0.251 OA
BRANCH  21  23
ATOM     23  C   LIG    1       25.453 -29.763  14.063  0.00  0.00    +0.125 C 
BRANCH  23  24
ATOM     24  C   LIG    1       25.267 -28.684  13.002  0.00  0.00    +0.046 C 
BRANCH  24  25
ATOM     25  C   LIG    1       23.881 -28.094  13.026  0.00  0.00    -0.047 A 
ATOM     26  C   LIG    1       22.777 -28.865  12.639  0.00  0.00    +0.003 A 
ATOM     27  C   LIG    1       21.493 -28.320  12.656  0.00  0.00    +0.000 A 
ATOM     28  C   LIG    1       21.300 -27.001  13.065  0.00  0.00    +0.000 A 
ATOM     29  C   LIG    1       22.390 -26.228  13.460  0.00  0.00    +0.000 A 
ATOM     30  C   LIG    1       23.675 -26.773  13.444  0.00  0.00    +0.003 A 
ENDBRANCH  24  25
ENDBRANCH  23  24
ENDBRANCH  21  23
ENDBRANCH  20  21
ENDBRANCH   3  20
TORSDOF 5
ENDMDL
MODEL 7
REMARK VINA RESULT:      -7.0      2.930      8.430
REMARK  Name = *****
REMARK                            x       y       z     vdW  Elec       q    Type
REMARK                         _______ _______ _______ _____ _____    ______ ____
ROOT
ATOM      1  C   LIG    1       26.669 -27.173   4.992  0.00  0.00    +0.015 C 
ATOM      2  C   LIG    1       25.661 -27.306   6.159  0.00  0.00    +0.008 C 
ATOM      3  C   LIG    1       25.258 -28.803   6.255  0.00  0.00    +0.183 C 
ATOM      4  C   LIG    1       24.213 -28.962   5.122  0.00  0.00    +0.045 C 
ATOM      5  C   LIG    1       23.643 -27.554   4.848  0.00  0.00    +0.008 C 
ATOM      6  C   LIG    1       24.260 -26.691   5.940  0.00  0.00    +0.002 C 
ATOM      7  C   LIG    1       24.178 -25.165   5.852  0.00  0.00    -0.003 C 
ATOM      8  C   LIG    1       24.826 -24.561   7.136  0.00  0.00    -0.000 C 
ATOM      9  C   LIG    1       24.731 -23.003   7.124  0.00  0.00    +0.019 C 
ATOM     10  C   LIG    1       25.210 -22.411   5.812  0.00  0.00    -0.063 C 
ATOM     11  C   LIG    1       24.614 -23.025   4.571  0.00  0.00    +0.031 C 
ATOM     12  C   LIG    1       26.042 -21.359   5.732  0.00  0.00    +0.045 C 
ATOM     13  C   LIG    1       26.412 -20.604   6.953  0.00  0.00    +0.156 C 
ATOM     14  O   LIG    1       27.276 -19.734   6.894  0.00  0.00    -0.293 OA
ATOM     15  C   LIG    1       25.598 -20.865   8.197  0.00  0.00    +0.079 C 
ATOM     16  C   LIG    1       25.396 -22.363   8.360  0.00  0.00    +0.016 C 
ATOM     17  C   LIG    1       26.244 -25.139   7.379  0.00  0.00    +0.005 C 
ATOM     18  C   LIG    1       24.734 -24.544   4.564  0.00  0.00    +0.008 C 
ATOM     19  C   LIG    1       26.268 -26.681   7.423  0.00  0.00    +0.011 C 
ENDROOT
BRANCH   3  20
ATOM     20  O   LIG    1       24.631 -29.044   7.531  0.00  0.00    -0.461 OA
BRANCH  20  21
ATOM     21  C   LIG    1       24.560 -30.338   7.933  0.00  0.00    +0.308 C 
ATOM     22  O   LIG    1       23.534 -31.007   7.976  0.00  0.00    -0.251 OA
BRANCH  21  23
ATOM     23  C   LIG    1       25.933 -30.836   8.300  0.00  0.00    +0.125 C 
BRANCH  23  24
ATOM     24  C   LIG    1       25.981 -31.174   9.787  0.00  0.00    +0.046 C 
BRANCH  24  25
ATOM     25  C   LIG    1       25.990 -29.940  10.651  0.00  0.00    -0.047 A 
ATOM     26  C   LIG    1       26.990 -28.971  10.491  0.00  0.00    +0.003 A 
ATOM     27  C   LIG    1       27.003 -27.830  11.293  0.00  0.00    +0.000 A 
ATOM     28  C   LIG    1       26.014 -27.644  12.259  0.00  0.00    +0.000 A 
ATOM     29  C   LIG    1       25.011 -28.598  12.420  0.00  0.00    +0.000 A 
ATOM     30  C   LIG    1       24.997 -29.740  11.618  0.00  0.00    +0.003 A 
ENDBRANCH  24  25
ENDBRANCH  23  24
ENDBRANCH  21  23
ENDBRANCH  20  21
ENDBRANCH   3  20
TORSDOF 5
ENDMDL
MODEL 8
REMARK VINA RESULT:      -6.9      1.964      2.753
REMARK  Name = *****
REMARK                            x       y       z     vdW  Elec       q    Type
REMARK                         _______ _______ _______ _____ _____    ______ ____
ROOT
ATOM      1  C   LIG    1       22.251 -32.673  11.743  0.00  0.00    +0.015 C 
ATOM      2  C   LIG    1       22.873 -31.484  10.974  0.00  0.00    +0.008 C 
ATOM      3  C   LIG    1       23.852 -32.073   9.921  0.00  0.00    +0.183 C 
ATOM      4  C   LIG    1       25.116 -32.402  10.757  0.00  0.00    +0.045 C 
ATOM      5  C   LIG    1       25.059 -31.505  12.012  0.00  0.00    +0.008 C 
ATOM      6  C   LIG    1       23.865 -30.593  11.756  0.00  0.00    +0.002 C 
ATOM      7  C   LIG    1       23.289 -29.745  12.893  0.00  0.00    -0.003 C 
ATOM      8  C   LIG    1       22.133 -28.870  12.318  0.00  0.00    -0.000 C 
ATOM      9  C   LIG    1       21.535 -27.946  13.425  0.00  0.00    +0.019 C 
ATOM     10  C   LIG    1       21.203 -28.713  14.691  0.00  0.00    -0.063 C 
ATOM     11  C   LIG    1       22.308 -29.591  15.222  0.00  0.00    +0.031 C 
ATOM     12  C   LIG    1       20.047 -28.576  15.361  0.00  0.00    +0.045 C 
ATOM     13  C   LIG    1       19.081 -27.520  14.976  0.00  0.00    +0.156 C 
ATOM     14  O   LIG    1       17.971 -27.488  15.500  0.00  0.00    -0.293 OA
ATOM     15  C   LIG    1       19.571 -26.447  14.035  0.00  0.00    +0.079 C 
ATOM     16  C   LIG    1       20.361 -27.090  12.907  0.00  0.00    +0.016 C 
ATOM     17  C   LIG    1       21.104 -29.731  11.542  0.00  0.00    +0.005 C 
ATOM     18  C   LIG    1       22.873 -30.517  14.152  0.00  0.00    +0.008 C 
ATOM     19  C   LIG    1       21.749 -30.589  10.433  0.00  0.00    +0.011 C 
ENDROOT
BRANCH   3  20
ATOM     20  O   LIG    1       24.166 -31.059   8.946  0.00  0.00    -0.461 OA
BRANCH  20  21
ATOM     21  C   LIG    1       24.066 -31.424   7.643  0.00  0.00    +0.308 C 
ATOM     22  O   LIG    1       23.472 -32.414   7.232  0.00  0.00    -0.251 OA
BRANCH  21  23
ATOM     23  C   LIG    1       24.778 -30.419   6.775  0.00  0.00    +0.125 C 
BRANCH  23  24
ATOM     24  C   LIG    1       25.270 -29.255   7.628  0.00  0.00    +0.046 C 
BRANCH  24  25
ATOM     25  C   LIG    1       25.235 -27.947   6.880  0.00  0.00    -0.047 A 
ATOM     26  C   LIG    1       24.257 -27.716   5.904  0.00  0.00    +0.003 A 
ATOM     27  C   LIG    1       24.225 -26.508   5.207  0.00  0.00    +0.000 A 
ATOM     28  C   LIG    1       25.167 -25.518   5.483  0.00  0.00    +0.000 A 
ATOM     29  C   LIG    1       26.139 -25.735   6.458  0.00  0.00    +0.000 A 
ATOM     30  C   LIG    1       26.172 -26.943   7.157  0.00  0.00    +0.003 A 
ENDBRANCH  24  25
ENDBRANCH  23  24
ENDBRANCH  21  23
ENDBRANCH  20  21
ENDBRANCH   3  20
TORSDOF 5
ENDMDL
MODEL 9
REMARK VINA RESULT:      -6.8      2.879      3.803
REMARK  Name = *****
REMARK                            x       y       z     vdW  Elec       q    Type
REMARK                         _______ _______ _______ _____ _____    ______ ____
ROOT
ATOM      1  C   LIG    1       23.196 -31.236   9.501  0.00  0.00    +0.015 C 
ATOM      2  C   LIG    1       24.564 -30.893   8.864  0.00  0.00    +0.008 C 
ATOM      3  C   LIG    1       24.591 -31.534   7.450  0.00  0.00    +0.183 C 
ATOM      4  C   LIG    1       24.920 -33.020   7.741  0.00  0.00    +0.045 C 
ATOM      5  C   LIG    1       25.618 -33.056   9.118  0.00  0.00    +0.008 C 
ATOM      6  C   LIG    1       25.806 -31.585   9.470  0.00  0.00    +0.002 C 
ATOM      7  C   LIG    1       26.202 -31.181  10.892  0.00  0.00    -0.003 C 
ATOM      8  C   LIG    1       26.390 -29.633  10.931  0.00  0.00    -0.000 C 
ATOM      9  C   LIG    1       26.840 -29.164  12.350  0.00  0.00    +0.019 C 
ATOM     10  C   LIG    1       25.966 -29.742  13.447  0.00  0.00    -0.063 C 
ATOM     11  C   LIG    1       25.752 -31.234  13.384  0.00  0.00    +0.031 C 
ATOM     12  C   LIG    1       25.473 -29.016  14.463  0.00  0.00    +0.045 C 
ATOM     13  C   LIG    1       25.905 -27.611  14.657  0.00  0.00    +0.156 C 
ATOM     14  O   LIG    1       25.350 -26.912  15.500  0.00  0.00    -0.293 OA
ATOM     15  C   LIG    1       27.112 -27.148  13.878  0.00  0.00    +0.079 C 
ATOM     16  C   LIG    1       27.000 -27.633  12.442  0.00  0.00    +0.016 C 
ATOM     17  C   LIG    1       25.153 -28.899  10.350  0.00  0.00    +0.005 C 
ATOM     18  C   LIG    1       25.281 -31.690  12.008  0.00  0.00    +0.008 C 
ATOM     19  C   LIG    1       24.783 -29.374   8.929  0.00  0.00    +0.011 C 
ENDROOT
BRANCH   3  20
ATOM     20  O   LIG    1       25.660 -30.942   6.683  0.00  0.00    -0.461 OA
BRANCH  20  21
ATOM     21  C   LIG    1       25.368 -30.611   5.399  0.00  0.00    +0.308 C 
ATOM     22  O   LIG    1       25.574 -31.324   4.424  0.00  0.00    -0.251 OA
BRANCH  21  23
ATOM     23  C   LIG    1       24.736 -29.245   5.355  0.00  0.00    +0.125 C 
BRANCH  23  24
ATOM     24  C   LIG    1       25.807 -28.187   5.112  0.00  0.00    +0.046 C 
BRANCH  24  25
ATOM     25  C   LIG    1       25.422 -26.846   5.682  0.00  0.00    -0.047 A 
ATOM     26  C   LIG    1       24.093 -26.407   5.622  0.00  0.00    +0.003 A 
ATOM     27  C   LIG    1       23.735 -25.164   6.145  0.00  0.00    +0.000 A 
ATOM     28  C   LIG    1       24.701 -24.352   6.738  0.00  0.00    +0.000 A 
ATOM     29  C   LIG    1       26.024 -24.783   6.810  0.00  0.00    +0.000 A 
ATOM     30  C   LIG    1       26.383 -26.027   6.287  0.00  0.00    +0.003 A 
ENDBRANCH  24  25
ENDBRANCH  23  24
ENDBRANCH  21  23
ENDBRANCH  20  21
ENDBRANCH   3  20
TORSDOF 5
ENDMDL
