MODEL 1
REMARK VINA RESULT:      -5.3      0.000      0.000
REMARK  Name = *****
REMARK                            x       y       z     vdW  Elec       q    Type
REMARK                         _______ _______ _______ _____ _____    ______ ____
ROOT
ATOM      1  C   LIG    1       26.808 -19.564   5.142  0.00  0.00    +0.131 A 
ATOM      2  C   LIG    1       27.454 -18.404   4.682  0.00  0.00    +0.059 A 
ATOM      3  C   LIG    1       28.792 -18.161   5.045  0.00  0.00    +0.015 A 
ATOM      4  C   LIG    1       29.475 -19.027   5.882  0.00  0.00    +0.001 A 
ATOM      5  C   LIG    1       28.832 -20.162   6.364  0.00  0.00    +0.004 A 
ATOM      6  C   LIG    1       27.513 -20.434   5.991  0.00  0.00    +0.046 A 
ENDROOT
BRANCH   2   7
ATOM      7  C   LIG    1       26.833 -17.350   3.824  0.00  0.00    +0.167 C 
ATOM      8  O   LIG    1       26.103 -17.736   2.909  0.00  0.00    -0.292 OA
BRANCH   7   9
ATOM      9  C   LIG    1       27.237 -15.892   3.984  0.00  0.00    +0.084 C 
BRANCH   9  10
ATOM     10  C   LIG    1       26.844 -14.989   2.806  0.00  0.00    +0.043 C 
BRANCH  10  11
ATOM     11  C   LIG    1       25.777 -13.969   3.141  0.00  0.00    -0.047 A 
ATOM     12  C   LIG    1       25.361 -13.794   4.468  0.00  0.00    +0.003 A 
ATOM     13  C   LIG    1       24.406 -12.834   4.801  0.00  0.00    +0.000 A 
ATOM     14  C   LIG    1       23.836 -12.053   3.802  0.00  0.00    +0.000 A 
ATOM     15  C   LIG    1       24.228 -12.226   2.475  0.00  0.00    +0.000 A 
ATOM     16  C   LIG    1       25.200 -13.174   2.145  0.00  0.00    +0.003 A 
ENDBRANCH  10  11
ENDBRANCH   9  10
ENDBRANCH   7   9
ENDBRANCH   2   7
BRANCH   1  17
ATOM     17  O   LIG    1       25.530 -19.799   4.720  0.00  0.00    -0.489 OA
BRANCH  17  18
ATOM     18  C   LIG    1       25.071 -21.154   4.647  0.00  0.00    +0.261 C 
BRANCH  18  19
ATOM     19  C   LIG    1       23.875 -21.322   5.599  0.00  0.00    +0.166 C 
BRANCH  19  20
ATOM     20  O   LIG    1       24.184 -20.748   6.877  0.00  0.00    -0.387 OA
ATOM     21  H   LIG    1       23.332 -20.616   7.331  0.00  0.00    +0.210 HD
ENDBRANCH  19  20
BRANCH  19  22
ATOM     22  C   LIG    1       22.588 -20.677   5.046  0.00  0.00    +0.115 C 
BRANCH  22  23
ATOM     23  N   LIG    1       22.520 -19.255   5.391  0.00  0.00    -0.313 NA
ATOM     24  H   LIG    1       23.424 -18.941   5.745  0.00  0.00    +0.122 HD
BRANCH  23  25
ATOM     25  C   LIG    1       22.143 -18.441   4.237  0.00  0.00    +0.081 C 
BRANCH  25  27
ATOM     26  C   LIG    1       22.287 -16.038   4.998  0.00  0.00    +0.005 C 
ATOM     27  C   LIG    1       22.977 -17.159   4.237  0.00  0.00    +0.012 C 
ENDBRANCH  25  27
ENDBRANCH  23  25
ENDBRANCH  22  23
ENDBRANCH  19  22
ENDBRANCH  18  19
ENDBRANCH  17  18
ENDBRANCH   1  17
TORSDOF 12
ENDMDL
MODEL 2
REMARK VINA RESULT:      -4.4      1.886      4.521
REMARK  Name = *****
REMARK                            x       y       z     vdW  Elec       q    Type
REMARK                         _______ _______ _______ _____ _____    ______ ____
ROOT
ATOM      1  C   LIG    1       24.042 -19.400   4.226  0.00  0.00    +0.131 A 
ATOM      2  C   LIG    1       23.474 -18.125   4.059  0.00  0.00    +0.059 A 
ATOM      3  C   LIG    1       22.074 -17.977   4.096  0.00  0.00    +0.015 A 
ATOM      4  C   LIG    1       21.242 -19.071   4.254  0.00  0.00    +0.001 A 
ATOM      5  C   LIG    1       21.798 -20.339   4.390  0.00  0.00    +0.004 A 
ATOM      6  C   LIG    1       23.186 -20.501   4.385  0.00  0.00    +0.046 A 
ENDROOT
BRANCH   2   7
ATOM      7  C   LIG    1       24.236 -16.862   3.822  0.00  0.00    +0.167 C 
ATOM      8  O   LIG    1       25.353 -16.972   3.316  0.00  0.00    -0.292 OA
BRANCH   7   9
ATOM      9  C   LIG    1       23.708 -15.536   4.352  0.00  0.00    +0.084 C 
BRANCH   9  10
ATOM     10  C   LIG    1       24.150 -14.307   3.544  0.00  0.00    +0.043 C 
BRANCH  10  11
ATOM     11  C   LIG    1       25.592 -13.907   3.773  0.00  0.00    -0.047 A 
ATOM     12  C   LIG    1       26.061 -13.669   5.073  0.00  0.00    +0.003 A 
ATOM     13  C   LIG    1       27.394 -13.335   5.305  0.00  0.00    +0.000 A 
ATOM     14  C   LIG    1       28.271 -13.210   4.235  0.00  0.00    +0.000 A 
ATOM     15  C   LIG    1       27.817 -13.428   2.934  0.00  0.00    +0.000 A 
ATOM     16  C   LIG    1       26.485 -13.783   2.703  0.00  0.00    +0.003 A 
ENDBRANCH  10  11
ENDBRANCH   9  10
ENDBRANCH   7   9
ENDBRANCH   2   7
BRANCH   1  17
ATOM     17  O   LIG    1       25.405 -19.498   4.246  0.00  0.00    -0.489 OA
BRANCH  17  18
ATOM     18  C   LIG    1       25.998 -20.677   4.804  0.00  0.00    +0.261 C 
BRANCH  18  19
ATOM     19  C   LIG    1       26.264 -20.436   6.299  0.00  0.00    +0.166 C 
BRANCH  19  20
ATOM     20  O   LIG    1       25.095 -20.766   7.062  0.00  0.00    -0.387 OA
ATOM     21  H   LIG    1       25.413 -21.102   7.919  0.00  0.00    +0.210 HD
ENDBRANCH  19  20
BRANCH  19  22
ATOM     22  C   LIG    1       27.463 -21.252   6.822  0.00  0.00    +0.115 C 
BRANCH  22  23
ATOM     23  N   LIG    1       28.726 -20.732   6.291  0.00  0.00    -0.313 NA
ATOM     24  H   LIG    1       28.776 -20.904   5.286  0.00  0.00    +0.122 HD
BRANCH  23  25
ATOM     25  C   LIG    1       28.865 -19.299   6.545  0.00  0.00    +0.081 C 
BRANCH  25  27
ATOM     26  C   LIG    1       28.635 -17.430   4.864  0.00  0.00    +0.005 C 
ATOM     27  C   LIG    1       29.460 -18.628   5.305  0.00  0.00    +0.012 C 
ENDBRANCH  25  27
ENDBRANCH  23  25
ENDBRANCH  22  23
ENDBRANCH  19  22
ENDBRANCH  18  19
ENDBRANCH  17  18
ENDBRANCH   1  17
TORSDOF 12
ENDMDL
MODEL 3
REMARK VINA RESULT:      -4.2      1.892      3.037
REMARK  Name = *****
REMARK                            x       y       z     vdW  Elec       q    Type
REMARK                         _______ _______ _______ _____ _____    ______ ____
ROOT
ATOM      1  C   LIG    1       24.842 -20.419   5.251  0.00  0.00    +0.131 A 
ATOM      2  C   LIG    1       25.960 -19.684   4.820  0.00  0.00    +0.059 A 
ATOM      3  C   LIG    1       27.197 -19.853   5.469  0.00  0.00    +0.015 A 
ATOM      4  C   LIG    1       27.326 -20.702   6.555  0.00  0.00    +0.001 A 
ATOM      5  C   LIG    1       26.216 -21.409   7.005  0.00  0.00    +0.004 A 
ATOM      6  C   LIG    1       24.987 -21.276   6.354  0.00  0.00    +0.046 A 
ENDROOT
BRANCH   2   7
ATOM      7  C   LIG    1       25.964 -18.690   3.704  0.00  0.00    +0.167 C 
ATOM      8  O   LIG    1       25.304 -18.973   2.703  0.00  0.00    -0.292 OA
BRANCH   7   9
ATOM      9  C   LIG    1       26.887 -17.481   3.757  0.00  0.00    +0.084 C 
BRANCH   9  10
ATOM     10  C   LIG    1       26.266 -16.183   3.220  0.00  0.00    +0.043 C 
BRANCH  10  11
ATOM     11  C   LIG    1       26.947 -14.925   3.713  0.00  0.00    -0.047 A 
ATOM     12  C   LIG    1       26.800 -14.519   5.047  0.00  0.00    +0.003 A 
ATOM     13  C   LIG    1       27.450 -13.384   5.529  0.00  0.00    +0.000 A 
ATOM     14  C   LIG    1       28.236 -12.623   4.672  0.00  0.00    +0.000 A 
ATOM     15  C   LIG    1       28.381 -13.004   3.338  0.00  0.00    +0.000 A 
ATOM     16  C   LIG    1       27.746 -14.154   2.861  0.00  0.00    +0.003 A 
ENDBRANCH  10  11
ENDBRANCH   9  10
ENDBRANCH   7   9
ENDBRANCH   2   7
BRANCH   1  17
ATOM     17  O   LIG    1       23.673 -20.276   4.559  0.00  0.00    -0.489 OA
BRANCH  17  18
ATOM     18  C   LIG    1       22.612 -19.521   5.155  0.00  0.00    +0.261 C 
BRANCH  18  19
ATOM     19  C   LIG    1       22.210 -18.390   4.192  0.00  0.00    +0.166 C 
BRANCH  19  20
ATOM     20  O   LIG    1       20.882 -18.618   3.700  0.00  0.00    -0.387 OA
ATOM     21  H   LIG    1       20.278 -18.196   4.337  0.00  0.00    +0.210 HD
ENDBRANCH  19  20
BRANCH  19  22
ATOM     22  C   LIG    1       22.279 -17.001   4.856  0.00  0.00    +0.115 C 
BRANCH  22  23
ATOM     23  N   LIG    1       23.241 -16.135   4.170  0.00  0.00    -0.313 NA
ATOM     24  H   LIG    1       23.079 -16.168   3.163  0.00  0.00    +0.122 HD
BRANCH  23  25
ATOM     25  C   LIG    1       23.143 -14.752   4.632  0.00  0.00    +0.081 C 
BRANCH  25  27
ATOM     26  C   LIG    1       24.085 -12.486   4.043  0.00  0.00    +0.005 C 
ATOM     27  C   LIG    1       23.586 -13.817   3.505  0.00  0.00    +0.012 C 
ENDBRANCH  25  27
ENDBRANCH  23  25
ENDBRANCH  22  23
ENDBRANCH  19  22
ENDBRANCH  18  19
ENDBRANCH  17  18
ENDBRANCH   1  17
TORSDOF 12
ENDMDL
MODEL 4
REMARK VINA RESULT:      -4.2      1.453      2.184
REMARK  Name = *****
REMARK                            x       y       z     vdW  Elec       q    Type
REMARK                         _______ _______ _______ _____ _____    ______ ____
ROOT
ATOM      1  C   LIG    1       26.100 -20.862   5.598  0.00  0.00    +0.131 A 
ATOM      2  C   LIG    1       26.491 -19.770   4.804  0.00  0.00    +0.059 A 
ATOM      3  C   LIG    1       27.658 -19.054   5.131  0.00  0.00    +0.015 A 
ATOM      4  C   LIG    1       28.408 -19.380   6.247  0.00  0.00    +0.001 A 
ATOM      5  C   LIG    1       28.010 -20.441   7.054  0.00  0.00    +0.004 A 
ATOM      6  C   LIG    1       26.870 -21.181   6.728  0.00  0.00    +0.046 A 
ENDROOT
BRANCH   2   7
ATOM      7  C   LIG    1       25.755 -19.263   3.607  0.00  0.00    +0.167 C 
ATOM      8  O   LIG    1       25.277 -20.108   2.847  0.00  0.00    -0.292 OA
BRANCH   7   9
ATOM      9  C   LIG    1       25.762 -17.778   3.273  0.00  0.00    +0.084 C 
BRANCH   9  10
ATOM     10  C   LIG    1       27.080 -17.060   3.595  0.00  0.00    +0.043 C 
BRANCH  10  11
ATOM     11  C   LIG    1       26.987 -15.550   3.543  0.00  0.00    -0.047 A 
ATOM     12  C   LIG    1       26.089 -14.928   2.664  0.00  0.00    +0.003 A 
ATOM     13  C   LIG    1       25.963 -13.541   2.629  0.00  0.00    +0.000 A 
ATOM     14  C   LIG    1       26.756 -12.754   3.457  0.00  0.00    +0.000 A 
ATOM     15  C   LIG    1       27.665 -13.357   4.325  0.00  0.00    +0.000 A 
ATOM     16  C   LIG    1       27.776 -14.749   4.375  0.00  0.00    +0.003 A 
ENDBRANCH  10  11
ENDBRANCH   9  10
ENDBRANCH   7   9
ENDBRANCH   2   7
BRANCH   1  17
ATOM     17  O   LIG    1       24.997 -21.572   5.216  0.00  0.00    -0.489 OA
BRANCH  17  18
ATOM     18  C   LIG    1       23.786 -21.413   5.966  0.00  0.00    +0.261 C 
BRANCH  18  19
ATOM     19  C   LIG    1       22.722 -20.778   5.055  0.00  0.00    +0.166 C 
BRANCH  19  20
ATOM     20  O   LIG    1       21.519 -21.558   5.092  0.00  0.00    -0.387 OA
ATOM     21  H   LIG    1       21.797 -22.491   5.054  0.00  0.00    +0.210 HD
ENDBRANCH  19  20
BRANCH  19  22
ATOM     22  C   LIG    1       22.402 -19.322   5.452  0.00  0.00    +0.115 C 
BRANCH  22  23
ATOM     23  N   LIG    1       21.728 -18.614   4.361  0.00  0.00    -0.313 NA
ATOM     24  H   LIG    1       20.804 -18.308   4.666  0.00  0.00    +0.122 HD
BRANCH  23  25
ATOM     25  C   LIG    1       22.500 -17.455   3.916  0.00  0.00    +0.081 C 
BRANCH  25  27
ATOM     26  C   LIG    1       23.228 -15.153   4.651  0.00  0.00    +0.005 C 
ATOM     27  C   LIG    1       22.239 -16.287   4.868  0.00  0.00    +0.012 C 
ENDBRANCH  25  27
ENDBRANCH  23  25
ENDBRANCH  22  23
ENDBRANCH  19  22
ENDBRANCH  18  19
ENDBRANCH  17  18
ENDBRANCH   1  17
TORSDOF 12
ENDMDL
MODEL 5
REMARK VINA RESULT:      -4.1      1.937      5.535
REMARK  Name = *****
REMARK                            x       y       z     vdW  Elec       q    Type
REMARK                         _______ _______ _______ _____ _____    ______ ____
ROOT
ATOM      1  C   LIG    1       27.738 -19.028   5.259  0.00  0.00    +0.131 A 
ATOM      2  C   LIG    1       27.040 -20.223   5.503  0.00  0.00    +0.059 A 
ATOM      3  C   LIG    1       27.556 -21.157   6.421  0.00  0.00    +0.015 A 
ATOM      4  C   LIG    1       28.763 -20.938   7.062  0.00  0.00    +0.001 A 
ATOM      5  C   LIG    1       29.474 -19.771   6.802  0.00  0.00    +0.004 A 
ATOM      6  C   LIG    1       28.962 -18.820   5.915  0.00  0.00    +0.046 A 
ENDROOT
BRANCH   2   7
ATOM      7  C   LIG    1       25.759 -20.626   4.847  0.00  0.00    +0.167 C 
ATOM      8  O   LIG    1       25.500 -20.104   3.762  0.00  0.00    -0.292 OA
BRANCH   7   9
ATOM      9  C   LIG    1       24.760 -21.503   5.588  0.00  0.00    +0.084 C 
BRANCH   9  10
ATOM     10  C   LIG    1       23.644 -20.731   6.306  0.00  0.00    +0.043 C 
BRANCH  10  11
ATOM     11  C   LIG    1       22.664 -20.054   5.372  0.00  0.00    -0.047 A 
ATOM     12  C   LIG    1       21.633 -20.794   4.774  0.00  0.00    +0.003 A 
ATOM     13  C   LIG    1       20.699 -20.181   3.940  0.00  0.00    +0.000 A 
ATOM     14  C   LIG    1       20.801 -18.821   3.673  0.00  0.00    +0.000 A 
ATOM     15  C   LIG    1       21.829 -18.074   4.248  0.00  0.00    +0.000 A 
ATOM     16  C   LIG    1       22.753 -18.685   5.100  0.00  0.00    +0.003 A 
ENDBRANCH  10  11
ENDBRANCH   9  10
ENDBRANCH   7   9
ENDBRANCH   2   7
BRANCH   1  17
ATOM     17  O   LIG    1       27.178 -18.118   4.409  0.00  0.00    -0.489 OA
BRANCH  17  18
ATOM     18  C   LIG    1       27.848 -16.868   4.204  0.00  0.00    +0.261 C 
BRANCH  18  19
ATOM     19  C   LIG    1       26.971 -15.979   3.306  0.00  0.00    +0.166 C 
BRANCH  19  20
ATOM     20  O   LIG    1       25.766 -16.675   2.959  0.00  0.00    -0.387 OA
ATOM     21  H   LIG    1       25.985 -17.624   2.971  0.00  0.00    +0.210 HD
ENDBRANCH  19  20
BRANCH  19  22
ATOM     22  C   LIG    1       26.614 -14.638   3.976  0.00  0.00    +0.115 C 
BRANCH  22  23
ATOM     23  N   LIG    1       26.731 -13.527   3.029  0.00  0.00    -0.313 NA
ATOM     24  H   LIG    1       27.340 -13.795   2.254  0.00  0.00    +0.122 HD
BRANCH  23  25
ATOM     25  C   LIG    1       25.426 -13.129   2.504  0.00  0.00    +0.081 C 
BRANCH  25  27
ATOM     26  C   LIG    1       24.016 -12.238   4.399  0.00  0.00    +0.005 C 
ATOM     27  C   LIG    1       24.352 -13.450   3.545  0.00  0.00    +0.012 C 
ENDBRANCH  25  27
ENDBRANCH  23  25
ENDBRANCH  22  23
ENDBRANCH  19  22
ENDBRANCH  18  19
ENDBRANCH  17  18
ENDBRANCH   1  17
TORSDOF 12
ENDMDL
MODEL 6
REMARK VINA RESULT:      -4.0      2.350      4.693
REMARK  Name = *****
REMARK                            x       y       z     vdW  Elec       q    Type
REMARK                         _______ _______ _______ _____ _____    ______ ____
ROOT
ATOM      1  C   LIG    1       24.265 -19.294   4.271  0.00  0.00    +0.131 A 
ATOM      2  C   LIG    1       23.007 -18.972   4.806  0.00  0.00    +0.059 A 
ATOM      3  C   LIG    1       22.458 -19.773   5.825  0.00  0.00    +0.015 A 
ATOM      4  C   LIG    1       23.118 -20.899   6.285  0.00  0.00    +0.001 A 
ATOM      5  C   LIG    1       24.351 -21.240   5.738  0.00  0.00    +0.004 A 
ATOM      6  C   LIG    1       24.924 -20.440   4.746  0.00  0.00    +0.046 A 
ENDROOT
BRANCH   2   7
ATOM      7  C   LIG    1       22.150 -17.826   4.374  0.00  0.00    +0.167 C 
ATOM      8  O   LIG    1       21.246 -18.076   3.577  0.00  0.00    -0.292 OA
BRANCH   7   9
ATOM      9  C   LIG    1       22.510 -16.404   4.779  0.00  0.00    +0.084 C 
BRANCH   9  10
ATOM     10  C   LIG    1       23.779 -15.854   4.111  0.00  0.00    +0.043 C 
BRANCH  10  11
ATOM     11  C   LIG    1       23.831 -14.343   4.038  0.00  0.00    -0.047 A 
ATOM     12  C   LIG    1       24.024 -13.702   2.806  0.00  0.00    +0.003 A 
ATOM     13  C   LIG    1       24.037 -12.312   2.714  0.00  0.00    +0.000 A 
ATOM     14  C   LIG    1       23.884 -11.542   3.861  0.00  0.00    +0.000 A 
ATOM     15  C   LIG    1       23.707 -12.165   5.097  0.00  0.00    +0.000 A 
ATOM     16  C   LIG    1       23.673 -13.559   5.185  0.00  0.00    +0.003 A 
ENDBRANCH  10  11
ENDBRANCH   9  10
ENDBRANCH   7   9
ENDBRANCH   2   7
BRANCH   1  17
ATOM     17  O   LIG    1       24.795 -18.461   3.327  0.00  0.00    -0.489 OA
BRANCH  17  18
ATOM     18  C   LIG    1       26.208 -18.501   3.093  0.00  0.00    +0.261 C 
BRANCH  18  19
ATOM     19  C   LIG    1       26.883 -17.427   3.963  0.00  0.00    +0.166 C 
BRANCH  19  20
ATOM     20  O   LIG    1       28.232 -17.815   4.258  0.00  0.00    -0.387 OA
ATOM     21  H   LIG    1       28.268 -17.973   5.218  0.00  0.00    +0.210 HD
ENDBRANCH  19  20
BRANCH  19  22
ATOM     22  C   LIG    1       26.883 -16.040   3.290  0.00  0.00    +0.115 C 
BRANCH  22  23
ATOM     23  N   LIG    1       27.882 -15.158   3.899  0.00  0.00    -0.313 NA
ATOM     24  H   LIG    1       28.820 -15.481   3.661  0.00  0.00    +0.122 HD
BRANCH  23  25
ATOM     25  C   LIG    1       27.718 -13.775   3.455  0.00  0.00    +0.081 C 
BRANCH  25  27
ATOM     26  C   LIG    1       27.063 -13.382   5.861  0.00  0.00    +0.005 C 
ATOM     27  C   LIG    1       27.834 -12.846   4.665  0.00  0.00    +0.012 C 
ENDBRANCH  25  27
ENDBRANCH  23  25
ENDBRANCH  22  23
ENDBRANCH  19  22
ENDBRANCH  18  19
ENDBRANCH  17  18
ENDBRANCH   1  17
TORSDOF 12
ENDMDL
MODEL 7
REMARK VINA RESULT:      -3.5      2.356      7.161
REMARK  Name = *****
REMARK                            x       y       z     vdW  Elec       q    Type
REMARK                         _______ _______ _______ _____ _____    ______ ____
ROOT
ATOM      1  C   LIG    1       23.674 -16.479   4.135  0.00  0.00    +0.131 A 
ATOM      2  C   LIG    1       23.979 -17.822   3.856  0.00  0.00    +0.059 A 
ATOM      3  C   LIG    1       22.945 -18.777   3.821  0.00  0.00    +0.015 A 
ATOM      4  C   LIG    1       21.636 -18.425   4.097  0.00  0.00    +0.001 A 
ATOM      5  C   LIG    1       21.332 -17.103   4.404  0.00  0.00    +0.004 A 
ATOM      6  C   LIG    1       22.341 -16.136   4.414  0.00  0.00    +0.046 A 
ENDROOT
BRANCH   2   7
ATOM      7  C   LIG    1       25.347 -18.363   3.596  0.00  0.00    +0.167 C 
ATOM      8  O   LIG    1       26.189 -17.569   3.175  0.00  0.00    -0.292 OA
BRANCH   7   9
ATOM      9  C   LIG    1       25.611 -19.859   3.688  0.00  0.00    +0.084 C 
BRANCH   9  10
ATOM     10  C   LIG    1       25.612 -20.419   5.118  0.00  0.00    +0.043 C 
BRANCH  10  11
ATOM     11  C   LIG    1       26.971 -20.403   5.784  0.00  0.00    -0.047 A 
ATOM     12  C   LIG    1       27.749 -19.237   5.771  0.00  0.00    +0.003 A 
ATOM     13  C   LIG    1       28.987 -19.192   6.411  0.00  0.00    +0.000 A 
ATOM     14  C   LIG    1       29.473 -20.325   7.053  0.00  0.00    +0.000 A 
ATOM     15  C   LIG    1       28.718 -21.497   7.062  0.00  0.00    +0.000 A 
ATOM     16  C   LIG    1       27.468 -21.535   6.437  0.00  0.00    +0.003 A 
ENDBRANCH  10  11
ENDBRANCH   9  10
ENDBRANCH   7   9
ENDBRANCH   2   7
BRANCH   1  17
ATOM     17  O   LIG    1       24.692 -15.568   4.100  0.00  0.00    -0.489 OA
BRANCH  17  18
ATOM     18  C   LIG    1       24.384 -14.187   4.322  0.00  0.00    +0.261 C 
BRANCH  18  19
ATOM     19  C   LIG    1       24.398 -13.455   2.969  0.00  0.00    +0.166 C 
BRANCH  19  20
ATOM     20  O   LIG    1       23.508 -12.331   3.013  0.00  0.00    -0.387 OA
ATOM     21  H   LIG    1       24.057 -11.556   3.228  0.00  0.00    +0.210 HD
ENDBRANCH  19  20
BRANCH  19  22
ATOM     22  C   LIG    1       25.809 -12.976   2.575  0.00  0.00    +0.115 C 
BRANCH  22  23
ATOM     23  N   LIG    1       26.638 -14.095   2.120  0.00  0.00    -0.313 NA
ATOM     24  H   LIG    1       27.110 -13.845   1.250  0.00  0.00    +0.122 HD
BRANCH  23  25
ATOM     25  C   LIG    1       27.635 -14.466   3.123  0.00  0.00    +0.081 C 
BRANCH  25  27
ATOM     26  C   LIG    1       28.281 -13.102   5.146  0.00  0.00    +0.005 C 
ATOM     27  C   LIG    1       28.328 -13.200   3.629  0.00  0.00    +0.012 C 
ENDBRANCH  25  27
ENDBRANCH  23  25
ENDBRANCH  22  23
ENDBRANCH  19  22
ENDBRANCH  18  19
ENDBRANCH  17  18
ENDBRANCH   1  17
TORSDOF 12
ENDMDL
MODEL 8
REMARK VINA RESULT:      -3.5      1.792      6.022
REMARK  Name = *****
REMARK                            x       y       z     vdW  Elec       q    Type
REMARK                         _______ _______ _______ _____ _____    ______ ____
ROOT
ATOM      1  C   LIG    1       24.665 -14.572   3.591  0.00  0.00    +0.131 A 
ATOM      2  C   LIG    1       26.048 -14.335   3.518  0.00  0.00    +0.059 A 
ATOM      3  C   LIG    1       26.529 -13.244   2.770  0.00  0.00    +0.015 A 
ATOM      4  C   LIG    1       25.666 -12.421   2.069  0.00  0.00    +0.001 A 
ATOM      5  C   LIG    1       24.297 -12.669   2.113  0.00  0.00    +0.004 A 
ATOM      6  C   LIG    1       23.800 -13.730   2.874  0.00  0.00    +0.046 A 
ENDROOT
BRANCH   2   7
ATOM      7  C   LIG    1       27.104 -15.167   4.170  0.00  0.00    +0.167 C 
ATOM      8  O   LIG    1       27.968 -14.568   4.813  0.00  0.00    -0.292 OA
BRANCH   7   9
ATOM      9  C   LIG    1       27.186 -16.661   3.891  0.00  0.00    +0.084 C 
BRANCH   9  10
ATOM     10  C   LIG    1       28.514 -17.314   4.305  0.00  0.00    +0.043 C 
BRANCH  10  11
ATOM     11  C   LIG    1       28.353 -18.522   5.201  0.00  0.00    -0.047 A 
ATOM     12  C   LIG    1       29.353 -18.854   6.126  0.00  0.00    +0.003 A 
ATOM     13  C   LIG    1       29.206 -19.941   6.985  0.00  0.00    +0.000 A 
ATOM     14  C   LIG    1       28.063 -20.729   6.912  0.00  0.00    +0.000 A 
ATOM     15  C   LIG    1       27.065 -20.422   5.987  0.00  0.00    +0.000 A 
ATOM     16  C   LIG    1       27.205 -19.319   5.139  0.00  0.00    +0.003 A 
ENDBRANCH  10  11
ENDBRANCH   9  10
ENDBRANCH   7   9
ENDBRANCH   2   7
BRANCH   1  17
ATOM     17  O   LIG    1       24.230 -15.602   4.376  0.00  0.00    -0.489 OA
BRANCH  17  18
ATOM     18  C   LIG    1       22.835 -15.928   4.368  0.00  0.00    +0.261 C 
BRANCH  18  19
ATOM     19  C   LIG    1       22.681 -17.442   4.589  0.00  0.00    +0.166 C 
BRANCH  19  20
ATOM     20  O   LIG    1       21.445 -17.896   4.019  0.00  0.00    -0.387 OA
ATOM     21  H   LIG    1       21.549 -18.852   3.866  0.00  0.00    +0.210 HD
ENDBRANCH  19  20
BRANCH  19  22
ATOM     22  C   LIG    1       23.849 -18.246   3.985  0.00  0.00    +0.115 C 
BRANCH  22  23
ATOM     23  N   LIG    1       23.399 -19.558   3.513  0.00  0.00    -0.313 NA
ATOM     24  H   LIG    1       23.762 -19.733   2.576  0.00  0.00    +0.122 HD
BRANCH  23  25
ATOM     25  C   LIG    1       23.834 -20.629   4.409  0.00  0.00    +0.081 C 
BRANCH  25  27
ATOM     26  C   LIG    1       23.382 -20.759   6.888  0.00  0.00    +0.005 C 
ATOM     27  C   LIG    1       22.776 -20.830   5.495  0.00  0.00    +0.012 C 
ENDBRANCH  25  27
ENDBRANCH  23  25
ENDBRANCH  22  23
ENDBRANCH  19  22
ENDBRANCH  18  19
ENDBRANCH  17  18
ENDBRANCH   1  17
TORSDOF 12
ENDMDL
MODEL 9
REMARK VINA RESULT:      -2.9      2.548      6.192
REMARK  Name = *****
REMARK                            x       y       z     vdW  Elec       q    Type
REMARK                         _______ _______ _______ _____ _____    ______ ____
ROOT
ATOM      1  C   LIG    1       26.849 -13.404   4.848  0.00  0.00    +0.131 A 
ATOM      2  C   LIG    1       27.410 -14.169   3.811  0.00  0.00    +0.059 A 
ATOM      3  C   LIG    1       28.713 -13.882   3.360  0.00  0.00    +0.015 A 
ATOM      4  C   LIG    1       29.440 -12.833   3.894  0.00  0.00    +0.001 A 
ATOM      5  C   LIG    1       28.879 -12.054   4.901  0.00  0.00    +0.004 A 
ATOM      6  C   LIG    1       27.598 -12.342   5.380  0.00  0.00    +0.046 A 
ENDROOT
BRANCH   2   7
ATOM      7  C   LIG    1       26.729 -15.292   3.098  0.00  0.00    +0.167 C 
ATOM      8  O   LIG    1       26.062 -14.998   2.105  0.00  0.00    -0.292 OA
BRANCH   7   9
ATOM      9  C   LIG    1       26.733 -16.693   3.692  0.00  0.00    +0.084 C 
BRANCH   9  10
ATOM     10  C   LIG    1       25.771 -17.676   3.009  0.00  0.00    +0.043 C 
BRANCH  10  11
ATOM     11  C   LIG    1       25.553 -18.960   3.780  0.00  0.00    -0.047 A 
ATOM     12  C   LIG    1       24.509 -19.827   3.427  0.00  0.00    +0.003 A 
ATOM     13  C   LIG    1       24.316 -21.031   4.101  0.00  0.00    +0.000 A 
ATOM     14  C   LIG    1       25.153 -21.373   5.158  0.00  0.00    +0.000 A 
ATOM     15  C   LIG    1       26.186 -20.514   5.531  0.00  0.00    +0.000 A 
ATOM     16  C   LIG    1       26.392 -19.316   4.841  0.00  0.00    +0.003 A 
ENDBRANCH  10  11
ENDBRANCH   9  10
ENDBRANCH   7   9
ENDBRANCH   2   7
BRANCH   1  17
ATOM     17  O   LIG    1       25.608 -13.749   5.302  0.00  0.00    -0.489 OA
BRANCH  17  18
ATOM     18  C   LIG    1       24.552 -12.786   5.207  0.00  0.00    +0.261 C 
BRANCH  18  19
ATOM     19  C   LIG    1       23.719 -13.089   3.950  0.00  0.00    +0.166 C 
BRANCH  19  20
ATOM     20  O   LIG    1       24.359 -12.531   2.794  0.00  0.00    -0.387 OA
ATOM     21  H   LIG    1       24.482 -11.583   2.980  0.00  0.00    +0.210 HD
ENDBRANCH  19  20
BRANCH  19  22
ATOM     22  C   LIG    1       23.504 -14.601   3.739  0.00  0.00    +0.115 C 
BRANCH  22  23
ATOM     23  N   LIG    1       23.152 -15.265   4.996  0.00  0.00    -0.313 NA
ATOM     24  H   LIG    1       22.980 -14.566   5.720  0.00  0.00    +0.122 HD
BRANCH  23  25
ATOM     25  C   LIG    1       21.967 -16.107   4.844  0.00  0.00    +0.081 C 
BRANCH  25  27
ATOM     26  C   LIG    1       21.416 -18.427   4.015  0.00  0.00    +0.005 C 
ATOM     27  C   LIG    1       22.400 -17.574   4.799  0.00  0.00    +0.012 C 
ENDBRANCH  25  27
ENDBRANCH  23  25
ENDBRANCH  22  23
ENDBRANCH  19  22
ENDBRANCH  18  19
ENDBRANCH  17  18
ENDBRANCH   1  17
TORSDOF 12
ENDMDL
