MODEL 1
REMARK VINA RESULT:       3.8      0.000      0.000
REMARK  Name = *****
REMARK                            x       y       z     vdW  Elec       q    Type
REMARK                         _______ _______ _______ _____ _____    ______ ____
ROOT
ATOM      1  C   LIG    1       24.678 -15.803   4.044  0.00  0.00    +0.117 A 
ATOM      2  C   LIG    1       23.749 -16.740   4.492  0.00  0.00    +0.050 A 
ATOM      3  C   LIG    1       23.961 -18.117   4.294  0.00  0.00    -0.032 A 
ATOM      4  C   LIG    1       22.971 -19.167   4.847  0.00  0.00    +0.028 C 
ATOM      5  C   LIG    1       23.318 -19.332   6.350  0.00  0.00    +0.030 C 
ATOM      6  C   LIG    1       24.720 -19.939   6.544  0.00  0.00    +0.086 C 
ATOM      7  N   LIG    1       24.992 -21.141   5.718  0.00  0.00    -0.296 NA
ATOM      8  C   LIG    1       24.630 -20.959   4.271  0.00  0.00    +0.093 C 
ATOM      9  C   LIG    1       25.482 -19.976   3.445  0.00  0.00    +0.057 C 
ATOM     10  C   LIG    1       23.131 -20.570   4.179  0.00  0.00    +0.091 C 
ATOM     11  C   LIG    1       22.524 -20.671   2.759  0.00  0.00    +0.037 C 
ATOM     12  C   LIG    1       21.963 -19.363   2.211  0.00  0.00    +0.003 C 
ATOM     13  C   LIG    1       21.065 -18.626   3.204  0.00  0.00    +0.001 C 
ATOM     14  C   LIG    1       21.492 -18.750   4.672  0.00  0.00    +0.014 C 
ATOM     15  C   LIG    1       25.154 -18.522   3.661  0.00  0.00    -0.042 A 
ATOM     16  C   LIG    1       26.070 -17.560   3.199  0.00  0.00    +0.007 A 
ATOM     17  C   LIG    1       25.834 -16.201   3.393  0.00  0.00    +0.045 A 
ENDROOT
BRANCH   1  18
ATOM     18  O   LIG    1       24.415 -14.487   4.281  0.00  0.00    -0.507 OA
ATOM     19  H   LIG    1       24.780 -14.251   5.148  0.00  0.00    +0.292 HD
ENDBRANCH   1  18
BRANCH  10  20
ATOM     20  O   LIG    1       22.405 -21.572   4.948  0.00  0.00    -0.386 OA
ATOM     21  H   LIG    1       23.033 -21.862   5.642  0.00  0.00    +0.210 HD
ENDBRANCH  10  20
BRANCH   7  22
ATOM     22  C   LIG    1       26.388 -21.571   5.947  0.00  0.00    +0.088 C 
BRANCH  22  23
ATOM     23  C   LIG    1       27.271 -20.499   6.587  0.00  0.00    +0.003 C 
ATOM     24  C   LIG    1       28.716 -20.842   7.062  0.00  0.00    +0.005 C 
ATOM     25  C   LIG    1       29.151 -19.472   6.509  0.00  0.00    +0.001 C 
ATOM     26  C   LIG    1       27.954 -19.566   5.544  0.00  0.00    +0.005 C 
ENDBRANCH  22  23
ENDBRANCH   7  22
TORSDOF 4
ENDMDL
MODEL 2
REMARK VINA RESULT:       4.6      3.241      5.777
REMARK  Name = *****
REMARK                            x       y       z     vdW  Elec       q    Type
REMARK                         _______ _______ _______ _____ _____    ______ ____
ROOT
ATOM      1  C   LIG    1       28.713 -12.218   4.969  0.00  0.00    +0.117 A 
ATOM      2  C   LIG    1       27.395 -12.570   5.249  0.00  0.00    +0.050 A 
ATOM      3  C   LIG    1       26.644 -13.337   4.339  0.00  0.00    -0.032 A 
ATOM      4  C   LIG    1       25.204 -13.791   4.671  0.00  0.00    +0.028 C 
ATOM      5  C   LIG    1       25.348 -15.029   5.593  0.00  0.00    +0.030 C 
ATOM      6  C   LIG    1       25.997 -16.214   4.854  0.00  0.00    +0.086 C 
ATOM      7  N   LIG    1       25.411 -16.507   3.523  0.00  0.00    -0.296 NA
ATOM      8  C   LIG    1       25.268 -15.287   2.658  0.00  0.00    +0.093 C 
ATOM      9  C   LIG    1       26.561 -14.626   2.143  0.00  0.00    +0.057 C 
ATOM     10  C   LIG    1       24.401 -14.244   3.410  0.00  0.00    +0.091 C 
ATOM     11  C   LIG    1       23.886 -13.078   2.531  0.00  0.00    +0.037 C 
ATOM     12  C   LIG    1       24.333 -11.693   2.985  0.00  0.00    +0.003 C 
ATOM     13  C   LIG    1       24.140 -11.454   4.482  0.00  0.00    +0.001 C 
ATOM     14  C   LIG    1       24.371 -12.687   5.365  0.00  0.00    +0.014 C 
ATOM     15  C   LIG    1       27.275 -13.767   3.154  0.00  0.00    -0.042 A 
ATOM     16  C   LIG    1       28.600 -13.385   2.880  0.00  0.00    +0.007 A 
ATOM     17  C   LIG    1       29.321 -12.613   3.789  0.00  0.00    +0.045 A 
ENDROOT
BRANCH   1  18
ATOM     18  O   LIG    1       29.385 -11.484   5.901  0.00  0.00    -0.507 OA
ATOM     19  H   LIG    1       29.553 -12.047   6.674  0.00  0.00    +0.292 HD
ENDBRANCH   1  18
BRANCH  10  20
ATOM     20  O   LIG    1       23.190 -14.943   3.818  0.00  0.00    -0.386 OA
ATOM     21  H   LIG    1       23.099 -15.684   3.184  0.00  0.00    +0.210 HD
ENDBRANCH  10  20
BRANCH   7  22
ATOM     22  C   LIG    1       26.174 -17.610   2.899  0.00  0.00    +0.088 C 
BRANCH  22  23
ATOM     23  C   LIG    1       25.555 -18.992   3.112  0.00  0.00    +0.003 C 
ATOM     24  C   LIG    1       25.771 -19.759   4.451  0.00  0.00    +0.005 C 
ATOM     25  C   LIG    1       24.297 -20.198   4.359  0.00  0.00    +0.001 C 
ATOM     26  C   LIG    1       24.052 -18.935   3.514  0.00  0.00    +0.005 C 
ENDBRANCH  22  23
ENDBRANCH   7  22
TORSDOF 4
ENDMDL
