MODEL 1
REMARK VINA RESULT:      -5.9      0.000      0.000
REMARK  Name = *****
REMARK                            x       y       z     vdW  Elec       q    Type
REMARK                         _______ _______ _______ _____ _____    ______ ____
ROOT
ATOM      1  C   LIG    1       24.786 -14.937   3.888  0.00  0.00    -0.034 A 
ATOM      2  C   LIG    1       23.521 -14.815   4.481  0.00  0.00    +0.005 A 
ATOM      3  C   LIG    1       22.726 -15.943   4.705  0.00  0.00    +0.004 A 
ATOM      4  C   LIG    1       23.169 -17.218   4.328  0.00  0.00    -0.047 A 
ATOM      5  C   LIG    1       24.427 -17.338   3.727  0.00  0.00    +0.004 A 
ATOM      6  C   LIG    1       25.231 -16.214   3.518  0.00  0.00    +0.005 A 
ENDROOT
BRANCH   1   8
ATOM      7  C   LIG    1       25.918 -13.528   2.164  0.00  0.00    +0.024 C 
ATOM      8  C   LIG    1       25.682 -13.727   3.665  0.00  0.00    +0.124 C 
BRANCH   8   9
ATOM      9  C   LIG    1       27.006 -13.762   4.427  0.00  0.00    +0.312 C 
ATOM     10  O   LIG    1       28.081 -14.063   3.916  0.00  0.00    -0.250 OA
BRANCH   9  11
ATOM     11  O   LIG    1       26.941 -13.347   5.713  0.00  0.00    -0.480 OA
ATOM     12  H   LIG    1       27.723 -12.839   6.011  0.00  0.00    +0.295 HD
ENDBRANCH   9  11
ENDBRANCH   8   9
ENDBRANCH   1   8
BRANCH   4  13
ATOM     13  C   LIG    1       22.297 -18.436   4.545  0.00  0.00    +0.046 C 
BRANCH  13  14
ATOM     14  C   LIG    1       23.003 -19.773   4.283  0.00  0.00    +0.059 C 
ATOM     15  C   LIG    1       22.247 -20.896   4.967  0.00  0.00    +0.137 C 
ATOM     16  O   LIG    1       21.183 -21.348   4.561  0.00  0.00    -0.297 OA
ATOM     17  C   LIG    1       22.953 -21.403   6.200  0.00  0.00    +0.075 C 
ATOM     18  C   LIG    1       24.078 -20.391   6.366  0.00  0.00    +0.008 C 
ATOM     19  C   LIG    1       24.373 -19.912   4.951  0.00  0.00    +0.012 C 
ENDBRANCH  13  14
ENDBRANCH   4  13
TORSDOF 5
ENDMDL
MODEL 2
REMARK VINA RESULT:      -5.8      1.893      6.751
REMARK  Name = *****
REMARK                            x       y       z     vdW  Elec       q    Type
REMARK                         _______ _______ _______ _____ _____    ______ ____
ROOT
ATOM      1  C   LIG    1       23.444 -19.332   4.407  0.00  0.00    -0.034 A 
ATOM      2  C   LIG    1       24.511 -18.667   3.784  0.00  0.00    +0.005 A 
ATOM      3  C   LIG    1       24.488 -17.278   3.621  0.00  0.00    +0.004 A 
ATOM      4  C   LIG    1       23.393 -16.523   4.063  0.00  0.00    -0.047 A 
ATOM      5  C   LIG    1       22.324 -17.189   4.675  0.00  0.00    +0.004 A 
ATOM      6  C   LIG    1       22.354 -18.574   4.854  0.00  0.00    +0.005 A 
ENDROOT
BRANCH   1   8
ATOM      7  C   LIG    1       22.051 -21.329   4.964  0.00  0.00    +0.024 C 
ATOM      8  C   LIG    1       23.462 -20.838   4.624  0.00  0.00    +0.124 C 
BRANCH   8   9
ATOM      9  C   LIG    1       24.474 -21.323   5.660  0.00  0.00    +0.312 C 
ATOM     10  O   LIG    1       24.195 -21.557   6.832  0.00  0.00    -0.250 OA
BRANCH   9  11
ATOM     11  O   LIG    1       25.715 -21.572   5.180  0.00  0.00    -0.480 OA
ATOM     12  H   LIG    1       25.976 -22.515   5.209  0.00  0.00    +0.295 HD
ENDBRANCH   9  11
ENDBRANCH   8   9
ENDBRANCH   1   8
BRANCH   4  13
ATOM     13  C   LIG    1       23.356 -15.023   3.862  0.00  0.00    +0.046 C 
BRANCH  13  14
ATOM     14  C   LIG    1       24.620 -14.292   4.332  0.00  0.00    +0.059 C 
ATOM     15  C   LIG    1       24.572 -12.843   3.887  0.00  0.00    +0.137 C 
ATOM     16  O   LIG    1       23.857 -11.994   4.405  0.00  0.00    -0.297 OA
ATOM     17  C   LIG    1       25.508 -12.558   2.738  0.00  0.00    +0.075 C 
ATOM     18  C   LIG    1       25.981 -13.953   2.355  0.00  0.00    +0.008 C 
ATOM     19  C   LIG    1       25.913 -14.750   3.650  0.00  0.00    +0.012 C 
ENDBRANCH  13  14
ENDBRANCH   4  13
TORSDOF 5
ENDMDL
MODEL 3
REMARK VINA RESULT:      -5.4      1.316      2.163
REMARK  Name = *****
REMARK                            x       y       z     vdW  Elec       q    Type
REMARK                         _______ _______ _______ _____ _____    ______ ____
ROOT
ATOM      1  C   LIG    1       25.557 -14.828   3.664  0.00  0.00    -0.034 A 
ATOM      2  C   LIG    1       26.342 -15.935   3.311  0.00  0.00    +0.005 A 
ATOM      3  C   LIG    1       25.808 -17.227   3.342  0.00  0.00    +0.004 A 
ATOM      4  C   LIG    1       24.481 -17.445   3.740  0.00  0.00    -0.047 A 
ATOM      5  C   LIG    1       23.702 -16.341   4.102  0.00  0.00    +0.004 A 
ATOM      6  C   LIG    1       24.229 -15.047   4.055  0.00  0.00    +0.005 A 
ENDROOT
BRANCH   1   8
ATOM      7  C   LIG    1       26.044 -12.888   2.168  0.00  0.00    +0.024 C 
ATOM      8  C   LIG    1       26.107 -13.410   3.607  0.00  0.00    +0.124 C 
BRANCH   8   9
ATOM      9  C   LIG    1       27.510 -13.245   4.187  0.00  0.00    +0.312 C 
ATOM     10  O   LIG    1       27.765 -13.301   5.386  0.00  0.00    -0.250 OA
BRANCH   9  11
ATOM     11  O   LIG    1       28.500 -13.114   3.273  0.00  0.00    -0.480 OA
ATOM     12  H   LIG    1       28.757 -12.188   3.089  0.00  0.00    +0.295 HD
ENDBRANCH   9  11
ENDBRANCH   8   9
ENDBRANCH   1   8
BRANCH   4  13
ATOM     13  C   LIG    1       23.911 -18.846   3.799  0.00  0.00    +0.046 C 
BRANCH  13  14
ATOM     14  C   LIG    1       23.071 -19.134   5.050  0.00  0.00    +0.059 C 
ATOM     15  C   LIG    1       23.616 -20.354   5.767  0.00  0.00    +0.137 C 
ATOM     16  O   LIG    1       24.647 -20.353   6.428  0.00  0.00    -0.297 OA
ATOM     17  C   LIG    1       22.743 -21.571   5.583  0.00  0.00    +0.075 C 
ATOM     18  C   LIG    1       21.743 -21.096   4.538  0.00  0.00    +0.008 C 
ATOM     19  C   LIG    1       21.639 -19.594   4.764  0.00  0.00    +0.012 C 
ENDBRANCH  13  14
ENDBRANCH   4  13
TORSDOF 5
ENDMDL
MODEL 4
REMARK VINA RESULT:      -5.3      1.379      2.080
REMARK  Name = *****
REMARK                            x       y       z     vdW  Elec       q    Type
REMARK                         _______ _______ _______ _____ _____    ______ ____
ROOT
ATOM      1  C   LIG    1       24.676 -15.114   3.776  0.00  0.00    -0.034 A 
ATOM      2  C   LIG    1       25.132 -16.395   3.433  0.00  0.00    +0.005 A 
ATOM      3  C   LIG    1       24.347 -17.524   3.690  0.00  0.00    +0.004 A 
ATOM      4  C   LIG    1       23.096 -17.401   4.310  0.00  0.00    -0.047 A 
ATOM      5  C   LIG    1       22.647 -16.123   4.662  0.00  0.00    +0.004 A 
ATOM      6  C   LIG    1       23.422 -14.992   4.389  0.00  0.00    +0.005 A 
ENDROOT
BRANCH   1   8
ATOM      7  C   LIG    1       26.595 -13.705   4.534  0.00  0.00    +0.024 C 
ATOM      8  C   LIG    1       25.499 -13.869   3.476  0.00  0.00    +0.124 C 
BRANCH   8   9
ATOM      9  C   LIG    1       24.685 -12.585   3.329  0.00  0.00    +0.312 C 
ATOM     10  O   LIG    1       24.237 -11.946   4.276  0.00  0.00    -0.250 OA
BRANCH   9  11
ATOM     11  O   LIG    1       24.553 -12.129   2.061  0.00  0.00    -0.480 OA
ATOM     12  H   LIG    1       25.217 -11.456   1.806  0.00  0.00    +0.295 HD
ENDBRANCH   9  11
ENDBRANCH   8   9
ENDBRANCH   1   8
BRANCH   4  13
ATOM     13  C   LIG    1       22.259 -18.625   4.613  0.00  0.00    +0.046 C 
BRANCH  13  14
ATOM     14  C   LIG    1       22.979 -19.958   4.372  0.00  0.00    +0.059 C 
ATOM     15  C   LIG    1       22.228 -21.080   5.061  0.00  0.00    +0.137 C 
ATOM     16  O   LIG    1       21.172 -21.547   4.651  0.00  0.00    -0.297 OA
ATOM     17  C   LIG    1       22.929 -21.567   6.306  0.00  0.00    +0.075 C 
ATOM     18  C   LIG    1       24.042 -20.543   6.470  0.00  0.00    +0.008 C 
ATOM     19  C   LIG    1       24.345 -20.077   5.052  0.00  0.00    +0.012 C 
ENDBRANCH  13  14
ENDBRANCH   4  13
TORSDOF 5
ENDMDL
MODEL 5
REMARK VINA RESULT:      -5.2      1.886      6.848
REMARK  Name = *****
REMARK                            x       y       z     vdW  Elec       q    Type
REMARK                         _______ _______ _______ _____ _____    ______ ____
ROOT
ATOM      1  C   LIG    1       24.230 -19.561   4.321  0.00  0.00    -0.034 A 
ATOM      2  C   LIG    1       23.513 -18.373   4.118  0.00  0.00    +0.005 A 
ATOM      3  C   LIG    1       24.157 -17.220   3.659  0.00  0.00    +0.004 A 
ATOM      4  C   LIG    1       25.536 -17.222   3.407  0.00  0.00    -0.047 A 
ATOM      5  C   LIG    1       26.253 -18.405   3.621  0.00  0.00    +0.004 A 
ATOM      6  C   LIG    1       25.607 -19.563   4.062  0.00  0.00    +0.005 A 
ENDROOT
BRANCH   1   8
ATOM      7  C   LIG    1       22.025 -20.636   4.792  0.00  0.00    +0.024 C 
ATOM      8  C   LIG    1       23.544 -20.837   4.788  0.00  0.00    +0.124 C 
BRANCH   8   9
ATOM      9  C   LIG    1       24.029 -21.367   6.136  0.00  0.00    +0.312 C 
ATOM     10  O   LIG    1       25.210 -21.537   6.419  0.00  0.00    -0.250 OA
BRANCH   9  11
ATOM     11  O   LIG    1       23.059 -21.564   7.060  0.00  0.00    -0.480 OA
ATOM     12  H   LIG    1       22.972 -20.839   7.711  0.00  0.00    +0.295 HD
ENDBRANCH   9  11
ENDBRANCH   8   9
ENDBRANCH   1   8
BRANCH   4  13
ATOM     13  C   LIG    1       26.238 -15.966   2.937  0.00  0.00    +0.046 C 
BRANCH  13  14
ATOM     14  C   LIG    1       25.945 -14.723   3.787  0.00  0.00    +0.059 C 
ATOM     15  C   LIG    1       25.840 -13.503   2.894  0.00  0.00    +0.137 C 
ATOM     16  O   LIG    1       24.880 -13.266   2.170  0.00  0.00    -0.297 OA
ATOM     17  C   LIG    1       27.047 -12.603   2.998  0.00  0.00    +0.075 C 
ATOM     18  C   LIG    1       28.000 -13.439   3.841  0.00  0.00    +0.008 C 
ATOM     19  C   LIG    1       27.090 -14.296   4.710  0.00  0.00    +0.012 C 
ENDBRANCH  13  14
ENDBRANCH   4  13
TORSDOF 5
ENDMDL
MODEL 6
REMARK VINA RESULT:      -4.8      1.357      2.267
REMARK  Name = *****
REMARK                            x       y       z     vdW  Elec       q    Type
REMARK                         _______ _______ _______ _____ _____    ______ ____
ROOT
ATOM      1  C   LIG    1       24.999 -16.542   3.756  0.00  0.00    -0.034 A 
ATOM      2  C   LIG    1       25.958 -17.478   3.342  0.00  0.00    +0.005 A 
ATOM      3  C   LIG    1       25.611 -18.819   3.153  0.00  0.00    +0.004 A 
ATOM      4  C   LIG    1       24.301 -19.261   3.389  0.00  0.00    -0.047 A 
ATOM      5  C   LIG    1       23.348 -18.328   3.813  0.00  0.00    +0.004 A 
ATOM      6  C   LIG    1       23.689 -16.984   3.985  0.00  0.00    +0.005 A 
ENDROOT
BRANCH   1   8
ATOM      7  C   LIG    1       24.100 -14.212   3.699  0.00  0.00    +0.024 C 
ATOM      8  C   LIG    1       25.346 -15.071   3.936  0.00  0.00    +0.124 C 
BRANCH   8   9
ATOM      9  C   LIG    1       26.518 -14.582   3.087  0.00  0.00    +0.312 C 
ATOM     10  O   LIG    1       26.422 -14.271   1.904  0.00  0.00    -0.250 OA
BRANCH   9  11
ATOM     11  O   LIG    1       27.685 -14.423   3.753  0.00  0.00    -0.480 OA
ATOM     12  H   LIG    1       28.386 -13.978   3.235  0.00  0.00    +0.295 HD
ENDBRANCH   9  11
ENDBRANCH   8   9
ENDBRANCH   1   8
BRANCH   4  13
ATOM     13  C   LIG    1       23.933 -20.718   3.212  0.00  0.00    +0.046 C 
BRANCH  13  14
ATOM     14  C   LIG    1       24.106 -21.571   4.475  0.00  0.00    +0.059 C 
ATOM     15  C   LIG    1       23.028 -21.223   5.483  0.00  0.00    +0.137 C 
ATOM     16  O   LIG    1       21.857 -21.570   5.377  0.00  0.00    -0.297 OA
ATOM     17  C   LIG    1       23.555 -20.407   6.637  0.00  0.00    +0.075 C 
ATOM     18  C   LIG    1       24.972 -20.086   6.183  0.00  0.00    +0.008 C 
ATOM     19  C   LIG    1       25.362 -21.256   5.291  0.00  0.00    +0.012 C 
ENDBRANCH  13  14
ENDBRANCH   4  13
TORSDOF 5
ENDMDL
MODEL 7
REMARK VINA RESULT:      -4.4      1.492      6.913
REMARK  Name = *****
REMARK                            x       y       z     vdW  Elec       q    Type
REMARK                         _______ _______ _______ _____ _____    ______ ____
ROOT
ATOM      1  C   LIG    1       23.704 -18.516   3.796  0.00  0.00    -0.034 A 
ATOM      2  C   LIG    1       24.980 -19.027   3.517  0.00  0.00    +0.005 A 
ATOM      3  C   LIG    1       26.082 -18.174   3.409  0.00  0.00    +0.004 A 
ATOM      4  C   LIG    1       25.934 -16.788   3.561  0.00  0.00    -0.047 A 
ATOM      5  C   LIG    1       24.659 -16.278   3.828  0.00  0.00    +0.004 A 
ATOM      6  C   LIG    1       23.559 -17.131   3.954  0.00  0.00    +0.005 A 
ENDROOT
BRANCH   1   8
ATOM      7  C   LIG    1       21.212 -18.592   3.943  0.00  0.00    +0.024 C 
ATOM      8  C   LIG    1       22.496 -19.428   3.951  0.00  0.00    +0.124 C 
BRANCH   8   9
ATOM      9  C   LIG    1       22.541 -20.349   5.169  0.00  0.00    +0.312 C 
ATOM     10  O   LIG    1       23.017 -20.026   6.253  0.00  0.00    -0.250 OA
BRANCH   9  11
ATOM     11  O   LIG    1       21.932 -21.547   5.007  0.00  0.00    -0.480 OA
ATOM     12  H   LIG    1       21.178 -21.698   5.612  0.00  0.00    +0.295 HD
ENDBRANCH   9  11
ENDBRANCH   8   9
ENDBRANCH   1   8
BRANCH   4  13
ATOM     13  C   LIG    1       27.123 -15.863   3.416  0.00  0.00    +0.046 C 
BRANCH  13  14
ATOM     14  C   LIG    1       26.757 -14.376   3.319  0.00  0.00    +0.059 C 
ATOM     15  C   LIG    1       27.940 -13.527   3.741  0.00  0.00    +0.137 C 
ATOM     16  O   LIG    1       28.937 -13.353   3.050  0.00  0.00    -0.297 OA
ATOM     17  C   LIG    1       27.753 -12.910   5.106  0.00  0.00    +0.075 C 
ATOM     18  C   LIG    1       26.486 -13.596   5.598  0.00  0.00    +0.008 C 
ATOM     19  C   LIG    1       25.705 -13.911   4.330  0.00  0.00    +0.012 C 
ENDBRANCH  13  14
ENDBRANCH   4  13
TORSDOF 5
ENDMDL
MODEL 8
REMARK VINA RESULT:      -4.4      1.744      2.574
REMARK  Name = *****
REMARK                            x       y       z     vdW  Elec       q    Type
REMARK                         _______ _______ _______ _____ _____    ______ ____
ROOT
ATOM      1  C   LIG    1       25.554 -14.830   3.663  0.00  0.00    -0.034 A 
ATOM      2  C   LIG    1       26.344 -15.935   3.315  0.00  0.00    +0.005 A 
ATOM      3  C   LIG    1       25.814 -17.229   3.346  0.00  0.00    +0.004 A 
ATOM      4  C   LIG    1       24.487 -17.451   3.740  0.00  0.00    -0.047 A 
ATOM      5  C   LIG    1       23.703 -16.348   4.098  0.00  0.00    +0.004 A 
ATOM      6  C   LIG    1       24.226 -15.053   4.050  0.00  0.00    +0.005 A 
ENDROOT
BRANCH   1   8
ATOM      7  C   LIG    1       27.307 -13.281   4.539  0.00  0.00    +0.024 C 
ATOM      8  C   LIG    1       26.100 -13.410   3.605  0.00  0.00    +0.124 C 
BRANCH   8   9
ATOM      9  C   LIG    1       25.070 -12.317   3.887  0.00  0.00    +0.312 C 
ATOM     10  O   LIG    1       24.810 -11.896   5.010  0.00  0.00    -0.250 OA
BRANCH   9  11
ATOM     11  O   LIG    1       24.506 -11.761   2.789  0.00  0.00    -0.480 OA
ATOM     12  H   LIG    1       24.218 -12.408   2.114  0.00  0.00    +0.295 HD
ENDBRANCH   9  11
ENDBRANCH   8   9
ENDBRANCH   1   8
BRANCH   4  13
ATOM     13  C   LIG    1       23.922 -18.854   3.800  0.00  0.00    +0.046 C 
BRANCH  13  14
ATOM     14  C   LIG    1       23.064 -19.136   5.041  0.00  0.00    +0.059 C 
ATOM     15  C   LIG    1       23.602 -20.350   5.773  0.00  0.00    +0.137 C 
ATOM     16  O   LIG    1       24.624 -20.341   6.450  0.00  0.00    -0.297 OA
ATOM     17  C   LIG    1       22.737 -21.571   5.584  0.00  0.00    +0.075 C 
ATOM     18  C   LIG    1       21.751 -21.106   4.522  0.00  0.00    +0.008 C 
ATOM     19  C   LIG    1       21.638 -19.603   4.737  0.00  0.00    +0.012 C 
ENDBRANCH  13  14
ENDBRANCH   4  13
TORSDOF 5
ENDMDL
MODEL 9
REMARK VINA RESULT:      -3.5      2.256      6.745
REMARK  Name = *****
REMARK                            x       y       z     vdW  Elec       q    Type
REMARK                         _______ _______ _______ _____ _____    ______ ____
ROOT
ATOM      1  C   LIG    1       25.224 -19.466   4.138  0.00  0.00    -0.034 A 
ATOM      2  C   LIG    1       26.535 -18.975   4.043  0.00  0.00    +0.005 A 
ATOM      3  C   LIG    1       26.773 -17.632   3.735  0.00  0.00    +0.004 A 
ATOM      4  C   LIG    1       25.709 -16.751   3.498  0.00  0.00    -0.047 A 
ATOM      5  C   LIG    1       24.402 -17.244   3.582  0.00  0.00    +0.004 A 
ATOM      6  C   LIG    1       24.161 -18.582   3.908  0.00  0.00    +0.005 A 
ENDROOT
BRANCH   1   8
ATOM      7  C   LIG    1       23.484 -21.257   4.173  0.00  0.00    +0.024 C 
ATOM      8  C   LIG    1       24.940 -20.915   4.505  0.00  0.00    +0.124 C 
BRANCH   8   9
ATOM      9  C   LIG    1       25.275 -21.288   5.948  0.00  0.00    +0.312 C 
ATOM     10  O   LIG    1       24.435 -21.413   6.834  0.00  0.00    -0.250 OA
BRANCH   9  11
ATOM     11  O   LIG    1       26.578 -21.565   6.183  0.00  0.00    -0.480 OA
ATOM     12  H   LIG    1       26.787 -22.521   6.210  0.00  0.00    +0.295 HD
ENDBRANCH   9  11
ENDBRANCH   8   9
ENDBRANCH   1   8
BRANCH   4  13
ATOM     13  C   LIG    1       25.968 -15.304   3.137  0.00  0.00    +0.046 C 
BRANCH  13  14
ATOM     14  C   LIG    1       24.699 -14.455   2.982  0.00  0.00    +0.059 C 
ATOM     15  C   LIG    1       25.065 -12.984   2.954  0.00  0.00    +0.137 C 
ATOM     16  O   LIG    1       25.585 -12.428   1.994  0.00  0.00    -0.297 OA
ATOM     17  C   LIG    1       24.710 -12.275   4.238  0.00  0.00    +0.075 C 
ATOM     18  C   LIG    1       24.302 -13.429   5.142  0.00  0.00    +0.008 C 
ATOM     19  C   LIG    1       23.759 -14.486   4.190  0.00  0.00    +0.012 C 
ENDBRANCH  13  14
ENDBRANCH   4  13
TORSDOF 5
ENDMDL
