MODEL 1
REMARK VINA RESULT:       1.1      0.000      0.000
REMARK  Name = *****
REMARK                            x       y       z     vdW  Elec       q    Type
REMARK                         _______ _______ _______ _____ _____    ______ ____
ROOT
ATOM      1  C   LIG    1       25.237 -18.740   3.818  0.00  0.00    +0.141 C 
ATOM      2  C   LIG    1       24.099 -17.696   3.862  0.00  0.00    +0.053 C 
ATOM      3  C   LIG    1       24.452 -16.273   4.315  0.00  0.00    +0.087 C 
ATOM      4  N   LIG    1       25.640 -15.639   3.727  0.00  0.00    -0.302 NA
ATOM      5  C   LIG    1       26.751 -16.501   4.000  0.00  0.00    +0.087 C 
ATOM      6  C   LIG    1       26.525 -17.994   3.419  0.00  0.00    +0.053 C 
ENDROOT
BRANCH   1   8
ATOM      7  C   LIG    1       24.269 -20.235   5.993  0.00  0.00    +0.221 C 
ATOM      8  N   LIG    1       25.278 -19.690   5.146  0.00  0.00    -0.255 N 
ATOM      9  O   LIG    1       24.592 -20.979   6.939  0.00  0.00    -0.275 OA
BRANCH   8  10
ATOM     10  C   LIG    1       26.679 -19.940   5.642  0.00  0.00    +0.037 A 
ATOM     11  C   LIG    1       26.996 -21.015   6.500  0.00  0.00    +0.023 A 
ATOM     12  C   LIG    1       28.303 -21.196   7.021  0.00  0.00    +0.002 A 
ATOM     13  C   LIG    1       29.336 -20.338   6.659  0.00  0.00    +0.000 A 
ATOM     14  C   LIG    1       29.066 -19.319   5.752  0.00  0.00    +0.002 A 
ATOM     15  C   LIG    1       27.757 -19.125   5.247  0.00  0.00    +0.023 A 
ENDBRANCH   8  10
BRANCH   7  17
ATOM     16  C   LIG    1       21.877 -21.079   5.265  0.00  0.00    +0.013 C 
ATOM     17  C   LIG    1       22.700 -20.058   5.903  0.00  0.00    +0.093 C 
ENDBRANCH   7  17
ENDBRANCH   1   8
BRANCH   1  18
ATOM     18  C   LIG    1       25.137 -19.730   2.624  0.00  0.00    +0.331 C 
ATOM     19  O   LIG    1       26.085 -20.042   1.867  0.00  0.00    -0.248 OA
BRANCH  18  20
ATOM     20  O   LIG    1       23.888 -20.216   2.492  0.00  0.00    -0.466 OA
ATOM     21  C   LIG    1       23.773 -21.565   2.915  0.00  0.00    +0.280 C 
ENDBRANCH  18  20
ENDBRANCH   1  18
BRANCH   4  22
ATOM     22  C   LIG    1       25.626 -15.251   2.325  0.00  0.00    +0.095 C 
BRANCH  22  23
ATOM     23  C   LIG    1       26.601 -14.097   2.035  0.00  0.00    +0.136 C 
BRANCH  23  24
ATOM     24  C   LIG    1       26.443 -13.011   3.029  0.00  0.00    +0.308 C 
ATOM     25  O   LIG    1       25.397 -12.246   3.086  0.00  0.00    -0.251 OA
BRANCH  24  26
ATOM     26  O   LIG    1       27.545 -12.826   3.753  0.00  0.00    -0.468 OA
ATOM     27  C   LIG    1       27.488 -13.236   5.121  0.00  0.00    +0.280 C 
ENDBRANCH  24  26
ENDBRANCH  23  24
ENDBRANCH  22  23
ENDBRANCH   4  22
TORSDOF 9
ENDMDL
MODEL 2
REMARK VINA RESULT:       3.1      1.035      3.192
REMARK  Name = *****
REMARK                            x       y       z     vdW  Elec       q    Type
REMARK                         _______ _______ _______ _____ _____    ______ ____
ROOT
ATOM      1  C   LIG    1       25.677 -18.446   3.706  0.00  0.00    +0.141 C 
ATOM      2  C   LIG    1       24.460 -17.513   3.881  0.00  0.00    +0.053 C 
ATOM      3  C   LIG    1       24.724 -16.069   4.331  0.00  0.00    +0.087 C 
ATOM      4  N   LIG    1       25.788 -15.321   3.649  0.00  0.00    -0.302 NA
ATOM      5  C   LIG    1       26.994 -16.081   3.795  0.00  0.00    +0.087 C 
ATOM      6  C   LIG    1       26.848 -17.579   3.204  0.00  0.00    +0.053 C 
ENDROOT
BRANCH   1   8
ATOM      7  C   LIG    1       27.106 -19.837   5.688  0.00  0.00    +0.221 C 
ATOM      8  N   LIG    1       25.932 -19.407   5.002  0.00  0.00    -0.255 N 
ATOM      9  O   LIG    1       27.001 -20.559   6.699  0.00  0.00    -0.275 OA
BRANCH   8  10
ATOM     10  C   LIG    1       24.670 -20.067   5.497  0.00  0.00    +0.037 A 
ATOM     11  C   LIG    1       24.650 -20.896   6.640  0.00  0.00    +0.023 A 
ATOM     12  C   LIG    1       23.473 -21.571   7.052  0.00  0.00    +0.002 A 
ATOM     13  C   LIG    1       22.277 -21.399   6.364  0.00  0.00    +0.000 A 
ATOM     14  C   LIG    1       22.254 -20.524   5.282  0.00  0.00    +0.002 A 
ATOM     15  C   LIG    1       23.433 -19.865   4.858  0.00  0.00    +0.023 A 
ENDBRANCH   8  10
BRANCH   7  17
ATOM     16  C   LIG    1       29.424 -18.748   6.320  0.00  0.00    +0.013 C 
ATOM     17  C   LIG    1       28.618 -19.502   5.367  0.00  0.00    +0.093 C 
ENDBRANCH   7  17
ENDBRANCH   1   8
BRANCH   1  18
ATOM     18  C   LIG    1       25.553 -19.425   2.504  0.00  0.00    +0.331 C 
ATOM     19  O   LIG    1       26.512 -19.844   1.816  0.00  0.00    -0.248 OA
BRANCH  18  20
ATOM     20  O   LIG    1       24.270 -19.768   2.281  0.00  0.00    -0.466 OA
ATOM     21  C   LIG    1       24.038 -21.160   2.425  0.00  0.00    +0.280 C 
ENDBRANCH  18  20
ENDBRANCH   1  18
BRANCH   4  22
ATOM     22  C   LIG    1       25.605 -14.916   2.264  0.00  0.00    +0.095 C 
BRANCH  22  23
ATOM     23  C   LIG    1       25.781 -13.399   2.076  0.00  0.00    +0.136 C 
BRANCH  23  24
ATOM     24  C   LIG    1       26.344 -12.779   3.297  0.00  0.00    +0.308 C 
ATOM     25  O   LIG    1       25.651 -12.571   4.373  0.00  0.00    -0.251 OA
BRANCH  24  26
ATOM     26  O   LIG    1       27.588 -12.340   3.112  0.00  0.00    -0.468 OA
ATOM     27  C   LIG    1       28.610 -12.965   3.891  0.00  0.00    +0.280 C 
ENDBRANCH  24  26
ENDBRANCH  23  24
ENDBRANCH  22  23
ENDBRANCH   4  22
TORSDOF 9
ENDMDL
MODEL 3
REMARK VINA RESULT:       3.3      2.068      6.403
REMARK  Name = *****
REMARK                            x       y       z     vdW  Elec       q    Type
REMARK                         _______ _______ _______ _____ _____    ______ ____
ROOT
ATOM      1  C   LIG    1       25.859 -16.874   3.588  0.00  0.00    +0.141 C 
ATOM      2  C   LIG    1       25.900 -17.973   2.504  0.00  0.00    +0.053 C 
ATOM      3  C   LIG    1       25.514 -19.400   2.917  0.00  0.00    +0.087 C 
ATOM      4  N   LIG    1       24.291 -19.578   3.711  0.00  0.00    -0.302 NA
ATOM      5  C   LIG    1       24.439 -18.778   4.891  0.00  0.00    +0.087 C 
ATOM      6  C   LIG    1       24.701 -17.220   4.544  0.00  0.00    +0.053 C 
ENDROOT
BRANCH   1   8
ATOM      7  C   LIG    1       28.338 -17.395   4.806  0.00  0.00    +0.221 C 
ATOM      8  N   LIG    1       27.326 -16.567   4.237  0.00  0.00    -0.255 N 
ATOM      9  O   LIG    1       29.406 -16.884   5.199  0.00  0.00    -0.275 OA
BRANCH   8  10
ATOM     10  C   LIG    1       27.612 -15.093   4.365  0.00  0.00    +0.037 A 
ATOM     11  C   LIG    1       28.367 -14.384   3.406  0.00  0.00    +0.023 A 
ATOM     12  C   LIG    1       28.694 -13.014   3.575  0.00  0.00    +0.002 A 
ATOM     13  C   LIG    1       28.233 -12.306   4.680  0.00  0.00    +0.000 A 
ATOM     14  C   LIG    1       27.420 -12.963   5.598  0.00  0.00    +0.002 A 
ATOM     15  C   LIG    1       27.111 -14.335   5.440  0.00  0.00    +0.023 A 
ENDBRANCH   8  10
BRANCH   7  17
ATOM     16  C   LIG    1       29.014 -19.561   6.153  0.00  0.00    +0.013 C 
ATOM     17  C   LIG    1       28.337 -18.963   5.008  0.00  0.00    +0.093 C 
ENDBRANCH   7  17
ENDBRANCH   1   8
BRANCH   1  18
ATOM     18  C   LIG    1       25.358 -15.496   3.071  0.00  0.00    +0.331 C 
ATOM     19  O   LIG    1       25.843 -14.872   2.100  0.00  0.00    -0.248 OA
BRANCH  18  20
ATOM     20  O   LIG    1       24.328 -15.040   3.809  0.00  0.00    -0.466 OA
ATOM     21  C   LIG    1       24.065 -13.662   3.599  0.00  0.00    +0.280 C 
ENDBRANCH  18  20
ENDBRANCH   1  18
BRANCH   4  22
ATOM     22  C   LIG    1       22.994 -19.344   3.095  0.00  0.00    +0.095 C 
BRANCH  22  23
ATOM     23  C   LIG    1       21.861 -19.288   4.134  0.00  0.00    +0.136 C 
BRANCH  23  24
ATOM     24  C   LIG    1       21.817 -20.535   4.933  0.00  0.00    +0.308 C 
ATOM     25  O   LIG    1       21.114 -21.571   4.594  0.00  0.00    -0.251 OA
BRANCH  24  26
ATOM     26  O   LIG    1       22.462 -20.414   6.091  0.00  0.00    -0.468 OA
ATOM     27  C   LIG    1       23.166 -21.568   6.555  0.00  0.00    +0.280 C 
ENDBRANCH  24  26
ENDBRANCH  23  24
ENDBRANCH  22  23
ENDBRANCH   4  22
TORSDOF 9
ENDMDL
