MODEL 1
REMARK VINA RESULT:      -6.5      0.000      0.000
REMARK  Name = *****
REMARK                            x       y       z     vdW  Elec       q    Type
REMARK                         _______ _______ _______ _____ _____    ______ ____
ROOT
ATOM      1  C   LIG    1       24.165 -20.020   5.029  0.00  0.00    -0.003 A 
ATOM      2  C   LIG    1       25.528 -19.714   4.634  0.00  0.00    +0.130 A 
ATOM      3  C   LIG    1       26.640 -20.090   5.494  0.00  0.00    -0.003 A 
ATOM      4  C   LIG    1       26.346 -20.803   6.667  0.00  0.00    +0.007 A 
ATOM      5  C   LIG    1       25.046 -21.064   7.061  0.00  0.00    +0.001 A 
ATOM      6  C   LIG    1       23.982 -20.660   6.272  0.00  0.00    +0.007 A 
ENDROOT
BRANCH   1   8
ATOM      7  C   LIG    1       21.689 -20.750   4.452  0.00  0.00    +0.012 C 
ATOM      8  C   LIG    1       22.868 -19.743   4.219  0.00  0.00    +0.016 C 
ATOM      9  C   LIG    1       22.309 -18.340   4.485  0.00  0.00    +0.012 C 
ENDBRANCH   1   8
BRANCH   3  10
ATOM     10  C   LIG    1       28.144 -19.808   5.271  0.00  0.00    +0.016 C 
ATOM     11  C   LIG    1       29.054 -20.465   6.341  0.00  0.00    +0.012 C 
ATOM     12  C   LIG    1       28.588 -18.339   5.180  0.00  0.00    +0.012 C 
ENDBRANCH   3  10
BRANCH   2  13
ATOM     13  O   LIG    1       25.708 -19.053   3.410  0.00  0.00    -0.465 OA
BRANCH  13  14
ATOM     14  C   LIG    1       25.593 -17.633   3.539  0.00  0.00    +0.406 C 
BRANCH  14  15
ATOM     15  O   LIG    1       26.546 -16.803   2.926  0.00  0.00    -0.249 OA
BRANCH  15  16
ATOM     16  P   LIG    1       26.435 -15.285   3.296  0.00  0.00    +0.475 P 
ATOM     17  O   LIG    1       25.165 -14.926   4.036  0.00  0.00    -0.227 OA
BRANCH  16  18
ATOM     18  O   LIG    1       26.686 -14.435   1.974  0.00  0.00    -0.302 OA
ATOM     19  H   LIG    1       27.617 -14.452   1.649  0.00  0.00    +0.222 HD
ENDBRANCH  16  18
BRANCH  16  20
ATOM     20  O   LIG    1       27.750 -14.991   4.120  0.00  0.00    -0.302 OA
ATOM     21  H   LIG    1       28.472 -14.678   3.544  0.00  0.00    +0.222 HD
ENDBRANCH  16  20
ENDBRANCH  15  16
ENDBRANCH  14  15
ENDBRANCH  13  14
ENDBRANCH   2  13
TORSDOF 8
ENDMDL
MODEL 2
REMARK VINA RESULT:      -3.5      2.943      4.814
REMARK  Name = *****
REMARK                            x       y       z     vdW  Elec       q    Type
REMARK                         _______ _______ _______ _____ _____    ______ ____
ROOT
ATOM      1  C   LIG    1       23.808 -17.801   4.047  0.00  0.00    -0.003 A 
ATOM      2  C   LIG    1       25.092 -17.254   3.647  0.00  0.00    +0.130 A 
ATOM      3  C   LIG    1       25.297 -15.813   3.624  0.00  0.00    -0.003 A 
ATOM      4  C   LIG    1       24.241 -14.996   4.058  0.00  0.00    +0.007 A 
ATOM      5  C   LIG    1       23.007 -15.515   4.404  0.00  0.00    +0.001 A 
ATOM      6  C   LIG    1       22.790 -16.883   4.376  0.00  0.00    +0.007 A 
ENDROOT
BRANCH   1   8
ATOM      7  C   LIG    1       24.184 -20.102   5.295  0.00  0.00    +0.012 C 
ATOM      8  C   LIG    1       23.427 -19.302   4.180  0.00  0.00    +0.016 C 
ATOM      9  C   LIG    1       21.927 -19.496   4.437  0.00  0.00    +0.012 C 
ENDBRANCH   1   8
BRANCH   3  10
ATOM     10  C   LIG    1       26.566 -15.047   3.183  0.00  0.00    +0.016 C 
ATOM     11  C   LIG    1       27.402 -14.512   4.374  0.00  0.00    +0.012 C 
ATOM     12  C   LIG    1       26.385 -13.859   2.224  0.00  0.00    +0.012 C 
ENDBRANCH   3  10
BRANCH   2  13
ATOM     13  O   LIG    1       26.097 -18.167   3.294  0.00  0.00    -0.465 OA
BRANCH  13  14
ATOM     14  C   LIG    1       27.057 -18.347   4.339  0.00  0.00    +0.406 C 
BRANCH  14  15
ATOM     15  O   LIG    1       27.532 -19.637   4.628  0.00  0.00    -0.249 OA
BRANCH  15  16
ATOM     16  P   LIG    1       28.334 -19.761   5.968  0.00  0.00    +0.475 P 
ATOM     17  O   LIG    1       29.221 -18.571   6.263  0.00  0.00    -0.227 OA
BRANCH  16  18
ATOM     18  O   LIG    1       29.092 -21.160   5.961  0.00  0.00    -0.302 OA
ATOM     19  H   LIG    1       29.302 -21.506   5.062  0.00  0.00    +0.222 HD
ENDBRANCH  16  18
BRANCH  16  20
ATOM     20  O   LIG    1       27.222 -20.005   7.062  0.00  0.00    -0.302 OA
ATOM     21  H   LIG    1       26.413 -20.389   6.673  0.00  0.00    +0.222 HD
ENDBRANCH  16  20
ENDBRANCH  15  16
ENDBRANCH  14  15
ENDBRANCH  13  14
ENDBRANCH   2  13
TORSDOF 8
ENDMDL
