MODEL 1
REMARK VINA RESULT:      -6.0      0.000      0.000
REMARK  Name = *****
REMARK                            x       y       z     vdW  Elec       q    Type
REMARK                         _______ _______ _______ _____ _____    ______ ____
ROOT
ATOM      1  C   LIG    1       25.526 -21.821   7.473  0.00  0.00    -0.004 A 
ATOM      2  C   LIG    1       24.206 -21.939   7.000  0.00  0.00    +0.048 A 
ATOM      3 CL   LIG    1       23.120 -20.593   6.997  0.00  0.00    -0.083 Cl
ATOM      4  C   LIG    1       23.718 -23.159   6.525  0.00  0.00    +0.040 A 
ATOM      5  C   LIG    1       24.540 -24.281   6.531  0.00  0.00    +0.042 A 
ATOM      6 CL   LIG    1       23.941 -25.785   5.946  0.00  0.00    -0.084 Cl
ATOM      7  C   LIG    1       25.842 -24.197   7.013  0.00  0.00    +0.020 A 
ATOM      8  C   LIG    1       26.328 -22.976   7.485  0.00  0.00    +0.009 A 
ENDROOT
BRANCH   1   9
ATOM      9  C   LIG    1       26.054 -20.512   8.007  0.00  0.00    +0.192 C 
BRANCH   9  10
ATOM     10  O   LIG    1       25.965 -20.454   9.427  0.00  0.00    -0.390 OA
ATOM     11  H   LIG    1       26.686 -21.007   9.772  0.00  0.00    +0.210 HD
ENDBRANCH   9  10
ENDBRANCH   1   9
TORSDOF 2
ENDMDL
MODEL 2
REMARK VINA RESULT:      -5.8      2.988      3.834
REMARK  Name = *****
REMARK                            x       y       z     vdW  Elec       q    Type
REMARK                         _______ _______ _______ _____ _____    ______ ____
ROOT
ATOM      1  C   LIG    1       25.153 -21.031   7.285  0.00  0.00    -0.004 A 
ATOM      2  C   LIG    1       26.035 -20.629   6.264  0.00  0.00    +0.048 A 
ATOM      3 CL   LIG    1       27.751 -20.721   6.459  0.00  0.00    -0.083 Cl
ATOM      4  C   LIG    1       25.552 -20.127   5.052  0.00  0.00    +0.040 A 
ATOM      5  C   LIG    1       24.180 -20.006   4.853  0.00  0.00    +0.042 A 
ATOM      6 CL   LIG    1       23.583 -19.388   3.362  0.00  0.00    -0.084 Cl
ATOM      7  C   LIG    1       23.288 -20.376   5.854  0.00  0.00    +0.020 A 
ATOM      8  C   LIG    1       23.773 -20.880   7.062  0.00  0.00    +0.009 A 
ENDROOT
BRANCH   1   9
ATOM      9  C   LIG    1       25.667 -21.555   8.604  0.00  0.00    +0.192 C 
BRANCH   9  10
ATOM     10  O   LIG    1       25.978 -20.495   9.501  0.00  0.00    -0.390 OA
ATOM     11  H   LIG    1       25.146 -20.255   9.944  0.00  0.00    +0.210 HD
ENDBRANCH   9  10
ENDBRANCH   1   9
TORSDOF 2
ENDMDL
MODEL 3
REMARK VINA RESULT:      -5.7      3.751      4.398
REMARK  Name = *****
REMARK                            x       y       z     vdW  Elec       q    Type
REMARK                         _______ _______ _______ _____ _____    ______ ____
ROOT
ATOM      1  C   LIG    1       23.563 -20.476   5.685  0.00  0.00    -0.004 A 
ATOM      2  C   LIG    1       24.792 -20.305   5.022  0.00  0.00    +0.048 A 
ATOM      3 CL   LIG    1       24.872 -19.992   3.323  0.00  0.00    -0.083 Cl
ATOM      4  C   LIG    1       26.002 -20.393   5.716  0.00  0.00    +0.040 A 
ATOM      5  C   LIG    1       25.998 -20.670   7.080  0.00  0.00    +0.042 A 
ATOM      6 CL   LIG    1       27.486 -20.779   7.936  0.00  0.00    -0.084 Cl
ATOM      7  C   LIG    1       24.796 -20.865   7.754  0.00  0.00    +0.020 A 
ATOM      8  C   LIG    1       23.589 -20.773   7.058  0.00  0.00    +0.009 A 
ENDROOT
BRANCH   1   9
ATOM      9  C   LIG    1       22.253 -20.403   4.938  0.00  0.00    +0.192 C 
BRANCH   9  10
ATOM     10  O   LIG    1       21.600 -21.667   4.904  0.00  0.00    -0.390 OA
ATOM     11  H   LIG    1       20.971 -21.634   4.163  0.00  0.00    +0.210 HD
ENDBRANCH   9  10
ENDBRANCH   1   9
TORSDOF 2
ENDMDL
MODEL 4
REMARK VINA RESULT:      -5.7      2.550      4.312
REMARK  Name = *****
REMARK                            x       y       z     vdW  Elec       q    Type
REMARK                         _______ _______ _______ _____ _____    ______ ____
ROOT
ATOM      1  C   LIG    1       24.259 -23.191   6.958  0.00  0.00    -0.004 A 
ATOM      2  C   LIG    1       25.623 -23.530   6.915  0.00  0.00    +0.048 A 
ATOM      3 CL   LIG    1       26.149 -25.129   6.513  0.00  0.00    -0.083 Cl
ATOM      4  C   LIG    1       26.610 -22.585   7.209  0.00  0.00    +0.040 A 
ATOM      5  C   LIG    1       26.242 -21.292   7.566  0.00  0.00    +0.042 A 
ATOM      6 CL   LIG    1       27.455 -20.126   7.929  0.00  0.00    -0.084 Cl
ATOM      7  C   LIG    1       24.899 -20.936   7.637  0.00  0.00    +0.020 A 
ATOM      8  C   LIG    1       23.916 -21.882   7.340  0.00  0.00    +0.009 A 
ENDROOT
BRANCH   1   9
ATOM      9  C   LIG    1       23.187 -24.212   6.662  0.00  0.00    +0.192 C 
BRANCH   9  10
ATOM     10  O   LIG    1       21.901 -23.607   6.570  0.00  0.00    -0.390 OA
ATOM     11  H   LIG    1       21.704 -23.242   7.449  0.00  0.00    +0.210 HD
ENDBRANCH   9  10
ENDBRANCH   1   9
TORSDOF 2
ENDMDL
MODEL 5
REMARK VINA RESULT:      -5.7      3.310      4.736
REMARK  Name = *****
REMARK                            x       y       z     vdW  Elec       q    Type
REMARK                         _______ _______ _______ _____ _____    ______ ____
ROOT
ATOM      1  C   LIG    1       24.406 -21.662   5.235  0.00  0.00    -0.004 A 
ATOM      2  C   LIG    1       23.419 -21.195   6.122  0.00  0.00    +0.048 A 
ATOM      3 CL   LIG    1       23.018 -22.056   7.568  0.00  0.00    -0.083 Cl
ATOM      4  C   LIG    1       22.714 -20.017   5.859  0.00  0.00    +0.040 A 
ATOM      5  C   LIG    1       22.977 -19.300   4.697  0.00  0.00    +0.042 A 
ATOM      6 CL   LIG    1       22.110 -17.849   4.371  0.00  0.00    -0.084 Cl
ATOM      7  C   LIG    1       23.933 -19.751   3.792  0.00  0.00    +0.020 A 
ATOM      8  C   LIG    1       24.638 -20.927   4.059  0.00  0.00    +0.009 A 
ENDROOT
BRANCH   1   9
ATOM      9  C   LIG    1       25.157 -22.944   5.501  0.00  0.00    +0.192 C 
BRANCH   9  10
ATOM     10  O   LIG    1       24.821 -23.953   4.554  0.00  0.00    -0.390 OA
ATOM     11  H   LIG    1       25.313 -24.751   4.814  0.00  0.00    +0.210 HD
ENDBRANCH   9  10
ENDBRANCH   1   9
TORSDOF 2
ENDMDL
MODEL 6
REMARK VINA RESULT:      -5.7      2.750      3.687
REMARK  Name = *****
REMARK                            x       y       z     vdW  Elec       q    Type
REMARK                         _______ _______ _______ _____ _____    ______ ____
ROOT
ATOM      1  C   LIG    1       24.196 -22.567   6.905  0.00  0.00    -0.004 A 
ATOM      2  C   LIG    1       24.286 -21.199   6.591  0.00  0.00    +0.048 A 
ATOM      3 CL   LIG    1       22.905 -20.292   6.077  0.00  0.00    -0.083 Cl
ATOM      4  C   LIG    1       25.506 -20.521   6.671  0.00  0.00    +0.040 A 
ATOM      5  C   LIG    1       26.654 -21.208   7.052  0.00  0.00    +0.042 A 
ATOM      6 CL   LIG    1       28.157 -20.375   7.152  0.00  0.00    -0.084 Cl
ATOM      7  C   LIG    1       26.596 -22.566   7.347  0.00  0.00    +0.020 A 
ATOM      8  C   LIG    1       25.375 -23.240   7.269  0.00  0.00    +0.009 A 
ENDROOT
BRANCH   1   9
ATOM      9  C   LIG    1       22.886 -23.311   6.801  0.00  0.00    +0.192 C 
BRANCH   9  10
ATOM     10  O   LIG    1       23.087 -24.673   6.437  0.00  0.00    -0.390 OA
ATOM     11  H   LIG    1       23.484 -25.110   7.210  0.00  0.00    +0.210 HD
ENDBRANCH   9  10
ENDBRANCH   1   9
TORSDOF 2
ENDMDL
MODEL 7
REMARK VINA RESULT:      -5.6      3.214      4.651
REMARK  Name = *****
REMARK                            x       y       z     vdW  Elec       q    Type
REMARK                         _______ _______ _______ _____ _____    ______ ____
ROOT
ATOM      1  C   LIG    1       23.432 -21.918   6.111  0.00  0.00    -0.004 A 
ATOM      2  C   LIG    1       24.821 -21.744   5.969  0.00  0.00    +0.048 A 
ATOM      3 CL   LIG    1       25.952 -22.752   6.803  0.00  0.00    -0.083 Cl
ATOM      4  C   LIG    1       25.340 -20.735   5.152  0.00  0.00    +0.040 A 
ATOM      5  C   LIG    1       24.475 -19.877   4.480  0.00  0.00    +0.042 A 
ATOM      6 CL   LIG    1       25.111 -18.635   3.474  0.00  0.00    -0.084 Cl
ATOM      7  C   LIG    1       23.097 -20.014   4.621  0.00  0.00    +0.020 A 
ATOM      8  C   LIG    1       22.582 -21.025   5.435  0.00  0.00    +0.009 A 
ENDROOT
BRANCH   1   9
ATOM      9  C   LIG    1       22.864 -22.992   7.007  0.00  0.00    +0.192 C 
BRANCH   9  10
ATOM     10  O   LIG    1       22.909 -24.271   6.383  0.00  0.00    -0.390 OA
ATOM     11  H   LIG    1       22.970 -24.926   7.098  0.00  0.00    +0.210 HD
ENDBRANCH   9  10
ENDBRANCH   1   9
TORSDOF 2
ENDMDL
MODEL 8
REMARK VINA RESULT:      -5.5      3.582      3.973
REMARK  Name = *****
REMARK                            x       y       z     vdW  Elec       q    Type
REMARK                         _______ _______ _______ _____ _____    ______ ____
ROOT
ATOM      1  C   LIG    1       24.376 -19.656   4.225  0.00  0.00    -0.004 A 
ATOM      2  C   LIG    1       23.049 -19.676   4.693  0.00  0.00    +0.048 A 
ATOM      3 CL   LIG    1       21.936 -18.405   4.320  0.00  0.00    -0.083 Cl
ATOM      4  C   LIG    1       22.583 -20.724   5.492  0.00  0.00    +0.040 A 
ATOM      5  C   LIG    1       23.444 -21.758   5.845  0.00  0.00    +0.042 A 
ATOM      6 CL   LIG    1       22.872 -23.050   6.828  0.00  0.00    -0.084 Cl
ATOM      7  C   LIG    1       24.767 -21.751   5.414  0.00  0.00    +0.020 A 
ATOM      8  C   LIG    1       25.228 -20.704   4.613  0.00  0.00    +0.009 A 
ENDROOT
BRANCH   1   9
ATOM      9  C   LIG    1       24.892 -18.517   3.380  0.00  0.00    +0.192 C 
BRANCH   9  10
ATOM     10  O   LIG    1       26.299 -18.356   3.524  0.00  0.00    -0.390 OA
ATOM     11  H   LIG    1       26.579 -18.975   4.220  0.00  0.00    +0.210 HD
ENDBRANCH   9  10
ENDBRANCH   1   9
TORSDOF 2
ENDMDL
MODEL 9
REMARK VINA RESULT:      -5.5      2.101      2.668
REMARK  Name = *****
REMARK                            x       y       z     vdW  Elec       q    Type
REMARK                         _______ _______ _______ _____ _____    ______ ____
ROOT
ATOM      1  C   LIG    1       23.976 -22.089   7.053  0.00  0.00    -0.004 A 
ATOM      2  C   LIG    1       25.367 -22.210   7.221  0.00  0.00    +0.048 A 
ATOM      3 CL   LIG    1       26.360 -20.841   7.587  0.00  0.00    -0.083 Cl
ATOM      4  C   LIG    1       26.004 -23.447   7.086  0.00  0.00    +0.040 A 
ATOM      5  C   LIG    1       25.257 -24.576   6.765  0.00  0.00    +0.042 A 
ATOM      6 CL   LIG    1       26.039 -26.100   6.599  0.00  0.00    -0.084 Cl
ATOM      7  C   LIG    1       23.883 -24.480   6.572  0.00  0.00    +0.020 A 
ATOM      8  C   LIG    1       23.250 -23.243   6.711  0.00  0.00    +0.009 A 
ENDROOT
BRANCH   1   9
ATOM      9  C   LIG    1       23.284 -20.753   7.176  0.00  0.00    +0.192 C 
BRANCH   9  10
ATOM     10  O   LIG    1       22.825 -20.284   5.913  0.00  0.00    -0.390 OA
ATOM     11  H   LIG    1       23.149 -20.916   5.249  0.00  0.00    +0.210 HD
ENDBRANCH   9  10
ENDBRANCH   1   9
TORSDOF 2
ENDMDL
