MODEL 1
REMARK VINA RESULT:      -5.4      0.000      0.000
REMARK  Name = *****
REMARK                            x       y       z     vdW  Elec       q    Type
REMARK                         _______ _______ _______ _____ _____    ______ ____
ROOT
ATOM      1  C   LIG    1       24.787 -30.746   7.854  0.00  0.00    +0.059 C 
ENDROOT
BRANCH   1   2
ATOM      2  C   LIG    1       23.661 -31.227   8.851  0.00  0.00    -0.033 A 
ATOM      3  C   LIG    1       23.159 -32.539   8.888  0.00  0.00    +0.005 A 
ATOM      4  C   LIG    1       22.042 -32.891   9.653  0.00  0.00    +0.000 A 
ATOM      5  C   LIG    1       21.392 -31.936  10.416  0.00  0.00    +0.000 A 
ATOM      6  C   LIG    1       21.933 -30.663  10.505  0.00  0.00    +0.000 A 
ATOM      7  C   LIG    1       23.097 -30.346   9.797  0.00  0.00    +0.005 A 
ENDBRANCH   1   2
BRANCH   1   8
ATOM      8  C   LIG    1       24.914 -31.642   6.539  0.00  0.00    -0.033 A 
ATOM      9  C   LIG    1       26.128 -31.824   5.841  0.00  0.00    +0.005 A 
ATOM     10  C   LIG    1       26.274 -32.713   4.769  0.00  0.00    +0.000 A 
ATOM     11  C   LIG    1       25.172 -33.382   4.271  0.00  0.00    +0.000 A 
ATOM     12  C   LIG    1       23.930 -33.147   4.849  0.00  0.00    +0.000 A 
ATOM     13  C   LIG    1       23.800 -32.270   5.948  0.00  0.00    +0.005 A 
ENDBRANCH   1   8
BRANCH   1  14
ATOM     14  C   LIG    1       26.290 -30.791   8.526  0.00  0.00    +0.191 C 
BRANCH  14  16
ATOM     15  C   LIG    1       27.057 -33.242   8.985  0.00  0.00    +0.007 C 
ATOM     16  C   LIG    1       26.484 -31.940   9.558  0.00  0.00    +0.042 C 
ENDBRANCH  14  16
BRANCH  14  17
ATOM     17  O   LIG    1       26.626 -29.574   9.235  0.00  0.00    -0.460 OA
BRANCH  17  18
ATOM     18  C   LIG    1       27.090 -29.554  10.489  0.00  0.00    +0.304 C 
ATOM     19  O   LIG    1       28.216 -29.916  10.795  0.00  0.00    -0.251 OA
ATOM     20  C   LIG    1       26.107 -29.062  11.462  0.00  0.00    +0.136 C 
ENDBRANCH  17  18
ENDBRANCH  14  17
ENDBRANCH   1  14
BRANCH   1  21
ATOM     21  C   LIG    1       24.449 -29.207   7.550  0.00  0.00    +0.038 C 
BRANCH  21  22
ATOM     22  C   LIG    1       25.118 -28.424   6.353  0.00  0.00    +0.054 C 
ATOM     23  C   LIG    1       24.308 -28.664   5.051  0.00  0.00    +0.024 C 
BRANCH  22  24
ATOM     24  N   LIG    1       25.366 -26.990   6.603  0.00  0.00    -0.306 NA
ATOM     25  C   LIG    1       24.276 -26.116   6.181  0.00  0.00    +0.105 C 
ATOM     26  C   LIG    1       26.606 -26.487   6.000  0.00  0.00    +0.105 C 
ENDBRANCH  22  24
ENDBRANCH  21  22
ENDBRANCH   1  21
TORSDOF 9
ENDMDL
MODEL 2
REMARK VINA RESULT:      -5.3      1.808      4.926
REMARK  Name = *****
REMARK                            x       y       z     vdW  Elec       q    Type
REMARK                         _______ _______ _______ _____ _____    ______ ____
ROOT
ATOM      1  C   LIG    1       24.961 -30.413   8.472  0.00  0.00    +0.059 C 
ENDROOT
BRANCH   1   2
ATOM      2  C   LIG    1       25.869 -31.291   7.523  0.00  0.00    -0.033 A 
ATOM      3  C   LIG    1       25.619 -31.472   6.153  0.00  0.00    +0.005 A 
ATOM      4  C   LIG    1       26.331 -32.394   5.378  0.00  0.00    +0.000 A 
ATOM      5  C   LIG    1       27.326 -33.166   5.954  0.00  0.00    +0.000 A 
ATOM      6  C   LIG    1       27.686 -32.926   7.272  0.00  0.00    +0.000 A 
ATOM      7  C   LIG    1       27.020 -31.943   8.011  0.00  0.00    +0.005 A 
ENDBRANCH   1   2
BRANCH   1   8
ATOM      8  C   LIG    1       25.738 -29.792   9.720  0.00  0.00    -0.033 A 
ATOM      9  C   LIG    1       26.446 -28.572   9.662  0.00  0.00    +0.005 A 
ATOM     10  C   LIG    1       27.014 -27.957  10.785  0.00  0.00    +0.000 A 
ATOM     11  C   LIG    1       26.997 -28.600  12.008  0.00  0.00    +0.000 A 
ATOM     12  C   LIG    1       26.415 -29.860  12.092  0.00  0.00    +0.000 A 
ATOM     13  C   LIG    1       25.819 -30.456  10.961  0.00  0.00    +0.005 A 
ENDBRANCH   1   8
BRANCH   1  14
ATOM     14  C   LIG    1       23.729 -31.275   9.145  0.00  0.00    +0.191 C 
BRANCH  14  16
ATOM     15  C   LIG    1       23.670 -33.824   8.591  0.00  0.00    +0.007 C 
ATOM     16  C   LIG    1       23.187 -32.414   8.234  0.00  0.00    +0.042 C 
ENDBRANCH  14  16
BRANCH  14  17
ATOM     17  O   LIG    1       22.580 -30.456   9.468  0.00  0.00    -0.460 OA
BRANCH  17  18
ATOM     18  C   LIG    1       21.694 -30.770  10.420  0.00  0.00    +0.304 C 
ATOM     19  O   LIG    1       20.497 -30.893  10.209  0.00  0.00    -0.251 OA
ATOM     20  C   LIG    1       22.303 -30.942  11.744  0.00  0.00    +0.136 C 
ENDBRANCH  17  18
ENDBRANCH  14  17
ENDBRANCH   1  14
BRANCH   1  21
ATOM     21  C   LIG    1       24.298 -29.308   7.516  0.00  0.00    +0.038 C 
BRANCH  21  22
ATOM     22  C   LIG    1       25.134 -28.545   6.416  0.00  0.00    +0.054 C 
ATOM     23  C   LIG    1       24.512 -28.793   5.016  0.00  0.00    +0.024 C 
BRANCH  22  24
ATOM     24  N   LIG    1       25.359 -27.109   6.682  0.00  0.00    -0.306 NA
ATOM     25  C   LIG    1       24.307 -26.238   6.169  0.00  0.00    +0.105 C 
ATOM     26  C   LIG    1       26.644 -26.605   6.184  0.00  0.00    +0.105 C 
ENDBRANCH  22  24
ENDBRANCH  21  22
ENDBRANCH   1  21
TORSDOF 9
ENDMDL
MODEL 3
REMARK VINA RESULT:      -5.3      3.919      7.508
REMARK  Name = *****
REMARK                            x       y       z     vdW  Elec       q    Type
REMARK                         _______ _______ _______ _____ _____    ______ ____
ROOT
ATOM      1  C   LIG    1       24.986 -28.193  13.178  0.00  0.00    +0.059 C 
ENDROOT
BRANCH   1   2
ATOM      2  C   LIG    1       25.829 -26.998  13.776  0.00  0.00    -0.033 A 
ATOM      3  C   LIG    1       25.631 -26.470  15.063  0.00  0.00    +0.005 A 
ATOM      4  C   LIG    1       26.266 -25.302  15.497  0.00  0.00    +0.000 A 
ATOM      5  C   LIG    1       27.128 -24.623  14.653  0.00  0.00    +0.000 A 
ATOM      6  C   LIG    1       27.445 -25.180  13.424  0.00  0.00    +0.000 A 
ATOM      7  C   LIG    1       26.865 -26.392  13.035  0.00  0.00    +0.005 A 
ENDBRANCH   1   2
BRANCH   1   8
ATOM      8  C   LIG    1       23.426 -27.885  13.049  0.00  0.00    -0.033 A 
ATOM      9  C   LIG    1       22.493 -28.815  12.543  0.00  0.00    +0.005 A 
ATOM     10  C   LIG    1       21.109 -28.600  12.552  0.00  0.00    +0.000 A 
ATOM     11  C   LIG    1       20.601 -27.385  12.969  0.00  0.00    +0.000 A 
ATOM     12  C   LIG    1       21.488 -26.391  13.367  0.00  0.00    +0.000 A 
ATOM     13  C   LIG    1       22.879 -26.629  13.380  0.00  0.00    +0.005 A 
ENDBRANCH   1   8
BRANCH   1  14
ATOM     14  C   LIG    1       25.060 -29.548  14.112  0.00  0.00    +0.191 C 
BRANCH  14  16
ATOM     15  C   LIG    1       23.385 -30.989  15.500  0.00  0.00    +0.007 C 
ATOM     16  C   LIG    1       23.978 -29.602  15.229  0.00  0.00    +0.042 C 
ENDBRANCH  14  16
BRANCH  14  17
ATOM     17  O   LIG    1       26.329 -29.694  14.793  0.00  0.00    -0.460 OA
BRANCH  17  18
ATOM     18  C   LIG    1       27.262 -30.582  14.433  0.00  0.00    +0.304 C 
ATOM     19  O   LIG    1       27.007 -31.733  14.113  0.00  0.00    -0.251 OA
ATOM     20  C   LIG    1       28.624 -30.036  14.470  0.00  0.00    +0.136 C 
ENDBRANCH  17  18
ENDBRANCH  14  17
ENDBRANCH   1  14
BRANCH   1  21
ATOM     21  C   LIG    1       25.688 -28.544  11.778  0.00  0.00    +0.038 C 
BRANCH  21  22
ATOM     22  C   LIG    1       25.665 -30.001  11.173  0.00  0.00    +0.054 C 
ATOM     23  C   LIG    1       24.610 -30.082  10.038  0.00  0.00    +0.024 C 
BRANCH  22  24
ATOM     24  N   LIG    1       26.981 -30.527  10.754  0.00  0.00    -0.306 NA
ATOM     25  C   LIG    1       28.081 -29.585  10.934  0.00  0.00    +0.105 C 
ATOM     26  C   LIG    1       27.017 -31.003   9.366  0.00  0.00    +0.105 C 
ENDBRANCH  22  24
ENDBRANCH  21  22
ENDBRANCH   1  21
TORSDOF 9
ENDMDL
MODEL 4
REMARK VINA RESULT:      -5.2      1.635      4.923
REMARK  Name = *****
REMARK                            x       y       z     vdW  Elec       q    Type
REMARK                         _______ _______ _______ _____ _____    ______ ____
ROOT
ATOM      1  C   LIG    1       24.813 -30.077   7.635  0.00  0.00    +0.059 C 
ENDROOT
BRANCH   1   2
ATOM      2  C   LIG    1       24.665 -31.147   6.482  0.00  0.00    -0.033 A 
ATOM      3  C   LIG    1       23.636 -32.103   6.431  0.00  0.00    +0.005 A 
ATOM      4  C   LIG    1       23.631 -33.147   5.501  0.00  0.00    +0.000 A 
ATOM      5  C   LIG    1       24.660 -33.266   4.582  0.00  0.00    +0.000 A 
ATOM      6  C   LIG    1       25.624 -32.272   4.519  0.00  0.00    +0.000 A 
ATOM      7  C   LIG    1       25.572 -31.189   5.403  0.00  0.00    +0.005 A 
ENDBRANCH   1   2
BRANCH   1   8
ATOM      8  C   LIG    1       25.022 -28.584   7.111  0.00  0.00    -0.033 A 
ATOM      9  C   LIG    1       24.192 -27.981   6.142  0.00  0.00    +0.005 A 
ATOM     10  C   LIG    1       24.287 -26.632   5.778  0.00  0.00    +0.000 A 
ATOM     11  C   LIG    1       25.302 -25.848   6.292  0.00  0.00    +0.000 A 
ATOM     12  C   LIG    1       26.219 -26.427   7.162  0.00  0.00    +0.000 A 
ATOM     13  C   LIG    1       26.096 -27.780   7.543  0.00  0.00    +0.005 A 
ENDBRANCH   1   8
BRANCH   1  14
ATOM     14  C   LIG    1       26.121 -30.360   8.596  0.00  0.00    +0.191 C 
BRANCH  14  16
ATOM     15  C   LIG    1       27.485 -32.536   8.133  0.00  0.00    +0.007 C 
ATOM     16  C   LIG    1       26.351 -31.865   8.918  0.00  0.00    +0.042 C 
ENDBRANCH  14  16
BRANCH  14  17
ATOM     17  O   LIG    1       26.028 -29.699   9.880  0.00  0.00    -0.460 OA
BRANCH  17  18
ATOM     18  C   LIG    1       27.093 -29.285  10.576  0.00  0.00    +0.304 C 
ATOM     19  O   LIG    1       28.107 -29.953  10.713  0.00  0.00    -0.251 OA
ATOM     20  C   LIG    1       26.917 -27.953  11.165  0.00  0.00    +0.136 C 
ENDBRANCH  17  18
ENDBRANCH  14  17
ENDBRANCH   1  14
BRANCH   1  21
ATOM     21  C   LIG    1       23.505 -30.259   8.547  0.00  0.00    +0.038 C 
BRANCH  21  22
ATOM     22  C   LIG    1       23.551 -31.014   9.933  0.00  0.00    +0.054 C 
ATOM     23  C   LIG    1       22.927 -30.122  11.038  0.00  0.00    +0.024 C 
BRANCH  22  24
ATOM     24  N   LIG    1       22.981 -32.377   9.924  0.00  0.00    -0.306 NA
ATOM     25  C   LIG    1       21.522 -32.409   9.933  0.00  0.00    +0.105 C 
ATOM     26  C   LIG    1       23.458 -33.228  11.020  0.00  0.00    +0.105 C 
ENDBRANCH  22  24
ENDBRANCH  21  22
ENDBRANCH   1  21
TORSDOF 9
ENDMDL
MODEL 5
REMARK VINA RESULT:      -5.1      1.546      4.717
REMARK  Name = *****
REMARK                            x       y       z     vdW  Elec       q    Type
REMARK                         _______ _______ _______ _____ _____    ______ ____
ROOT
ATOM      1  C   LIG    1       24.851 -31.193   8.179  0.00  0.00    +0.059 C 
ENDROOT
BRANCH   1   2
ATOM      2  C   LIG    1       25.015 -29.781   7.490  0.00  0.00    -0.033 A 
ATOM      3  C   LIG    1       25.900 -28.789   7.944  0.00  0.00    +0.005 A 
ATOM      4  C   LIG    1       25.895 -27.489   7.427  0.00  0.00    +0.000 A 
ATOM      5  C   LIG    1       25.001 -27.140   6.428  0.00  0.00    +0.000 A 
ATOM      6  C   LIG    1       24.201 -28.123   5.868  0.00  0.00    +0.000 A 
ATOM      7  C   LIG    1       24.274 -29.438   6.340  0.00  0.00    +0.005 A 
ENDBRANCH   1   2
BRANCH   1   8
ATOM      8  C   LIG    1       23.499 -31.354   9.012  0.00  0.00    -0.033 A 
ATOM      9  C   LIG    1       22.693 -32.512   8.961  0.00  0.00    +0.005 A 
ATOM     10  C   LIG    1       21.581 -32.713   9.789  0.00  0.00    +0.000 A 
ATOM     11  C   LIG    1       21.157 -31.705  10.633  0.00  0.00    +0.000 A 
ATOM     12  C   LIG    1       21.848 -30.499  10.634  0.00  0.00    +0.000 A 
ATOM     13  C   LIG    1       22.985 -30.318   9.817  0.00  0.00    +0.005 A 
ENDBRANCH   1   8
BRANCH   1  14
ATOM     14  C   LIG    1       26.044 -31.506   9.271  0.00  0.00    +0.191 C 
BRANCH  14  16
ATOM     15  C   LIG    1       25.615 -33.591  10.781  0.00  0.00    +0.007 C 
ATOM     16  C   LIG    1       26.283 -33.023   9.523  0.00  0.00    +0.042 C 
ENDBRANCH  14  16
BRANCH  14  17
ATOM     17  O   LIG    1       25.778 -30.933  10.574  0.00  0.00    -0.460 OA
BRANCH  17  18
ATOM     18  C   LIG    1       26.577 -30.035  11.162  0.00  0.00    +0.304 C 
ATOM     19  O   LIG    1       27.786 -30.178  11.268  0.00  0.00    -0.251 OA
ATOM     20  C   LIG    1       25.854 -28.865  11.674  0.00  0.00    +0.136 C 
ENDBRANCH  17  18
ENDBRANCH  14  17
ENDBRANCH   1  14
BRANCH   1  21
ATOM     21  C   LIG    1       25.003 -32.261   6.991  0.00  0.00    +0.038 C 
BRANCH  21  22
ATOM     22  C   LIG    1       26.042 -32.065   5.819  0.00  0.00    +0.054 C 
ATOM     23  C   LIG    1       27.344 -32.847   6.134  0.00  0.00    +0.024 C 
BRANCH  22  24
ATOM     24  N   LIG    1       25.524 -32.360   4.467  0.00  0.00    -0.306 NA
ATOM     25  C   LIG    1       24.454 -33.351   4.444  0.00  0.00    +0.105 C 
ATOM     26  C   LIG    1       26.555 -32.788   3.515  0.00  0.00    +0.105 C 
ENDBRANCH  22  24
ENDBRANCH  21  22
ENDBRANCH   1  21
TORSDOF 9
ENDMDL
MODEL 6
REMARK VINA RESULT:      -5.0      2.163      5.152
REMARK  Name = *****
REMARK                            x       y       z     vdW  Elec       q    Type
REMARK                         _______ _______ _______ _____ _____    ______ ____
ROOT
ATOM      1  C   LIG    1       25.197 -29.994   8.854  0.00  0.00    +0.059 C 
ENDROOT
BRANCH   1   2
ATOM      2  C   LIG    1       26.311 -29.554   9.884  0.00  0.00    -0.033 A 
ATOM      3  C   LIG    1       27.344 -30.399  10.325  0.00  0.00    +0.005 A 
ATOM      4  C   LIG    1       28.206 -30.044  11.367  0.00  0.00    +0.000 A 
ATOM      5  C   LIG    1       28.066 -28.821  12.002  0.00  0.00    +0.000 A 
ATOM      6  C   LIG    1       27.142 -27.911  11.512  0.00  0.00    +0.000 A 
ATOM      7  C   LIG    1       26.341 -28.248  10.416  0.00  0.00    +0.005 A 
ENDBRANCH   1   2
BRANCH   1   8
ATOM      8  C   LIG    1       25.061 -29.025   7.593  0.00  0.00    -0.033 A 
ATOM      9  C   LIG    1       25.830 -27.853   7.431  0.00  0.00    +0.005 A 
ATOM     10  C   LIG    1       25.812 -27.074   6.267  0.00  0.00    +0.000 A 
ATOM     11  C   LIG    1       24.928 -27.375   5.249  0.00  0.00    +0.000 A 
ATOM     12  C   LIG    1       24.064 -28.452   5.410  0.00  0.00    +0.000 A 
ATOM     13  C   LIG    1       24.112 -29.247   6.575  0.00  0.00    +0.005 A 
ENDBRANCH   1   8
BRANCH   1  14
ATOM     14  C   LIG    1       23.690 -30.011   9.521  0.00  0.00    +0.191 C 
BRANCH  14  16
ATOM     15  C   LIG    1       23.063 -29.112  11.890  0.00  0.00    +0.007 C 
ATOM     16  C   LIG    1       23.687 -30.241  11.061  0.00  0.00    +0.042 C 
ENDBRANCH  14  16
BRANCH  14  17
ATOM     17  O   LIG    1       22.844 -31.048   8.971  0.00  0.00    -0.460 OA
BRANCH  17  18
ATOM     18  C   LIG    1       21.980 -31.760   9.703  0.00  0.00    +0.304 C 
ATOM     19  O   LIG    1       20.899 -31.330  10.074  0.00  0.00    -0.251 OA
ATOM     20  C   LIG    1       22.466 -33.108  10.023  0.00  0.00    +0.136 C 
ENDBRANCH  17  18
ENDBRANCH  14  17
ENDBRANCH   1  14
BRANCH   1  21
ATOM     21  C   LIG    1       25.559 -31.508   8.464  0.00  0.00    +0.038 C 
BRANCH  21  22
ATOM     22  C   LIG    1       26.375 -31.862   7.160  0.00  0.00    +0.054 C 
ATOM     23  C   LIG    1       27.663 -32.639   7.541  0.00  0.00    +0.024 C 
BRANCH  22  24
ATOM     24  N   LIG    1       25.601 -32.544   6.102  0.00  0.00    -0.306 NA
ATOM     25  C   LIG    1       25.638 -31.867   4.810  0.00  0.00    +0.105 C 
ATOM     26  C   LIG    1       24.195 -32.777   6.450  0.00  0.00    +0.105 C 
ENDBRANCH  22  24
ENDBRANCH  21  22
ENDBRANCH   1  21
TORSDOF 9
ENDMDL
MODEL 7
REMARK VINA RESULT:      -4.9      6.690     10.257
REMARK  Name = *****
REMARK                            x       y       z     vdW  Elec       q    Type
REMARK                         _______ _______ _______ _____ _____    ______ ____
ROOT
ATOM      1  C   LIG    1       25.820 -21.480   6.018  0.00  0.00    +0.059 C 
ENDROOT
BRANCH   1   2
ATOM      2  C   LIG    1       25.614 -23.046   5.975  0.00  0.00    -0.033 A 
ATOM      3  C   LIG    1       25.991 -23.912   7.015  0.00  0.00    +0.005 A 
ATOM      4  C   LIG    1       25.963 -25.304   6.877  0.00  0.00    +0.000 A 
ATOM      5  C   LIG    1       25.549 -25.876   5.686  0.00  0.00    +0.000 A 
ATOM      6  C   LIG    1       25.052 -25.059   4.683  0.00  0.00    +0.000 A 
ATOM      7  C   LIG    1       25.009 -23.673   4.866  0.00  0.00    +0.005 A 
ENDBRANCH   1   2
BRANCH   1   8
ATOM      8  C   LIG    1       27.288 -21.031   6.454  0.00  0.00    -0.033 A 
ATOM      9  C   LIG    1       27.945 -19.905   5.914  0.00  0.00    +0.005 A 
ATOM     10  C   LIG    1       29.174 -19.430   6.388  0.00  0.00    +0.000 A 
ATOM     11  C   LIG    1       29.860 -20.135   7.358  0.00  0.00    +0.000 A 
ATOM     12  C   LIG    1       29.310 -21.317   7.839  0.00  0.00    +0.000 A 
ATOM     13  C   LIG    1       28.057 -21.771   7.375  0.00  0.00    +0.005 A 
ENDBRANCH   1   8
BRANCH   1  14
ATOM     14  C   LIG    1       24.827 -20.742   7.106  0.00  0.00    +0.191 C 
BRANCH  14  16
ATOM     15  C   LIG    1       25.591 -21.366   9.521  0.00  0.00    +0.007 C 
ATOM     16  C   LIG    1       25.543 -20.304   8.416  0.00  0.00    +0.042 C 
ENDBRANCH  14  16
BRANCH  14  17
ATOM     17  O   LIG    1       23.728 -21.585   7.527  0.00  0.00    -0.460 OA
BRANCH  17  18
ATOM     18  C   LIG    1       22.747 -21.982   6.709  0.00  0.00    +0.304 C 
ATOM     19  O   LIG    1       22.223 -21.249   5.883  0.00  0.00    -0.251 OA
ATOM     20  C   LIG    1       22.356 -23.382   6.909  0.00  0.00    +0.136 C 
ENDBRANCH  17  18
ENDBRANCH  14  17
ENDBRANCH   1  14
BRANCH   1  21
ATOM     21  C   LIG    1       25.397 -20.960   4.560  0.00  0.00    +0.038 C 
BRANCH  21  22
ATOM     22  C   LIG    1       24.918 -19.478   4.308  0.00  0.00    +0.054 C 
ATOM     23  C   LIG    1       26.080 -18.645   3.706  0.00  0.00    +0.024 C 
BRANCH  22  24
ATOM     24  N   LIG    1       23.670 -19.347   3.527  0.00  0.00    -0.306 NA
ATOM     25  C   LIG    1       22.577 -18.712   4.256  0.00  0.00    +0.105 C 
ATOM     26  C   LIG    1       23.173 -20.615   2.982  0.00  0.00    +0.105 C 
ENDBRANCH  22  24
ENDBRANCH  21  22
ENDBRANCH   1  21
TORSDOF 9
ENDMDL
MODEL 8
REMARK VINA RESULT:      -4.9      3.245      6.564
REMARK  Name = *****
REMARK                            x       y       z     vdW  Elec       q    Type
REMARK                         _______ _______ _______ _____ _____    ______ ____
ROOT
ATOM      1  C   LIG    1       23.729 -30.244  11.758  0.00  0.00    +0.059 C 
ENDROOT
BRANCH   1   2
ATOM      2  C   LIG    1       22.321 -30.932  11.564  0.00  0.00    -0.033 A 
ATOM      3  C   LIG    1       22.028 -32.243  11.976  0.00  0.00    +0.005 A 
ATOM      4  C   LIG    1       20.835 -32.886  11.632  0.00  0.00    +0.000 A 
ATOM      5  C   LIG    1       19.887 -32.232  10.864  0.00  0.00    +0.000 A 
ATOM      6  C   LIG    1       20.084 -30.897  10.545  0.00  0.00    +0.000 A 
ATOM      7  C   LIG    1       21.246 -30.241  10.965  0.00  0.00    +0.005 A 
ENDBRANCH   1   2
BRANCH   1   8
ATOM      8  C   LIG    1       23.662 -28.820  12.477  0.00  0.00    -0.033 A 
ATOM      9  C   LIG    1       24.806 -28.051  12.778  0.00  0.00    +0.005 A 
ATOM     10  C   LIG    1       24.745 -26.746  13.285  0.00  0.00    +0.000 A 
ATOM     11  C   LIG    1       23.525 -26.192  13.622  0.00  0.00    +0.000 A 
ATOM     12  C   LIG    1       22.375 -26.955  13.455  0.00  0.00    +0.000 A 
ATOM     13  C   LIG    1       22.446 -28.258  12.916  0.00  0.00    +0.005 A 
ENDBRANCH   1   8
BRANCH   1  14
ATOM     14  C   LIG    1       24.490 -29.944  10.328  0.00  0.00    +0.191 C 
BRANCH  14  16
ATOM     15  C   LIG    1       24.274 -31.891   8.604  0.00  0.00    +0.007 C 
ATOM     16  C   LIG    1       23.754 -30.532   9.089  0.00  0.00    +0.042 C 
ENDBRANCH  14  16
BRANCH  14  17
ATOM     17  O   LIG    1       25.830 -30.489  10.279  0.00  0.00    -0.460 OA
BRANCH  17  18
ATOM     18  C   LIG    1       26.932 -29.733  10.216  0.00  0.00    +0.304 C 
ATOM     19  O   LIG    1       28.016 -30.089  10.653  0.00  0.00    -0.251 OA
ATOM     20  C   LIG    1       26.705 -28.431   9.580  0.00  0.00    +0.136 C 
ENDBRANCH  17  18
ENDBRANCH  14  17
ENDBRANCH   1  14
BRANCH   1  21
ATOM     21  C   LIG    1       24.617 -31.320  12.550  0.00  0.00    +0.038 C 
BRANCH  21  22
ATOM     22  C   LIG    1       25.316 -30.980  13.924  0.00  0.00    +0.054 C 
ATOM     23  C   LIG    1       24.421 -31.450  15.100  0.00  0.00    +0.024 C 
BRANCH  22  24
ATOM     24  N   LIG    1       26.709 -31.456  14.054  0.00  0.00    -0.306 NA
ATOM     25  C   LIG    1       26.892 -32.481  15.076  0.00  0.00    +0.105 C 
ATOM     26  C   LIG    1       27.682 -30.387  14.307  0.00  0.00    +0.105 C 
ENDBRANCH  22  24
ENDBRANCH  21  22
ENDBRANCH   1  21
TORSDOF 9
ENDMDL
MODEL 9
REMARK VINA RESULT:      -4.9      1.991      4.455
REMARK  Name = *****
REMARK                            x       y       z     vdW  Elec       q    Type
REMARK                         _______ _______ _______ _____ _____    ______ ____
ROOT
ATOM      1  C   LIG    1       25.073 -30.567   8.797  0.00  0.00    +0.059 C 
ENDROOT
BRANCH   1   2
ATOM      2  C   LIG    1       23.655 -30.983   9.355  0.00  0.00    -0.033 A 
ATOM      3  C   LIG    1       22.803 -30.109  10.050  0.00  0.00    +0.005 A 
ATOM      4  C   LIG    1       21.638 -30.550  10.687  0.00  0.00    +0.000 A 
ATOM      5  C   LIG    1       21.284 -31.888  10.642  0.00  0.00    +0.000 A 
ATOM      6  C   LIG    1       22.031 -32.756   9.861  0.00  0.00    +0.000 A 
ATOM      7  C   LIG    1       23.148 -32.285   9.164  0.00  0.00    +0.005 A 
ENDBRANCH   1   2
BRANCH   1   8
ATOM      8  C   LIG    1       25.032 -29.352   7.762  0.00  0.00    -0.033 A 
ATOM      9  C   LIG    1       25.812 -28.185   7.908  0.00  0.00    +0.005 A 
ATOM     10  C   LIG    1       25.880 -27.178   6.936  0.00  0.00    +0.000 A 
ATOM     11  C   LIG    1       25.075 -27.243   5.816  0.00  0.00    +0.000 A 
ATOM     12  C   LIG    1       24.200 -28.316   5.683  0.00  0.00    +0.000 A 
ATOM     13  C   LIG    1       24.161 -29.339   6.654  0.00  0.00    +0.005 A 
ENDBRANCH   1   8
BRANCH   1  14
ATOM     14  C   LIG    1       25.810 -31.785   7.968  0.00  0.00    +0.191 C 
BRANCH  14  16
ATOM     15  C   LIG    1       26.713 -33.825   9.322  0.00  0.00    +0.007 C 
ATOM     16  C   LIG    1       26.998 -32.438   8.733  0.00  0.00    +0.042 C 
ENDBRANCH  14  16
BRANCH  14  17
ATOM     17  O   LIG    1       26.356 -31.352   6.699  0.00  0.00    -0.460 OA
BRANCH  17  18
ATOM     18  C   LIG    1       26.576 -32.177   5.670  0.00  0.00    +0.304 C 
ATOM     19  O   LIG    1       27.364 -33.110   5.713  0.00  0.00    -0.251 OA
ATOM     20  C   LIG    1       25.783 -31.844   4.481  0.00  0.00    +0.136 C 
ENDBRANCH  17  18
ENDBRANCH  14  17
ENDBRANCH   1  14
BRANCH   1  21
ATOM     21  C   LIG    1       25.966 -30.271  10.097  0.00  0.00    +0.038 C 
BRANCH  21  22
ATOM     22  C   LIG    1       25.331 -30.140  11.536  0.00  0.00    +0.054 C 
ATOM     23  C   LIG    1       25.514 -31.470  12.314  0.00  0.00    +0.024 C 
BRANCH  22  24
ATOM     24  N   LIG    1       25.779 -28.968  12.315  0.00  0.00    -0.306 NA
ATOM     25  C   LIG    1       24.690 -28.196  12.906  0.00  0.00    +0.105 C 
ATOM     26  C   LIG    1       26.630 -28.041  11.560  0.00  0.00    +0.105 C 
ENDBRANCH  22  24
ENDBRANCH  21  22
ENDBRANCH   1  21
TORSDOF 9
ENDMDL
