MODEL 1
REMARK VINA RESULT:       9.3      0.000      0.000
REMARK  Name = *****
REMARK                            x       y       z     vdW  Elec       q    Type
REMARK                         _______ _______ _______ _____ _____    ______ ____
ROOT
ATOM      1  C   LIG    1       26.600 -20.338   4.197  0.00  0.00    -0.000 C 
ATOM      2  C   LIG    1       27.134 -19.175   4.638  0.00  0.00    -0.066 C 
ATOM      3  C   LIG    1       26.508 -17.792   4.516  0.00  0.00    +0.021 C 
ATOM      4  C   LIG    1       25.886 -17.486   3.154  0.00  0.00    +0.009 C 
ATOM      5  C   LIG    1       25.567 -16.011   3.247  0.00  0.00    +0.005 C 
ATOM      6  C   LIG    1       26.799 -15.358   3.905  0.00  0.00    -0.002 C 
ATOM      7  C   LIG    1       27.468 -16.557   4.727  0.00  0.00    -0.022 C 
ATOM      8  C   LIG    1       27.480 -16.147   6.218  0.00  0.00    +0.012 C 
ATOM      9  C   LIG    1       28.898 -16.932   4.291  0.00  0.00    +0.008 C 
ATOM     10  C   LIG    1       29.472 -18.214   4.896  0.00  0.00    +0.005 C 
ATOM     11  C   LIG    1       28.451 -19.233   5.374  0.00  0.00    +0.031 C 
ENDROOT
BRANCH   1  15
ATOM     12  C   LIG    1       24.459 -21.500   6.600  0.00  0.00    +0.012 C 
ATOM     13  C   LIG    1       24.022 -20.493   5.821  0.00  0.00    -0.051 C 
ATOM     14  C   LIG    1       24.127 -20.528   4.370  0.00  0.00    -0.042 C 
ATOM     15  C   LIG    1       25.278 -20.527   3.659  0.00  0.00    +0.004 C 
ATOM     16  C   LIG    1       22.781 -20.508   3.692  0.00  0.00    +0.066 C 
ATOM     17  C   LIG    1       21.956 -19.301   4.174  0.00  0.00    +0.119 C 
ATOM     18  C   LIG    1       21.881 -19.224   5.705  0.00  0.00    +0.036 C 
ATOM     19  C   LIG    1       23.266 -19.303   6.350  0.00  0.00    +0.037 C 
BRANCH  17  20
ATOM     20  O   LIG    1       20.635 -19.366   3.640  0.00  0.00    -0.392 OA
ATOM     21  H   LIG    1       20.666 -19.924   2.842  0.00  0.00    +0.210 HD
ENDBRANCH  17  20
ENDBRANCH   1  15
BRANCH   6  22
ATOM     22  C   LIG    1       27.630 -14.524   2.869  0.00  0.00    -0.010 C 
ATOM     23  C   LIG    1       28.627 -13.536   3.491  0.00  0.00    +0.008 C 
BRANCH  22  24
ATOM     24  C   LIG    1       26.741 -13.701   1.874  0.00  0.00    +0.004 C 
BRANCH  24  25
ATOM     25  C   LIG    1       26.095 -12.425   2.459  0.00  0.00    +0.003 C 
BRANCH  25  26
ATOM     26  C   LIG    1       24.611 -12.644   2.790  0.00  0.00    +0.034 C 
BRANCH  26  27
ATOM     27  C   LIG    1       24.229 -12.699   4.291  0.00  0.00    +0.060 C 
ATOM     28  C   LIG    1       23.448 -13.954   4.687  0.00  0.00    +0.041 C 
ATOM     29  C   LIG    1       23.475 -11.449   4.751  0.00  0.00    +0.041 C 
BRANCH  27  30
ATOM     30  O   LIG    1       25.459 -12.760   5.032  0.00  0.00    -0.389 OA
ATOM     31  H   LIG    1       25.631 -13.691   5.254  0.00  0.00    +0.210 HD
ENDBRANCH  27  30
ENDBRANCH  26  27
ENDBRANCH  25  26
ENDBRANCH  24  25
ENDBRANCH  22  24
ENDBRANCH   6  22
TORSDOF 8
ENDMDL
MODEL 2
REMARK VINA RESULT:      10.1      1.470      2.330
REMARK  Name = *****
REMARK                            x       y       z     vdW  Elec       q    Type
REMARK                         _______ _______ _______ _____ _____    ______ ____
ROOT
ATOM      1  C   LIG    1       27.782 -18.544   4.240  0.00  0.00    -0.000 C 
ATOM      2  C   LIG    1       27.703 -17.216   4.496  0.00  0.00    -0.066 C 
ATOM      3  C   LIG    1       26.487 -16.327   4.278  0.00  0.00    +0.021 C 
ATOM      4  C   LIG    1       25.756 -16.550   2.954  0.00  0.00    +0.009 C 
ATOM      5  C   LIG    1       24.770 -15.404   2.910  0.00  0.00    +0.005 C 
ATOM      6  C   LIG    1       25.554 -14.161   3.373  0.00  0.00    -0.002 C 
ATOM      7  C   LIG    1       26.741 -14.769   4.260  0.00  0.00    -0.022 C 
ATOM      8  C   LIG    1       26.594 -14.193   5.687  0.00  0.00    +0.012 C 
ATOM      9  C   LIG    1       28.161 -14.482   3.738  0.00  0.00    +0.008 C 
ATOM     10  C   LIG    1       29.298 -15.239   4.427  0.00  0.00    +0.005 C 
ATOM     11  C   LIG    1       28.906 -16.540   5.108  0.00  0.00    +0.031 C 
ENDROOT
BRANCH   1  15
ATOM     12  C   LIG    1       27.493 -21.181   6.401  0.00  0.00    +0.012 C 
ATOM     13  C   LIG    1       26.360 -20.541   6.056  0.00  0.00    -0.051 C 
ATOM     14  C   LIG    1       26.022 -20.247   4.671  0.00  0.00    -0.042 C 
ATOM     15  C   LIG    1       26.699 -19.409   3.852  0.00  0.00    +0.004 C 
ATOM     16  C   LIG    1       24.762 -20.942   4.223  0.00  0.00    +0.066 C 
ATOM     17  C   LIG    1       23.600 -20.612   5.175  0.00  0.00    +0.119 C 
ATOM     18  C   LIG    1       23.961 -20.869   6.644  0.00  0.00    +0.036 C 
ATOM     19  C   LIG    1       25.274 -20.189   7.037  0.00  0.00    +0.037 C 
BRANCH  17  20
ATOM     20  O   LIG    1       22.450 -21.382   4.830  0.00  0.00    -0.392 OA
ATOM     21  H   LIG    1       21.884 -20.831   4.261  0.00  0.00    +0.210 HD
ENDBRANCH  17  20
ENDBRANCH   1  15
BRANCH   6  22
ATOM     22  C   LIG    1       25.853 -13.191   2.178  0.00  0.00    -0.010 C 
ATOM     23  C   LIG    1       27.083 -12.291   2.370  0.00  0.00    +0.008 C 
BRANCH  22  24
ATOM     24  C   LIG    1       24.654 -12.244   1.828  0.00  0.00    +0.004 C 
BRANCH  24  25
ATOM     25  C   LIG    1       23.393 -12.415   2.705  0.00  0.00    +0.003 C 
BRANCH  25  26
ATOM     26  C   LIG    1       23.400 -11.448   3.899  0.00  0.00    +0.034 C 
BRANCH  26  27
ATOM     27  C   LIG    1       23.551 -12.076   5.307  0.00  0.00    +0.060 C 
ATOM     28  C   LIG    1       24.904 -11.801   5.968  0.00  0.00    +0.041 C 
ATOM     29  C   LIG    1       23.266 -13.580   5.313  0.00  0.00    +0.041 C 
BRANCH  27  30
ATOM     30  O   LIG    1       22.574 -11.447   6.152  0.00  0.00    -0.389 OA
ATOM     31  H   LIG    1       21.694 -11.622   5.776  0.00  0.00    +0.210 HD
ENDBRANCH  27  30
ENDBRANCH  26  27
ENDBRANCH  25  26
ENDBRANCH  24  25
ENDBRANCH  22  24
ENDBRANCH   6  22
TORSDOF 8
ENDMDL
MODEL 3
REMARK VINA RESULT:      11.6      2.224      4.978
REMARK  Name = *****
REMARK                            x       y       z     vdW  Elec       q    Type
REMARK                         _______ _______ _______ _____ _____    ______ ____
ROOT
ATOM      1  C   LIG    1       22.285 -20.827   5.653  0.00  0.00    -0.000 C 
ATOM      2  C   LIG    1       22.026 -19.897   4.703  0.00  0.00    -0.066 C 
ATOM      3  C   LIG    1       23.014 -18.883   4.141  0.00  0.00    +0.021 C 
ATOM      4  C   LIG    1       23.891 -18.193   5.186  0.00  0.00    +0.009 C 
ATOM      5  C   LIG    1       24.580 -17.106   4.392  0.00  0.00    +0.005 C 
ATOM      6  C   LIG    1       23.488 -16.487   3.498  0.00  0.00    -0.002 C 
ATOM      7  C   LIG    1       22.404 -17.657   3.357  0.00  0.00    -0.022 C 
ATOM      8  C   LIG    1       22.284 -17.998   1.854  0.00  0.00    +0.012 C 
ATOM      9  C   LIG    1       21.007 -17.326   3.918  0.00  0.00    +0.008 C 
ATOM     10  C   LIG    1       20.024 -18.495   4.008  0.00  0.00    +0.005 C 
ATOM     11  C   LIG    1       20.649 -19.878   4.085  0.00  0.00    +0.031 C 
ENDROOT
BRANCH   1  15
ATOM     12  C   LIG    1       24.548 -21.566   3.194  0.00  0.00    +0.012 C 
ATOM     13  C   LIG    1       24.951 -20.733   4.173  0.00  0.00    -0.051 C 
ATOM     14  C   LIG    1       24.762 -21.038   5.583  0.00  0.00    -0.042 C 
ATOM     15  C   LIG    1       23.571 -21.144   6.217  0.00  0.00    +0.004 C 
ATOM     16  C   LIG    1       26.066 -21.176   6.326  0.00  0.00    +0.066 C 
ATOM     17  C   LIG    1       26.932 -19.920   6.126  0.00  0.00    +0.119 C 
ATOM     18  C   LIG    1       27.097 -19.558   4.644  0.00  0.00    +0.036 C 
ATOM     19  C   LIG    1       25.752 -19.483   3.920  0.00  0.00    +0.037 C 
BRANCH  17  20
ATOM     20  O   LIG    1       28.219 -20.115   6.710  0.00  0.00    -0.392 OA
ATOM     21  H   LIG    1       28.807 -20.471   6.020  0.00  0.00    +0.210 HD
ENDBRANCH  17  20
ENDBRANCH   1  15
BRANCH   6  22
ATOM     22  C   LIG    1       23.076 -15.059   3.999  0.00  0.00    -0.010 C 
ATOM     23  C   LIG    1       22.849 -14.026   2.886  0.00  0.00    +0.008 C 
BRANCH  22  24
ATOM     24  C   LIG    1       24.107 -14.427   4.996  0.00  0.00    +0.004 C 
BRANCH  24  25
ATOM     25  C   LIG    1       24.870 -13.190   4.471  0.00  0.00    +0.003 C 
BRANCH  25  26
ATOM     26  C   LIG    1       26.360 -13.245   4.839  0.00  0.00    +0.034 C 
BRANCH  26  27
ATOM     27  C   LIG    1       27.334 -13.745   3.743  0.00  0.00    +0.060 C 
ATOM     28  C   LIG    1       27.470 -15.268   3.681  0.00  0.00    +0.041 C 
ATOM     29  C   LIG    1       28.720 -13.104   3.853  0.00  0.00    +0.041 C 
BRANCH  27  30
ATOM     30  O   LIG    1       26.776 -13.355   2.479  0.00  0.00    -0.389 OA
ATOM     31  H   LIG    1       27.484 -13.389   1.813  0.00  0.00    +0.210 HD
ENDBRANCH  27  30
ENDBRANCH  26  27
ENDBRANCH  25  26
ENDBRANCH  24  25
ENDBRANCH  22  24
ENDBRANCH   6  22
TORSDOF 8
ENDMDL
MODEL 4
REMARK VINA RESULT:      11.9      2.206      4.996
REMARK  Name = *****
REMARK                            x       y       z     vdW  Elec       q    Type
REMARK                         _______ _______ _______ _____ _____    ______ ____
ROOT
ATOM      1  C   LIG    1       22.033 -15.879   5.084  0.00  0.00    -0.000 C 
ATOM      2  C   LIG    1       22.967 -14.910   4.940  0.00  0.00    -0.066 C 
ATOM      3  C   LIG    1       24.027 -14.834   3.849  0.00  0.00    +0.021 C 
ATOM      4  C   LIG    1       24.733 -16.155   3.545  0.00  0.00    +0.009 C 
ATOM      5  C   LIG    1       25.857 -15.739   2.624  0.00  0.00    +0.005 C 
ATOM      6  C   LIG    1       26.449 -14.457   3.241  0.00  0.00    -0.002 C 
ATOM      7  C   LIG    1       25.242 -13.860   4.106  0.00  0.00    -0.022 C 
ATOM      8  C   LIG    1       24.920 -12.455   3.544  0.00  0.00    +0.012 C 
ATOM      9  C   LIG    1       25.510 -13.754   5.619  0.00  0.00    +0.008 C 
ATOM     10  C   LIG    1       24.304 -13.408   6.495  0.00  0.00    +0.005 C 
ATOM     11  C   LIG    1       22.944 -13.753   5.910  0.00  0.00    +0.031 C 
ENDROOT
BRANCH   1  15
ATOM     12  C   LIG    1       24.488 -18.261   5.203  0.00  0.00    +0.012 C 
ATOM     13  C   LIG    1       23.211 -18.690   5.211  0.00  0.00    -0.051 C 
ATOM     14  C   LIG    1       22.223 -18.215   4.254  0.00  0.00    -0.042 C 
ATOM     15  C   LIG    1       21.756 -16.949   4.162  0.00  0.00    +0.004 C 
ATOM     16  C   LIG    1       21.698 -19.317   3.370  0.00  0.00    +0.066 C 
ATOM     17  C   LIG    1       21.153 -20.475   4.224  0.00  0.00    +0.119 C 
ATOM     18  C   LIG    1       22.167 -20.952   5.271  0.00  0.00    +0.036 C 
ATOM     19  C   LIG    1       22.713 -19.793   6.107  0.00  0.00    +0.037 C 
BRANCH  17  20
ATOM     20  O   LIG    1       20.789 -21.571   3.386  0.00  0.00    -0.392 OA
ATOM     21  H   LIG    1       20.227 -22.170   3.909  0.00  0.00    +0.210 HD
ENDBRANCH  17  20
ENDBRANCH   1  15
BRANCH   6  22
ATOM     22  C   LIG    1       27.852 -14.726   3.888  0.00  0.00    -0.010 C 
ATOM     23  C   LIG    1       28.965 -13.769   3.435  0.00  0.00    +0.008 C 
BRANCH  22  24
ATOM     24  C   LIG    1       28.383 -16.181   3.645  0.00  0.00    +0.004 C 
BRANCH  24  25
ATOM     25  C   LIG    1       28.719 -16.989   4.919  0.00  0.00    +0.003 C 
BRANCH  25  26
ATOM     26  C   LIG    1       27.929 -18.305   4.978  0.00  0.00    +0.034 C 
BRANCH  26  27
ATOM     27  C   LIG    1       28.461 -19.399   5.937  0.00  0.00    +0.060 C 
ATOM     28  C   LIG    1       27.362 -20.213   6.622  0.00  0.00    +0.041 C 
ATOM     29  C   LIG    1       29.426 -18.841   6.987  0.00  0.00    +0.041 C 
BRANCH  27  30
ATOM     30  O   LIG    1       29.194 -20.338   5.133  0.00  0.00    -0.389 OA
ATOM     31  H   LIG    1       28.747 -20.409   4.272  0.00  0.00    +0.210 HD
ENDBRANCH  27  30
ENDBRANCH  26  27
ENDBRANCH  25  26
ENDBRANCH  24  25
ENDBRANCH  22  24
ENDBRANCH   6  22
TORSDOF 8
ENDMDL
