MODEL 1
REMARK VINA RESULT:      -9.3      0.000      0.000
REMARK  Name = *****
REMARK                            x       y       z     vdW  Elec       q    Type
REMARK                         _______ _______ _______ _____ _____    ______ ____
ROOT
ATOM      1  C   LIG    1       27.659 -33.407   8.547  0.00  0.00    +0.046 C 
ATOM      2  C   LIG    1       26.822 -32.397   7.829  0.00  0.00    -0.017 C 
ATOM      3  C   LIG    1       26.177 -31.248   8.330  0.00  0.00    +0.053 C 
ATOM      4  N   LIG    1       25.432 -30.752   7.244  0.00  0.00    -0.335 NA
ATOM      5  C   LIG    1       25.828 -31.366   6.059  0.00  0.00    +0.050 C 
ATOM      6  C   LIG    1       25.502 -31.095   4.714  0.00  0.00    +0.030 C 
ATOM      7  C   LIG    1       26.006 -31.939   3.722  0.00  0.00    +0.047 C 
ATOM      8  C   LIG    1       26.797 -33.022   4.060  0.00  0.00    +0.118 C 
ATOM      9  C   LIG    1       27.125 -33.288   5.388  0.00  0.00    +0.055 C 
ATOM     10  C   LIG    1       26.641 -32.434   6.408  0.00  0.00    +0.007 C 
ENDROOT
BRANCH   3  11
ATOM     11  C   LIG    1       26.230 -30.667   9.711  0.00  0.00    -0.001 C 
ATOM     12  C   LIG    1       27.134 -29.652  10.054  0.00  0.00    +0.013 C 
ATOM     13  C   LIG    1       27.132 -29.024  11.307  0.00  0.00    +0.046 C 
ATOM     14  C   LIG    1       26.247 -29.456  12.284  0.00  0.00    +0.117 C 
ATOM     15  C   LIG    1       25.360 -30.477  12.005  0.00  0.00    +0.046 C 
ATOM     16  C   LIG    1       25.324 -31.049  10.721  0.00  0.00    +0.013 C 
BRANCH  14  17
ATOM     17  O   LIG    1       26.289 -28.836  13.495  0.00  0.00    -0.507 OA
ATOM     18  H   LIG    1       25.607 -29.226  14.068  0.00  0.00    +0.292 HD
ENDBRANCH  14  17
ENDBRANCH   3  11
BRANCH   8  19
ATOM     19  O   LIG    1       27.251 -33.818   3.047  0.00  0.00    -0.507 OA
ATOM     20  H   LIG    1       26.996 -34.734   3.240  0.00  0.00    +0.292 HD
ENDBRANCH   8  19
BRANCH   4  21
ATOM     21  C   LIG    1       24.339 -29.780   7.252  0.00  0.00    +0.157 C 
BRANCH  21  22
ATOM     22  C   LIG    1       24.763 -28.408   6.788  0.00  0.00    -0.028 C 
ATOM     23  C   LIG    1       24.084 -27.790   5.733  0.00  0.00    +0.009 C 
ATOM     24  C   LIG    1       24.379 -26.481   5.366  0.00  0.00    +0.046 C 
ATOM     25  C   LIG    1       25.350 -25.745   6.049  0.00  0.00    +0.121 C 
ATOM     26  C   LIG    1       26.059 -26.364   7.079  0.00  0.00    +0.046 C 
ATOM     27  C   LIG    1       25.772 -27.688   7.444  0.00  0.00    +0.009 C 
BRANCH  25  28
ATOM     28  O   LIG    1       25.669 -24.431   5.794  0.00  0.00    -0.491 OA
BRANCH  28  29
ATOM     29  C   LIG    1       25.792 -23.627   6.974  0.00  0.00    +0.244 C 
BRANCH  29  30
ATOM     30  C   LIG    1       25.916 -22.131   6.648  0.00  0.00    +0.125 C 
BRANCH  30  31
ATOM     31  N   LIG    1       24.930 -21.653   5.633  0.00  0.00    -0.299 NA
ATOM     32  C   LIG    1       23.600 -21.476   6.238  0.00  0.00    +0.084 C 
ATOM     33  C   LIG    1       22.473 -20.925   5.361  0.00  0.00    +0.015 C 
ATOM     34  C   LIG    1       22.635 -19.446   5.056  0.00  0.00    +0.001 C 
ATOM     35  C   LIG    1       23.526 -19.164   3.857  0.00  0.00    +0.001 C 
ATOM     36  C   LIG    1       24.722 -20.095   3.676  0.00  0.00    +0.015 C 
ATOM     37  C   LIG    1       25.465 -20.456   4.965  0.00  0.00    +0.084 C 
ENDBRANCH  30  31
ENDBRANCH  29  30
ENDBRANCH  28  29
ENDBRANCH  25  28
ENDBRANCH  21  22
ENDBRANCH   4  21
TORSDOF 9
ENDMDL
MODEL 2
REMARK VINA RESULT:      -9.2      2.865     10.184
REMARK  Name = *****
REMARK                            x       y       z     vdW  Elec       q    Type
REMARK                         _______ _______ _______ _____ _____    ______ ____
ROOT
ATOM      1  C   LIG    1       27.650 -18.992   4.484  0.00  0.00    +0.046 C 
ATOM      2  C   LIG    1       26.734 -19.735   5.403  0.00  0.00    -0.017 C 
ATOM      3  C   LIG    1       27.022 -20.400   6.611  0.00  0.00    +0.053 C 
ATOM      4  N   LIG    1       25.815 -21.027   6.973  0.00  0.00    -0.335 NA
ATOM      5  C   LIG    1       24.760 -20.534   6.211  0.00  0.00    +0.050 C 
ATOM      6  C   LIG    1       23.367 -20.724   6.311  0.00  0.00    +0.030 C 
ATOM      7  C   LIG    1       22.542 -20.146   5.344  0.00  0.00    +0.047 C 
ATOM      8  C   LIG    1       23.088 -19.414   4.305  0.00  0.00    +0.118 C 
ATOM      9  C   LIG    1       24.465 -19.220   4.207  0.00  0.00    +0.055 C 
ATOM     10  C   LIG    1       25.318 -19.781   5.188  0.00  0.00    +0.007 C 
ENDROOT
BRANCH   3  11
ATOM     11  C   LIG    1       28.318 -20.466   7.363  0.00  0.00    -0.001 C 
ATOM     12  C   LIG    1       28.903 -21.688   7.725  0.00  0.00    +0.013 C 
ATOM     13  C   LIG    1       30.162 -21.776   8.335  0.00  0.00    +0.046 C 
ATOM     14  C   LIG    1       30.843 -20.612   8.662  0.00  0.00    +0.117 C 
ATOM     15  C   LIG    1       30.292 -19.384   8.357  0.00  0.00    +0.046 C 
ATOM     16  C   LIG    1       29.061 -19.312   7.679  0.00  0.00    +0.013 C 
BRANCH  14  17
ATOM     17  O   LIG    1       32.053 -20.738   9.273  0.00  0.00    -0.507 OA
ATOM     18  H   LIG    1       32.140 -20.034   9.937  0.00  0.00    +0.292 HD
ENDBRANCH  14  17
ENDBRANCH   3  11
BRANCH   8  19
ATOM     19  O   LIG    1       22.232 -18.884   3.383  0.00  0.00    -0.507 OA
ATOM     20  H   LIG    1       21.873 -18.056   3.739  0.00  0.00    +0.292 HD
ENDBRANCH   8  19
BRANCH   4  21
ATOM     21  C   LIG    1       25.595 -22.095   7.949  0.00  0.00    +0.157 C 
BRANCH  21  22
ATOM     22  C   LIG    1       25.280 -23.425   7.311  0.00  0.00    -0.028 C 
ATOM     23  C   LIG    1       23.953 -23.757   7.015  0.00  0.00    +0.009 C 
ATOM     24  C   LIG    1       23.649 -24.924   6.321  0.00  0.00    +0.046 C 
ATOM     25  C   LIG    1       24.659 -25.786   5.889  0.00  0.00    +0.121 C 
ATOM     26  C   LIG    1       25.983 -25.482   6.209  0.00  0.00    +0.046 C 
ATOM     27  C   LIG    1       26.292 -24.313   6.919  0.00  0.00    +0.009 C 
BRANCH  25  28
ATOM     28  O   LIG    1       24.458 -26.930   5.150  0.00  0.00    -0.491 OA
BRANCH  28  29
ATOM     29  C   LIG    1       25.129 -28.082   5.676  0.00  0.00    +0.244 C 
BRANCH  29  30
ATOM     30  C   LIG    1       24.184 -28.984   6.485  0.00  0.00    +0.125 C 
BRANCH  30  31
ATOM     31  N   LIG    1       24.687 -29.309   7.853  0.00  0.00    -0.299 NA
ATOM     32  C   LIG    1       24.719 -30.764   8.069  0.00  0.00    +0.084 C 
ATOM     33  C   LIG    1       25.273 -31.288   9.395  0.00  0.00    +0.015 C 
ATOM     34  C   LIG    1       26.781 -31.144   9.502  0.00  0.00    +0.001 C 
ATOM     35  C   LIG    1       27.230 -29.781  10.005  0.00  0.00    +0.001 C 
ATOM     36  C   LIG    1       26.401 -28.587   9.540  0.00  0.00    +0.015 C 
ATOM     37  C   LIG    1       25.973 -28.627   8.070  0.00  0.00    +0.084 C 
ENDBRANCH  30  31
ENDBRANCH  29  30
ENDBRANCH  28  29
ENDBRANCH  25  28
ENDBRANCH  21  22
ENDBRANCH   4  21
TORSDOF 9
ENDMDL
MODEL 3
REMARK VINA RESULT:      -9.2      2.974     10.147
REMARK  Name = *****
REMARK                            x       y       z     vdW  Elec       q    Type
REMARK                         _______ _______ _______ _____ _____    ______ ____
ROOT
ATOM      1  C   LIG    1       27.652 -18.995   4.468  0.00  0.00    +0.046 C 
ATOM      2  C   LIG    1       26.718 -19.739   5.368  0.00  0.00    -0.017 C 
ATOM      3  C   LIG    1       26.985 -20.415   6.575  0.00  0.00    +0.053 C 
ATOM      4  N   LIG    1       25.769 -21.037   6.914  0.00  0.00    -0.335 NA
ATOM      5  C   LIG    1       24.728 -20.531   6.141  0.00  0.00    +0.050 C 
ATOM      6  C   LIG    1       23.333 -20.713   6.221  0.00  0.00    +0.030 C 
ATOM      7  C   LIG    1       22.525 -20.122   5.247  0.00  0.00    +0.047 C 
ATOM      8  C   LIG    1       23.091 -19.386   4.221  0.00  0.00    +0.118 C 
ATOM      9  C   LIG    1       24.469 -19.200   4.144  0.00  0.00    +0.055 C 
ATOM     10  C   LIG    1       25.306 -19.774   5.133  0.00  0.00    +0.007 C 
ENDROOT
BRANCH   3  11
ATOM     11  C   LIG    1       28.270 -20.496   7.344  0.00  0.00    -0.001 C 
ATOM     12  C   LIG    1       28.843 -21.724   7.703  0.00  0.00    +0.013 C 
ATOM     13  C   LIG    1       30.092 -21.825   8.330  0.00  0.00    +0.046 C 
ATOM     14  C   LIG    1       30.775 -20.669   8.677  0.00  0.00    +0.117 C 
ATOM     15  C   LIG    1       30.236 -19.435   8.376  0.00  0.00    +0.046 C 
ATOM     16  C   LIG    1       29.015 -19.349   7.681  0.00  0.00    +0.013 C 
BRANCH  14  17
ATOM     17  O   LIG    1       31.976 -20.807   9.304  0.00  0.00    -0.507 OA
ATOM     18  H   LIG    1       32.555 -21.355   8.748  0.00  0.00    +0.292 HD
ENDBRANCH  14  17
ENDBRANCH   3  11
BRANCH   8  19
ATOM     19  O   LIG    1       22.251 -18.843   3.291  0.00  0.00    -0.507 OA
ATOM     20  H   LIG    1       21.338 -19.062   3.538  0.00  0.00    +0.292 HD
ENDBRANCH   8  19
BRANCH   4  21
ATOM     21  C   LIG    1       25.528 -22.111   7.879  0.00  0.00    +0.157 C 
BRANCH  21  22
ATOM     22  C   LIG    1       25.239 -23.440   7.226  0.00  0.00    -0.028 C 
ATOM     23  C   LIG    1       23.926 -23.771   6.876  0.00  0.00    +0.009 C 
ATOM     24  C   LIG    1       23.650 -24.937   6.168  0.00  0.00    +0.046 C 
ATOM     25  C   LIG    1       24.676 -25.798   5.776  0.00  0.00    +0.121 C 
ATOM     26  C   LIG    1       25.986 -25.495   6.151  0.00  0.00    +0.046 C 
ATOM     27  C   LIG    1       26.266 -24.327   6.875  0.00  0.00    +0.009 C 
BRANCH  25  28
ATOM     28  O   LIG    1       24.506 -26.940   5.027  0.00  0.00    -0.491 OA
BRANCH  28  29
ATOM     29  C   LIG    1       25.229 -28.072   5.528  0.00  0.00    +0.244 C 
BRANCH  29  30
ATOM     30  C   LIG    1       24.350 -28.984   6.397  0.00  0.00    +0.125 C 
BRANCH  30  31
ATOM     31  N   LIG    1       25.050 -29.526   7.600  0.00  0.00    -0.299 NA
ATOM     32  C   LIG    1       25.904 -28.500   8.217  0.00  0.00    +0.084 C 
ATOM     33  C   LIG    1       26.650 -28.856   9.505  0.00  0.00    +0.015 C 
ATOM     34  C   LIG    1       25.732 -28.950  10.710  0.00  0.00    +0.001 C 
ATOM     35  C   LIG    1       25.073 -30.312  10.872  0.00  0.00    +0.001 C 
ATOM     36  C   LIG    1       24.681 -31.024   9.581  0.00  0.00    +0.015 C 
ATOM     37  C   LIG    1       24.059 -30.127   8.507  0.00  0.00    +0.084 C 
ENDBRANCH  30  31
ENDBRANCH  29  30
ENDBRANCH  28  29
ENDBRANCH  25  28
ENDBRANCH  21  22
ENDBRANCH   4  21
TORSDOF 9
ENDMDL
MODEL 4
REMARK VINA RESULT:      -8.8      3.091      5.571
REMARK  Name = *****
REMARK                            x       y       z     vdW  Elec       q    Type
REMARK                         _______ _______ _______ _____ _____    ______ ____
ROOT
ATOM      1  C   LIG    1       22.309 -27.143  13.571  0.00  0.00    +0.046 C 
ATOM      2  C   LIG    1       22.885 -28.272  12.778  0.00  0.00    -0.017 C 
ATOM      3  C   LIG    1       24.234 -28.611  12.549  0.00  0.00    +0.053 C 
ATOM      4  N   LIG    1       24.185 -29.679  11.633  0.00  0.00    -0.335 NA
ATOM      5  C   LIG    1       22.891 -30.180  11.534  0.00  0.00    +0.050 C 
ATOM      6  C   LIG    1       22.380 -31.325  10.889  0.00  0.00    +0.030 C 
ATOM      7  C   LIG    1       21.001 -31.540  10.903  0.00  0.00    +0.047 C 
ATOM      8  C   LIG    1       20.158 -30.638  11.527  0.00  0.00    +0.118 C 
ATOM      9  C   LIG    1       20.661 -29.509  12.170  0.00  0.00    +0.055 C 
ATOM     10  C   LIG    1       22.059 -29.281  12.185  0.00  0.00    +0.007 C 
ENDROOT
BRANCH   3  11
ATOM     11  C   LIG    1       25.471 -27.984  13.118  0.00  0.00    -0.001 C 
ATOM     12  C   LIG    1       25.918 -26.721  12.706  0.00  0.00    +0.013 C 
ATOM     13  C   LIG    1       27.011 -26.071  13.297  0.00  0.00    +0.046 C 
ATOM     14  C   LIG    1       27.733 -26.719  14.288  0.00  0.00    +0.117 C 
ATOM     15  C   LIG    1       27.352 -27.979  14.704  0.00  0.00    +0.046 C 
ATOM     16  C   LIG    1       26.210 -28.589  14.154  0.00  0.00    +0.013 C 
BRANCH  14  17
ATOM     17  O   LIG    1       28.800 -26.065  14.823  0.00  0.00    -0.507 OA
ATOM     18  H   LIG    1       28.714 -25.117  14.627  0.00  0.00    +0.292 HD
ENDBRANCH  14  17
ENDBRANCH   3  11
BRANCH   8  19
ATOM     19  O   LIG    1       18.817 -30.896  11.496  0.00  0.00    -0.507 OA
ATOM     20  H   LIG    1       18.447 -30.700  12.372  0.00  0.00    +0.292 HD
ENDBRANCH   8  19
BRANCH   4  21
ATOM     21  C   LIG    1       25.262 -30.224  10.806  0.00  0.00    +0.157 C 
BRANCH  21  22
ATOM     22  C   LIG    1       25.376 -29.549   9.461  0.00  0.00    -0.028 C 
ATOM     23  C   LIG    1       24.499 -29.902   8.430  0.00  0.00    +0.009 C 
ATOM     24  C   LIG    1       24.507 -29.213   7.221  0.00  0.00    +0.046 C 
ATOM     25  C   LIG    1       25.378 -28.143   7.011  0.00  0.00    +0.121 C 
ATOM     26  C   LIG    1       26.281 -27.805   8.020  0.00  0.00    +0.046 C 
ATOM     27  C   LIG    1       26.284 -28.505   9.234  0.00  0.00    +0.009 C 
BRANCH  25  28
ATOM     28  O   LIG    1       25.418 -27.369   5.873  0.00  0.00    -0.491 OA
BRANCH  28  29
ATOM     29  C   LIG    1       24.581 -26.207   5.935  0.00  0.00    +0.244 C 
BRANCH  29  30
ATOM     30  C   LIG    1       25.389 -24.904   5.837  0.00  0.00    +0.125 C 
BRANCH  30  31
ATOM     31  N   LIG    1       24.955 -23.852   6.804  0.00  0.00    -0.299 NA
ATOM     32  C   LIG    1       26.115 -23.128   7.347  0.00  0.00    +0.084 C 
ATOM     33  C   LIG    1       25.859 -21.965   8.307  0.00  0.00    +0.015 C 
ATOM     34  C   LIG    1       25.301 -20.737   7.609  0.00  0.00    +0.001 C 
ATOM     35  C   LIG    1       23.789 -20.761   7.445  0.00  0.00    +0.001 C 
ATOM     36  C   LIG    1       23.168 -22.125   7.159  0.00  0.00    +0.015 C 
ATOM     37  C   LIG    1       23.942 -22.997   6.166  0.00  0.00    +0.084 C 
ENDBRANCH  30  31
ENDBRANCH  29  30
ENDBRANCH  28  29
ENDBRANCH  25  28
ENDBRANCH  21  22
ENDBRANCH   4  21
TORSDOF 9
ENDMDL
MODEL 5
REMARK VINA RESULT:      -8.7      2.673     10.210
REMARK  Name = *****
REMARK                            x       y       z     vdW  Elec       q    Type
REMARK                         _______ _______ _______ _____ _____    ______ ____
ROOT
ATOM      1  C   LIG    1       26.132 -19.119   4.089  0.00  0.00    +0.046 C 
ATOM      2  C   LIG    1       25.744 -20.180   5.070  0.00  0.00    -0.017 C 
ATOM      3  C   LIG    1       26.519 -20.808   6.064  0.00  0.00    +0.053 C 
ATOM      4  N   LIG    1       25.683 -21.809   6.592  0.00  0.00    -0.335 NA
ATOM      5  C   LIG    1       24.368 -21.618   6.177  0.00  0.00    +0.050 C 
ATOM      6  C   LIG    1       23.167 -22.245   6.564  0.00  0.00    +0.030 C 
ATOM      7  C   LIG    1       21.985 -21.885   5.911  0.00  0.00    +0.047 C 
ATOM      8  C   LIG    1       22.004 -20.943   4.898  0.00  0.00    +0.118 C 
ATOM      9  C   LIG    1       23.190 -20.318   4.518  0.00  0.00    +0.055 C 
ATOM     10  C   LIG    1       24.396 -20.653   5.180  0.00  0.00    +0.007 C 
ENDROOT
BRANCH   3  11
ATOM     11  C   LIG    1       27.931 -20.519   6.479  0.00  0.00    -0.001 C 
ATOM     12  C   LIG    1       28.672 -19.476   5.907  0.00  0.00    +0.013 C 
ATOM     13  C   LIG    1       29.954 -19.122   6.351  0.00  0.00    +0.046 C 
ATOM     14  C   LIG    1       30.556 -19.867   7.354  0.00  0.00    +0.117 C 
ATOM     15  C   LIG    1       29.880 -20.926   7.925  0.00  0.00    +0.046 C 
ATOM     16  C   LIG    1       28.566 -21.224   7.521  0.00  0.00    +0.013 C 
BRANCH  14  17
ATOM     17  O   LIG    1       31.810 -19.507   7.744  0.00  0.00    -0.507 OA
ATOM     18  H   LIG    1       31.742 -18.963   8.547  0.00  0.00    +0.292 HD
ENDBRANCH  14  17
ENDBRANCH   3  11
BRANCH   8  19
ATOM     19  O   LIG    1       20.819 -20.642   4.289  0.00  0.00    -0.507 OA
ATOM     20  H   LIG    1       20.142 -21.254   4.618  0.00  0.00    +0.292 HD
ENDBRANCH   8  19
BRANCH   4  21
ATOM     21  C   LIG    1       26.044 -22.962   7.419  0.00  0.00    +0.157 C 
BRANCH  21  22
ATOM     22  C   LIG    1       25.736 -24.283   6.759  0.00  0.00    -0.028 C 
ATOM     23  C   LIG    1       25.353 -24.316   5.414  0.00  0.00    +0.009 C 
ATOM     24  C   LIG    1       25.179 -25.528   4.752  0.00  0.00    +0.046 C 
ATOM     25  C   LIG    1       25.395 -26.741   5.408  0.00  0.00    +0.121 C 
ATOM     26  C   LIG    1       25.743 -26.720   6.760  0.00  0.00    +0.046 C 
ATOM     27  C   LIG    1       25.907 -25.501   7.433  0.00  0.00    +0.009 C 
BRANCH  25  28
ATOM     28  O   LIG    1       25.303 -27.983   4.822  0.00  0.00    -0.491 OA
BRANCH  28  29
ATOM     29  C   LIG    1       24.321 -28.834   5.427  0.00  0.00    +0.244 C 
BRANCH  29  30
ATOM     30  C   LIG    1       24.891 -30.216   5.782  0.00  0.00    +0.125 C 
BRANCH  30  31
ATOM     31  N   LIG    1       25.345 -30.333   7.200  0.00  0.00    -0.299 NA
ATOM     32  C   LIG    1       24.281 -29.921   8.128  0.00  0.00    +0.084 C 
ATOM     33  C   LIG    1       24.544 -30.039   9.631  0.00  0.00    +0.015 C 
ATOM     34  C   LIG    1       24.540 -31.477  10.118  0.00  0.00    +0.001 C 
ATOM     35  C   LIG    1       25.881 -32.178   9.963  0.00  0.00    +0.001 C 
ATOM     36  C   LIG    1       26.686 -31.817   8.718  0.00  0.00    +0.015 C 
ATOM     37  C   LIG    1       25.868 -31.690   7.429  0.00  0.00    +0.084 C 
ENDBRANCH  30  31
ENDBRANCH  29  30
ENDBRANCH  28  29
ENDBRANCH  25  28
ENDBRANCH  21  22
ENDBRANCH   4  21
TORSDOF 9
ENDMDL
MODEL 6
REMARK VINA RESULT:      -8.6      2.849     10.549
REMARK  Name = *****
REMARK                            x       y       z     vdW  Elec       q    Type
REMARK                         _______ _______ _______ _____ _____    ______ ____
ROOT
ATOM      1  C   LIG    1       27.278 -18.348   4.424  0.00  0.00    +0.046 C 
ATOM      2  C   LIG    1       27.329 -19.372   5.513  0.00  0.00    -0.017 C 
ATOM      3  C   LIG    1       26.331 -20.264   5.953  0.00  0.00    +0.053 C 
ATOM      4  N   LIG    1       26.886 -20.895   7.082  0.00  0.00    -0.335 NA
ATOM      5  C   LIG    1       28.253 -20.645   7.159  0.00  0.00    +0.050 C 
ATOM      6  C   LIG    1       29.253 -21.181   7.996  0.00  0.00    +0.030 C 
ATOM      7  C   LIG    1       30.552 -20.679   7.890  0.00  0.00    +0.047 C 
ATOM      8  C   LIG    1       30.841 -19.670   6.989  0.00  0.00    +0.118 C 
ATOM      9  C   LIG    1       29.855 -19.143   6.158  0.00  0.00    +0.055 C 
ATOM     10  C   LIG    1       28.535 -19.651   6.235  0.00  0.00    +0.007 C 
ENDROOT
BRANCH   3  11
ATOM     11  C   LIG    1       24.964 -20.499   5.385  0.00  0.00    -0.001 C 
ATOM     12  C   LIG    1       24.749 -21.363   4.302  0.00  0.00    +0.013 C 
ATOM     13  C   LIG    1       23.471 -21.677   3.821  0.00  0.00    +0.046 C 
ATOM     14  C   LIG    1       22.362 -21.066   4.387  0.00  0.00    +0.117 C 
ATOM     15  C   LIG    1       22.524 -20.180   5.434  0.00  0.00    +0.046 C 
ATOM     16  C   LIG    1       23.807 -19.930   5.954  0.00  0.00    +0.013 C 
BRANCH  14  17
ATOM     17  O   LIG    1       21.138 -21.380   3.880  0.00  0.00    -0.507 OA
ATOM     18  H   LIG    1       21.210 -21.443   2.912  0.00  0.00    +0.292 HD
ENDBRANCH  14  17
ENDBRANCH   3  11
BRANCH   8  19
ATOM     19  O   LIG    1       32.127 -19.211   6.940  0.00  0.00    -0.507 OA
ATOM     20  H   LIG    1       32.711 -19.960   6.743  0.00  0.00    +0.292 HD
ENDBRANCH   8  19
BRANCH   4  21
ATOM     21  C   LIG    1       26.209 -21.673   8.120  0.00  0.00    +0.157 C 
BRANCH  21  22
ATOM     22  C   LIG    1       25.531 -22.911   7.585  0.00  0.00    -0.028 C 
ATOM     23  C   LIG    1       24.138 -22.945   7.469  0.00  0.00    +0.009 C 
ATOM     24  C   LIG    1       23.500 -24.027   6.870  0.00  0.00    +0.046 C 
ATOM     25  C   LIG    1       24.233 -25.098   6.357  0.00  0.00    +0.121 C 
ATOM     26  C   LIG    1       25.622 -25.091   6.500  0.00  0.00    +0.046 C 
ATOM     27  C   LIG    1       26.267 -24.007   7.114  0.00  0.00    +0.009 C 
BRANCH  25  28
ATOM     28  O   LIG    1       23.694 -26.181   5.700  0.00  0.00    -0.491 OA
BRANCH  28  29
ATOM     29  C   LIG    1       24.644 -27.218   5.422  0.00  0.00    +0.244 C 
BRANCH  29  30
ATOM     30  C   LIG    1       23.988 -28.606   5.367  0.00  0.00    +0.125 C 
BRANCH  30  31
ATOM     31  N   LIG    1       24.202 -29.422   6.599  0.00  0.00    -0.299 NA
ATOM     32  C   LIG    1       24.398 -30.841   6.262  0.00  0.00    +0.084 C 
ATOM     33  C   LIG    1       24.699 -31.821   7.398  0.00  0.00    +0.015 C 
ATOM     34  C   LIG    1       26.103 -31.663   7.954  0.00  0.00    +0.001 C 
ATOM     35  C   LIG    1       26.218 -30.591   9.027  0.00  0.00    +0.001 C 
ATOM     36  C   LIG    1       25.353 -29.349   8.830  0.00  0.00    +0.015 C 
ATOM     37  C   LIG    1       25.288 -28.824   7.392  0.00  0.00    +0.084 C 
ENDBRANCH  30  31
ENDBRANCH  29  30
ENDBRANCH  28  29
ENDBRANCH  25  28
ENDBRANCH  21  22
ENDBRANCH   4  21
TORSDOF 9
ENDMDL
MODEL 7
REMARK VINA RESULT:      -8.5      1.178      4.894
REMARK  Name = *****
REMARK                            x       y       z     vdW  Elec       q    Type
REMARK                         _______ _______ _______ _____ _____    ______ ____
ROOT
ATOM      1  C   LIG    1       27.419 -33.092   8.510  0.00  0.00    +0.046 C 
ATOM      2  C   LIG    1       26.263 -32.206   8.175  0.00  0.00    -0.017 C 
ATOM      3  C   LIG    1       25.707 -31.894   6.918  0.00  0.00    +0.053 C 
ATOM      4  N   LIG    1       24.731 -30.916   7.189  0.00  0.00    -0.335 NA
ATOM      5  C   LIG    1       24.475 -30.847   8.556  0.00  0.00    +0.050 C 
ATOM      6  C   LIG    1       23.486 -30.157   9.285  0.00  0.00    +0.030 C 
ATOM      7  C   LIG    1       23.518 -30.222  10.680  0.00  0.00    +0.047 C 
ATOM      8  C   LIG    1       24.510 -30.939  11.325  0.00  0.00    +0.118 C 
ATOM      9  C   LIG    1       25.485 -31.626  10.605  0.00  0.00    +0.055 C 
ATOM     10  C   LIG    1       25.460 -31.591   9.189  0.00  0.00    +0.007 C 
ENDROOT
BRANCH   3  11
ATOM     11  C   LIG    1       26.065 -32.443   5.569  0.00  0.00    -0.001 C 
ATOM     12  C   LIG    1       25.251 -32.237   4.446  0.00  0.00    +0.013 C 
ATOM     13  C   LIG    1       25.616 -32.652   3.158  0.00  0.00    +0.046 C 
ATOM     14  C   LIG    1       26.798 -33.355   2.978  0.00  0.00    +0.117 C 
ATOM     15  C   LIG    1       27.616 -33.613   4.060  0.00  0.00    +0.046 C 
ATOM     16  C   LIG    1       27.274 -33.127   5.335  0.00  0.00    +0.013 C 
BRANCH  14  17
ATOM     17  O   LIG    1       27.108 -33.759   1.716  0.00  0.00    -0.507 OA
ATOM     18  H   LIG    1       26.989 -33.008   1.110  0.00  0.00    +0.292 HD
ENDBRANCH  14  17
ENDBRANCH   3  11
BRANCH   8  19
ATOM     19  O   LIG    1       24.497 -30.954  12.691  0.00  0.00    -0.507 OA
ATOM     20  H   LIG    1       24.705 -30.062  13.009  0.00  0.00    +0.292 HD
ENDBRANCH   8  19
BRANCH   4  21
ATOM     21  C   LIG    1       24.062 -30.008   6.257  0.00  0.00    +0.157 C 
BRANCH  21  22
ATOM     22  C   LIG    1       24.714 -28.649   6.184  0.00  0.00    -0.028 C 
ATOM     23  C   LIG    1       24.363 -27.765   5.159  0.00  0.00    +0.009 C 
ATOM     24  C   LIG    1       24.862 -26.466   5.137  0.00  0.00    +0.046 C 
ATOM     25  C   LIG    1       25.712 -26.007   6.145  0.00  0.00    +0.121 C 
ATOM     26  C   LIG    1       26.097 -26.892   7.153  0.00  0.00    +0.046 C 
ATOM     27  C   LIG    1       25.606 -28.206   7.171  0.00  0.00    +0.009 C 
BRANCH  25  28
ATOM     28  O   LIG    1       26.207 -24.726   6.238  0.00  0.00    -0.491 OA
BRANCH  28  29
ATOM     29  C   LIG    1       25.423 -23.863   7.071  0.00  0.00    +0.244 C 
BRANCH  29  30
ATOM     30  C   LIG    1       25.673 -22.378   6.766  0.00  0.00    +0.125 C 
BRANCH  30  31
ATOM     31  N   LIG    1       24.783 -21.825   5.701  0.00  0.00    -0.299 NA
ATOM     32  C   LIG    1       23.412 -21.645   6.205  0.00  0.00    +0.084 C 
ATOM     33  C   LIG    1       22.372 -21.023   5.271  0.00  0.00    +0.015 C 
ATOM     34  C   LIG    1       22.589 -19.535   5.057  0.00  0.00    +0.001 C 
ATOM     35  C   LIG    1       23.581 -19.215   3.950  0.00  0.00    +0.001 C 
ATOM     36  C   LIG    1       24.768 -20.165   3.818  0.00  0.00    +0.015 C 
ATOM     37  C   LIG    1       25.396 -20.609   5.142  0.00  0.00    +0.084 C 
ENDBRANCH  30  31
ENDBRANCH  29  30
ENDBRANCH  28  29
ENDBRANCH  25  28
ENDBRANCH  21  22
ENDBRANCH   4  21
TORSDOF 9
ENDMDL
MODEL 8
REMARK VINA RESULT:      -8.0      3.031     10.728
REMARK  Name = *****
REMARK                            x       y       z     vdW  Elec       q    Type
REMARK                         _______ _______ _______ _____ _____    ______ ____
ROOT
ATOM      1  C   LIG    1       28.847 -18.522   5.569  0.00  0.00    +0.046 C 
ATOM      2  C   LIG    1       28.386 -19.647   6.439  0.00  0.00    -0.017 C 
ATOM      3  C   LIG    1       27.147 -20.318   6.457  0.00  0.00    +0.053 C 
ATOM      4  N   LIG    1       27.226 -21.191   7.558  0.00  0.00    -0.335 NA
ATOM      5  C   LIG    1       28.539 -21.289   8.011  0.00  0.00    +0.050 C 
ATOM      6  C   LIG    1       29.137 -22.143   8.959  0.00  0.00    +0.030 C 
ATOM      7  C   LIG    1       30.488 -21.959   9.265  0.00  0.00    +0.047 C 
ATOM      8  C   LIG    1       31.213 -20.951   8.655  0.00  0.00    +0.118 C 
ATOM      9  C   LIG    1       30.624 -20.109   7.714  0.00  0.00    +0.055 C 
ATOM     10  C   LIG    1       29.261 -20.290   7.374  0.00  0.00    +0.007 C 
ENDROOT
BRANCH   3  11
ATOM     11  C   LIG    1       25.974 -20.150   5.538  0.00  0.00    -0.001 C 
ATOM     12  C   LIG    1       24.653 -20.259   5.995  0.00  0.00    +0.013 C 
ATOM     13  C   LIG    1       23.543 -20.004   5.179  0.00  0.00    +0.046 C 
ATOM     14  C   LIG    1       23.738 -19.694   3.841  0.00  0.00    +0.117 C 
ATOM     15  C   LIG    1       25.020 -19.609   3.335  0.00  0.00    +0.046 C 
ATOM     16  C   LIG    1       26.127 -19.796   4.183  0.00  0.00    +0.013 C 
BRANCH  14  17
ATOM     17  O   LIG    1       22.635 -19.474   3.074  0.00  0.00    -0.507 OA
ATOM     18  H   LIG    1       22.713 -19.999   2.260  0.00  0.00    +0.292 HD
ENDBRANCH  14  17
ENDBRANCH   3  11
BRANCH   8  19
ATOM     19  O   LIG    1       32.526 -20.813   9.005  0.00  0.00    -0.507 OA
ATOM     20  H   LIG    1       32.766 -19.876   8.928  0.00  0.00    +0.292 HD
ENDBRANCH   8  19
BRANCH   4  21
ATOM     21  C   LIG    1       26.145 -21.899   8.244  0.00  0.00    +0.157 C 
BRANCH  21  22
ATOM     22  C   LIG    1       25.543 -23.007   7.415  0.00  0.00    -0.028 C 
ATOM     23  C   LIG    1       26.371 -23.987   6.858  0.00  0.00    +0.009 C 
ATOM     24  C   LIG    1       25.830 -25.081   6.191  0.00  0.00    +0.046 C 
ATOM     25  C   LIG    1       24.447 -25.237   6.072  0.00  0.00    +0.121 C 
ATOM     26  C   LIG    1       23.613 -24.247   6.592  0.00  0.00    +0.046 C 
ATOM     27  C   LIG    1       24.156 -23.137   7.255  0.00  0.00    +0.009 C 
BRANCH  25  28
ATOM     28  O   LIG    1       23.822 -26.311   5.480  0.00  0.00    -0.491 OA
BRANCH  28  29
ATOM     29  C   LIG    1       24.575 -27.529   5.551  0.00  0.00    +0.244 C 
BRANCH  29  30
ATOM     30  C   LIG    1       24.031 -28.486   6.623  0.00  0.00    +0.125 C 
BRANCH  30  31
ATOM     31  N   LIG    1       24.235 -29.930   6.299  0.00  0.00    -0.299 NA
ATOM     32  C   LIG    1       25.318 -30.100   5.318  0.00  0.00    +0.084 C 
ATOM     33  C   LIG    1       25.715 -31.522   4.915  0.00  0.00    +0.015 C 
ATOM     34  C   LIG    1       26.467 -32.255   6.012  0.00  0.00    +0.001 C 
ATOM     35  C   LIG    1       25.559 -32.937   7.024  0.00  0.00    +0.001 C 
ATOM     36  C   LIG    1       24.270 -32.199   7.373  0.00  0.00    +0.015 C 
ATOM     37  C   LIG    1       24.415 -30.685   7.549  0.00  0.00    +0.084 C 
ENDBRANCH  30  31
ENDBRANCH  29  30
ENDBRANCH  28  29
ENDBRANCH  25  28
ENDBRANCH  21  22
ENDBRANCH   4  21
TORSDOF 9
ENDMDL
MODEL 9
REMARK VINA RESULT:      -7.8      1.276      2.028
REMARK  Name = *****
REMARK                            x       y       z     vdW  Elec       q    Type
REMARK                         _______ _______ _______ _____ _____    ______ ____
ROOT
ATOM      1  C   LIG    1       27.497 -33.548   8.525  0.00  0.00    +0.046 C 
ATOM      2  C   LIG    1       26.699 -32.477   7.853  0.00  0.00    -0.017 C 
ATOM      3  C   LIG    1       26.137 -31.304   8.395  0.00  0.00    +0.053 C 
ATOM      4  N   LIG    1       25.390 -30.744   7.343  0.00  0.00    -0.335 NA
ATOM      5  C   LIG    1       25.713 -31.355   6.135  0.00  0.00    +0.050 C 
ATOM      6  C   LIG    1       25.362 -31.039   4.806  0.00  0.00    +0.030 C 
ATOM      7  C   LIG    1       25.786 -31.890   3.783  0.00  0.00    +0.047 C 
ATOM      8  C   LIG    1       26.523 -33.024   4.076  0.00  0.00    +0.118 C 
ATOM      9  C   LIG    1       26.875 -33.335   5.387  0.00  0.00    +0.055 C 
ATOM     10  C   LIG    1       26.472 -32.475   6.439  0.00  0.00    +0.007 C 
ENDROOT
BRANCH   3  11
ATOM     11  C   LIG    1       26.266 -30.755   9.785  0.00  0.00    -0.001 C 
ATOM     12  C   LIG    1       25.593 -31.327  10.873  0.00  0.00    +0.013 C 
ATOM     13  C   LIG    1       25.779 -30.895  12.194  0.00  0.00    +0.046 C 
ATOM     14  C   LIG    1       26.611 -29.814  12.446  0.00  0.00    +0.117 C 
ATOM     15  C   LIG    1       27.269 -29.195  11.402  0.00  0.00    +0.046 C 
ATOM     16  C   LIG    1       27.130 -29.685  10.091  0.00  0.00    +0.013 C 
BRANCH  14  17
ATOM     17  O   LIG    1       26.749 -29.410  13.738  0.00  0.00    -0.507 OA
ATOM     18  H   LIG    1       27.537 -28.845  13.805  0.00  0.00    +0.292 HD
ENDBRANCH  14  17
ENDBRANCH   3  11
BRANCH   8  19
ATOM     19  O   LIG    1       26.897 -33.824   3.034  0.00  0.00    -0.507 OA
ATOM     20  H   LIG    1       27.109 -33.259   2.275  0.00  0.00    +0.292 HD
ENDBRANCH   8  19
BRANCH   4  21
ATOM     21  C   LIG    1       24.356 -29.710   7.404  0.00  0.00    +0.157 C 
BRANCH  21  22
ATOM     22  C   LIG    1       24.794 -28.399   6.800  0.00  0.00    -0.028 C 
ATOM     23  C   LIG    1       24.058 -27.835   5.752  0.00  0.00    +0.009 C 
ATOM     24  C   LIG    1       24.372 -26.573   5.259  0.00  0.00    +0.046 C 
ATOM     25  C   LIG    1       25.420 -25.830   5.805  0.00  0.00    +0.121 C 
ATOM     26  C   LIG    1       26.184 -26.397   6.827  0.00  0.00    +0.046 C 
ATOM     27  C   LIG    1       25.877 -27.674   7.318  0.00  0.00    +0.009 C 
BRANCH  25  28
ATOM     28  O   LIG    1       25.767 -24.554   5.422  0.00  0.00    -0.491 OA
BRANCH  28  29
ATOM     29  C   LIG    1       24.714 -23.596   5.582  0.00  0.00    +0.244 C 
BRANCH  29  30
ATOM     30  C   LIG    1       24.785 -22.877   6.938  0.00  0.00    +0.125 C 
BRANCH  30  31
ATOM     31  N   LIG    1       25.524 -21.580   6.893  0.00  0.00    -0.299 NA
ATOM     32  C   LIG    1       26.543 -21.519   7.953  0.00  0.00    +0.084 C 
ATOM     33  C   LIG    1       27.447 -20.286   8.019  0.00  0.00    +0.015 C 
ATOM     34  C   LIG    1       28.474 -20.249   6.902  0.00  0.00    +0.001 C 
ATOM     35  C   LIG    1       27.953 -19.633   5.613  0.00  0.00    +0.001 C 
ATOM     36  C   LIG    1       26.494 -19.925   5.272  0.00  0.00    +0.015 C 
ATOM     37  C   LIG    1       26.042 -21.366   5.532  0.00  0.00    +0.084 C 
ENDBRANCH  30  31
ENDBRANCH  29  30
ENDBRANCH  28  29
ENDBRANCH  25  28
ENDBRANCH  21  22
ENDBRANCH   4  21
TORSDOF 9
ENDMDL
