MODEL 1
REMARK VINA RESULT:      28.4      0.000      0.000
REMARK  Name = *****
REMARK                            x       y       z     vdW  Elec       q    Type
REMARK                         _______ _______ _______ _____ _____    ______ ____
ROOT
ATOM      1  C   LIG    1       24.881 -13.044   4.066  0.00  0.00    +0.129 C 
ATOM      2  C   LIG    1       24.725 -14.489   3.498  0.00  0.00    +0.061 C 
ATOM      3  C   LIG    1       26.041 -15.288   3.559  0.00  0.00    +0.190 C 
ATOM      4  C   LIG    1       25.844 -16.758   3.227  0.00  0.00    +0.141 C 
ATOM      5  C   LIG    1       24.647 -17.374   3.302  0.00  0.00    +0.046 C 
ATOM      6  C   LIG    1       23.372 -16.663   3.678  0.00  0.00    +0.060 C 
ATOM      7  C   LIG    1       22.503 -17.517   4.625  0.00  0.00    +0.154 C 
ATOM      8  C   LIG    1       22.289 -18.919   4.109  0.00  0.00    +0.014 A 
ATOM      9  C   LIG    1       23.274 -19.536   3.312  0.00  0.00    +0.070 A 
ATOM     10  C   LIG    1       23.090 -20.855   2.862  0.00  0.00    +0.128 A 
ATOM     11  C   LIG    1       21.943 -21.567   3.192  0.00  0.00    +0.047 A 
ATOM     12  C   LIG    1       20.971 -20.975   3.991  0.00  0.00    +0.024 A 
ATOM     13  C   LIG    1       21.145 -19.665   4.452  0.00  0.00    +0.048 A 
ATOM     14 CL   LIG    1       19.912 -19.024   5.479  0.00  0.00    -0.083 Cl
ATOM     15  C   LIG    1       24.529 -18.819   2.963  0.00  0.00    +0.197 C 
ATOM     16  O   LIG    1       25.440 -19.416   2.390  0.00  0.00    -0.287 OA
ATOM     17  C   LIG    1       26.619 -15.139   4.984  0.00  0.00    +0.210 C 
ATOM     18  O   LIG    1       26.703 -16.062   5.790  0.00  0.00    -0.288 OA
ATOM     19  C   LIG    1       26.953 -13.749   5.393  0.00  0.00    +0.121 C 
ATOM     20  C   LIG    1       23.614 -15.252   4.257  0.00  0.00    +0.020 C 
ATOM     21  C   LIG    1       26.103 -12.799   4.958  0.00  0.00    +0.127 C 
ENDROOT
BRANCH  19  22
ATOM     22  C   LIG    1       28.189 -13.505   6.181  0.00  0.00    +0.248 C 
ATOM     23  O   LIG    1       28.576 -14.267   7.057  0.00  0.00    -0.270 OA
ATOM     24  N   LIG    1       28.915 -12.399   5.861  0.00  0.00    -0.325 N 
ATOM     25  H   LIG    1       28.702 -11.878   5.016  0.00  0.00    +0.145 HD
ATOM     26  H   LIG    1       29.811 -12.275   6.310  0.00  0.00    +0.145 HD
ENDBRANCH  19  22
BRANCH   1  28
ATOM     27  C   LIG    1       23.409 -11.561   2.771  0.00  0.00    +0.105 C 
ATOM     28  N   LIG    1       24.795 -11.917   3.089  0.00  0.00    -0.298 NA
ATOM     29  C   LIG    1       25.543 -12.153   1.846  0.00  0.00    +0.105 C 
ENDBRANCH   1  28
BRANCH   3  30
ATOM     30  O   LIG    1       26.950 -14.762   2.592  0.00  0.00    -0.373 OA
ATOM     31  H   LIG    1       26.414 -14.659   1.776  0.00  0.00    +0.211 HD
ENDBRANCH   3  30
BRANCH   4  32
ATOM     32  O   LIG    1       27.002 -17.384   2.778  0.00  0.00    -0.507 OA
ATOM     33  H   LIG    1       26.961 -18.333   3.032  0.00  0.00    +0.292 HD
ENDBRANCH   4  32
BRANCH   7  34
ATOM     34  O   LIG    1       23.104 -17.591   5.910  0.00  0.00    -0.387 OA
ATOM     35  H   LIG    1       24.034 -17.861   5.803  0.00  0.00    +0.210 HD
ENDBRANCH   7  34
BRANCH  10  36
ATOM     36  O   LIG    1       24.000 -21.525   2.090  0.00  0.00    -0.506 OA
ATOM     37  H   LIG    1       24.869 -21.068   2.163  0.00  0.00    +0.292 HD
ENDBRANCH  10  36
BRANCH  21  38
ATOM     38  O   LIG    1       26.304 -11.447   5.245  0.00  0.00    -0.509 OA
ATOM     39  H   LIG    1       25.538 -11.203   5.816  0.00  0.00    +0.292 HD
ENDBRANCH  21  38
TORSDOF 7
ENDMDL
MODEL 2
REMARK VINA RESULT:      30.8      2.434      3.306
REMARK  Name = *****
REMARK                            x       y       z     vdW  Elec       q    Type
REMARK                         _______ _______ _______ _____ _____    ______ ____
ROOT
ATOM      1  C   LIG    1       24.904 -13.464   5.696  0.00  0.00    +0.129 C 
ATOM      2  C   LIG    1       23.750 -14.390   5.199  0.00  0.00    +0.061 C 
ATOM      3  C   LIG    1       23.544 -14.302   3.674  0.00  0.00    +0.190 C 
ATOM      4  C   LIG    1       22.588 -15.363   3.155  0.00  0.00    +0.141 C 
ATOM      5  C   LIG    1       22.302 -16.491   3.837  0.00  0.00    +0.046 C 
ATOM      6  C   LIG    1       22.864 -16.799   5.201  0.00  0.00    +0.060 C 
ATOM      7  C   LIG    1       23.278 -18.281   5.325  0.00  0.00    +0.154 C 
ATOM      8  C   LIG    1       22.187 -19.226   4.888  0.00  0.00    +0.014 A 
ATOM      9  C   LIG    1       21.269 -18.834   3.893  0.00  0.00    +0.070 A 
ATOM     10  C   LIG    1       20.274 -19.729   3.461  0.00  0.00    +0.128 A 
ATOM     11  C   LIG    1       20.178 -21.005   4.005  0.00  0.00    +0.047 A 
ATOM     12  C   LIG    1       21.088 -21.409   4.976  0.00  0.00    +0.024 A 
ATOM     13  C   LIG    1       22.088 -20.531   5.409  0.00  0.00    +0.048 A 
ATOM     14 CL   LIG    1       23.205 -21.131   6.583  0.00  0.00    -0.083 Cl
ATOM     15  C   LIG    1       21.356 -17.490   3.265  0.00  0.00    +0.197 C 
ATOM     16  O   LIG    1       20.644 -17.213   2.301  0.00  0.00    -0.287 OA
ATOM     17  C   LIG    1       24.925 -14.457   3.001  0.00  0.00    +0.210 C 
ATOM     18  O   LIG    1       25.248 -15.423   2.313  0.00  0.00    -0.288 OA
ATOM     19  C   LIG    1       25.924 -13.413   3.350  0.00  0.00    +0.121 C 
ATOM     20  C   LIG    1       24.019 -15.858   5.607  0.00  0.00    +0.020 C 
ATOM     21  C   LIG    1       25.894 -12.989   4.628  0.00  0.00    +0.127 C 
ENDROOT
BRANCH  19  22
ATOM     22  C   LIG    1       26.822 -12.888   2.288  0.00  0.00    +0.248 C 
ATOM     23  O   LIG    1       26.713 -11.758   1.829  0.00  0.00    -0.270 OA
ATOM     24  N   LIG    1       27.818 -13.712   1.861  0.00  0.00    -0.325 N 
ATOM     25  H   LIG    1       28.026 -14.564   2.372  0.00  0.00    +0.145 HD
ATOM     26  H   LIG    1       28.501 -13.334   1.220  0.00  0.00    +0.145 HD
ENDBRANCH  19  22
BRANCH   1  28
ATOM     27  C   LIG    1       23.509 -11.447   5.858  0.00  0.00    +0.105 C 
ATOM     28  N   LIG    1       24.517 -12.280   6.520  0.00  0.00    -0.298 NA
ATOM     29  C   LIG    1       25.656 -11.447   6.932  0.00  0.00    +0.105 C 
ENDBRANCH   1  28
BRANCH   3  30
ATOM     30  O   LIG    1       22.970 -13.034   3.355  0.00  0.00    -0.373 OA
ATOM     31  H   LIG    1       22.128 -13.249   2.900  0.00  0.00    +0.211 HD
ENDBRANCH   3  30
BRANCH   4  32
ATOM     32  O   LIG    1       21.989 -15.026   1.946  0.00  0.00    -0.507 OA
ATOM     33  H   LIG    1       21.442 -15.786   1.647  0.00  0.00    +0.292 HD
ENDBRANCH   4  32
BRANCH   7  34
ATOM     34  O   LIG    1       24.439 -18.533   4.544  0.00  0.00    -0.387 OA
ATOM     35  H   LIG    1       24.231 -18.346   3.611  0.00  0.00    +0.210 HD
ENDBRANCH   7  34
BRANCH  10  36
ATOM     36  O   LIG    1       19.350 -19.426   2.498  0.00  0.00    -0.506 OA
ATOM     37  H   LIG    1       18.452 -19.597   2.861  0.00  0.00    +0.292 HD
ENDBRANCH  10  36
BRANCH  21  38
ATOM     38  O   LIG    1       26.758 -11.994   5.091  0.00  0.00    -0.509 OA
ATOM     39  H   LIG    1       27.274 -11.730   4.293  0.00  0.00    +0.292 HD
ENDBRANCH  21  38
TORSDOF 7
ENDMDL
