MODEL 1
REMARK VINA RESULT:      -9.4      0.000      0.000
REMARK  Name = *****
REMARK                            x       y       z     vdW  Elec       q    Type
REMARK                         _______ _______ _______ _____ _____    ______ ____
ROOT
ATOM      1  C   LIG    1       29.404 -20.754   7.864  0.00  0.00    +0.119 A 
ATOM      2  C   LIG    1       29.292 -19.863   6.784  0.00  0.00    +0.083 A 
ATOM      3  C   LIG    1       28.111 -19.915   6.002  0.00  0.00    +0.039 A 
ATOM      4  C   LIG    1       27.075 -20.823   6.249  0.00  0.00    +0.056 A 
ATOM      5  N   LIG    1       25.882 -20.692   5.534  0.00  0.00    -0.326 N 
ATOM      6  H   LIG    1       26.019 -20.280   4.611  0.00  0.00    +0.148 HD
ATOM      7  C   LIG    1       24.995 -21.842   5.483  0.00  0.00    +0.164 C 
ATOM      8  N   LIG    1       24.643 -22.161   6.853  0.00  0.00    -0.170 NA
ATOM      9  H   LIG    1       24.231 -21.383   7.365  0.00  0.00    +0.150 HD
ATOM     10  S   LIG    1       25.928 -22.805   7.713  0.00  0.00    +0.062 S 
ATOM     11  O   LIG    1       26.267 -24.085   7.134  0.00  0.00    -0.153 OA
ATOM     12  O   LIG    1       25.607 -22.643   9.113  0.00  0.00    -0.153 OA
ATOM     13  C   LIG    1       27.236 -21.693   7.325  0.00  0.00    +0.128 A 
ATOM     14  C   LIG    1       28.380 -21.677   8.131  0.00  0.00    +0.059 A 
ENDROOT
BRANCH   2  15
ATOM     15  C   LIG    1       30.308 -18.821   6.369  0.00  0.00    +0.419 C 
ATOM     16  F   LIG    1       30.427 -17.850   7.322  0.00  0.00    -0.166 F 
ATOM     17  F   LIG    1       29.914 -18.166   5.240  0.00  0.00    -0.166 F 
ATOM     18  F   LIG    1       31.577 -19.232   6.131  0.00  0.00    -0.166 F 
ENDBRANCH   2  15
BRANCH   1  19
ATOM     19  S   LIG    1       30.798 -20.743   8.961  0.00  0.00    +0.057 S 
ATOM     20  O   LIG    1       31.988 -21.078   8.209  0.00  0.00    -0.153 OA
ATOM     21  O   LIG    1       30.714 -19.568   9.784  0.00  0.00    -0.153 OA
BRANCH  19  22
ATOM     22  N   LIG    1       30.499 -22.090   9.915  0.00  0.00    -0.203 NA
ATOM     23  H   LIG    1       31.303 -22.286  10.513  0.00  0.00    +0.144 HD
ATOM     24  H   LIG    1       29.623 -21.963  10.428  0.00  0.00    +0.144 HD
ENDBRANCH  19  22
ENDBRANCH   1  19
BRANCH   7  25
ATOM     25  C   LIG    1       23.703 -21.489   4.705  0.00  0.00    +0.075 C 
BRANCH  25  26
ATOM     26  C   LIG    1       23.497 -20.008   4.456  0.00  0.00    -0.044 A 
ATOM     27  C   LIG    1       22.321 -19.385   4.901  0.00  0.00    +0.003 A 
ATOM     28  C   LIG    1       22.121 -18.016   4.710  0.00  0.00    +0.000 A 
ATOM     29  C   LIG    1       23.096 -17.253   4.071  0.00  0.00    +0.000 A 
ATOM     30  C   LIG    1       24.259 -17.863   3.605  0.00  0.00    +0.000 A 
ATOM     31  C   LIG    1       24.456 -19.236   3.787  0.00  0.00    +0.003 A 
ENDBRANCH  25  26
ENDBRANCH   7  25
TORSDOF 5
ENDMDL
MODEL 2
REMARK VINA RESULT:      -8.5      3.449      6.986
REMARK  Name = *****
REMARK                            x       y       z     vdW  Elec       q    Type
REMARK                         _______ _______ _______ _____ _____    ______ ____
ROOT
ATOM      1  C   LIG    1       24.501 -20.483   5.254  0.00  0.00    +0.119 A 
ATOM      2  C   LIG    1       25.394 -19.680   4.528  0.00  0.00    +0.083 A 
ATOM      3  C   LIG    1       26.691 -19.480   5.063  0.00  0.00    +0.039 A 
ATOM      4  C   LIG    1       27.103 -20.029   6.283  0.00  0.00    +0.056 A 
ATOM      5  N   LIG    1       28.446 -19.918   6.651  0.00  0.00    -0.326 N 
ATOM      6  H   LIG    1       28.893 -19.086   6.265  0.00  0.00    +0.148 HD
ATOM      7  C   LIG    1       28.780 -20.105   8.053  0.00  0.00    +0.164 C 
ATOM      8  N   LIG    1       28.345 -21.440   8.413  0.00  0.00    -0.170 NA
ATOM      9  H   LIG    1       28.735 -22.174   7.825  0.00  0.00    +0.150 HD
ATOM     10  S   LIG    1       26.676 -21.577   8.476  0.00  0.00    +0.062 S 
ATOM     11  O   LIG    1       26.193 -20.750   9.559  0.00  0.00    -0.153 OA
ATOM     12  O   LIG    1       26.375 -22.987   8.379  0.00  0.00    -0.153 OA
ATOM     13  C   LIG    1       26.178 -20.811   6.972  0.00  0.00    +0.128 A 
ATOM     14  C   LIG    1       24.888 -21.043   6.482  0.00  0.00    +0.059 A 
ENDROOT
BRANCH   2  15
ATOM     15  C   LIG    1       25.123 -19.006   3.200  0.00  0.00    +0.419 C 
ATOM     16  F   LIG    1       23.874 -18.452   3.182  0.00  0.00    -0.166 F 
ATOM     17  F   LIG    1       25.127 -19.906   2.176  0.00  0.00    -0.166 F 
ATOM     18  F   LIG    1       25.953 -18.007   2.815  0.00  0.00    -0.166 F 
ENDBRANCH   2  15
BRANCH   1  19
ATOM     19  S   LIG    1       22.875 -20.869   4.659  0.00  0.00    +0.057 S 
ATOM     20  O   LIG    1       22.006 -19.737   4.903  0.00  0.00    -0.153 OA
ATOM     21  O   LIG    1       23.001 -21.475   3.363  0.00  0.00    -0.153 OA
BRANCH  19  22
ATOM     22  N   LIG    1       22.373 -22.037   5.753  0.00  0.00    -0.203 NA
ATOM     23  H   LIG    1       21.705 -21.639   6.415  0.00  0.00    +0.144 HD
ATOM     24  H   LIG    1       22.019 -22.854   5.249  0.00  0.00    +0.144 HD
ENDBRANCH  19  22
ENDBRANCH   1  19
BRANCH   7  25
ATOM     25  C   LIG    1       30.313 -20.008   8.257  0.00  0.00    +0.075 C 
BRANCH  25  26
ATOM     26  C   LIG    1       30.782 -18.740   8.942  0.00  0.00    -0.044 A 
ATOM     27  C   LIG    1       30.045 -18.214  10.014  0.00  0.00    +0.003 A 
ATOM     28  C   LIG    1       30.474 -17.064  10.679  0.00  0.00    +0.000 A 
ATOM     29  C   LIG    1       31.646 -16.426  10.281  0.00  0.00    +0.000 A 
ATOM     30  C   LIG    1       32.377 -16.925   9.205  0.00  0.00    +0.000 A 
ATOM     31  C   LIG    1       31.943 -18.071   8.531  0.00  0.00    +0.003 A 
ENDBRANCH  25  26
ENDBRANCH   7  25
TORSDOF 5
ENDMDL
MODEL 3
REMARK VINA RESULT:      -8.3      8.122      9.790
REMARK  Name = *****
REMARK                            x       y       z     vdW  Elec       q    Type
REMARK                         _______ _______ _______ _____ _____    ______ ____
ROOT
ATOM      1  C   LIG    1       25.203 -30.867   9.886  0.00  0.00    +0.119 A 
ATOM      2  C   LIG    1       25.792 -29.686  10.367  0.00  0.00    +0.083 A 
ATOM      3  C   LIG    1       26.025 -28.638   9.443  0.00  0.00    +0.039 A 
ATOM      4  C   LIG    1       25.713 -28.741   8.082  0.00  0.00    +0.056 A 
ATOM      5  N   LIG    1       25.823 -27.602   7.279  0.00  0.00    -0.326 N 
ATOM      6  H   LIG    1       26.533 -26.951   7.615  0.00  0.00    +0.148 HD
ATOM      7  C   LIG    1       25.906 -27.795   5.842  0.00  0.00    +0.164 C 
ATOM      8  N   LIG    1       24.699 -28.489   5.441  0.00  0.00    -0.170 NA
ATOM      9  H   LIG    1       23.840 -28.015   5.714  0.00  0.00    +0.150 HD
ATOM     10  S   LIG    1       24.670 -30.081   5.961  0.00  0.00    +0.062 S 
ATOM     11  O   LIG    1       25.725 -30.800   5.282  0.00  0.00    -0.153 OA
ATOM     12  O   LIG    1       23.288 -30.502   5.918  0.00  0.00    -0.153 OA
ATOM     13  C   LIG    1       25.140 -29.934   7.650  0.00  0.00    +0.128 A 
ATOM     14  C   LIG    1       24.884 -30.997   8.525  0.00  0.00    +0.059 A 
ENDROOT
BRANCH   2  15
ATOM     15  C   LIG    1       26.196 -29.401  11.797  0.00  0.00    +0.419 C 
ATOM     16  F   LIG    1       26.556 -28.092  11.950  0.00  0.00    -0.166 F 
ATOM     17  F   LIG    1       27.299 -30.117  12.155  0.00  0.00    -0.166 F 
ATOM     18  F   LIG    1       25.281 -29.626  12.771  0.00  0.00    -0.166 F 
ENDBRANCH   2  15
BRANCH   1  19
ATOM     19  S   LIG    1       24.795 -32.225  10.952  0.00  0.00    +0.057 S 
ATOM     20  O   LIG    1       26.014 -32.748  11.531  0.00  0.00    -0.153 OA
ATOM     21  O   LIG    1       23.665 -31.845  11.753  0.00  0.00    -0.153 OA
BRANCH  19  22
ATOM     22  N   LIG    1       24.307 -33.394   9.852  0.00  0.00    -0.203 NA
ATOM     23  H   LIG    1       24.629 -34.316  10.149  0.00  0.00    +0.144 HD
ATOM     24  H   LIG    1       23.295 -33.335   9.712  0.00  0.00    +0.144 HD
ENDBRANCH  19  22
ENDBRANCH   1  19
BRANCH   7  25
ATOM     25  C   LIG    1       25.958 -26.426   5.119  0.00  0.00    +0.075 C 
BRANCH  25  26
ATOM     26  C   LIG    1       25.307 -25.284   5.875  0.00  0.00    -0.044 A 
ATOM     27  C   LIG    1       26.107 -24.307   6.486  0.00  0.00    +0.003 A 
ATOM     28  C   LIG    1       25.529 -23.231   7.162  0.00  0.00    +0.000 A 
ATOM     29  C   LIG    1       24.143 -23.119   7.236  0.00  0.00    +0.000 A 
ATOM     30  C   LIG    1       23.336 -24.094   6.653  0.00  0.00    +0.000 A 
ATOM     31  C   LIG    1       23.913 -25.177   5.984  0.00  0.00    +0.003 A 
ENDBRANCH  25  26
ENDBRANCH   7  25
TORSDOF 5
ENDMDL
MODEL 4
REMARK VINA RESULT:      -7.8      4.139      7.529
REMARK  Name = *****
REMARK                            x       y       z     vdW  Elec       q    Type
REMARK                         _______ _______ _______ _____ _____    ______ ____
ROOT
ATOM      1  C   LIG    1       26.157 -20.674   5.732  0.00  0.00    +0.119 A 
ATOM      2  C   LIG    1       26.283 -21.504   6.858  0.00  0.00    +0.083 A 
ATOM      3  C   LIG    1       27.462 -21.387   7.637  0.00  0.00    +0.039 A 
ATOM      4  C   LIG    1       28.500 -20.504   7.318  0.00  0.00    +0.056 A 
ATOM      5  N   LIG    1       29.546 -20.338   8.230  0.00  0.00    -0.326 N 
ATOM      6  H   LIG    1       29.711 -21.171   8.796  0.00  0.00    +0.148 HD
ATOM      7  C   LIG    1       30.788 -19.769   7.737  0.00  0.00    +0.164 C 
ATOM      8  N   LIG    1       30.467 -18.458   7.207  0.00  0.00    -0.170 NA
ATOM      9  H   LIG    1       30.004 -17.845   7.876  0.00  0.00    +0.150 HD
ATOM     10  S   LIG    1       29.583 -18.538   5.787  0.00  0.00    +0.062 S 
ATOM     11  O   LIG    1       30.417 -19.130   4.765  0.00  0.00    -0.153 OA
ATOM     12  O   LIG    1       28.949 -17.249   5.624  0.00  0.00    -0.153 OA
ATOM     13  C   LIG    1       28.333 -19.710   6.186  0.00  0.00    +0.128 A 
ATOM     14  C   LIG    1       27.185 -19.782   5.388  0.00  0.00    +0.059 A 
ENDROOT
BRANCH   2  15
ATOM     15  C   LIG    1       25.270 -22.513   7.350  0.00  0.00    +0.419 C 
ATOM     16  F   LIG    1       25.628 -23.007   8.573  0.00  0.00    -0.166 F 
ATOM     17  F   LIG    1       25.213 -23.601   6.530  0.00  0.00    -0.166 F 
ATOM     18  F   LIG    1       23.987 -22.102   7.504  0.00  0.00    -0.166 F 
ENDBRANCH   2  15
BRANCH   1  19
ATOM     19  S   LIG    1       24.702 -20.671   4.717  0.00  0.00    +0.057 S 
ATOM     20  O   LIG    1       24.502 -22.001   4.181  0.00  0.00    -0.153 OA
ATOM     21  O   LIG    1       23.667 -19.961   5.415  0.00  0.00    -0.153 OA
BRANCH  19  22
ATOM     22  N   LIG    1       25.197 -19.750   3.406  0.00  0.00    -0.203 NA
ATOM     23  H   LIG    1       25.227 -18.761   3.659  0.00  0.00    +0.144 HD
ATOM     24  H   LIG    1       26.083 -20.112   3.043  0.00  0.00    +0.144 HD
ENDBRANCH  19  22
ENDBRANCH   1  19
BRANCH   7  25
ATOM     25  C   LIG    1       31.800 -19.604   8.898  0.00  0.00    +0.075 C 
BRANCH  25  26
ATOM     26  C   LIG    1       31.711 -18.282   9.634  0.00  0.00    -0.044 A 
ATOM     27  C   LIG    1       30.788 -18.128  10.680  0.00  0.00    +0.003 A 
ATOM     28  C   LIG    1       30.709 -16.930  11.392  0.00  0.00    +0.000 A 
ATOM     29  C   LIG    1       31.551 -15.870  11.067  0.00  0.00    +0.000 A 
ATOM     30  C   LIG    1       32.458 -16.001  10.017  0.00  0.00    +0.000 A 
ATOM     31  C   LIG    1       32.532 -17.197   9.296  0.00  0.00    +0.003 A 
ENDBRANCH  25  26
ENDBRANCH   7  25
TORSDOF 5
ENDMDL
MODEL 5
REMARK VINA RESULT:      -7.8      5.707      8.202
REMARK  Name = *****
REMARK                            x       y       z     vdW  Elec       q    Type
REMARK                         _______ _______ _______ _____ _____    ______ ____
ROOT
ATOM      1  C   LIG    1       24.837 -22.499   5.496  0.00  0.00    +0.119 A 
ATOM      2  C   LIG    1       25.233 -22.344   6.835  0.00  0.00    +0.083 A 
ATOM      3  C   LIG    1       25.624 -23.504   7.549  0.00  0.00    +0.039 A 
ATOM      4  C   LIG    1       25.610 -24.785   6.984  0.00  0.00    +0.056 A 
ATOM      5  N   LIG    1       26.167 -25.844   7.706  0.00  0.00    -0.326 N 
ATOM      6  H   LIG    1       26.107 -25.707   8.715  0.00  0.00    +0.148 HD
ATOM      7  C   LIG    1       25.790 -27.194   7.323  0.00  0.00    +0.164 C 
ATOM      8  N   LIG    1       26.185 -27.363   5.939  0.00  0.00    -0.170 NA
ATOM      9  H   LIG    1       27.171 -27.177   5.765  0.00  0.00    +0.150 HD
ATOM     10  S   LIG    1       25.234 -26.471   4.886  0.00  0.00    +0.062 S 
ATOM     11  O   LIG    1       23.889 -26.999   4.931  0.00  0.00    -0.153 OA
ATOM     12  O   LIG    1       25.984 -26.352   3.657  0.00  0.00    -0.153 OA
ATOM     13  C   LIG    1       25.202 -24.889   5.657  0.00  0.00    +0.128 A 
ATOM     14  C   LIG    1       24.812 -23.773   4.907  0.00  0.00    +0.059 A 
ENDROOT
BRANCH   2  15
ATOM     15  C   LIG    1       25.306 -21.044   7.606  0.00  0.00    +0.419 C 
ATOM     16  F   LIG    1       25.718 -21.262   8.890  0.00  0.00    -0.166 F 
ATOM     17  F   LIG    1       24.077 -20.465   7.720  0.00  0.00    -0.166 F 
ATOM     18  F   LIG    1       26.128 -20.074   7.137  0.00  0.00    -0.166 F 
ENDBRANCH   2  15
BRANCH   1  19
ATOM     19  S   LIG    1       24.395 -21.119   4.473  0.00  0.00    +0.057 S 
ATOM     20  O   LIG    1       23.179 -20.526   4.988  0.00  0.00    -0.153 OA
ATOM     21  O   LIG    1       25.579 -20.347   4.221  0.00  0.00    -0.153 OA
BRANCH  19  22
ATOM     22  N   LIG    1       23.933 -21.877   3.050  0.00  0.00    -0.203 NA
ATOM     23  H   LIG    1       23.490 -22.774   3.254  0.00  0.00    +0.144 HD
ATOM     24  H   LIG    1       23.350 -21.245   2.494  0.00  0.00    +0.144 HD
ENDBRANCH  19  22
ENDBRANCH   1  19
BRANCH   7  25
ATOM     25  C   LIG    1       26.551 -28.229   8.189  0.00  0.00    +0.075 C 
BRANCH  25  26
ATOM     26  C   LIG    1       25.673 -29.060   9.103  0.00  0.00    -0.044 A 
ATOM     27  C   LIG    1       25.939 -29.098  10.480  0.00  0.00    +0.003 A 
ATOM     28  C   LIG    1       25.126 -29.833  11.345  0.00  0.00    +0.000 A 
ATOM     29  C   LIG    1       24.036 -30.540  10.843  0.00  0.00    +0.000 A 
ATOM     30  C   LIG    1       23.773 -30.530   9.475  0.00  0.00    +0.000 A 
ATOM     31  C   LIG    1       24.592 -29.802   8.606  0.00  0.00    +0.003 A 
ENDBRANCH  25  26
ENDBRANCH   7  25
TORSDOF 5
ENDMDL
MODEL 6
REMARK VINA RESULT:      -7.7      8.055      9.577
REMARK  Name = *****
REMARK                            x       y       z     vdW  Elec       q    Type
REMARK                         _______ _______ _______ _____ _____    ______ ____
ROOT
ATOM      1  C   LIG    1       25.802 -30.339  11.166  0.00  0.00    +0.119 A 
ATOM      2  C   LIG    1       26.414 -29.080  11.282  0.00  0.00    +0.083 A 
ATOM      3  C   LIG    1       26.508 -28.280  10.116  0.00  0.00    +0.039 A 
ATOM      4  C   LIG    1       26.039 -28.699   8.866  0.00  0.00    +0.056 A 
ATOM      5  N   LIG    1       26.024 -27.782   7.811  0.00  0.00    -0.326 N 
ATOM      6  H   LIG    1       26.752 -27.073   7.896  0.00  0.00    +0.148 HD
ATOM      7  C   LIG    1       25.940 -28.309   6.460  0.00  0.00    +0.164 C 
ATOM      8  N   LIG    1       24.711 -29.073   6.383  0.00  0.00    -0.170 NA
ATOM      9  H   LIG    1       23.879 -28.545   6.640  0.00  0.00    +0.150 HD
ATOM     10  S   LIG    1       24.785 -30.498   7.261  0.00  0.00    +0.062 S 
ATOM     11  O   LIG    1       25.769 -31.360   6.646  0.00  0.00    -0.153 OA
ATOM     12  O   LIG    1       23.419 -30.913   7.487  0.00  0.00    -0.153 OA
ATOM     13  C   LIG    1       25.449 -29.959   8.799  0.00  0.00    +0.128 A 
ATOM     14  C   LIG    1       25.326 -30.784   9.923  0.00  0.00    +0.059 A 
ENDROOT
BRANCH   2  15
ATOM     15  C   LIG    1       26.978 -28.467  12.545  0.00  0.00    +0.419 C 
ATOM     16  F   LIG    1       27.268 -27.145  12.358  0.00  0.00    -0.166 F 
ATOM     17  F   LIG    1       28.162 -29.046  12.892  0.00  0.00    -0.166 F 
ATOM     18  F   LIG    1       26.212 -28.500  13.663  0.00  0.00    -0.166 F 
ENDBRANCH   2  15
BRANCH   1  19
ATOM     19  S   LIG    1       25.558 -31.406  12.562  0.00  0.00    +0.057 S 
ATOM     20  O   LIG    1       26.784 -31.459  13.330  0.00  0.00    -0.153 OA
ATOM     21  O   LIG    1       24.291 -31.085  13.159  0.00  0.00    -0.153 OA
BRANCH  19  22
ATOM     22  N   LIG    1       25.443 -32.911  11.832  0.00  0.00    -0.203 NA
ATOM     23  H   LIG    1       25.806 -32.871  10.878  0.00  0.00    +0.144 HD
ATOM     24  H   LIG    1       25.899 -33.616  12.418  0.00  0.00    +0.144 HD
ENDBRANCH  19  22
ENDBRANCH   1  19
BRANCH   7  25
ATOM     25  C   LIG    1       25.871 -27.149   5.436  0.00  0.00    +0.075 C 
BRANCH  25  26
ATOM     26  C   LIG    1       25.313 -25.850   5.985  0.00  0.00    -0.044 A 
ATOM     27  C   LIG    1       26.189 -24.858   6.453  0.00  0.00    +0.003 A 
ATOM     28  C   LIG    1       25.699 -23.643   6.936  0.00  0.00    +0.000 A 
ATOM     29  C   LIG    1       24.328 -23.404   6.956  0.00  0.00    +0.000 A 
ATOM     30  C   LIG    1       23.445 -24.389   6.515  0.00  0.00    +0.000 A 
ATOM     31  C   LIG    1       23.933 -25.610   6.041  0.00  0.00    +0.003 A 
ENDBRANCH  25  26
ENDBRANCH   7  25
TORSDOF 5
ENDMDL
MODEL 7
REMARK VINA RESULT:      -7.1      6.275      8.385
REMARK  Name = *****
REMARK                            x       y       z     vdW  Elec       q    Type
REMARK                         _______ _______ _______ _____ _____    ______ ____
ROOT
ATOM      1  C   LIG    1       25.241 -23.085   7.100  0.00  0.00    +0.119 A 
ATOM      2  C   LIG    1       23.966 -23.150   6.513  0.00  0.00    +0.083 A 
ATOM      3  C   LIG    1       23.524 -24.406   6.029  0.00  0.00    +0.039 A 
ATOM      4  C   LIG    1       24.306 -25.565   6.093  0.00  0.00    +0.056 A 
ATOM      5  N   LIG    1       23.727 -26.788   5.743  0.00  0.00    -0.326 N 
ATOM      6  H   LIG    1       22.981 -26.687   5.055  0.00  0.00    +0.148 HD
ATOM      7  C   LIG    1       24.618 -27.887   5.414  0.00  0.00    +0.164 C 
ATOM      8  N   LIG    1       25.444 -28.121   6.582  0.00  0.00    -0.170 NA
ATOM      9  H   LIG    1       24.915 -28.299   7.434  0.00  0.00    +0.150 HD
ATOM     10  S   LIG    1       26.556 -26.894   6.838  0.00  0.00    +0.062 S 
ATOM     11  O   LIG    1       27.497 -26.897   5.741  0.00  0.00    -0.153 OA
ATOM     12  O   LIG    1       26.970 -26.997   8.219  0.00  0.00    -0.153 OA
ATOM     13  C   LIG    1       25.566 -25.449   6.676  0.00  0.00    +0.128 A 
ATOM     14  C   LIG    1       26.046 -24.233   7.175  0.00  0.00    +0.059 A 
ENDROOT
BRANCH   2  15
ATOM     15  C   LIG    1       22.989 -22.005   6.356  0.00  0.00    +0.419 C 
ATOM     16  F   LIG    1       21.745 -22.468   6.033  0.00  0.00    -0.166 F 
ATOM     17  F   LIG    1       23.344 -21.188   5.324  0.00  0.00    -0.166 F 
ATOM     18  F   LIG    1       22.792 -21.189   7.420  0.00  0.00    -0.166 F 
ENDBRANCH   2  15
BRANCH   1  19
ATOM     19  S   LIG    1       25.882 -21.591   7.809  0.00  0.00    +0.057 S 
ATOM     20  O   LIG    1       25.739 -20.518   6.848  0.00  0.00    -0.153 OA
ATOM     21  O   LIG    1       25.394 -21.486   9.156  0.00  0.00    -0.153 OA
BRANCH  19  22
ATOM     22  N   LIG    1       27.528 -21.909   7.855  0.00  0.00    -0.203 NA
ATOM     23  H   LIG    1       27.822 -22.115   8.811  0.00  0.00    +0.144 HD
ATOM     24  H   LIG    1       27.758 -22.647   7.184  0.00  0.00    +0.144 HD
ENDBRANCH  19  22
ENDBRANCH   1  19
BRANCH   7  25
ATOM     25  C   LIG    1       23.800 -29.169   5.117  0.00  0.00    +0.075 C 
BRANCH  25  26
ATOM     26  C   LIG    1       24.432 -30.454   5.613  0.00  0.00    -0.044 A 
ATOM     27  C   LIG    1       25.625 -30.913   5.033  0.00  0.00    +0.003 A 
ATOM     28  C   LIG    1       26.240 -32.079   5.494  0.00  0.00    +0.000 A 
ATOM     29  C   LIG    1       25.672 -32.800   6.540  0.00  0.00    +0.000 A 
ATOM     30  C   LIG    1       24.476 -32.368   7.111  0.00  0.00    +0.000 A 
ATOM     31  C   LIG    1       23.852 -31.206   6.644  0.00  0.00    +0.003 A 
ENDBRANCH  25  26
ENDBRANCH   7  25
TORSDOF 5
ENDMDL
MODEL 8
REMARK VINA RESULT:      -7.0      8.889     10.843
REMARK  Name = *****
REMARK                            x       y       z     vdW  Elec       q    Type
REMARK                         _______ _______ _______ _____ _____    ______ ____
ROOT
ATOM      1  C   LIG    1       25.005 -29.745   7.555  0.00  0.00    +0.119 A 
ATOM      2  C   LIG    1       25.581 -28.464   7.538  0.00  0.00    +0.083 A 
ATOM      3  C   LIG    1       26.151 -27.978   8.741  0.00  0.00    +0.039 A 
ATOM      4  C   LIG    1       26.143 -28.708   9.936  0.00  0.00    +0.056 A 
ATOM      5  N   LIG    1       26.871 -28.222  11.025  0.00  0.00    -0.326 N 
ATOM      6  H   LIG    1       26.951 -27.205  11.024  0.00  0.00    +0.148 HD
ATOM      7  C   LIG    1       26.537 -28.734  12.343  0.00  0.00    +0.164 C 
ATOM      8  N   LIG    1       26.735 -30.169  12.299  0.00  0.00    -0.170 NA
ATOM      9  H   LIG    1       27.670 -30.448  12.006  0.00  0.00    +0.150 HD
ATOM     10  S   LIG    1       25.581 -30.949  11.367  0.00  0.00    +0.062 S 
ATOM     11  O   LIG    1       24.297 -30.795  12.012  0.00  0.00    -0.153 OA
ATOM     12  O   LIG    1       26.132 -32.240  11.026  0.00  0.00    -0.153 OA
ATOM     13  C   LIG    1       25.553 -29.969   9.905  0.00  0.00    +0.128 A 
ATOM     14  C   LIG    1       24.982 -30.496   8.741  0.00  0.00    +0.059 A 
ENDROOT
BRANCH   2  15
ATOM     15  C   LIG    1       25.677 -27.537   6.346  0.00  0.00    +0.419 C 
ATOM     16  F   LIG    1       26.482 -26.469   6.623  0.00  0.00    -0.166 F 
ATOM     17  F   LIG    1       24.463 -26.997   6.039  0.00  0.00    -0.166 F 
ATOM     18  F   LIG    1       26.158 -28.044   5.185  0.00  0.00    -0.166 F 
ENDBRANCH   2  15
BRANCH   1  19
ATOM     19  S   LIG    1       24.323 -30.496   6.100  0.00  0.00    +0.057 S 
ATOM     20  O   LIG    1       23.238 -29.672   5.612  0.00  0.00    -0.153 OA
ATOM     21  O   LIG    1       25.409 -30.914   5.258  0.00  0.00    -0.153 OA
BRANCH  19  22
ATOM     22  N   LIG    1       23.577 -31.859   6.732  0.00  0.00    -0.203 NA
ATOM     23  H   LIG    1       24.185 -32.311   7.417  0.00  0.00    +0.144 HD
ATOM     24  H   LIG    1       22.654 -31.610   7.099  0.00  0.00    +0.144 HD
ENDBRANCH  19  22
ENDBRANCH   1  19
BRANCH   7  25
ATOM     25  C   LIG    1       27.486 -28.132  13.409  0.00  0.00    +0.075 C 
BRANCH  25  26
ATOM     26  C   LIG    1       27.118 -26.735  13.870  0.00  0.00    -0.044 A 
ATOM     27  C   LIG    1       25.837 -26.228  13.601  0.00  0.00    +0.003 A 
ATOM     28  C   LIG    1       25.466 -24.956  14.041  0.00  0.00    +0.000 A 
ATOM     29  C   LIG    1       26.371 -24.175  14.755  0.00  0.00    +0.000 A 
ATOM     30  C   LIG    1       27.653 -24.657  15.010  0.00  0.00    +0.000 A 
ATOM     31  C   LIG    1       28.030 -25.927  14.562  0.00  0.00    +0.003 A 
ENDBRANCH  25  26
ENDBRANCH   7  25
TORSDOF 5
ENDMDL
MODEL 9
REMARK VINA RESULT:      -6.7      9.983     11.392
REMARK  Name = *****
REMARK                            x       y       z     vdW  Elec       q    Type
REMARK                         _______ _______ _______ _____ _____    ______ ____
ROOT
ATOM      1  C   LIG    1       25.610 -26.867  13.090  0.00  0.00    +0.119 A 
ATOM      2  C   LIG    1       24.310 -27.378  13.246  0.00  0.00    +0.083 A 
ATOM      3  C   LIG    1       23.988 -28.584  12.574  0.00  0.00    +0.039 A 
ATOM      4  C   LIG    1       24.898 -29.265  11.756  0.00  0.00    +0.056 A 
ATOM      5  N   LIG    1       24.549 -30.528  11.269  0.00  0.00    -0.326 N 
ATOM      6  H   LIG    1       23.541 -30.641  11.154  0.00  0.00    +0.148 HD
ATOM      7  C   LIG    1       25.281 -31.035  10.122  0.00  0.00    +0.164 C 
ATOM      8  N   LIG    1       26.677 -31.094  10.508  0.00  0.00    -0.170 NA
ATOM      9  H   LIG    1       26.851 -31.645  11.347  0.00  0.00    +0.150 HD
ATOM     10  S   LIG    1       27.366 -29.574  10.662  0.00  0.00    +0.062 S 
ATOM     11  O   LIG    1       27.392 -28.953   9.357  0.00  0.00    -0.153 OA
ATOM     12  O   LIG    1       28.552 -29.741  11.470  0.00  0.00    -0.153 OA
ATOM     13  C   LIG    1       26.170 -28.715  11.626  0.00  0.00    +0.128 A 
ATOM     14  C   LIG    1       26.539 -27.530  12.273  0.00  0.00    +0.059 A 
ENDROOT
BRANCH   2  15
ATOM     15  C   LIG    1       23.202 -26.778  14.083  0.00  0.00    +0.419 C 
ATOM     16  F   LIG    1       22.228 -27.701  14.335  0.00  0.00    -0.166 F 
ATOM     17  F   LIG    1       22.572 -25.767  13.421  0.00  0.00    -0.166 F 
ATOM     18  F   LIG    1       23.527 -26.275  15.298  0.00  0.00    -0.166 F 
ENDBRANCH   2  15
BRANCH   1  19
ATOM     19  S   LIG    1       26.160 -25.407  13.933  0.00  0.00    +0.057 S 
ATOM     20  O   LIG    1       25.352 -24.285  13.503  0.00  0.00    -0.153 OA
ATOM     21  O   LIG    1       26.348 -25.731  15.320  0.00  0.00    -0.153 OA
BRANCH  19  22
ATOM     22  N   LIG    1       27.662 -25.148  13.232  0.00  0.00    -0.203 NA
ATOM     23  H   LIG    1       28.365 -25.744  13.670  0.00  0.00    +0.144 HD
ATOM     24  H   LIG    1       27.595 -25.264  12.217  0.00  0.00    +0.144 HD
ENDBRANCH  19  22
ENDBRANCH   1  19
BRANCH   7  25
ATOM     25  C   LIG    1       24.801 -32.464   9.768  0.00  0.00    +0.075 C 
BRANCH  25  26
ATOM     26  C   LIG    1       24.227 -32.614   8.373  0.00  0.00    -0.044 A 
ATOM     27  C   LIG    1       24.529 -31.659   7.390  0.00  0.00    +0.003 A 
ATOM     28  C   LIG    1       24.035 -31.792   6.090  0.00  0.00    +0.000 A 
ATOM     29  C   LIG    1       23.234 -32.881   5.757  0.00  0.00    +0.000 A 
ATOM     30  C   LIG    1       22.909 -33.825   6.729  0.00  0.00    +0.000 A 
ATOM     31  C   LIG    1       23.393 -33.689   8.034  0.00  0.00    +0.003 A 
ENDBRANCH  25  26
ENDBRANCH   7  25
TORSDOF 5
ENDMDL
