MODEL 1
REMARK VINA RESULT:      -7.5      0.000      0.000
REMARK  Name = *****
REMARK                            x       y       z     vdW  Elec       q    Type
REMARK                         _______ _______ _______ _____ _____    ______ ____
ROOT
ATOM      1  C   LIG    1       22.950 -20.393   5.504  0.00  0.00    +0.032 C 
ATOM      2  C   LIG    1       22.252 -19.258   4.735  0.00  0.00    +0.019 C 
ATOM      3  C   LIG    1       24.402 -20.728   4.993  0.00  0.00    -0.016 C 
ATOM      4  C   LIG    1       24.406 -21.663   3.770  0.00  0.00    +0.012 C 
ATOM      5  C   LIG    1       25.035 -21.417   6.228  0.00  0.00    +0.003 C 
ATOM      6  C   LIG    1       26.575 -21.598   6.170  0.00  0.00    +0.019 C 
ATOM      7  C   LIG    1       27.318 -20.333   5.742  0.00  0.00    -0.063 C 
ATOM      8  C   LIG    1       26.710 -19.657   4.530  0.00  0.00    +0.032 C 
ATOM      9  C   LIG    1       28.435 -19.889   6.373  0.00  0.00    -0.044 C 
ATOM     10  C   LIG    1       29.060 -20.680   7.437  0.00  0.00    -0.041 C 
ATOM     11  C   LIG    1       30.030 -20.205   8.232  0.00  0.00    +0.050 C 
ATOM     12  C   LIG    1       30.638 -18.887   7.970  0.00  0.00    +0.157 C 
ATOM     13  O   LIG    1       31.346 -18.358   8.821  0.00  0.00    -0.293 OA
ATOM     14  C   LIG    1       30.483 -18.334   6.582  0.00  0.00    +0.083 C 
ATOM     15  C   LIG    1       28.593 -22.107   7.593  0.00  0.00    +0.036 C 
ATOM     16  C   LIG    1       29.074 -18.549   6.052  0.00  0.00    +0.043 C 
ATOM     17  C   LIG    1       27.082 -22.184   7.502  0.00  0.00    +0.013 C 
ATOM     18  C   LIG    1       24.515 -20.582   7.414  0.00  0.00    +0.006 C 
ATOM     19  C   LIG    1       25.204 -19.441   4.653  0.00  0.00    +0.012 C 
ATOM     20  C   LIG    1       23.196 -19.940   6.967  0.00  0.00    +0.015 C 
ENDROOT
BRANCH   1  22
ATOM     21  C   LIG    1       22.333 -22.756   6.520  0.00  0.00    +0.086 C 
ATOM     22  C   LIG    1       22.027 -21.647   5.540  0.00  0.00    +0.137 C 
ATOM     23  O   LIG    1       21.041 -21.751   4.806  0.00  0.00    -0.297 OA
ENDBRANCH   1  22
TORSDOF 1
ENDMDL
MODEL 2
REMARK VINA RESULT:      -6.5      9.299     10.875
REMARK  Name = *****
REMARK                            x       y       z     vdW  Elec       q    Type
REMARK                         _______ _______ _______ _____ _____    ______ ____
ROOT
ATOM      1  C   LIG    1       25.109 -31.482   7.647  0.00  0.00    +0.032 C 
ATOM      2  C   LIG    1       26.289 -31.565   6.663  0.00  0.00    +0.019 C 
ATOM      3  C   LIG    1       25.530 -31.394   9.162  0.00  0.00    -0.016 C 
ATOM      4  C   LIG    1       25.844 -32.770   9.779  0.00  0.00    +0.012 C 
ATOM      5  C   LIG    1       24.278 -30.758   9.816  0.00  0.00    +0.003 C 
ATOM      6  C   LIG    1       24.476 -30.243  11.266  0.00  0.00    +0.019 C 
ATOM      7  C   LIG    1       25.738 -29.399  11.442  0.00  0.00    -0.063 C 
ATOM      8  C   LIG    1       26.970 -30.018  10.812  0.00  0.00    +0.032 C 
ATOM      9  C   LIG    1       25.749 -28.229  12.130  0.00  0.00    -0.044 C 
ATOM     10  C   LIG    1       24.557 -27.771  12.849  0.00  0.00    -0.041 C 
ATOM     11  C   LIG    1       24.439 -26.538  13.366  0.00  0.00    +0.050 C 
ATOM     12  C   LIG    1       25.588 -25.614  13.372  0.00  0.00    +0.157 C 
ATOM     13  O   LIG    1       25.417 -24.425  13.625  0.00  0.00    -0.293 OA
ATOM     14  C   LIG    1       26.952 -26.226  13.226  0.00  0.00    +0.083 C 
ATOM     15  C   LIG    1       23.442 -28.771  13.034  0.00  0.00    +0.036 C 
ATOM     16  C   LIG    1       26.961 -27.314  12.163  0.00  0.00    +0.043 C 
ATOM     17  C   LIG    1       23.195 -29.534  11.747  0.00  0.00    +0.013 C 
ATOM     18  C   LIG    1       23.838 -29.693   8.793  0.00  0.00    +0.006 C 
ATOM     19  C   LIG    1       26.752 -30.454   9.365  0.00  0.00    +0.012 C 
ATOM     20  C   LIG    1       24.351 -30.148   7.421  0.00  0.00    +0.015 C 
ENDROOT
BRANCH   1  22
ATOM     21  C   LIG    1       24.574 -33.825   6.541  0.00  0.00    +0.086 C 
ATOM     22  C   LIG    1       24.115 -32.649   7.373  0.00  0.00    +0.137 C 
ATOM     23  O   LIG    1       22.970 -32.651   7.833  0.00  0.00    -0.297 OA
ENDBRANCH   1  22
TORSDOF 1
ENDMDL
MODEL 3
REMARK VINA RESULT:      -6.4      4.357      6.654
REMARK  Name = *****
REMARK                            x       y       z     vdW  Elec       q    Type
REMARK                         _______ _______ _______ _____ _____    ______ ____
ROOT
ATOM      1  C   LIG    1       23.534 -21.649   6.705  0.00  0.00    +0.032 C 
ATOM      2  C   LIG    1       23.859 -20.628   7.808  0.00  0.00    +0.019 C 
ATOM      3  C   LIG    1       24.722 -22.618   6.343  0.00  0.00    -0.016 C 
ATOM      4  C   LIG    1       25.728 -21.993   5.358  0.00  0.00    +0.012 C 
ATOM      5  C   LIG    1       23.984 -23.821   5.705  0.00  0.00    +0.003 C 
ATOM      6  C   LIG    1       24.842 -25.101   5.516  0.00  0.00    +0.019 C 
ATOM      7  C   LIG    1       25.644 -25.481   6.760  0.00  0.00    -0.063 C 
ATOM      8  C   LIG    1       26.375 -24.311   7.387  0.00  0.00    +0.032 C 
ATOM      9  C   LIG    1       25.716 -26.754   7.226  0.00  0.00    -0.044 C 
ATOM     10  C   LIG    1       25.114 -27.861   6.479  0.00  0.00    -0.041 C 
ATOM     11  C   LIG    1       24.970 -29.096   6.984  0.00  0.00    +0.050 C 
ATOM     12  C   LIG    1       25.563 -29.448   8.287  0.00  0.00    +0.157 C 
ATOM     13  O   LIG    1       25.236 -30.489   8.849  0.00  0.00    -0.293 OA
ATOM     14  C   LIG    1       26.679 -28.573   8.783  0.00  0.00    +0.083 C 
ATOM     15  C   LIG    1       24.682 -27.576   5.061  0.00  0.00    +0.036 C 
ATOM     16  C   LIG    1       26.375 -27.101   8.550  0.00  0.00    +0.043 C 
ATOM     17  C   LIG    1       23.958 -26.246   4.985  0.00  0.00    +0.013 C 
ATOM     18  C   LIG    1       22.735 -23.990   6.590  0.00  0.00    +0.006 C 
ATOM     19  C   LIG    1       25.482 -23.094   7.613  0.00  0.00    +0.012 C 
ATOM     20  C   LIG    1       22.440 -22.621   7.217  0.00  0.00    +0.015 C 
ENDROOT
BRANCH   1  22
ATOM     21  C   LIG    1       23.798 -19.824   4.808  0.00  0.00    +0.086 C 
ATOM     22  C   LIG    1       22.969 -20.909   5.456  0.00  0.00    +0.137 C 
ATOM     23  O   LIG    1       21.874 -21.199   4.968  0.00  0.00    -0.297 OA
ENDBRANCH   1  22
TORSDOF 1
ENDMDL
MODEL 4
REMARK VINA RESULT:      -6.2      9.107     11.489
REMARK  Name = *****
REMARK                            x       y       z     vdW  Elec       q    Type
REMARK                         _______ _______ _______ _____ _____    ______ ____
ROOT
ATOM      1  C   LIG    1       22.210 -32.021  11.758  0.00  0.00    +0.032 C 
ATOM      2  C   LIG    1       20.977 -32.868  11.401  0.00  0.00    +0.019 C 
ATOM      3  C   LIG    1       23.366 -32.073  10.689  0.00  0.00    -0.016 C 
ATOM      4  C   LIG    1       24.271 -33.310  10.844  0.00  0.00    +0.012 C 
ATOM      5  C   LIG    1       24.146 -30.767  10.984  0.00  0.00    +0.003 C 
ATOM      6  C   LIG    1       25.175 -30.350   9.899  0.00  0.00    +0.019 C 
ATOM      7  C   LIG    1       24.614 -30.407   8.479  0.00  0.00    -0.063 C 
ATOM      8  C   LIG    1       23.857 -31.685   8.180  0.00  0.00    +0.032 C 
ATOM      9  C   LIG    1       24.814 -29.418   7.571  0.00  0.00    -0.044 C 
ATOM     10  C   LIG    1       25.692 -28.285   7.877  0.00  0.00    -0.041 C 
ATOM     11  C   LIG    1       25.764 -27.184   7.113  0.00  0.00    +0.050 C 
ATOM     12  C   LIG    1       25.065 -27.123   5.816  0.00  0.00    +0.157 C 
ATOM     13  O   LIG    1       24.939 -26.048   5.238  0.00  0.00    -0.293 OA
ATOM     14  C   LIG    1       24.685 -28.434   5.189  0.00  0.00    +0.083 C 
ATOM     15  C   LIG    1       26.572 -28.411   9.096  0.00  0.00    +0.036 C 
ATOM     16  C   LIG    1       24.121 -29.401   6.219  0.00  0.00    +0.043 C 
ATOM     17  C   LIG    1       25.788 -28.983  10.261  0.00  0.00    +0.013 C 
ATOM     18  C   LIG    1       23.034 -29.739  11.266  0.00  0.00    +0.006 C 
ATOM     19  C   LIG    1       22.811 -32.027   9.238  0.00  0.00    +0.012 C 
ATOM     20  C   LIG    1       21.813 -30.522  11.763  0.00  0.00    +0.015 C 
ENDROOT
BRANCH   1  22
ATOM     21  C   LIG    1       22.381 -33.757  13.747  0.00  0.00    +0.086 C 
ATOM     22  C   LIG    1       22.705 -32.390  13.188  0.00  0.00    +0.137 C 
ATOM     23  O   LIG    1       23.371 -31.607  13.869  0.00  0.00    -0.297 OA
ENDBRANCH   1  22
TORSDOF 1
ENDMDL
MODEL 5
REMARK VINA RESULT:      -6.2      9.798     11.910
REMARK  Name = *****
REMARK                            x       y       z     vdW  Elec       q    Type
REMARK                         _______ _______ _______ _____ _____    ______ ____
ROOT
ATOM      1  C   LIG    1       23.819 -30.350  11.870  0.00  0.00    +0.032 C 
ATOM      2  C   LIG    1       24.194 -31.222  13.081  0.00  0.00    +0.019 C 
ATOM      3  C   LIG    1       25.014 -30.049  10.890  0.00  0.00    -0.016 C 
ATOM      4  C   LIG    1       25.895 -28.877  11.360  0.00  0.00    +0.012 C 
ATOM      5  C   LIG    1       24.279 -29.705   9.570  0.00  0.00    +0.003 C 
ATOM      6  C   LIG    1       25.175 -29.659   8.304  0.00  0.00    +0.019 C 
ATOM      7  C   LIG    1       26.104 -30.866   8.176  0.00  0.00    -0.063 C 
ATOM      8  C   LIG    1       26.833 -31.205   9.461  0.00  0.00    +0.032 C 
ATOM      9  C   LIG    1       26.278 -31.538   7.010  0.00  0.00    -0.044 C 
ATOM     10  C   LIG    1       25.665 -31.057   5.769  0.00  0.00    -0.041 C 
ATOM     11  C   LIG    1       25.626 -31.781   4.639  0.00  0.00    +0.050 C 
ATOM     12  C   LIG    1       26.350 -33.062   4.544  0.00  0.00    +0.157 C 
ATOM     13  O   LIG    1       26.125 -33.825   3.610  0.00  0.00    -0.293 OA
ATOM     14  C   LIG    1       27.464 -33.285   5.527  0.00  0.00    +0.083 C 
ATOM     15  C   LIG    1       25.093 -29.660   5.784  0.00  0.00    +0.036 C 
ATOM     16  C   LIG    1       27.071 -32.830   6.924  0.00  0.00    +0.043 C 
ATOM     17  C   LIG    1       24.302 -29.425   7.056  0.00  0.00    +0.013 C 
ATOM     18  C   LIG    1       23.125 -30.724   9.524  0.00  0.00    +0.006 C 
ATOM     19  C   LIG    1       25.908 -31.302  10.671  0.00  0.00    +0.012 C 
ATOM     20  C   LIG    1       22.823 -31.128  10.972  0.00  0.00    +0.015 C 
ENDROOT
BRANCH   1  22
ATOM     21  C   LIG    1       21.608 -28.939  12.217  0.00  0.00    +0.086 C 
ATOM     22  C   LIG    1       23.109 -29.053  12.359  0.00  0.00    +0.137 C 
ATOM     23  O   LIG    1       23.734 -28.125  12.878  0.00  0.00    -0.297 OA
ENDBRANCH   1  22
TORSDOF 1
ENDMDL
MODEL 6
REMARK VINA RESULT:      -6.1     10.224     11.836
REMARK  Name = *****
REMARK                            x       y       z     vdW  Elec       q    Type
REMARK                         _______ _______ _______ _____ _____    ______ ____
ROOT
ATOM      1  C   LIG    1       25.755 -32.959   6.996  0.00  0.00    +0.032 C 
ATOM      2  C   LIG    1       24.600 -33.825   6.466  0.00  0.00    +0.019 C 
ATOM      3  C   LIG    1       25.341 -31.494   7.397  0.00  0.00    -0.016 C 
ATOM      4  C   LIG    1       25.282 -30.536   6.192  0.00  0.00    +0.012 C 
ATOM      5  C   LIG    1       26.466 -31.089   8.381  0.00  0.00    +0.003 C 
ATOM      6  C   LIG    1       26.194 -29.805   9.209  0.00  0.00    +0.019 C 
ATOM      7  C   LIG    1       24.804 -29.777   9.843  0.00  0.00    -0.063 C 
ATOM      8  C   LIG    1       23.696 -30.164   8.885  0.00  0.00    +0.032 C 
ATOM      9  C   LIG    1       24.592 -29.404  11.131  0.00  0.00    -0.044 C 
ATOM     10  C   LIG    1       25.690 -28.889  11.953  0.00  0.00    -0.041 C 
ATOM     11  C   LIG    1       25.592 -28.703  13.278  0.00  0.00    +0.050 C 
ATOM     12  C   LIG    1       24.298 -28.866  13.965  0.00  0.00    +0.157 C 
ATOM     13  O   LIG    1       24.257 -28.928  15.190  0.00  0.00    -0.293 OA
ATOM     14  C   LIG    1       23.063 -28.779  13.114  0.00  0.00    +0.083 C 
ATOM     15  C   LIG    1       26.967 -28.521  11.237  0.00  0.00    +0.036 C 
ATOM     16  C   LIG    1       23.237 -29.534  11.805  0.00  0.00    +0.043 C 
ATOM     17  C   LIG    1       27.333 -29.588  10.224  0.00  0.00    +0.013 C 
ATOM     18  C   LIG    1       26.699 -32.369   9.207  0.00  0.00    +0.006 C 
ATOM     19  C   LIG    1       23.973 -31.465   8.136  0.00  0.00    +0.012 C 
ATOM     20  C   LIG    1       26.262 -33.552   8.337  0.00  0.00    +0.015 C 
ENDROOT
BRANCH   1  22
ATOM     21  C   LIG    1       26.638 -33.063   4.504  0.00  0.00    +0.086 C 
ATOM     22  C   LIG    1       26.939 -32.987   5.984  0.00  0.00    +0.137 C 
ATOM     23  O   LIG    1       28.114 -32.927   6.354  0.00  0.00    -0.297 OA
ENDBRANCH   1  22
TORSDOF 1
ENDMDL
MODEL 7
REMARK VINA RESULT:      -5.9      9.467     11.275
REMARK  Name = *****
REMARK                            x       y       z     vdW  Elec       q    Type
REMARK                         _______ _______ _______ _____ _____    ______ ____
ROOT
ATOM      1  C   LIG    1       21.929 -30.538  14.335  0.00  0.00    +0.032 C 
ATOM      2  C   LIG    1       20.669 -30.431  15.210  0.00  0.00    +0.019 C 
ATOM      3  C   LIG    1       22.235 -29.254  13.475  0.00  0.00    -0.016 C 
ATOM      4  C   LIG    1       21.426 -29.203  12.165  0.00  0.00    +0.012 C 
ATOM      5  C   LIG    1       23.751 -29.399  13.193  0.00  0.00    +0.003 C 
ATOM      6  C   LIG    1       24.444 -28.132  12.625  0.00  0.00    +0.019 C 
ATOM      7  C   LIG    1       24.096 -26.856  13.392  0.00  0.00    -0.063 C 
ATOM      8  C   LIG    1       22.613 -26.703  13.664  0.00  0.00    +0.032 C 
ATOM      9  C   LIG    1       25.029 -25.940  13.754  0.00  0.00    -0.044 C 
ATOM     10  C   LIG    1       26.421 -26.074  13.316  0.00  0.00    -0.041 C 
ATOM     11  C   LIG    1       27.421 -25.326  13.808  0.00  0.00    +0.050 C 
ATOM     12  C   LIG    1       27.140 -24.201  14.719  0.00  0.00    +0.157 C 
ATOM     13  O   LIG    1       28.055 -23.676  15.345  0.00  0.00    -0.293 OA
ATOM     14  C   LIG    1       25.743 -23.648  14.701  0.00  0.00    +0.083 C 
ATOM     15  C   LIG    1       26.704 -27.085  12.232  0.00  0.00    +0.036 C 
ATOM     16  C   LIG    1       24.706 -24.760  14.654  0.00  0.00    +0.043 C 
ATOM     17  C   LIG    1       25.961 -28.378  12.504  0.00  0.00    +0.013 C 
ATOM     18  C   LIG    1       24.318 -29.918  14.528  0.00  0.00    +0.006 C 
ATOM     19  C   LIG    1       21.982 -27.949  14.280  0.00  0.00    +0.012 C 
ATOM     20  C   LIG    1       23.177 -30.645  15.249  0.00  0.00    +0.015 C 
ENDROOT
BRANCH   1  22
ATOM     21  C   LIG    1       20.509 -32.447  13.178  0.00  0.00    +0.086 C 
ATOM     22  C   LIG    1       21.858 -31.831  13.469  0.00  0.00    +0.137 C 
ATOM     23  O   LIG    1       22.871 -32.354  12.996  0.00  0.00    -0.297 OA
ENDBRANCH   1  22
TORSDOF 1
ENDMDL
MODEL 8
REMARK VINA RESULT:      -5.8      9.186     10.657
REMARK  Name = *****
REMARK                            x       y       z     vdW  Elec       q    Type
REMARK                         _______ _______ _______ _____ _____    ______ ____
ROOT
ATOM      1  C   LIG    1       24.567 -30.733   8.496  0.00  0.00    +0.032 C 
ATOM      2  C   LIG    1       24.634 -30.116   7.088  0.00  0.00    +0.019 C 
ATOM      3  C   LIG    1       25.769 -30.342   9.436  0.00  0.00    -0.016 C 
ATOM      4  C   LIG    1       27.020 -31.208   9.202  0.00  0.00    +0.012 C 
ATOM      5  C   LIG    1       25.176 -30.582  10.846  0.00  0.00    +0.003 C 
ATOM      6  C   LIG    1       26.000 -29.993  12.022  0.00  0.00    +0.019 C 
ATOM      7  C   LIG    1       26.435 -28.546  11.791  0.00  0.00    -0.063 C 
ATOM      8  C   LIG    1       27.024 -28.304  10.416  0.00  0.00    +0.032 C 
ATOM      9  C   LIG    1       26.332 -27.588  12.748  0.00  0.00    -0.044 C 
ATOM     10  C   LIG    1       25.903 -27.928  14.107  0.00  0.00    -0.041 C 
ATOM     11  C   LIG    1       25.583 -27.007  15.029  0.00  0.00    +0.050 C 
ATOM     12  C   LIG    1       25.800 -25.573  14.764  0.00  0.00    +0.157 C 
ATOM     13  O   LIG    1       25.297 -24.730  15.500  0.00  0.00    -0.293 OA
ATOM     14  C   LIG    1       26.782 -25.225  13.682  0.00  0.00    +0.083 C 
ATOM     15  C   LIG    1       25.867 -29.393  14.467  0.00  0.00    +0.036 C 
ATOM     16  C   LIG    1       26.609 -26.121  12.465  0.00  0.00    +0.043 C 
ATOM     17  C   LIG    1       25.241 -30.200  13.346  0.00  0.00    +0.013 C 
ATOM     18  C   LIG    1       23.733 -30.055  10.725  0.00  0.00    +0.006 C 
ATOM     19  C   LIG    1       26.152 -28.843   9.285  0.00  0.00    +0.012 C 
ATOM     20  C   LIG    1       23.340 -30.156   9.247  0.00  0.00    +0.015 C 
ENDROOT
BRANCH   1  22
ATOM     21  C   LIG    1       24.756 -32.970   7.096  0.00  0.00    +0.086 C 
ATOM     22  C   LIG    1       24.377 -32.275   8.383  0.00  0.00    +0.137 C 
ATOM     23  O   LIG    1       23.947 -32.948   9.323  0.00  0.00    -0.297 OA
ENDBRANCH   1  22
TORSDOF 1
ENDMDL
MODEL 9
REMARK VINA RESULT:      -5.6     10.057     12.664
REMARK  Name = *****
REMARK                            x       y       z     vdW  Elec       q    Type
REMARK                         _______ _______ _______ _____ _____    ______ ____
ROOT
ATOM      1  C   LIG    1       25.534 -30.166   9.913  0.00  0.00    +0.032 C 
ATOM      2  C   LIG    1       26.575 -29.132   9.451  0.00  0.00    +0.019 C 
ATOM      3  C   LIG    1       25.140 -30.058  11.434  0.00  0.00    -0.016 C 
ATOM      4  C   LIG    1       26.140 -30.767  12.365  0.00  0.00    +0.012 C 
ATOM      5  C   LIG    1       23.755 -30.751  11.465  0.00  0.00    +0.003 C 
ATOM      6  C   LIG    1       22.938 -30.541  12.768  0.00  0.00    +0.019 C 
ATOM      7  C   LIG    1       22.890 -29.084  13.225  0.00  0.00    -0.063 C 
ATOM      8  C   LIG    1       24.242 -28.400  13.205  0.00  0.00    +0.032 C 
ATOM      9  C   LIG    1       21.746 -28.482  13.642  0.00  0.00    -0.044 C 
ATOM     10  C   LIG    1       20.506 -29.249  13.788  0.00  0.00    -0.041 C 
ATOM     11  C   LIG    1       19.309 -28.679  13.991  0.00  0.00    +0.050 C 
ATOM     12  C   LIG    1       19.200 -27.229  14.237  0.00  0.00    +0.157 C 
ATOM     13  O   LIG    1       18.104 -26.679  14.187  0.00  0.00    -0.293 OA
ATOM     14  C   LIG    1       20.442 -26.526  14.705  0.00  0.00    +0.083 C 
ATOM     15  C   LIG    1       20.622 -30.754  13.742  0.00  0.00    +0.036 C 
ATOM     16  C   LIG    1       21.669 -26.995  13.937  0.00  0.00    +0.043 C 
ATOM     17  C   LIG    1       21.544 -31.181  12.617  0.00  0.00    +0.013 C 
ATOM     18  C   LIG    1       23.074 -30.256  10.175  0.00  0.00    +0.006 C 
ATOM     19  C   LIG    1       24.986 -28.578  11.884  0.00  0.00    +0.012 C 
ATOM     20  C   LIG    1       24.191 -29.894   9.188  0.00  0.00    +0.015 C 
ENDROOT
BRANCH   1  22
ATOM     21  C   LIG    1       25.088 -32.478   8.707  0.00  0.00    +0.086 C 
ATOM     22  C   LIG    1       26.008 -31.598   9.521  0.00  0.00    +0.137 C 
ATOM     23  O   LIG    1       27.121 -32.025   9.839  0.00  0.00    -0.297 OA
ENDBRANCH   1  22
TORSDOF 1
ENDMDL
