MODEL 1
REMARK VINA RESULT:      -3.9      0.000      0.000
REMARK  Name = *****
REMARK                            x       y       z     vdW  Elec       q    Type
REMARK                         _______ _______ _______ _____ _____    ______ ____
ROOT
ATOM      1  O   LIG    1       26.938 -16.321   3.995  0.00  0.00    -0.459 OA
ENDROOT
BRANCH   1   6
ATOM      2  C   LIG    1       24.176 -13.103   1.905  0.00  0.00    +0.192 C 
ATOM      3  N   LIG    1       24.945 -12.887   3.209  0.00  0.00    +0.243 N 
ATOM      4  C   LIG    1       26.468 -13.079   3.106  0.00  0.00    +0.070 C 
ATOM      5  C   LIG    1       26.789 -14.426   2.442  0.00  0.00    +0.099 C 
ATOM      6  C   LIG    1       26.066 -15.641   3.057  0.00  0.00    +0.187 C 
ATOM      7  C   LIG    1       24.744 -15.326   3.786  0.00  0.00    +0.099 C 
ATOM      8  C   LIG    1       26.920 -13.078   4.573  0.00  0.00    +0.060 C 
ATOM      9  C   LIG    1       25.731 -13.618   5.367  0.00  0.00    +0.060 C 
ATOM     10  C   LIG    1       24.635 -13.895   4.328  0.00  0.00    +0.070 C 
ATOM     11  C   LIG    1       24.588 -11.448   3.642  0.00  0.00    +0.192 C 
ENDBRANCH   1   6
BRANCH   1  12
ATOM     12  C   LIG    1       26.888 -17.693   3.959  0.00  0.00    +0.341 C 
ATOM     13  O   LIG    1       27.733 -18.420   4.486  0.00  0.00    -0.247 OA
BRANCH  12  14
ATOM     14  C   LIG    1       25.641 -18.206   3.212  0.00  0.00    +0.253 C 
BRANCH  14  15
ATOM     15  C   LIG    1       24.679 -19.000   4.080  0.00  0.00    -0.008 A 
ATOM     16  C   LIG    1       23.318 -18.645   4.127  0.00  0.00    +0.007 A 
ATOM     17  C   LIG    1       22.413 -19.374   4.908  0.00  0.00    +0.000 A 
ATOM     18  C   LIG    1       22.850 -20.476   5.637  0.00  0.00    +0.000 A 
ATOM     19  C   LIG    1       24.185 -20.864   5.569  0.00  0.00    +0.000 A 
ATOM     20  C   LIG    1       25.090 -20.138   4.792  0.00  0.00    +0.007 A 
ENDBRANCH  14  15
BRANCH  14  21
ATOM     21  O   LIG    1       26.021 -19.029   2.110  0.00  0.00    -0.376 OA
ATOM     22  H   LIG    1       26.934 -19.325   2.277  0.00  0.00    +0.211 HD
ENDBRANCH  14  21
ENDBRANCH  12  14
ENDBRANCH   1  12
TORSDOF 5
ENDMDL
MODEL 2
REMARK VINA RESULT:      -3.0      2.075      3.254
REMARK  Name = *****
REMARK                            x       y       z     vdW  Elec       q    Type
REMARK                         _______ _______ _______ _____ _____    ______ ____
ROOT
ATOM      1  O   LIG    1       23.154 -15.750   3.952  0.00  0.00    -0.459 OA
ENDROOT
BRANCH   1   6
ATOM      2  C   LIG    1       27.383 -13.733   4.583  0.00  0.00    +0.192 C 
ATOM      3  N   LIG    1       26.342 -13.289   3.554  0.00  0.00    +0.243 N 
ATOM      4  C   LIG    1       24.976 -12.893   4.139  0.00  0.00    +0.070 C 
ATOM      5  C   LIG    1       24.457 -13.998   5.071  0.00  0.00    +0.099 C 
ATOM      6  C   LIG    1       24.468 -15.416   4.465  0.00  0.00    +0.187 C 
ATOM      7  C   LIG    1       25.488 -15.644   3.332  0.00  0.00    +0.099 C 
ATOM      8  C   LIG    1       24.084 -12.773   2.896  0.00  0.00    +0.060 C 
ATOM      9  C   LIG    1       24.674 -13.745   1.875  0.00  0.00    +0.060 C 
ATOM     10  C   LIG    1       25.891 -14.378   2.565  0.00  0.00    +0.070 C 
ATOM     11  C   LIG    1       27.001 -12.105   2.814  0.00  0.00    +0.192 C 
ENDBRANCH   1   6
BRANCH   1  12
ATOM     12  C   LIG    1       22.295 -16.323   4.858  0.00  0.00    +0.341 C 
ATOM     13  O   LIG    1       21.921 -15.763   5.890  0.00  0.00    -0.247 OA
BRANCH  12  14
ATOM     14  C   LIG    1       21.838 -17.727   4.413  0.00  0.00    +0.253 C 
BRANCH  14  15
ATOM     15  C   LIG    1       22.887 -18.811   4.601  0.00  0.00    -0.008 A 
ATOM     16  C   LIG    1       22.761 -19.737   5.653  0.00  0.00    +0.007 A 
ATOM     17  C   LIG    1       23.707 -20.752   5.833  0.00  0.00    +0.000 A 
ATOM     18  C   LIG    1       24.781 -20.869   4.955  0.00  0.00    +0.000 A 
ATOM     19  C   LIG    1       24.897 -19.986   3.885  0.00  0.00    +0.000 A 
ATOM     20  C   LIG    1       23.955 -18.971   3.705  0.00  0.00    +0.007 A 
ENDBRANCH  14  15
BRANCH  14  21
ATOM     21  O   LIG    1       21.457 -17.717   3.038  0.00  0.00    -0.376 OA
ATOM     22  H   LIG    1       22.035 -17.076   2.587  0.00  0.00    +0.211 HD
ENDBRANCH  14  21
ENDBRANCH  12  14
ENDBRANCH   1  12
TORSDOF 5
ENDMDL
MODEL 3
REMARK VINA RESULT:      -3.0      1.573      2.381
REMARK  Name = *****
REMARK                            x       y       z     vdW  Elec       q    Type
REMARK                         _______ _______ _______ _____ _____    ______ ____
ROOT
ATOM      1  O   LIG    1       24.660 -16.443   4.288  0.00  0.00    -0.459 OA
ENDROOT
BRANCH   1   6
ATOM      2  C   LIG    1       25.645 -12.299   2.237  0.00  0.00    +0.192 C 
ATOM      3  N   LIG    1       26.543 -13.016   3.246  0.00  0.00    +0.243 N 
ATOM      4  C   LIG    1       26.980 -14.434   2.839  0.00  0.00    +0.070 C 
ATOM      5  C   LIG    1       25.756 -15.269   2.433  0.00  0.00    +0.099 C 
ATOM      6  C   LIG    1       24.598 -15.261   3.452  0.00  0.00    +0.187 C 
ATOM      7  C   LIG    1       24.540 -14.030   4.379  0.00  0.00    +0.099 C 
ATOM      8  C   LIG    1       27.610 -14.989   4.123  0.00  0.00    +0.060 C 
ATOM      9  C   LIG    1       26.894 -14.277   5.270  0.00  0.00    +0.060 C 
ATOM     10  C   LIG    1       25.887 -13.330   4.602  0.00  0.00    +0.070 C 
ATOM     11  C   LIG    1       27.761 -12.082   3.421  0.00  0.00    +0.192 C 
ENDBRANCH   1   6
BRANCH   1  12
ATOM     12  C   LIG    1       23.669 -17.370   4.074  0.00  0.00    +0.341 C 
ATOM     13  O   LIG    1       22.466 -17.112   4.153  0.00  0.00    -0.247 OA
BRANCH  12  14
ATOM     14  C   LIG    1       24.241 -18.751   3.698  0.00  0.00    +0.253 C 
BRANCH  14  15
ATOM     15  C   LIG    1       24.254 -19.752   4.842  0.00  0.00    -0.008 A 
ATOM     16  C   LIG    1       25.470 -20.319   5.267  0.00  0.00    +0.007 A 
ATOM     17  C   LIG    1       25.504 -21.229   6.329  0.00  0.00    +0.000 A 
ATOM     18  C   LIG    1       24.330 -21.572   6.994  0.00  0.00    +0.000 A 
ATOM     19  C   LIG    1       23.125 -20.988   6.612  0.00  0.00    +0.000 A 
ATOM     20  C   LIG    1       23.088 -20.080   5.552  0.00  0.00    +0.007 A 
ENDBRANCH  14  15
BRANCH  14  21
ATOM     21  O   LIG    1       25.575 -18.624   3.209  0.00  0.00    -0.376 OA
ATOM     22  H   LIG    1       26.162 -18.595   3.987  0.00  0.00    +0.211 HD
ENDBRANCH  14  21
ENDBRANCH  12  14
ENDBRANCH   1  12
TORSDOF 5
ENDMDL
MODEL 4
REMARK VINA RESULT:      -2.9      1.077      1.960
REMARK  Name = *****
REMARK                            x       y       z     vdW  Elec       q    Type
REMARK                         _______ _______ _______ _____ _____    ______ ____
ROOT
ATOM      1  O   LIG    1       25.852 -16.575   3.373  0.00  0.00    -0.459 OA
ENDROOT
BRANCH   1   6
ATOM      2  C   LIG    1       26.213 -11.873   3.038  0.00  0.00    +0.192 C 
ATOM      3  N   LIG    1       24.988 -12.626   3.559  0.00  0.00    +0.243 N 
ATOM      4  C   LIG    1       25.250 -13.540   4.768  0.00  0.00    +0.070 C 
ATOM      5  C   LIG    1       26.441 -14.467   4.483  0.00  0.00    +0.099 C 
ATOM      6  C   LIG    1       26.360 -15.235   3.148  0.00  0.00    +0.187 C 
ATOM      7  C   LIG    1       25.491 -14.579   2.057  0.00  0.00    +0.099 C 
ATOM      8  C   LIG    1       23.951 -14.349   4.883  0.00  0.00    +0.060 C 
ATOM      9  C   LIG    1       23.394 -14.431   3.462  0.00  0.00    +0.060 C 
ATOM     10  C   LIG    1       24.387 -13.654   2.586  0.00  0.00    +0.070 C 
ATOM     11  C   LIG    1       23.964 -11.521   3.903  0.00  0.00    +0.192 C 
ENDBRANCH   1   6
BRANCH   1  12
ATOM     12  C   LIG    1       26.780 -17.494   3.798  0.00  0.00    +0.341 C 
ATOM     13  O   LIG    1       27.885 -17.188   4.251  0.00  0.00    -0.247 OA
BRANCH  12  14
ATOM     14  C   LIG    1       26.262 -18.941   3.667  0.00  0.00    +0.253 C 
BRANCH  14  15
ATOM     15  C   LIG    1       24.832 -19.134   4.144  0.00  0.00    -0.008 A 
ATOM     16  C   LIG    1       24.535 -20.133   5.090  0.00  0.00    +0.007 A 
ATOM     17  C   LIG    1       23.228 -20.316   5.554  0.00  0.00    +0.000 A 
ATOM     18  C   LIG    1       22.202 -19.494   5.095  0.00  0.00    +0.000 A 
ATOM     19  C   LIG    1       22.487 -18.476   4.189  0.00  0.00    +0.000 A 
ATOM     20  C   LIG    1       23.790 -18.292   3.723  0.00  0.00    +0.007 A 
ENDBRANCH  14  15
BRANCH  14  21
ATOM     21  O   LIG    1       27.095 -19.839   4.397  0.00  0.00    -0.376 OA
ATOM     22  H   LIG    1       26.836 -20.742   4.139  0.00  0.00    +0.211 HD
ENDBRANCH  14  21
ENDBRANCH  12  14
ENDBRANCH   1  12
TORSDOF 5
ENDMDL
MODEL 5
REMARK VINA RESULT:      -2.1      1.500      2.896
REMARK  Name = *****
REMARK                            x       y       z     vdW  Elec       q    Type
REMARK                         _______ _______ _______ _____ _____    ______ ____
ROOT
ATOM      1  O   LIG    1       26.400 -16.141   2.922  0.00  0.00    -0.459 OA
ENDROOT
BRANCH   1   6
ATOM      2  C   LIG    1       25.503 -12.217   5.401  0.00  0.00    +0.192 C 
ATOM      3  N   LIG    1       24.816 -12.606   4.091  0.00  0.00    +0.243 N 
ATOM      4  C   LIG    1       24.088 -13.961   4.114  0.00  0.00    +0.070 C 
ATOM      5  C   LIG    1       25.026 -15.057   4.642  0.00  0.00    +0.099 C 
ATOM      6  C   LIG    1       26.403 -15.120   3.952  0.00  0.00    +0.187 C 
ATOM      7  C   LIG    1       26.883 -13.804   3.309  0.00  0.00    +0.099 C 
ATOM      8  C   LIG    1       23.753 -14.203   2.636  0.00  0.00    +0.060 C 
ATOM      9  C   LIG    1       24.846 -13.482   1.847  0.00  0.00    +0.060 C 
ATOM     10  C   LIG    1       25.760 -12.842   2.900  0.00  0.00    +0.070 C 
ATOM     11  C   LIG    1       23.836 -11.447   3.803  0.00  0.00    +0.192 C 
ENDBRANCH   1   6
BRANCH   1  12
ATOM     12  C   LIG    1       26.020 -17.395   3.336  0.00  0.00    +0.341 C 
ATOM     13  O   LIG    1       24.853 -17.791   3.328  0.00  0.00    -0.247 OA
BRANCH  12  14
ATOM     14  C   LIG    1       27.227 -18.247   3.779  0.00  0.00    +0.253 C 
BRANCH  14  15
ATOM     15  C   LIG    1       26.878 -19.358   4.756  0.00  0.00    -0.008 A 
ATOM     16  C   LIG    1       27.794 -19.727   5.759  0.00  0.00    +0.007 A 
ATOM     17  C   LIG    1       27.484 -20.736   6.678  0.00  0.00    +0.000 A 
ATOM     18  C   LIG    1       26.251 -21.378   6.621  0.00  0.00    +0.000 A 
ATOM     19  C   LIG    1       25.318 -20.997   5.660  0.00  0.00    +0.000 A 
ATOM     20  C   LIG    1       25.625 -19.991   4.741  0.00  0.00    +0.007 A 
ENDBRANCH  14  15
BRANCH  14  21
ATOM     21  O   LIG    1       28.224 -17.426   4.385  0.00  0.00    -0.376 OA
ATOM     22  H   LIG    1       28.463 -17.845   5.231  0.00  0.00    +0.211 HD
ENDBRANCH  14  21
ENDBRANCH  12  14
ENDBRANCH   1  12
TORSDOF 5
ENDMDL
MODEL 6
REMARK VINA RESULT:      -2.0      2.040      2.940
REMARK  Name = *****
REMARK                            x       y       z     vdW  Elec       q    Type
REMARK                         _______ _______ _______ _____ _____    ______ ____
ROOT
ATOM      1  O   LIG    1       23.753 -15.981   4.382  0.00  0.00    -0.459 OA
ENDROOT
BRANCH   1   6
ATOM      2  C   LIG    1       25.334 -11.857   2.696  0.00  0.00    +0.192 C 
ATOM      3  N   LIG    1       26.218 -12.988   3.224  0.00  0.00    +0.243 N 
ATOM      4  C   LIG    1       26.051 -14.336   2.502  0.00  0.00    +0.070 C 
ATOM      5  C   LIG    1       24.566 -14.723   2.438  0.00  0.00    +0.099 C 
ATOM      6  C   LIG    1       23.821 -14.660   3.787  0.00  0.00    +0.187 C 
ATOM      7  C   LIG    1       24.423 -13.702   4.833  0.00  0.00    +0.099 C 
ATOM      8  C   LIG    1       26.825 -15.311   3.400  0.00  0.00    +0.060 C 
ATOM      9  C   LIG    1       26.735 -14.727   4.810  0.00  0.00    +0.060 C 
ATOM     10  C   LIG    1       25.924 -13.431   4.667  0.00  0.00    +0.070 C 
ATOM     11  C   LIG    1       27.661 -12.454   3.089  0.00  0.00    +0.192 C 
ENDBRANCH   1   6
BRANCH   1  12
ATOM     12  C   LIG    1       22.552 -16.304   4.965  0.00  0.00    +0.341 C 
ATOM     13  O   LIG    1       21.955 -15.565   5.752  0.00  0.00    -0.247 OA
BRANCH  12  14
ATOM     14  C   LIG    1       22.033 -17.678   4.496  0.00  0.00    +0.253 C 
BRANCH  14  15
ATOM     15  C   LIG    1       23.049 -18.802   4.622  0.00  0.00    -0.008 A 
ATOM     16  C   LIG    1       22.902 -19.774   5.629  0.00  0.00    +0.007 A 
ATOM     17  C   LIG    1       23.818 -20.826   5.750  0.00  0.00    +0.000 A 
ATOM     18  C   LIG    1       24.881 -20.932   4.858  0.00  0.00    +0.000 A 
ATOM     19  C   LIG    1       25.017 -20.002   3.831  0.00  0.00    +0.000 A 
ATOM     20  C   LIG    1       24.105 -18.951   3.709  0.00  0.00    +0.007 A 
ENDBRANCH  14  15
BRANCH  14  21
ATOM     21  O   LIG    1       21.611 -17.616   3.135  0.00  0.00    -0.376 OA
ATOM     22  H   LIG    1       22.411 -17.704   2.585  0.00  0.00    +0.211 HD
ENDBRANCH  14  21
ENDBRANCH  12  14
ENDBRANCH   1  12
TORSDOF 5
ENDMDL
MODEL 7
REMARK VINA RESULT:      -1.8      1.703      2.468
REMARK  Name = *****
REMARK                            x       y       z     vdW  Elec       q    Type
REMARK                         _______ _______ _______ _____ _____    ______ ____
ROOT
ATOM      1  O   LIG    1       24.983 -16.885   4.206  0.00  0.00    -0.459 OA
ENDROOT
BRANCH   1   6
ATOM      2  C   LIG    1       25.497 -12.681   2.105  0.00  0.00    +0.192 C 
ATOM      3  N   LIG    1       26.383 -13.214   3.232  0.00  0.00    +0.243 N 
ATOM      4  C   LIG    1       27.089 -14.548   2.931  0.00  0.00    +0.070 C 
ATOM      5  C   LIG    1       26.072 -15.584   2.432  0.00  0.00    +0.099 C 
ATOM      6  C   LIG    1       24.822 -15.748   3.320  0.00  0.00    +0.187 C 
ATOM      7  C   LIG    1       24.460 -14.525   4.186  0.00  0.00    +0.099 C 
ATOM      8  C   LIG    1       27.655 -14.961   4.296  0.00  0.00    +0.060 C 
ATOM      9  C   LIG    1       26.708 -14.354   5.331  0.00  0.00    +0.060 C 
ATOM     10  C   LIG    1       25.640 -13.603   4.522  0.00  0.00    +0.070 C 
ATOM     11  C   LIG    1       27.404 -12.086   3.498  0.00  0.00    +0.192 C 
ENDBRANCH   1   6
BRANCH   1  12
ATOM     12  C   LIG    1       24.087 -17.909   4.020  0.00  0.00    +0.341 C 
ATOM     13  O   LIG    1       22.864 -17.764   4.076  0.00  0.00    -0.247 OA
BRANCH  12  14
ATOM     14  C   LIG    1       24.793 -19.244   3.707  0.00  0.00    +0.253 C 
BRANCH  14  15
ATOM     15  C   LIG    1       25.539 -19.845   4.887  0.00  0.00    -0.008 A 
ATOM     16  C   LIG    1       24.848 -20.623   5.834  0.00  0.00    +0.007 A 
ATOM     17  C   LIG    1       25.520 -21.199   6.918  0.00  0.00    +0.000 A 
ATOM     18  C   LIG    1       26.893 -21.021   7.062  0.00  0.00    +0.000 A 
ATOM     19  C   LIG    1       27.597 -20.287   6.112  0.00  0.00    +0.000 A 
ATOM     20  C   LIG    1       26.929 -19.711   5.029  0.00  0.00    +0.007 A 
ENDBRANCH  14  15
BRANCH  14  21
ATOM     21  O   LIG    1       25.721 -19.080   2.636  0.00  0.00    -0.376 OA
ATOM     22  H   LIG    1       25.378 -19.592   1.881  0.00  0.00    +0.211 HD
ENDBRANCH  14  21
ENDBRANCH  12  14
ENDBRANCH   1  12
TORSDOF 5
ENDMDL
MODEL 8
REMARK VINA RESULT:      -1.6      2.350      6.644
REMARK  Name = *****
REMARK                            x       y       z     vdW  Elec       q    Type
REMARK                         _______ _______ _______ _____ _____    ______ ____
ROOT
ATOM      1  O   LIG    1       25.443 -17.938   3.328  0.00  0.00    -0.459 OA
ENDROOT
BRANCH   1   6
ATOM      2  C   LIG    1       23.199 -20.657   6.479  0.00  0.00    +0.192 C 
ATOM      3  N   LIG    1       22.879 -20.595   4.984  0.00  0.00    +0.243 N 
ATOM      4  C   LIG    1       24.051 -20.948   4.052  0.00  0.00    +0.070 C 
ATOM      5  C   LIG    1       25.293 -20.127   4.428  0.00  0.00    +0.099 C 
ATOM      6  C   LIG    1       25.054 -18.609   4.554  0.00  0.00    +0.187 C 
ATOM      7  C   LIG    1       23.607 -18.190   4.880  0.00  0.00    +0.099 C 
ATOM      8  C   LIG    1       23.531 -20.537   2.667  0.00  0.00    +0.060 C 
ATOM      9  C   LIG    1       22.551 -19.392   2.922  0.00  0.00    +0.060 C 
ATOM     10  C   LIG    1       22.533 -19.197   4.445  0.00  0.00    +0.070 C 
ATOM     11  C   LIG    1       21.698 -21.572   4.795  0.00  0.00    +0.192 C 
ENDBRANCH   1   6
BRANCH   1  12
ATOM     12  C   LIG    1       26.432 -16.994   3.461  0.00  0.00    +0.341 C 
ATOM     13  O   LIG    1       27.604 -17.266   3.729  0.00  0.00    -0.247 OA
BRANCH  12  14
ATOM     14  C   LIG    1       25.906 -15.567   3.205  0.00  0.00    +0.253 C 
BRANCH  14  15
ATOM     15  C   LIG    1       26.774 -14.469   3.798  0.00  0.00    -0.008 A 
ATOM     16  C   LIG    1       26.505 -13.980   5.090  0.00  0.00    +0.007 A 
ATOM     17  C   LIG    1       27.303 -12.981   5.660  0.00  0.00    +0.000 A 
ATOM     18  C   LIG    1       28.389 -12.470   4.956  0.00  0.00    +0.000 A 
ATOM     19  C   LIG    1       28.692 -12.971   3.694  0.00  0.00    +0.000 A 
ATOM     20  C   LIG    1       27.897 -13.967   3.122  0.00  0.00    +0.007 A 
ENDBRANCH  14  15
BRANCH  14  21
ATOM     21  O   LIG    1       24.588 -15.418   3.730  0.00  0.00    -0.376 OA
ATOM     22  H   LIG    1       24.628 -14.715   4.404  0.00  0.00    +0.211 HD
ENDBRANCH  14  21
ENDBRANCH  12  14
ENDBRANCH   1  12
TORSDOF 5
ENDMDL
MODEL 9
REMARK VINA RESULT:      -1.5      2.367      6.670
REMARK  Name = *****
REMARK                            x       y       z     vdW  Elec       q    Type
REMARK                         _______ _______ _______ _____ _____    ______ ____
ROOT
ATOM      1  O   LIG    1       25.389 -17.819   3.326  0.00  0.00    -0.459 OA
ENDROOT
BRANCH   1   6
ATOM      2  C   LIG    1       23.134 -20.536   6.469  0.00  0.00    +0.192 C 
ATOM      3  N   LIG    1       22.876 -20.536   4.961  0.00  0.00    +0.243 N 
ATOM      4  C   LIG    1       24.101 -20.864   4.091  0.00  0.00    +0.070 C 
ATOM      5  C   LIG    1       25.288 -19.976   4.491  0.00  0.00    +0.099 C 
ATOM      6  C   LIG    1       24.977 -18.467   4.555  0.00  0.00    +0.187 C 
ATOM      7  C   LIG    1       23.500 -18.105   4.807  0.00  0.00    +0.099 C 
ATOM      8  C   LIG    1       23.624 -20.521   2.673  0.00  0.00    +0.060 C 
ATOM      9  C   LIG    1       22.584 -19.415   2.848  0.00  0.00    +0.060 C 
ATOM     10  C   LIG    1       22.492 -19.173   4.361  0.00  0.00    +0.070 C 
ATOM     11  C   LIG    1       21.748 -21.571   4.756  0.00  0.00    +0.192 C 
ENDBRANCH   1   6
BRANCH   1  12
ATOM     12  C   LIG    1       26.424 -16.924   3.448  0.00  0.00    +0.341 C 
ATOM     13  O   LIG    1       27.584 -17.255   3.704  0.00  0.00    -0.247 OA
BRANCH  12  14
ATOM     14  C   LIG    1       25.967 -15.473   3.198  0.00  0.00    +0.253 C 
BRANCH  14  15
ATOM     15  C   LIG    1       26.871 -14.421   3.819  0.00  0.00    -0.008 A 
ATOM     16  C   LIG    1       27.874 -13.809   3.044  0.00  0.00    +0.007 A 
ATOM     17  C   LIG    1       28.705 -12.826   3.593  0.00  0.00    +0.000 A 
ATOM     18  C   LIG    1       28.537 -12.428   4.916  0.00  0.00    +0.000 A 
ATOM     19  C   LIG    1       27.524 -12.995   5.684  0.00  0.00    +0.000 A 
ATOM     20  C   LIG    1       26.693 -13.976   5.139  0.00  0.00    +0.007 A 
ENDBRANCH  14  15
BRANCH  14  21
ATOM     21  O   LIG    1       24.647 -15.271   3.700  0.00  0.00    -0.376 OA
ATOM     22  H   LIG    1       24.696 -15.350   4.670  0.00  0.00    +0.211 HD
ENDBRANCH  14  21
ENDBRANCH  12  14
ENDBRANCH   1  12
TORSDOF 5
ENDMDL
