MODEL 1
REMARK VINA RESULT:      -5.0      0.000      0.000
REMARK  Name = *****
REMARK                            x       y       z     vdW  Elec       q    Type
REMARK                         _______ _______ _______ _____ _____    ______ ____
ROOT
ATOM      1  C   LIG    1       26.192 -17.336   3.411  0.00  0.00    +0.341 C 
ATOM      2  O   LIG    1       27.228 -17.548   4.048  0.00  0.00    -0.247 OA
ENDROOT
BRANCH   1   3
ATOM      3  O   LIG    1       25.755 -16.098   3.033  0.00  0.00    -0.459 OA
BRANCH   3   8
ATOM      4  C   LIG    1       24.297 -12.126   5.308  0.00  0.00    +0.105 C 
ATOM      5  N   LIG    1       24.693 -12.330   3.928  0.00  0.00    -0.299 NA
ATOM      6  C   LIG    1       23.875 -13.270   3.160  0.00  0.00    +0.060 C 
ATOM      7  C   LIG    1       23.879 -14.683   3.770  0.00  0.00    +0.063 C 
ATOM      8  C   LIG    1       25.279 -15.236   4.100  0.00  0.00    +0.179 C 
ATOM      9  C   LIG    1       26.342 -14.157   4.372  0.00  0.00    +0.063 C 
ATOM     10  C   LIG    1       24.599 -13.211   1.813  0.00  0.00    +0.020 C 
ATOM     11  C   LIG    1       26.058 -12.919   2.173  0.00  0.00    +0.020 C 
ATOM     12  C   LIG    1       26.060 -12.802   3.700  0.00  0.00    +0.060 C 
ENDBRANCH   3   8
ENDBRANCH   1   3
BRANCH   1  13
ATOM     13  C   LIG    1       25.241 -18.462   2.957  0.00  0.00    +0.253 C 
BRANCH  13  14
ATOM     14  C   LIG    1       24.470 -19.149   4.067  0.00  0.00    -0.008 A 
ATOM     15  C   LIG    1       23.097 -18.888   4.228  0.00  0.00    +0.007 A 
ATOM     16  C   LIG    1       22.365 -19.500   5.249  0.00  0.00    +0.000 A 
ATOM     17  C   LIG    1       22.985 -20.407   6.104  0.00  0.00    +0.000 A 
ATOM     18  C   LIG    1       24.331 -20.715   5.926  0.00  0.00    +0.000 A 
ATOM     19  C   LIG    1       25.067 -20.098   4.911  0.00  0.00    +0.007 A 
ENDBRANCH  13  14
BRANCH  13  20
ATOM     20  O   LIG    1       25.944 -19.484   2.243  0.00  0.00    -0.376 OA
ATOM     21  H   LIG    1       25.700 -19.372   1.305  0.00  0.00    +0.211 HD
ENDBRANCH  13  20
ENDBRANCH   1  13
TORSDOF 5
ENDMDL
MODEL 2
REMARK VINA RESULT:      -4.9      0.976      1.833
REMARK  Name = *****
REMARK                            x       y       z     vdW  Elec       q    Type
REMARK                         _______ _______ _______ _____ _____    ______ ____
ROOT
ATOM      1  C   LIG    1       26.845 -17.748   3.948  0.00  0.00    +0.341 C 
ATOM      2  O   LIG    1       27.616 -18.537   4.504  0.00  0.00    -0.247 OA
ENDROOT
BRANCH   1   3
ATOM      3  O   LIG    1       26.999 -16.390   3.940  0.00  0.00    -0.459 OA
BRANCH   3   8
ATOM      4  C   LIG    1       24.420 -12.689   2.288  0.00  0.00    +0.105 C 
ATOM      5  N   LIG    1       25.438 -12.744   3.320  0.00  0.00    -0.299 NA
ATOM      6  C   LIG    1       26.769 -13.169   2.884  0.00  0.00    +0.060 C 
ATOM      7  C   LIG    1       26.763 -14.585   2.282  0.00  0.00    +0.063 C 
ATOM      8  C   LIG    1       26.044 -15.645   3.140  0.00  0.00    +0.179 C 
ATOM      9  C   LIG    1       24.958 -15.079   4.072  0.00  0.00    +0.063 C 
ATOM     10  C   LIG    1       27.518 -13.102   4.217  0.00  0.00    +0.020 C 
ATOM     11  C   LIG    1       26.453 -13.413   5.272  0.00  0.00    +0.020 C 
ATOM     12  C   LIG    1       25.163 -13.607   4.470  0.00  0.00    +0.060 C 
ENDBRANCH   3   8
ENDBRANCH   1   3
BRANCH   1  13
ATOM     13  C   LIG    1       25.587 -18.204   3.181  0.00  0.00    +0.253 C 
BRANCH  13  14
ATOM     14  C   LIG    1       24.568 -18.970   4.002  0.00  0.00    -0.008 A 
ATOM     15  C   LIG    1       23.244 -18.503   4.082  0.00  0.00    +0.007 A 
ATOM     16  C   LIG    1       22.286 -19.184   4.839  0.00  0.00    +0.000 A 
ATOM     17  C   LIG    1       22.629 -20.360   5.501  0.00  0.00    +0.000 A 
ATOM     18  C   LIG    1       23.923 -20.863   5.390  0.00  0.00    +0.000 A 
ATOM     19  C   LIG    1       24.884 -20.179   4.640  0.00  0.00    +0.007 A 
ENDBRANCH  13  14
BRANCH  13  20
ATOM     20  O   LIG    1       25.928 -19.030   2.063  0.00  0.00    -0.376 OA
ATOM     21  H   LIG    1       25.275 -19.755   2.057  0.00  0.00    +0.211 HD
ENDBRANCH  13  20
ENDBRANCH   1  13
TORSDOF 5
ENDMDL
MODEL 3
REMARK VINA RESULT:      -4.7      1.135      1.888
REMARK  Name = *****
REMARK                            x       y       z     vdW  Elec       q    Type
REMARK                         _______ _______ _______ _____ _____    ______ ____
ROOT
ATOM      1  C   LIG    1       26.264 -17.784   3.572  0.00  0.00    +0.341 C 
ATOM      2  O   LIG    1       27.316 -18.140   4.111  0.00  0.00    -0.247 OA
ENDROOT
BRANCH   1   3
ATOM      3  O   LIG    1       25.966 -16.495   3.230  0.00  0.00    -0.459 OA
BRANCH   3   8
ATOM      4  C   LIG    1       28.300 -12.336   3.805  0.00  0.00    +0.105 C 
ATOM      5  N   LIG    1       26.889 -12.651   3.928  0.00  0.00    -0.299 NA
ATOM      6  C   LIG    1       26.540 -13.628   4.960  0.00  0.00    +0.060 C 
ATOM      7  C   LIG    1       27.214 -14.991   4.728  0.00  0.00    +0.063 C 
ATOM      8  C   LIG    1       27.063 -15.547   3.298  0.00  0.00    +0.179 C 
ATOM      9  C   LIG    1       26.853 -14.473   2.216  0.00  0.00    +0.063 C 
ATOM     10  C   LIG    1       25.022 -13.685   4.768  0.00  0.00    +0.020 C 
ATOM     11  C   LIG    1       24.813 -13.397   3.279  0.00  0.00    +0.020 C 
ATOM     12  C   LIG    1       26.224 -13.166   2.730  0.00  0.00    +0.060 C 
ENDBRANCH   3   8
ENDBRANCH   1   3
BRANCH   1  13
ATOM     13  C   LIG    1       25.131 -18.767   3.214  0.00  0.00    +0.253 C 
BRANCH  13  14
ATOM     14  C   LIG    1       24.493 -19.480   4.391  0.00  0.00    -0.008 A 
ATOM     15  C   LIG    1       23.100 -19.418   4.572  0.00  0.00    +0.007 A 
ATOM     16  C   LIG    1       22.487 -20.058   5.653  0.00  0.00    +0.000 A 
ATOM     17  C   LIG    1       23.252 -20.796   6.551  0.00  0.00    +0.000 A 
ATOM     18  C   LIG    1       24.626 -20.909   6.357  0.00  0.00    +0.000 A 
ATOM     19  C   LIG    1       25.242 -20.263   5.281  0.00  0.00    +0.007 A 
ENDBRANCH  13  14
BRANCH  13  20
ATOM     20  O   LIG    1       25.584 -19.779   2.309  0.00  0.00    -0.376 OA
ATOM     21  H   LIG    1       25.093 -19.634   1.478  0.00  0.00    +0.211 HD
ENDBRANCH  13  20
ENDBRANCH   1  13
TORSDOF 5
ENDMDL
MODEL 4
REMARK VINA RESULT:      -4.0      1.386      2.147
REMARK  Name = *****
REMARK                            x       y       z     vdW  Elec       q    Type
REMARK                         _______ _______ _______ _____ _____    ______ ____
ROOT
ATOM      1  C   LIG    1       23.492 -17.307   4.042  0.00  0.00    +0.341 C 
ATOM      2  O   LIG    1       22.333 -17.258   4.465  0.00  0.00    -0.247 OA
ENDROOT
BRANCH   1   3
ATOM      3  O   LIG    1       24.287 -16.216   3.832  0.00  0.00    -0.459 OA
BRANCH   3   8
ATOM      4  C   LIG    1       23.802 -11.449   4.169  0.00  0.00    +0.105 C 
ATOM      5  N   LIG    1       24.939 -12.255   3.766  0.00  0.00    -0.299 NA
ATOM      6  C   LIG    1       24.742 -13.090   2.580  0.00  0.00    +0.060 C 
ATOM      7  C   LIG    1       23.601 -14.106   2.763  0.00  0.00    +0.063 C 
ATOM      8  C   LIG    1       23.671 -14.923   4.068  0.00  0.00    +0.179 C 
ATOM      9  C   LIG    1       24.420 -14.224   5.217  0.00  0.00    +0.063 C 
ATOM     10  C   LIG    1       26.116 -13.760   2.498  0.00  0.00    +0.020 C 
ATOM     11  C   LIG    1       26.590 -13.846   3.951  0.00  0.00    +0.020 C 
ATOM     12  C   LIG    1       25.465 -13.191   4.760  0.00  0.00    +0.060 C 
ENDBRANCH   3   8
ENDBRANCH   1   3
BRANCH   1  13
ATOM     13  C   LIG    1       24.200 -18.631   3.687  0.00  0.00    +0.253 C 
BRANCH  13  14
ATOM     14  C   LIG    1       24.241 -19.664   4.796  0.00  0.00    -0.008 A 
ATOM     15  C   LIG    1       25.480 -20.101   5.296  0.00  0.00    +0.007 A 
ATOM     16  C   LIG    1       25.547 -21.060   6.312  0.00  0.00    +0.000 A 
ATOM     17  C   LIG    1       24.377 -21.572   6.865  0.00  0.00    +0.000 A 
ATOM     18  C   LIG    1       23.142 -21.112   6.416  0.00  0.00    +0.000 A 
ATOM     19  C   LIG    1       23.073 -20.159   5.395  0.00  0.00    +0.007 A 
ENDBRANCH  13  14
BRANCH  13  20
ATOM     20  O   LIG    1       25.553 -18.406   3.277  0.00  0.00    -0.376 OA
ATOM     21  H   LIG    1       25.837 -17.589   3.728  0.00  0.00    +0.211 HD
ENDBRANCH  13  20
ENDBRANCH   1  13
TORSDOF 5
ENDMDL
MODEL 5
REMARK VINA RESULT:      -3.8      1.403      2.524
REMARK  Name = *****
REMARK                            x       y       z     vdW  Elec       q    Type
REMARK                         _______ _______ _______ _____ _____    ______ ____
ROOT
ATOM      1  C   LIG    1       23.851 -17.392   4.014  0.00  0.00    +0.341 C 
ATOM      2  O   LIG    1       22.644 -17.204   4.194  0.00  0.00    -0.247 OA
ENDROOT
BRANCH   1   3
ATOM      3  O   LIG    1       24.801 -16.411   4.042  0.00  0.00    -0.459 OA
BRANCH   3   8
ATOM      4  C   LIG    1       25.192 -11.991   2.202  0.00  0.00    +0.105 C 
ATOM      5  N   LIG    1       25.889 -12.617   3.310  0.00  0.00    -0.299 NA
ATOM      6  C   LIG    1       26.690 -13.795   2.977  0.00  0.00    +0.060 C 
ATOM      7  C   LIG    1       25.842 -14.928   2.374  0.00  0.00    +0.063 C 
ATOM      8  C   LIG    1       24.569 -15.272   3.172  0.00  0.00    +0.179 C 
ATOM      9  C   LIG    1       24.015 -14.112   4.018  0.00  0.00    +0.063 C 
ATOM     10  C   LIG    1       27.234 -14.145   4.364  0.00  0.00    +0.020 C 
ATOM     11  C   LIG    1       26.145 -13.679   5.334  0.00  0.00    +0.020 C 
ATOM     12  C   LIG    1       25.066 -13.068   4.433  0.00  0.00    +0.060 C 
ENDBRANCH   3   8
ENDBRANCH   1   3
BRANCH   1  13
ATOM     13  C   LIG    1       24.448 -18.784   3.723  0.00  0.00    +0.253 C 
BRANCH  13  14
ATOM     14  C   LIG    1       24.414 -19.761   4.882  0.00  0.00    -0.008 A 
ATOM     15  C   LIG    1       25.612 -20.324   5.356  0.00  0.00    +0.007 A 
ATOM     16  C   LIG    1       25.609 -21.235   6.416  0.00  0.00    +0.000 A 
ATOM     17  C   LIG    1       24.412 -21.571   7.041  0.00  0.00    +0.000 A 
ATOM     18  C   LIG    1       23.222 -20.985   6.617  0.00  0.00    +0.000 A 
ATOM     19  C   LIG    1       23.223 -20.080   5.552  0.00  0.00    +0.007 A 
ENDBRANCH  13  14
BRANCH  13  20
ATOM     20  O   LIG    1       25.812 -18.690   3.298  0.00  0.00    -0.376 OA
ATOM     21  H   LIG    1       26.231 -18.035   3.888  0.00  0.00    +0.211 HD
ENDBRANCH  13  20
ENDBRANCH   1  13
TORSDOF 5
ENDMDL
MODEL 6
REMARK VINA RESULT:      -3.8      2.401      6.577
REMARK  Name = *****
REMARK                            x       y       z     vdW  Elec       q    Type
REMARK                         _______ _______ _______ _____ _____    ______ ____
ROOT
ATOM      1  C   LIG    1       25.843 -17.761   3.387  0.00  0.00    +0.341 C 
ATOM      2  O   LIG    1       25.946 -18.062   2.194  0.00  0.00    -0.247 OA
ENDROOT
BRANCH   1   3
ATOM      3  O   LIG    1       25.219 -18.529   4.329  0.00  0.00    -0.459 OA
BRANCH   3   8
ATOM      4  C   LIG    1       21.321 -21.335   4.403  0.00  0.00    +0.105 C 
ATOM      5  N   LIG    1       22.476 -21.302   5.281  0.00  0.00    -0.299 NA
ATOM      6  C   LIG    1       22.689 -20.051   6.010  0.00  0.00    +0.060 C 
ATOM      7  C   LIG    1       22.892 -18.851   5.068  0.00  0.00    +0.063 C 
ATOM      8  C   LIG    1       23.931 -19.080   3.952  0.00  0.00    +0.179 C 
ATOM      9  C   LIG    1       24.123 -20.555   3.555  0.00  0.00    +0.063 C 
ATOM     10  C   LIG    1       23.959 -20.410   6.785  0.00  0.00    +0.020 C 
ATOM     11  C   LIG    1       24.694 -21.402   5.880  0.00  0.00    +0.020 C 
ATOM     12  C   LIG    1       23.777 -21.564   4.663  0.00  0.00    +0.060 C 
ENDBRANCH   3   8
ENDBRANCH   1   3
BRANCH   1  13
ATOM     13  C   LIG    1       26.411 -16.452   3.974  0.00  0.00    +0.253 C 
BRANCH  13  14
ATOM     14  C   LIG    1       25.746 -15.179   3.488  0.00  0.00    -0.008 A 
ATOM     15  C   LIG    1       24.495 -14.804   4.009  0.00  0.00    +0.007 A 
ATOM     16  C   LIG    1       23.855 -13.640   3.572  0.00  0.00    +0.000 A 
ATOM     17  C   LIG    1       24.470 -12.818   2.633  0.00  0.00    +0.000 A 
ATOM     18  C   LIG    1       25.731 -13.149   2.145  0.00  0.00    +0.000 A 
ATOM     19  C   LIG    1       26.369 -14.316   2.575  0.00  0.00    +0.007 A 
ENDBRANCH  13  14
BRANCH  13  20
ATOM     20  O   LIG    1       27.810 -16.322   3.701  0.00  0.00    -0.376 OA
ATOM     21  H   LIG    1       27.984 -16.882   2.921  0.00  0.00    +0.211 HD
ENDBRANCH  13  20
ENDBRANCH   1  13
TORSDOF 5
ENDMDL
MODEL 7
REMARK VINA RESULT:      -3.8      1.936      2.761
REMARK  Name = *****
REMARK                            x       y       z     vdW  Elec       q    Type
REMARK                         _______ _______ _______ _____ _____    ______ ____
ROOT
ATOM      1  C   LIG    1       22.374 -16.246   4.848  0.00  0.00    +0.341 C 
ATOM      2  O   LIG    1       22.014 -15.708   5.899  0.00  0.00    -0.247 OA
ENDROOT
BRANCH   1   3
ATOM      3  O   LIG    1       23.212 -15.675   3.932  0.00  0.00    -0.459 OA
BRANCH   3   8
ATOM      4  C   LIG    1       27.386 -13.333   4.336  0.00  0.00    +0.105 C 
ATOM      5  N   LIG    1       26.245 -13.084   3.477  0.00  0.00    -0.299 NA
ATOM      6  C   LIG    1       24.984 -12.785   4.158  0.00  0.00    +0.060 C 
ATOM      7  C   LIG    1       24.527 -13.934   5.074  0.00  0.00    +0.063 C 
ATOM      8  C   LIG    1       24.537 -15.326   4.412  0.00  0.00    +0.179 C 
ATOM      9  C   LIG    1       25.534 -15.470   3.248  0.00  0.00    +0.063 C 
ATOM     10  C   LIG    1       24.067 -12.600   2.947  0.00  0.00    +0.020 C 
ATOM     11  C   LIG    1       24.653 -13.523   1.876  0.00  0.00    +0.020 C 
ATOM     12  C   LIG    1       25.883 -14.150   2.540  0.00  0.00    +0.060 C 
ENDBRANCH   3   8
ENDBRANCH   1   3
BRANCH   1  13
ATOM     13  C   LIG    1       21.911 -17.656   4.426  0.00  0.00    +0.253 C 
BRANCH  13  14
ATOM     14  C   LIG    1       22.945 -18.754   4.581  0.00  0.00    -0.008 A 
ATOM     15  C   LIG    1       22.788 -19.722   5.588  0.00  0.00    +0.007 A 
ATOM     16  C   LIG    1       23.731 -20.740   5.759  0.00  0.00    +0.000 A 
ATOM     17  C   LIG    1       24.828 -20.824   4.906  0.00  0.00    +0.000 A 
ATOM     18  C   LIG    1       24.971 -19.903   3.873  0.00  0.00    +0.000 A 
ATOM     19  C   LIG    1       24.033 -18.879   3.705  0.00  0.00    +0.007 A 
ENDBRANCH  13  14
BRANCH  13  20
ATOM     20  O   LIG    1       21.481 -17.677   3.060  0.00  0.00    -0.376 OA
ATOM     21  H   LIG    1       20.533 -17.910   3.082  0.00  0.00    +0.211 HD
ENDBRANCH  13  20
ENDBRANCH   1  13
TORSDOF 5
ENDMDL
MODEL 8
REMARK VINA RESULT:      -3.5      1.438      2.148
REMARK  Name = *****
REMARK                            x       y       z     vdW  Elec       q    Type
REMARK                         _______ _______ _______ _____ _____    ______ ____
ROOT
ATOM      1  C   LIG    1       23.958 -17.495   3.741  0.00  0.00    +0.341 C 
ATOM      2  O   LIG    1       22.859 -17.261   4.253  0.00  0.00    -0.247 OA
ENDROOT
BRANCH   1   3
ATOM      3  O   LIG    1       24.814 -16.538   3.274  0.00  0.00    -0.459 OA
BRANCH   3   8
ATOM      4  C   LIG    1       27.393 -13.020   5.286  0.00  0.00    +0.105 C 
ATOM      5  N   LIG    1       26.865 -13.152   3.941  0.00  0.00    -0.299 NA
ATOM      6  C   LIG    1       25.409 -13.239   3.831  0.00  0.00    +0.060 C 
ATOM      7  C   LIG    1       24.837 -14.453   4.585  0.00  0.00    +0.063 C 
ATOM      8  C   LIG    1       25.544 -15.789   4.281  0.00  0.00    +0.179 C 
ATOM      9  C   LIG    1       27.006 -15.645   3.823  0.00  0.00    +0.063 C 
ATOM     10  C   LIG    1       25.265 -13.371   2.313  0.00  0.00    +0.020 C 
ATOM     11  C   LIG    1       26.540 -14.093   1.868  0.00  0.00    +0.020 C 
ATOM     12  C   LIG    1       27.337 -14.297   3.160  0.00  0.00    +0.060 C 
ENDBRANCH   3   8
ENDBRANCH   1   3
BRANCH   1  13
ATOM     13  C   LIG    1       24.510 -18.923   3.556  0.00  0.00    +0.253 C 
BRANCH  13  14
ATOM     14  C   LIG    1       24.429 -19.815   4.779  0.00  0.00    -0.008 A 
ATOM     15  C   LIG    1       25.609 -20.319   5.354  0.00  0.00    +0.007 A 
ATOM     16  C   LIG    1       25.563 -21.151   6.476  0.00  0.00    +0.000 A 
ATOM     17  C   LIG    1       24.340 -21.465   7.061  0.00  0.00    +0.000 A 
ATOM     18  C   LIG    1       23.166 -20.933   6.535  0.00  0.00    +0.000 A 
ATOM     19  C   LIG    1       23.209 -20.107   5.408  0.00  0.00    +0.007 A 
ENDBRANCH  13  14
BRANCH  13  20
ATOM     20  O   LIG    1       25.881 -18.904   3.144  0.00  0.00    -0.376 OA
ATOM     21  H   LIG    1       26.209 -18.007   3.348  0.00  0.00    +0.211 HD
ENDBRANCH  13  20
ENDBRANCH   1  13
TORSDOF 5
ENDMDL
MODEL 9
REMARK VINA RESULT:      -3.2      2.770      6.643
REMARK  Name = *****
REMARK                            x       y       z     vdW  Elec       q    Type
REMARK                         _______ _______ _______ _____ _____    ______ ____
ROOT
ATOM      1  C   LIG    1       23.198 -15.917   4.445  0.00  0.00    +0.341 C 
ATOM      2  O   LIG    1       22.350 -15.573   5.274  0.00  0.00    -0.247 OA
ENDROOT
BRANCH   1   3
ATOM      3  O   LIG    1       23.634 -17.200   4.270  0.00  0.00    -0.459 OA
BRANCH   3   8
ATOM      4  C   LIG    1       21.702 -21.571   4.759  0.00  0.00    +0.105 C 
ATOM      5  N   LIG    1       23.090 -21.151   4.730  0.00  0.00    -0.299 NA
ATOM      6  C   LIG    1       23.503 -20.234   5.794  0.00  0.00    +0.060 C 
ATOM      7  C   LIG    1       22.707 -18.917   5.772  0.00  0.00    +0.063 C 
ATOM      8  C   LIG    1       22.626 -18.238   4.391  0.00  0.00    +0.179 C 
ATOM      9  C   LIG    1       22.767 -19.201   3.199  0.00  0.00    +0.063 C 
ATOM     10  C   LIG    1       24.973 -20.037   5.416  0.00  0.00    +0.020 C 
ATOM     11  C   LIG    1       25.003 -20.186   3.893  0.00  0.00    +0.020 C 
ATOM     12  C   LIG    1       23.551 -20.488   3.509  0.00  0.00    +0.060 C 
ENDBRANCH   3   8
ENDBRANCH   1   3
BRANCH   1  13
ATOM     13  C   LIG    1       23.888 -14.923   3.490  0.00  0.00    +0.253 C 
BRANCH  13  14
ATOM     14  C   LIG    1       25.272 -14.470   3.911  0.00  0.00    -0.008 A 
ATOM     15  C   LIG    1       26.383 -14.787   3.109  0.00  0.00    +0.007 A 
ATOM     16  C   LIG    1       27.672 -14.390   3.479  0.00  0.00    +0.000 A 
ATOM     17  C   LIG    1       27.866 -13.644   4.638  0.00  0.00    +0.000 A 
ATOM     18  C   LIG    1       26.771 -13.279   5.415  0.00  0.00    +0.000 A 
ATOM     19  C   LIG    1       25.482 -13.681   5.052  0.00  0.00    +0.007 A 
ENDBRANCH  13  14
BRANCH  13  20
ATOM     20  O   LIG    1       23.100 -13.741   3.307  0.00  0.00    -0.376 OA
ATOM     21  H   LIG    1       22.944 -13.383   4.202  0.00  0.00    +0.211 HD
ENDBRANCH  13  20
ENDBRANCH   1  13
TORSDOF 5
ENDMDL
