MODEL 1
REMARK VINA RESULT:      -4.6      0.000      0.000
REMARK  Name = *****
REMARK                            x       y       z     vdW  Elec       q    Type
REMARK                         _______ _______ _______ _____ _____    ______ ____
ROOT
ATOM      1  C   LIG    1       25.724 -16.681   2.961  0.00  0.00    +0.015 C 
ATOM      2  C   LIG    1       25.705 -15.397   3.329  0.00  0.00    -0.000 C 
ATOM      3  C   LIG    1       24.928 -14.624   4.380  0.00  0.00    +0.029 C 
ATOM      4  C   LIG    1       24.650 -13.274   3.658  0.00  0.00    -0.016 C 
ATOM      5  C   LIG    1       26.161 -13.014   3.373  0.00  0.00    +0.036 C 
ATOM      6  C   LIG    1       26.815 -13.137   4.773  0.00  0.00    +0.015 C 
ATOM      7  C   LIG    1       26.530 -11.772   2.600  0.00  0.00    +0.020 C 
ATOM      8  C   LIG    1       23.766 -13.405   2.397  0.00  0.00    +0.012 C 
ATOM      9  C   LIG    1       23.972 -12.221   4.556  0.00  0.00    +0.012 C 
ATOM     10  C   LIG    1       25.960 -14.231   5.466  0.00  0.00    +0.010 C 
ATOM     11  C   LIG    1       26.533 -14.324   2.683  0.00  0.00    +0.166 C 
ATOM     12  O   LIG    1       27.366 -14.498   1.812  0.00  0.00    -0.292 OA
ENDROOT
BRANCH   1  17
ATOM     13  C   LIG    1       22.551 -20.817   5.447  0.00  0.00    +0.044 C 
ATOM     14  C   LIG    1       23.362 -19.748   4.778  0.00  0.00    -0.050 A 
ATOM     15  C   LIG    1       22.792 -18.503   4.483  0.00  0.00    +0.004 A 
ATOM     16  C   LIG    1       23.558 -17.498   3.886  0.00  0.00    +0.008 A 
ATOM     17  C   LIG    1       24.907 -17.717   3.593  0.00  0.00    -0.025 A 
ATOM     18  C   LIG    1       25.480 -18.956   3.891  0.00  0.00    +0.008 A 
ATOM     19  C   LIG    1       24.715 -19.962   4.487  0.00  0.00    +0.004 A 
ENDBRANCH   1  17
TORSDOF 1
ENDMDL
MODEL 2
REMARK VINA RESULT:      -3.0      0.656      1.270
REMARK  Name = *****
REMARK                            x       y       z     vdW  Elec       q    Type
REMARK                         _______ _______ _______ _____ _____    ______ ____
ROOT
ATOM      1  C   LIG    1       26.348 -16.673   2.914  0.00  0.00    +0.015 C 
ATOM      2  C   LIG    1       26.135 -15.415   3.312  0.00  0.00    -0.000 C 
ATOM      3  C   LIG    1       25.255 -14.795   4.383  0.00  0.00    +0.029 C 
ATOM      4  C   LIG    1       24.769 -13.487   3.693  0.00  0.00    -0.016 C 
ATOM      5  C   LIG    1       26.220 -12.993   3.411  0.00  0.00    +0.036 C 
ATOM      6  C   LIG    1       26.895 -13.046   4.805  0.00  0.00    +0.015 C 
ATOM      7  C   LIG    1       26.391 -11.691   2.666  0.00  0.00    +0.020 C 
ATOM      8  C   LIG    1       23.908 -13.724   2.431  0.00  0.00    +0.012 C 
ATOM      9  C   LIG    1       23.943 -12.572   4.618  0.00  0.00    +0.012 C 
ATOM     10  C   LIG    1       26.221 -14.273   5.475  0.00  0.00    +0.010 C 
ATOM     11  C   LIG    1       26.785 -14.214   2.689  0.00  0.00    +0.166 C 
ATOM     12  O   LIG    1       27.629 -14.239   1.812  0.00  0.00    -0.292 OA
ENDROOT
BRANCH   1  17
ATOM     13  C   LIG    1       23.740 -21.236   5.307  0.00  0.00    +0.044 C 
ATOM     14  C   LIG    1       24.420 -20.040   4.711  0.00  0.00    -0.050 A 
ATOM     15  C   LIG    1       25.809 -19.890   4.808  0.00  0.00    +0.004 A 
ATOM     16  C   LIG    1       26.445 -18.791   4.226  0.00  0.00    +0.008 A 
ATOM     17  C   LIG    1       25.704 -17.836   3.524  0.00  0.00    -0.025 A 
ATOM     18  C   LIG    1       24.319 -17.986   3.420  0.00  0.00    +0.008 A 
ATOM     19  C   LIG    1       23.682 -19.084   4.003  0.00  0.00    +0.004 A 
ENDBRANCH   1  17
TORSDOF 1
ENDMDL
MODEL 3
REMARK VINA RESULT:      -1.8      1.450      2.322
REMARK  Name = *****
REMARK                            x       y       z     vdW  Elec       q    Type
REMARK                         _______ _______ _______ _____ _____    ______ ____
ROOT
ATOM      1  C   LIG    1       23.274 -16.030   3.736  0.00  0.00    +0.015 C 
ATOM      2  C   LIG    1       24.294 -15.170   3.662  0.00  0.00    -0.000 C 
ATOM      3  C   LIG    1       25.782 -15.292   3.934  0.00  0.00    +0.029 C 
ATOM      4  C   LIG    1       26.113 -13.915   4.579  0.00  0.00    -0.016 C 
ATOM      5  C   LIG    1       25.545 -13.112   3.369  0.00  0.00    +0.036 C 
ATOM      6  C   LIG    1       26.300 -13.712   2.155  0.00  0.00    +0.015 C 
ATOM      7  C   LIG    1       25.559 -11.606   3.451  0.00  0.00    +0.020 C 
ATOM      8  C   LIG    1       25.392 -13.660   5.922  0.00  0.00    +0.012 C 
ATOM      9  C   LIG    1       27.616 -13.703   4.845  0.00  0.00    +0.012 C 
ATOM     10  C   LIG    1       26.474 -15.202   2.551  0.00  0.00    +0.010 C 
ATOM     11  C   LIG    1       24.151 -13.728   3.269  0.00  0.00    +0.166 C 
ATOM     12  O   LIG    1       23.123 -13.192   2.901  0.00  0.00    -0.292 OA
ENDROOT
BRANCH   1  17
ATOM     13  C   LIG    1       23.919 -21.568   5.242  0.00  0.00    +0.044 C 
ATOM     14  C   LIG    1       23.733 -20.138   4.832  0.00  0.00    -0.050 A 
ATOM     15  C   LIG    1       22.585 -19.433   5.212  0.00  0.00    +0.004 A 
ATOM     16  C   LIG    1       22.427 -18.091   4.854  0.00  0.00    +0.008 A 
ATOM     17  C   LIG    1       23.423 -17.431   4.128  0.00  0.00    -0.025 A 
ATOM     18  C   LIG    1       24.572 -18.131   3.752  0.00  0.00    +0.008 A 
ATOM     19  C   LIG    1       24.730 -19.473   4.108  0.00  0.00    +0.004 A 
ENDBRANCH   1  17
TORSDOF 1
ENDMDL
MODEL 4
REMARK VINA RESULT:      -1.8      2.294      6.683
REMARK  Name = *****
REMARK                            x       y       z     vdW  Elec       q    Type
REMARK                         _______ _______ _______ _____ _____    ______ ____
ROOT
ATOM      1  C   LIG    1       23.168 -16.796   3.918  0.00  0.00    +0.015 C 
ATOM      2  C   LIG    1       23.177 -18.084   4.274  0.00  0.00    -0.000 C 
ATOM      3  C   LIG    1       24.274 -19.035   4.717  0.00  0.00    +0.029 C 
ATOM      4  C   LIG    1       23.846 -20.370   4.041  0.00  0.00    -0.016 C 
ATOM      5  C   LIG    1       22.433 -20.353   4.702  0.00  0.00    +0.036 C 
ATOM      6  C   LIG    1       22.746 -20.200   6.213  0.00  0.00    +0.015 C 
ATOM      7  C   LIG    1       21.479 -21.469   4.356  0.00  0.00    +0.020 C 
ATOM      8  C   LIG    1       23.840 -20.320   2.497  0.00  0.00    +0.012 C 
ATOM      9  C   LIG    1       24.728 -21.572   4.434  0.00  0.00    +0.012 C 
ATOM     10  C   LIG    1       24.016 -19.309   6.220  0.00  0.00    +0.010 C 
ATOM     11  C   LIG    1       21.960 -18.962   4.288  0.00  0.00    +0.166 C 
ATOM     12  O   LIG    1       20.821 -18.600   4.055  0.00  0.00    -0.292 OA
ENDROOT
BRANCH   1  17
ATOM     13  C   LIG    1       27.843 -13.406   3.874  0.00  0.00    +0.044 C 
ATOM     14  C   LIG    1       26.626 -14.282   3.858  0.00  0.00    -0.050 A 
ATOM     15  C   LIG    1       26.687 -15.575   3.324  0.00  0.00    +0.004 A 
ATOM     16  C   LIG    1       25.560 -16.400   3.337  0.00  0.00    +0.008 A 
ATOM     17  C   LIG    1       24.361 -15.951   3.901  0.00  0.00    -0.025 A 
ATOM     18  C   LIG    1       24.299 -14.664   4.439  0.00  0.00    +0.008 A 
ATOM     19  C   LIG    1       25.425 -13.837   4.426  0.00  0.00    +0.004 A 
ENDBRANCH   1  17
TORSDOF 1
ENDMDL
