MODEL 1
REMARK VINA RESULT:      -8.1      0.000      0.000
REMARK  Name = *****
REMARK                            x       y       z     vdW  Elec       q    Type
REMARK                         _______ _______ _______ _____ _____    ______ ____
ROOT
ATOM      1  C   LIG    1       24.351 -21.174   5.928  0.00  0.00    +0.147 C 
ATOM      2  C   LIG    1       23.727 -22.101   6.999  0.00  0.00    +0.234 C 
ATOM      3  O   LIG    1       23.095 -21.704   7.977  0.00  0.00    -0.274 OA
ATOM      4  N   LIG    1       23.961 -23.443   6.865  0.00  0.00    -0.299 N 
ATOM      5  H   LIG    1       23.642 -24.027   7.627  0.00  0.00    +0.150 HD
ATOM      6  C   LIG    1       24.867 -23.940   5.892  0.00  0.00    +0.212 C 
ATOM      7  N   LIG    1       24.610 -23.293   4.654  0.00  0.00    -0.299 N 
ATOM      8  H   LIG    1       24.773 -23.765   3.774  0.00  0.00    +0.150 HD
ATOM      9  C   LIG    1       24.436 -21.938   4.584  0.00  0.00    +0.234 C 
ATOM     10  O   LIG    1       24.412 -21.400   3.477  0.00  0.00    -0.274 OA
ENDROOT
BRANCH   1  11
ATOM     11  C   LIG    1       25.763 -20.690   6.371  0.00  0.00    -0.024 A 
ATOM     12  C   LIG    1       26.164 -20.751   7.721  0.00  0.00    +0.005 A 
ATOM     13  C   LIG    1       27.439 -20.338   8.119  0.00  0.00    +0.000 A 
ATOM     14  C   LIG    1       28.348 -19.870   7.177  0.00  0.00    +0.000 A 
ATOM     15  C   LIG    1       27.988 -19.829   5.834  0.00  0.00    +0.000 A 
ATOM     16  C   LIG    1       26.714 -20.242   5.434  0.00  0.00    +0.005 A 
ENDBRANCH   1  11
BRANCH   1  18
ATOM     17  C   LIG    1       22.156 -20.145   5.003  0.00  0.00    +0.005 C 
ATOM     18  C   LIG    1       23.465 -19.909   5.756  0.00  0.00    +0.027 C 
ENDBRANCH   1  18
TORSDOF 2
ENDMDL
MODEL 2
REMARK VINA RESULT:      -8.1      2.166      4.373
REMARK  Name = *****
REMARK                            x       y       z     vdW  Elec       q    Type
REMARK                         _______ _______ _______ _____ _____    ______ ____
ROOT
ATOM      1  C   LIG    1       25.419 -21.093   6.720  0.00  0.00    +0.147 C 
ATOM      2  C   LIG    1       25.969 -20.325   5.493  0.00  0.00    +0.234 C 
ATOM      3  O   LIG    1       25.285 -19.969   4.534  0.00  0.00    -0.274 OA
ATOM      4  N   LIG    1       27.317 -20.093   5.465  0.00  0.00    -0.299 N 
ATOM      5  H   LIG    1       27.679 -19.688   4.612  0.00  0.00    +0.150 HD
ATOM      6  C   LIG    1       28.186 -20.674   6.427  0.00  0.00    +0.212 C 
ATOM      7  N   LIG    1       27.619 -20.505   7.718  0.00  0.00    -0.299 N 
ATOM      8  H   LIG    1       28.204 -20.407   8.537  0.00  0.00    +0.150 HD
ATOM      9  C   LIG    1       26.298 -20.775   7.953  0.00  0.00    +0.234 C 
ATOM     10  O   LIG    1       25.898 -20.805   9.117  0.00  0.00    -0.274 OA
ENDROOT
BRANCH   1  11
ATOM     11  C   LIG    1       25.396 -22.626   6.446  0.00  0.00    -0.024 A 
ATOM     12  C   LIG    1       24.933 -23.140   5.218  0.00  0.00    +0.005 A 
ATOM     13  C   LIG    1       24.932 -24.514   4.961  0.00  0.00    +0.000 A 
ATOM     14  C   LIG    1       25.408 -25.406   5.916  0.00  0.00    +0.000 A 
ATOM     15  C   LIG    1       25.899 -24.921   7.125  0.00  0.00    +0.000 A 
ATOM     16  C   LIG    1       25.901 -23.548   7.384  0.00  0.00    +0.005 A 
ENDBRANCH   1  11
BRANCH   1  18
ATOM     17  C   LIG    1       23.018 -21.785   7.419  0.00  0.00    +0.005 C 
ATOM     18  C   LIG    1       23.953 -20.654   6.994  0.00  0.00    +0.027 C 
ENDBRANCH   1  18
TORSDOF 2
ENDMDL
MODEL 3
REMARK VINA RESULT:      -8.0      2.169      4.259
REMARK  Name = *****
REMARK                            x       y       z     vdW  Elec       q    Type
REMARK                         _______ _______ _______ _____ _____    ______ ____
ROOT
ATOM      1  C   LIG    1       25.465 -21.095   6.688  0.00  0.00    +0.147 C 
ATOM      2  C   LIG    1       26.033 -20.314   5.478  0.00  0.00    +0.234 C 
ATOM      3  O   LIG    1       25.364 -19.953   4.510  0.00  0.00    -0.274 OA
ATOM      4  N   LIG    1       27.380 -20.075   5.475  0.00  0.00    -0.299 N 
ATOM      5  H   LIG    1       27.755 -19.662   4.631  0.00  0.00    +0.150 HD
ATOM      6  C   LIG    1       28.235 -20.660   6.446  0.00  0.00    +0.212 C 
ATOM      7  N   LIG    1       27.645 -20.504   7.729  0.00  0.00    -0.299 N 
ATOM      8  H   LIG    1       28.215 -20.410   8.559  0.00  0.00    +0.150 HD
ATOM      9  C   LIG    1       26.321 -20.783   7.939  0.00  0.00    +0.234 C 
ATOM     10  O   LIG    1       25.901 -20.824   9.095  0.00  0.00    -0.274 OA
ENDROOT
BRANCH   1  11
ATOM     11  C   LIG    1       25.454 -22.625   6.401  0.00  0.00    -0.024 A 
ATOM     12  C   LIG    1       25.906 -23.550   7.364  0.00  0.00    +0.005 A 
ATOM     13  C   LIG    1       25.876 -24.926   7.118  0.00  0.00    +0.000 A 
ATOM     14  C   LIG    1       25.380 -25.411   5.913  0.00  0.00    +0.000 A 
ATOM     15  C   LIG    1       24.899 -24.521   4.959  0.00  0.00    +0.000 A 
ATOM     16  C   LIG    1       24.928 -23.145   5.203  0.00  0.00    +0.005 A 
ENDBRANCH   1  11
BRANCH   1  18
ATOM     17  C   LIG    1       23.082 -21.781   7.450  0.00  0.00    +0.005 C 
ATOM     18  C   LIG    1       23.993 -20.665   6.940  0.00  0.00    +0.027 C 
ENDBRANCH   1  18
TORSDOF 2
ENDMDL
MODEL 4
REMARK VINA RESULT:      -7.8      2.126      4.232
REMARK  Name = *****
REMARK                            x       y       z     vdW  Elec       q    Type
REMARK                         _______ _______ _______ _____ _____    ______ ____
ROOT
ATOM      1  C   LIG    1       25.285 -21.763   7.143  0.00  0.00    +0.147 C 
ATOM      2  C   LIG    1       23.973 -20.965   6.952  0.00  0.00    +0.234 C 
ATOM      3  O   LIG    1       23.096 -20.855   7.809  0.00  0.00    -0.274 OA
ATOM      4  N   LIG    1       23.764 -20.405   5.720  0.00  0.00    -0.299 N 
ATOM      5  H   LIG    1       22.858 -19.981   5.574  0.00  0.00    +0.150 HD
ATOM      6  C   LIG    1       24.627 -20.686   4.628  0.00  0.00    +0.212 C 
ATOM      7  N   LIG    1       25.973 -20.579   5.068  0.00  0.00    -0.299 N 
ATOM      8  H   LIG    1       26.707 -20.283   4.438  0.00  0.00    +0.150 HD
ATOM      9  C   LIG    1       26.385 -21.154   6.239  0.00  0.00    +0.234 C 
ATOM     10  O   LIG    1       27.590 -21.205   6.483  0.00  0.00    -0.274 OA
ENDROOT
BRANCH   1  11
ATOM     11  C   LIG    1       25.071 -23.267   6.804  0.00  0.00    -0.024 A 
ATOM     12  C   LIG    1       26.151 -24.172   6.788  0.00  0.00    +0.005 A 
ATOM     13  C   LIG    1       25.959 -25.527   6.506  0.00  0.00    +0.000 A 
ATOM     14  C   LIG    1       24.682 -26.015   6.250  0.00  0.00    +0.000 A 
ATOM     15  C   LIG    1       23.594 -25.148   6.291  0.00  0.00    +0.000 A 
ATOM     16  C   LIG    1       23.784 -23.792   6.573  0.00  0.00    +0.005 A 
ENDBRANCH   1  11
BRANCH   1  18
ATOM     17  C   LIG    1       26.156 -20.295   9.097  0.00  0.00    +0.005 C 
ATOM     18  C   LIG    1       25.728 -21.686   8.631  0.00  0.00    +0.027 C 
ENDBRANCH   1  18
TORSDOF 2
ENDMDL
MODEL 5
REMARK VINA RESULT:      -7.7      2.148      4.218
REMARK  Name = *****
REMARK                            x       y       z     vdW  Elec       q    Type
REMARK                         _______ _______ _______ _____ _____    ______ ____
ROOT
ATOM      1  C   LIG    1       25.301 -21.753   7.172  0.00  0.00    +0.147 C 
ATOM      2  C   LIG    1       24.010 -20.937   6.923  0.00  0.00    +0.234 C 
ATOM      3  O   LIG    1       23.113 -20.787   7.752  0.00  0.00    -0.274 OA
ATOM      4  N   LIG    1       23.846 -20.409   5.670  0.00  0.00    -0.299 N 
ATOM      5  H   LIG    1       22.952 -19.972   5.488  0.00  0.00    +0.150 HD
ATOM      6  C   LIG    1       24.732 -20.737   4.611  0.00  0.00    +0.212 C 
ATOM      7  N   LIG    1       26.068 -20.642   5.084  0.00  0.00    -0.299 N 
ATOM      8  H   LIG    1       26.824 -20.379   4.466  0.00  0.00    +0.150 HD
ATOM      9  C   LIG    1       26.436 -21.191   6.282  0.00  0.00    +0.234 C 
ATOM     10  O   LIG    1       27.633 -21.258   6.560  0.00  0.00    -0.274 OA
ENDROOT
BRANCH   1  11
ATOM     11  C   LIG    1       25.067 -23.263   6.870  0.00  0.00    -0.024 A 
ATOM     12  C   LIG    1       23.774 -23.764   6.618  0.00  0.00    +0.005 A 
ATOM     13  C   LIG    1       23.563 -25.114   6.324  0.00  0.00    +0.000 A 
ATOM     14  C   LIG    1       24.639 -25.992   6.259  0.00  0.00    +0.000 A 
ATOM     15  C   LIG    1       25.929 -25.517   6.473  0.00  0.00    +0.000 A 
ATOM     16  C   LIG    1       26.142 -24.167   6.766  0.00  0.00    +0.005 A 
ENDBRANCH   1  11
BRANCH   1  18
ATOM     17  C   LIG    1       26.153 -20.248   9.106  0.00  0.00    +0.005 C 
ATOM     18  C   LIG    1       25.706 -21.642   8.669  0.00  0.00    +0.027 C 
ENDBRANCH   1  18
TORSDOF 2
ENDMDL
MODEL 6
REMARK VINA RESULT:      -7.6      2.140      3.514
REMARK  Name = *****
REMARK                            x       y       z     vdW  Elec       q    Type
REMARK                         _______ _______ _______ _____ _____    ______ ____
ROOT
ATOM      1  C   LIG    1       24.404 -22.507   6.730  0.00  0.00    +0.147 C 
ATOM      2  C   LIG    1       25.826 -23.108   6.617  0.00  0.00    +0.234 C 
ATOM      3  O   LIG    1       26.825 -22.631   7.154  0.00  0.00    -0.274 OA
ATOM      4  N   LIG    1       25.971 -24.205   5.811  0.00  0.00    -0.299 N 
ATOM      5  H   LIG    1       26.919 -24.521   5.660  0.00  0.00    +0.150 HD
ATOM      6  C   LIG    1       24.906 -24.662   4.991  0.00  0.00    +0.212 C 
ATOM      7  N   LIG    1       23.713 -24.691   5.762  0.00  0.00    -0.299 N 
ATOM      8  H   LIG    1       22.985 -25.368   5.574  0.00  0.00    +0.150 HD
ATOM      9  C   LIG    1       23.361 -23.639   6.563  0.00  0.00    +0.234 C 
ATOM     10  O   LIG    1       22.233 -23.621   7.056  0.00  0.00    -0.274 OA
ENDROOT
BRANCH   1  11
ATOM     11  C   LIG    1       24.186 -21.401   5.656  0.00  0.00    -0.024 A 
ATOM     12  C   LIG    1       22.968 -20.697   5.572  0.00  0.00    +0.005 A 
ATOM     13  C   LIG    1       22.777 -19.687   4.624  0.00  0.00    +0.000 A 
ATOM     14  C   LIG    1       23.802 -19.347   3.748  0.00  0.00    +0.000 A 
ATOM     15  C   LIG    1       25.025 -20.006   3.831  0.00  0.00    +0.000 A 
ATOM     16  C   LIG    1       25.218 -21.014   4.779  0.00  0.00    +0.005 A 
ENDBRANCH   1  11
BRANCH   1  18
ATOM     17  C   LIG    1       25.211 -20.699   8.406  0.00  0.00    +0.005 C 
ATOM     18  C   LIG    1       24.231 -21.836   8.121  0.00  0.00    +0.027 C 
ENDBRANCH   1  18
TORSDOF 2
ENDMDL
MODEL 7
REMARK VINA RESULT:      -7.5      1.868      4.194
REMARK  Name = *****
REMARK                            x       y       z     vdW  Elec       q    Type
REMARK                         _______ _______ _______ _____ _____    ______ ____
ROOT
ATOM      1  C   LIG    1       25.689 -21.713   6.856  0.00  0.00    +0.147 C 
ATOM      2  C   LIG    1       24.985 -21.140   8.109  0.00  0.00    +0.234 C 
ATOM      3  O   LIG    1       25.421 -21.238   9.256  0.00  0.00    -0.274 OA
ATOM      4  N   LIG    1       23.768 -20.544   7.915  0.00  0.00    -0.299 N 
ATOM      5  H   LIG    1       23.270 -20.271   8.752  0.00  0.00    +0.150 HD
ATOM      6  C   LIG    1       23.112 -20.600   6.657  0.00  0.00    +0.212 C 
ATOM      7  N   LIG    1       24.052 -20.294   5.636  0.00  0.00    -0.299 N 
ATOM      8  H   LIG    1       23.764 -19.837   4.781  0.00  0.00    +0.150 HD
ATOM      9  C   LIG    1       25.294 -20.867   5.621  0.00  0.00    +0.234 C 
ATOM     10  O   LIG    1       25.998 -20.728   4.621  0.00  0.00    -0.274 OA
ENDROOT
BRANCH   1  11
ATOM     11  C   LIG    1       25.304 -23.206   6.641  0.00  0.00    -0.024 A 
ATOM     12  C   LIG    1       26.288 -24.215   6.603  0.00  0.00    +0.005 A 
ATOM     13  C   LIG    1       25.943 -25.559   6.433  0.00  0.00    +0.000 A 
ATOM     14  C   LIG    1       24.609 -25.929   6.312  0.00  0.00    +0.000 A 
ATOM     15  C   LIG    1       23.616 -24.956   6.377  0.00  0.00    +0.000 A 
ATOM     16  C   LIG    1       23.959 -23.612   6.548  0.00  0.00    +0.005 A 
ENDBRANCH   1  11
BRANCH   1  18
ATOM     17  C   LIG    1       27.790 -20.264   7.323  0.00  0.00    +0.005 C 
ATOM     18  C   LIG    1       27.230 -21.660   7.055  0.00  0.00    +0.027 C 
ENDBRANCH   1  18
TORSDOF 2
ENDMDL
MODEL 8
REMARK VINA RESULT:      -7.2      1.453      2.935
REMARK  Name = *****
REMARK                            x       y       z     vdW  Elec       q    Type
REMARK                         _______ _______ _______ _____ _____    ______ ____
ROOT
ATOM      1  C   LIG    1       24.588 -21.701   6.263  0.00  0.00    +0.147 C 
ATOM      2  C   LIG    1       24.342 -22.027   4.770  0.00  0.00    +0.234 C 
ATOM      3  O   LIG    1       24.748 -23.042   4.206  0.00  0.00    -0.274 OA
ATOM      4  N   LIG    1       23.682 -21.081   4.033  0.00  0.00    -0.299 N 
ATOM      5  H   LIG    1       23.624 -21.256   3.038  0.00  0.00    +0.150 HD
ATOM      6  C   LIG    1       23.391 -19.799   4.569  0.00  0.00    +0.212 C 
ATOM      7  N   LIG    1       22.856 -19.960   5.875  0.00  0.00    -0.299 N 
ATOM      8  H   LIG    1       22.184 -19.303   6.250  0.00  0.00    +0.150 HD
ATOM      9  C   LIG    1       23.439 -20.802   6.782  0.00  0.00    +0.234 C 
ATOM     10  O   LIG    1       23.064 -20.763   7.954  0.00  0.00    -0.274 OA
ENDROOT
BRANCH   1  11
ATOM     11  C   LIG    1       25.963 -20.994   6.454  0.00  0.00    -0.024 A 
ATOM     12  C   LIG    1       26.635 -21.030   7.692  0.00  0.00    +0.005 A 
ATOM     13  C   LIG    1       27.880 -20.417   7.861  0.00  0.00    +0.000 A 
ATOM     14  C   LIG    1       28.489 -19.767   6.794  0.00  0.00    +0.000 A 
ATOM     15  C   LIG    1       27.861 -19.743   5.553  0.00  0.00    +0.000 A 
ATOM     16  C   LIG    1       26.617 -20.357   5.382  0.00  0.00    +0.005 A 
ENDBRANCH   1  11
BRANCH   1  18
ATOM     17  C   LIG    1       23.474 -23.979   6.810  0.00  0.00    +0.005 C 
ATOM     18  C   LIG    1       24.632 -23.020   7.083  0.00  0.00    +0.027 C 
ENDBRANCH   1  18
TORSDOF 2
ENDMDL
MODEL 9
REMARK VINA RESULT:      -7.1      1.691      3.957
REMARK  Name = *****
REMARK                            x       y       z     vdW  Elec       q    Type
REMARK                         _______ _______ _______ _____ _____    ______ ____
ROOT
ATOM      1  C   LIG    1       24.853 -21.525   6.258  0.00  0.00    +0.147 C 
ATOM      2  C   LIG    1       24.513 -22.956   5.775  0.00  0.00    +0.234 C 
ATOM      3  O   LIG    1       25.162 -23.576   4.934  0.00  0.00    -0.274 OA
ATOM      4  N   LIG    1       23.375 -23.524   6.282  0.00  0.00    -0.299 N 
ATOM      5  H   LIG    1       23.106 -24.411   5.878  0.00  0.00    +0.150 HD
ATOM      6  C   LIG    1       22.469 -22.775   7.078  0.00  0.00    +0.212 C 
ATOM      7  N   LIG    1       23.206 -22.044   8.047  0.00  0.00    -0.299 N 
ATOM      8  H   LIG    1       22.811 -21.832   8.954  0.00  0.00    +0.150 HD
ATOM      9  C   LIG    1       24.327 -21.340   7.702  0.00  0.00    +0.234 C 
ATOM     10  O   LIG    1       24.818 -20.568   8.526  0.00  0.00    -0.274 OA
ENDROOT
BRANCH   1  11
ATOM     11  C   LIG    1       24.231 -20.459   5.309  0.00  0.00    -0.024 A 
ATOM     12  C   LIG    1       22.934 -19.954   5.531  0.00  0.00    +0.005 A 
ATOM     13  C   LIG    1       22.381 -18.980   4.694  0.00  0.00    +0.000 A 
ATOM     14  C   LIG    1       23.115 -18.477   3.627  0.00  0.00    +0.000 A 
ATOM     15  C   LIG    1       24.409 -18.936   3.404  0.00  0.00    +0.000 A 
ATOM     16  C   LIG    1       24.964 -19.909   4.240  0.00  0.00    +0.005 A 
ENDBRANCH   1  11
BRANCH   1  18
ATOM     17  C   LIG    1       27.160 -22.109   7.292  0.00  0.00    +0.005 C 
ATOM     18  C   LIG    1       26.394 -21.320   6.232  0.00  0.00    +0.027 C 
ENDBRANCH   1  18
TORSDOF 2
ENDMDL
