MODEL 1
REMARK VINA RESULT:      -7.6      0.000      0.000
REMARK  Name = *****
REMARK                            x       y       z     vdW  Elec       q    Type
REMARK                         _______ _______ _______ _____ _____    ______ ____
ROOT
ATOM      1  C   UNK A  0       29.689 -19.832   6.573  0.00  0.00    +0.112 C 
ATOM      2  C   UNK A  0       29.527 -21.057   7.493  0.00  0.00    +0.101 C 
ATOM      3  N   UNK A  0       28.253 -21.164   8.263  0.00  0.00    -0.297 NA
ATOM      4  C   UNK A  0       27.921 -22.589   8.401  0.00  0.00    +0.105 C 
ATOM      5  C   UNK A  0       27.127 -20.355   7.685  0.00  0.00    +0.091 C 
ATOM      6  C   UNK A  0       27.261 -20.093   6.161  0.00  0.00    -0.025 C 
ATOM      7  C   UNK A  0       26.069 -20.159   5.295  0.00  0.00    -0.011 C 
ATOM      8  C   UNK A  0       24.865 -20.419   5.963  0.00  0.00    +0.010 C 
ATOM      9  C   UNK A  0       23.664 -20.532   5.277  0.00  0.00    +0.047 C 
ATOM     10  N   UNK A  0       22.695 -20.781   6.224  0.00  0.00    -0.360 NA
ATOM     11  H   UNK A  0       21.714 -20.911   6.021  0.00  0.00    +0.165 HD
ATOM     12  C   UNK A  0       23.258 -20.837   7.477  0.00  0.00    +0.087 C 
ATOM     13  C   UNK A  0       23.592 -20.404   3.890  0.00  0.00    +0.026 C 
ATOM     14  C   UNK A  0       24.793 -20.150   3.215  0.00  0.00    +0.003 C 
ATOM     15  C   UNK A  0       24.611 -20.623   7.335  0.00  0.00    -0.020 C 
ATOM     16  C   UNK A  0       26.009 -20.028   3.901  0.00  0.00    +0.009 C 
ATOM     17  C   UNK A  0       25.705 -20.598   8.331  0.00  0.00    +0.060 C 
ATOM     18  C   UNK A  0       28.473 -19.731   5.689  0.00  0.00    -0.007 C 
ENDROOT
BRANCH   1  21
ATOM     19  N   ALA A  1       30.497 -18.607   8.561  0.00  0.00    -0.310 N 
ATOM     20  H   ALA A  1       30.613 -19.542   8.948  0.00  0.00    +0.149 HD
ATOM     21  C   UNK A  0       30.010 -18.508   7.283  0.00  0.00    +0.221 C 
ATOM     22  O   UNK A  0       29.792 -17.411   6.753  0.00  0.00    -0.275 OA
BRANCH  19  24
ATOM     23  CB  ALA A  1       30.211 -17.767  10.828  0.00  0.00    +0.030 C 
ATOM     24  CA  ALA A  1       30.769 -17.470   9.435  0.00  0.00    +0.095 C 
BRANCH  24  25
ATOM     25  C   ALA A  1       32.277 -17.162   9.538  0.00  0.00    +0.177 C 
BRANCH  25  26
ATOM     26  O   ALA A  1       32.702 -16.076   8.721  0.00  0.00    -0.393 OA
ATOM     27  H   ALA A  1       32.715 -15.261   9.267  0.00  0.00    +0.209 HD
ENDBRANCH  25  26
ENDBRANCH  24  25
ENDBRANCH  19  24
ENDBRANCH   1  21
TORSDOF 4
ENDMDL
MODEL 2
REMARK VINA RESULT:      -7.3      4.775      7.389
REMARK  Name = *****
REMARK                            x       y       z     vdW  Elec       q    Type
REMARK                         _______ _______ _______ _____ _____    ______ ____
ROOT
ATOM      1  C   UNK A  0       24.150 -23.855   6.752  0.00  0.00    +0.112 C 
ATOM      2  C   UNK A  0       25.321 -23.249   7.550  0.00  0.00    +0.101 C 
ATOM      3  N   UNK A  0       26.251 -22.347   6.810  0.00  0.00    -0.297 NA
ATOM      4  C   UNK A  0       26.727 -21.317   7.744  0.00  0.00    +0.105 C 
ATOM      5  C   UNK A  0       25.663 -21.769   5.554  0.00  0.00    +0.091 C 
ATOM      6  C   UNK A  0       24.113 -21.678   5.572  0.00  0.00    -0.025 C 
ATOM      7  C   UNK A  0       23.438 -20.494   5.007  0.00  0.00    -0.011 C 
ATOM      8  C   UNK A  0       24.293 -19.539   4.442  0.00  0.00    +0.010 C 
ATOM      9  C   UNK A  0       23.804 -18.362   3.893  0.00  0.00    +0.047 C 
ATOM     10  N   UNK A  0       24.897 -17.663   3.428  0.00  0.00    -0.360 NA
ATOM     11  H   UNK A  0       24.851 -16.762   2.975  0.00  0.00    +0.165 HD
ATOM     12  C   UNK A  0       26.052 -18.365   3.683  0.00  0.00    +0.087 C 
ATOM     13  C   UNK A  0       22.441 -18.064   3.883  0.00  0.00    +0.026 C 
ATOM     14  C   UNK A  0       21.582 -19.012   4.453  0.00  0.00    +0.003 C 
ATOM     15  C   UNK A  0       25.698 -19.532   4.321  0.00  0.00    -0.020 C 
ATOM     16  C   UNK A  0       22.067 -20.205   5.004  0.00  0.00    +0.009 C 
ATOM     17  C   UNK A  0       26.520 -20.644   4.849  0.00  0.00    +0.060 C 
ATOM     18  C   UNK A  0       23.425 -22.741   6.042  0.00  0.00    -0.007 C 
ENDROOT
BRANCH   1  21
ATOM     19  N   ALA A  1       24.299 -26.277   6.287  0.00  0.00    -0.310 N 
ATOM     20  H   ALA A  1       23.909 -26.365   7.224  0.00  0.00    +0.149 HD
ATOM     21  C   UNK A  0       24.518 -25.011   5.809  0.00  0.00    +0.221 C 
ATOM     22  O   UNK A  0       25.034 -24.814   4.701  0.00  0.00    -0.275 OA
BRANCH  19  24
ATOM     23  CB  ALA A  1       26.196 -27.583   5.500  0.00  0.00    +0.030 C 
ATOM     24  CA  ALA A  1       24.672 -27.504   5.588  0.00  0.00    +0.095 C 
BRANCH  24  25
ATOM     25  C   ALA A  1       24.129 -28.764   6.294  0.00  0.00    +0.177 C 
BRANCH  25  26
ATOM     26  O   ALA A  1       23.227 -29.527   5.500  0.00  0.00    -0.393 OA
ATOM     27  H   ALA A  1       22.880 -28.953   4.783  0.00  0.00    +0.209 HD
ENDBRANCH  25  26
ENDBRANCH  24  25
ENDBRANCH  19  24
ENDBRANCH   1  21
TORSDOF 4
ENDMDL
MODEL 3
REMARK VINA RESULT:      -7.2      4.398      7.098
REMARK  Name = *****
REMARK                            x       y       z     vdW  Elec       q    Type
REMARK                         _______ _______ _______ _____ _____    ______ ____
ROOT
ATOM      1  C   UNK A  0       24.080 -23.255   6.197  0.00  0.00    +0.112 C 
ATOM      2  C   UNK A  0       24.481 -22.886   7.638  0.00  0.00    +0.101 C 
ATOM      3  N   UNK A  0       25.873 -22.394   7.850  0.00  0.00    -0.297 NA
ATOM      4  C   UNK A  0       25.849 -21.410   8.941  0.00  0.00    +0.105 C 
ATOM      5  C   UNK A  0       26.525 -21.867   6.603  0.00  0.00    +0.091 C 
ATOM      6  C   UNK A  0       25.518 -21.350   5.540  0.00  0.00    -0.025 C 
ATOM      7  C   UNK A  0       25.817 -20.122   4.780  0.00  0.00    -0.011 C 
ATOM      8  C   UNK A  0       27.056 -19.534   5.067  0.00  0.00    +0.010 C 
ATOM      9  C   UNK A  0       27.463 -18.361   4.447  0.00  0.00    +0.047 C 
ATOM     10  N   UNK A  0       28.713 -18.067   4.948  0.00  0.00    -0.360 NA
ATOM     11  H   UNK A  0       29.264 -17.265   4.681  0.00  0.00    +0.165 HD
ATOM     12  C   UNK A  0       29.089 -19.015   5.871  0.00  0.00    +0.087 C 
ATOM     13  C   UNK A  0       26.661 -17.703   3.514  0.00  0.00    +0.026 C 
ATOM     14  C   UNK A  0       25.419 -18.283   3.227  0.00  0.00    +0.003 C 
ATOM     15  C   UNK A  0       28.066 -19.932   5.965  0.00  0.00    -0.020 C 
ATOM     16  C   UNK A  0       25.002 -19.469   3.845  0.00  0.00    +0.009 C 
ATOM     17  C   UNK A  0       27.912 -21.139   6.810  0.00  0.00    +0.060 C 
ATOM     18  C   UNK A  0       24.424 -22.101   5.292  0.00  0.00    -0.007 C 
ENDROOT
BRANCH   1  21
ATOM     19  N   ALA A  1       24.564 -25.653   6.546  0.00  0.00    -0.310 N 
ATOM     20  H   ALA A  1       24.160 -25.484   7.465  0.00  0.00    +0.149 HD
ATOM     21  C   UNK A  0       24.628 -24.593   5.678  0.00  0.00    +0.221 C 
ATOM     22  O   UNK A  0       25.148 -24.698   4.559  0.00  0.00    -0.275 OA
BRANCH  19  24
ATOM     23  CB  ALA A  1       26.203 -27.280   7.316  0.00  0.00    +0.030 C 
ATOM     24  CA  ALA A  1       25.120 -26.977   6.280  0.00  0.00    +0.095 C 
BRANCH  24  25
ATOM     25  C   ALA A  1       24.041 -28.080   6.323  0.00  0.00    +0.177 C 
BRANCH  25  26
ATOM     26  O   ALA A  1       23.759 -28.661   5.054  0.00  0.00    -0.393 OA
ATOM     27  H   ALA A  1       22.814 -28.501   4.841  0.00  0.00    +0.209 HD
ENDBRANCH  25  26
ENDBRANCH  24  25
ENDBRANCH  19  24
ENDBRANCH   1  21
TORSDOF 4
ENDMDL
MODEL 4
REMARK VINA RESULT:      -6.6      8.693     11.537
REMARK  Name = *****
REMARK                            x       y       z     vdW  Elec       q    Type
REMARK                         _______ _______ _______ _____ _____    ______ ____
ROOT
ATOM      1  C   UNK A  0       24.456 -30.548   7.106  0.00  0.00    +0.112 C 
ATOM      2  C   UNK A  0       25.444 -31.709   7.332  0.00  0.00    +0.101 C 
ATOM      3  N   UNK A  0       26.585 -31.458   8.261  0.00  0.00    -0.297 NA
ATOM      4  C   UNK A  0       26.897 -32.716   8.952  0.00  0.00    +0.105 C 
ATOM      5  C   UNK A  0       26.355 -30.313   9.207  0.00  0.00    +0.091 C 
ATOM      6  C   UNK A  0       24.855 -30.029   9.493  0.00  0.00    -0.025 C 
ATOM      7  C   UNK A  0       24.421 -29.682  10.859  0.00  0.00    -0.011 C 
ATOM      8  C   UNK A  0       25.451 -29.592  11.804  0.00  0.00    +0.010 C 
ATOM      9  C   UNK A  0       25.191 -29.296  13.135  0.00  0.00    +0.047 C 
ATOM     10  N   UNK A  0       26.410 -29.282  13.778  0.00  0.00    -0.360 NA
ATOM     11  H   UNK A  0       26.538 -29.094  14.761  0.00  0.00    +0.165 HD
ATOM     12  C   UNK A  0       27.419 -29.572  12.889  0.00  0.00    +0.087 C 
ATOM     13  C   UNK A  0       23.895 -29.082  13.604  0.00  0.00    +0.026 C 
ATOM     14  C   UNK A  0       22.860 -29.176  12.665  0.00  0.00    +0.003 C 
ATOM     15  C   UNK A  0       26.841 -29.777  11.657  0.00  0.00    -0.020 C 
ATOM     16  C   UNK A  0       23.113 -29.469  11.319  0.00  0.00    +0.009 C 
ATOM     17  C   UNK A  0       27.433 -30.140  10.349  0.00  0.00    +0.060 C 
ATOM     18  C   UNK A  0       24.002 -30.034   8.447  0.00  0.00    -0.007 C 
ENDROOT
BRANCH   1  21
ATOM     19  N   ALA A  1       24.669 -28.143   6.580  0.00  0.00    -0.310 N 
ATOM     20  H   ALA A  1       24.153 -28.024   7.449  0.00  0.00    +0.149 HD
ATOM     21  C   UNK A  0       24.955 -29.424   6.184  0.00  0.00    +0.221 C 
ATOM     22  O   UNK A  0       25.537 -29.661   5.117  0.00  0.00    -0.275 OA
BRANCH  19  24
ATOM     23  CB  ALA A  1       24.055 -25.810   6.256  0.00  0.00    +0.030 C 
ATOM     24  CA  ALA A  1       24.968 -26.947   5.797  0.00  0.00    +0.095 C 
BRANCH  24  25
ATOM     25  C   ALA A  1       26.443 -26.514   5.938  0.00  0.00    +0.177 C 
BRANCH  25  26
ATOM     26  O   ALA A  1       27.325 -27.163   5.028  0.00  0.00    -0.393 OA
ATOM     27  H   ALA A  1       27.634 -28.000   5.437  0.00  0.00    +0.209 HD
ENDBRANCH  25  26
ENDBRANCH  24  25
ENDBRANCH  19  24
ENDBRANCH   1  21
TORSDOF 4
ENDMDL
MODEL 5
REMARK VINA RESULT:      -6.4      8.367     10.244
REMARK  Name = *****
REMARK                            x       y       z     vdW  Elec       q    Type
REMARK                         _______ _______ _______ _____ _____    ______ ____
ROOT
ATOM      1  C   UNK A  0       27.142 -28.837  11.204  0.00  0.00    +0.112 C 
ATOM      2  C   UNK A  0       27.460 -30.278  10.761  0.00  0.00    +0.101 C 
ATOM      3  N   UNK A  0       26.436 -30.973   9.927  0.00  0.00    -0.297 NA
ATOM      4  C   UNK A  0       27.137 -31.868   8.996  0.00  0.00    +0.105 C 
ATOM      5  C   UNK A  0       25.484 -30.039   9.234  0.00  0.00    +0.091 C 
ATOM      6  C   UNK A  0       26.067 -28.622   8.984  0.00  0.00    -0.025 C 
ATOM      7  C   UNK A  0       25.793 -27.929   7.711  0.00  0.00    -0.011 C 
ATOM      8  C   UNK A  0       24.959 -28.623   6.826  0.00  0.00    +0.010 C 
ATOM      9  C   UNK A  0       24.632 -28.105   5.580  0.00  0.00    +0.047 C 
ATOM     10  N   UNK A  0       23.804 -29.027   4.978  0.00  0.00    -0.360 NA
ATOM     11  H   UNK A  0       23.403 -28.924   4.058  0.00  0.00    +0.165 HD
ATOM     12  C   UNK A  0       23.616 -30.109   5.807  0.00  0.00    +0.087 C 
ATOM     13  C   UNK A  0       25.122 -26.875   5.141  0.00  0.00    +0.026 C 
ATOM     14  C   UNK A  0       25.961 -26.178   6.020  0.00  0.00    +0.003 C 
ATOM     15  C   UNK A  0       24.335 -29.880   6.959  0.00  0.00    -0.020 C 
ATOM     16  C   UNK A  0       26.292 -26.691   7.281  0.00  0.00    +0.009 C 
ATOM     17  C   UNK A  0       24.520 -30.705   8.174  0.00  0.00    +0.060 C 
ATOM     18  C   UNK A  0       26.750 -28.036   9.990  0.00  0.00    -0.007 C 
ENDROOT
BRANCH   1  21
ATOM     19  N   ALA A  1       25.503 -27.489  12.470  0.00  0.00    -0.310 N 
ATOM     20  H   ALA A  1       25.754 -26.764  11.801  0.00  0.00    +0.149 HD
ATOM     21  C   UNK A  0       26.124 -28.705  12.348  0.00  0.00    +0.221 C 
ATOM     22  O   UNK A  0       25.915 -29.627  13.148  0.00  0.00    -0.275 OA
BRANCH  19  24
ATOM     23  CB  ALA A  1       24.660 -25.625  13.790  0.00  0.00    +0.030 C 
ATOM     24  CA  ALA A  1       24.582 -27.133  13.546  0.00  0.00    +0.095 C 
BRANCH  24  25
ATOM     25  C   ALA A  1       23.126 -27.529  13.221  0.00  0.00    +0.177 C 
BRANCH  25  26
ATOM     26  O   ALA A  1       22.234 -26.423  13.130  0.00  0.00    -0.393 OA
ATOM     27  H   ALA A  1       21.407 -26.724  12.695  0.00  0.00    +0.209 HD
ENDBRANCH  25  26
ENDBRANCH  24  25
ENDBRANCH  19  24
ENDBRANCH   1  21
TORSDOF 4
ENDMDL
MODEL 6
REMARK VINA RESULT:      -6.4     10.376     12.537
REMARK  Name = *****
REMARK                            x       y       z     vdW  Elec       q    Type
REMARK                         _______ _______ _______ _____ _____    ______ ____
ROOT
ATOM      1  C   UNK A  0       24.374 -31.931  10.709  0.00  0.00    +0.112 C 
ATOM      2  C   UNK A  0       25.366 -32.169  11.863  0.00  0.00    +0.101 C 
ATOM      3  N   UNK A  0       26.115 -30.983  12.371  0.00  0.00    -0.297 NA
ATOM      4  C   UNK A  0       26.336 -31.164  13.812  0.00  0.00    +0.105 C 
ATOM      5  C   UNK A  0       25.463 -29.669  12.040  0.00  0.00    +0.091 C 
ATOM      6  C   UNK A  0       23.928 -29.768  11.828  0.00  0.00    -0.025 C 
ATOM      7  C   UNK A  0       23.044 -28.711  12.355  0.00  0.00    -0.011 C 
ATOM      8  C   UNK A  0       23.702 -27.647  12.986  0.00  0.00    +0.010 C 
ATOM      9  C   UNK A  0       23.000 -26.592  13.550  0.00  0.00    +0.047 C 
ATOM     10  N   UNK A  0       23.940 -25.732  14.074  0.00  0.00    -0.360 NA
ATOM     11  H   UNK A  0       23.725 -24.868  14.551  0.00  0.00    +0.165 HD
ATOM     12  C   UNK A  0       25.206 -26.226  13.863  0.00  0.00    +0.087 C 
ATOM     13  C   UNK A  0       21.606 -26.538  13.528  0.00  0.00    +0.026 C 
ATOM     14  C   UNK A  0       20.942 -27.601  12.904  0.00  0.00    +0.003 C 
ATOM     15  C   UNK A  0       25.078 -27.423  13.194  0.00  0.00    -0.020 C 
ATOM     16  C   UNK A  0       21.643 -28.668  12.327  0.00  0.00    +0.009 C 
ATOM     17  C   UNK A  0       26.094 -28.397  12.734  0.00  0.00    +0.060 C 
ATOM     18  C   UNK A  0       23.459 -30.795  11.089  0.00  0.00    -0.007 C 
ENDROOT
BRANCH   1  21
ATOM     19  N   ALA A  1       24.183 -31.233   8.346  0.00  0.00    -0.310 N 
ATOM     20  H   ALA A  1       23.222 -31.020   8.606  0.00  0.00    +0.149 HD
ATOM     21  C   UNK A  0       25.004 -31.738   9.321  0.00  0.00    +0.221 C 
ATOM     22  O   UNK A  0       26.173 -32.070   9.081  0.00  0.00    -0.275 OA
BRANCH  19  24
ATOM     23  CB  ALA A  1       23.809 -32.099   6.103  0.00  0.00    +0.030 C 
ATOM     24  CA  ALA A  1       24.562 -31.070   6.946  0.00  0.00    +0.095 C 
BRANCH  24  25
ATOM     25  C   ALA A  1       24.257 -29.651   6.422  0.00  0.00    +0.177 C 
BRANCH  25  26
ATOM     26  O   ALA A  1       23.213 -29.604   5.455  0.00  0.00    -0.393 OA
ATOM     27  H   ALA A  1       23.557 -29.958   4.606  0.00  0.00    +0.209 HD
ENDBRANCH  25  26
ENDBRANCH  24  25
ENDBRANCH  19  24
ENDBRANCH   1  21
TORSDOF 4
ENDMDL
MODEL 7
REMARK VINA RESULT:      -6.2      8.737     11.670
REMARK  Name = *****
REMARK                            x       y       z     vdW  Elec       q    Type
REMARK                         _______ _______ _______ _____ _____    ______ ____
ROOT
ATOM      1  C   UNK A  0       25.330 -30.568   9.457  0.00  0.00    +0.112 C 
ATOM      2  C   UNK A  0       26.838 -30.418   9.735  0.00  0.00    +0.101 C 
ATOM      3  N   UNK A  0       27.289 -29.143  10.365  0.00  0.00    -0.297 NA
ATOM      4  C   UNK A  0       28.436 -29.443  11.233  0.00  0.00    +0.105 C 
ATOM      5  C   UNK A  0       26.195 -28.400  11.079  0.00  0.00    +0.091 C 
ATOM      6  C   UNK A  0       25.038 -29.312  11.570  0.00  0.00    -0.025 C 
ATOM      7  C   UNK A  0       24.424 -29.073  12.890  0.00  0.00    -0.011 C 
ATOM      8  C   UNK A  0       24.934 -27.972  13.591  0.00  0.00    +0.010 C 
ATOM      9  C   UNK A  0       24.470 -27.639  14.856  0.00  0.00    +0.047 C 
ATOM     10  N   UNK A  0       25.171 -26.519  15.246  0.00  0.00    -0.360 NA
ATOM     11  H   UNK A  0       25.048 -26.044  16.129  0.00  0.00    +0.165 HD
ATOM     12  C   UNK A  0       26.064 -26.152  14.268  0.00  0.00    +0.087 C 
ATOM     13  C   UNK A  0       23.483 -28.385  15.499  0.00  0.00    +0.026 C 
ATOM     14  C   UNK A  0       22.973 -29.491  14.807  0.00  0.00    +0.003 C 
ATOM     15  C   UNK A  0       25.938 -27.051  13.232  0.00  0.00    -0.020 C 
ATOM     16  C   UNK A  0       23.431 -29.831  13.527  0.00  0.00    +0.009 C 
ATOM     17  C   UNK A  0       26.657 -27.161  11.942  0.00  0.00    +0.060 C 
ATOM     18  C   UNK A  0       24.575 -30.255  10.722  0.00  0.00    -0.007 C 
ENDROOT
BRANCH   1  21
ATOM     19  N   ALA A  1       25.608 -28.788   7.765  0.00  0.00    -0.310 N 
ATOM     20  H   ALA A  1       26.499 -28.638   8.236  0.00  0.00    +0.149 HD
ATOM     21  C   UNK A  0       24.799 -29.784   8.247  0.00  0.00    +0.221 C 
ATOM     22  O   UNK A  0       23.679 -30.004   7.765  0.00  0.00    -0.275 OA
BRANCH  19  24
ATOM     23  CB  ALA A  1       26.318 -26.789   6.571  0.00  0.00    +0.030 C 
ATOM     24  CA  ALA A  1       25.243 -27.870   6.690  0.00  0.00    +0.095 C 
BRANCH  24  25
ATOM     25  C   ALA A  1       25.085 -28.593   5.336  0.00  0.00    +0.177 C 
BRANCH  25  26
ATOM     26  O   ALA A  1       23.735 -28.890   4.993  0.00  0.00    -0.393 OA
ATOM     27  H   ALA A  1       23.717 -29.254   4.082  0.00  0.00    +0.209 HD
ENDBRANCH  25  26
ENDBRANCH  24  25
ENDBRANCH  19  24
ENDBRANCH   1  21
TORSDOF 4
ENDMDL
MODEL 8
REMARK VINA RESULT:      -6.0     10.263     11.578
REMARK  Name = *****
REMARK                            x       y       z     vdW  Elec       q    Type
REMARK                         _______ _______ _______ _____ _____    ______ ____
ROOT
ATOM      1  C   UNK A  0       27.180 -28.101  11.558  0.00  0.00    +0.112 C 
ATOM      2  C   UNK A  0       26.824 -28.550  10.127  0.00  0.00    +0.101 C 
ATOM      3  N   UNK A  0       25.774 -29.601   9.987  0.00  0.00    -0.297 NA
ATOM      4  C   UNK A  0       25.034 -29.344   8.744  0.00  0.00    +0.105 C 
ATOM      5  C   UNK A  0       24.877 -29.724  11.186  0.00  0.00    +0.091 C 
ATOM      6  C   UNK A  0       24.769 -28.422  12.024  0.00  0.00    -0.025 C 
ATOM      7  C   UNK A  0       23.467 -28.014  12.585  0.00  0.00    -0.011 C 
ATOM      8  C   UNK A  0       22.411 -28.900  12.337  0.00  0.00    +0.010 C 
ATOM      9  C   UNK A  0       21.124 -28.637  12.783  0.00  0.00    +0.047 C 
ATOM     10  N   UNK A  0       20.345 -29.700  12.378  0.00  0.00    -0.360 NA
ATOM     11  H   UNK A  0       19.356 -29.789  12.560  0.00  0.00    +0.165 HD
ATOM     12  C   UNK A  0       21.108 -30.610  11.684  0.00  0.00    +0.087 C 
ATOM     13  C   UNK A  0       20.811 -27.477  13.491  0.00  0.00    +0.026 C 
ATOM     14  C   UNK A  0       21.861 -26.583  13.737  0.00  0.00    +0.003 C 
ATOM     15  C   UNK A  0       22.396 -30.125  11.640  0.00  0.00    -0.020 C 
ATOM     16  C   UNK A  0       23.165 -26.843  13.295  0.00  0.00    +0.009 C 
ATOM     17  C   UNK A  0       23.621 -30.666  11.009  0.00  0.00    +0.060 C 
ATOM     18  C   UNK A  0       25.907 -27.741  12.279  0.00  0.00    -0.007 C 
ENDROOT
BRANCH   1  21
ATOM     19  N   ALA A  1       28.348 -28.709  13.649  0.00  0.00    -0.310 N 
ATOM     20  H   ALA A  1       27.971 -27.824  13.982  0.00  0.00    +0.149 HD
ATOM     21  C   UNK A  0       28.053 -29.077  12.361  0.00  0.00    +0.221 C 
ATOM     22  O   UNK A  0       28.510 -30.113  11.859  0.00  0.00    -0.275 OA
BRANCH  19  24
ATOM     23  CB  ALA A  1       29.965 -28.458  15.451  0.00  0.00    +0.030 C 
ATOM     24  CA  ALA A  1       29.240 -29.448  14.538  0.00  0.00    +0.095 C 
BRANCH  24  25
ATOM     25  C   ALA A  1       28.480 -30.481  15.397  0.00  0.00    +0.177 C 
BRANCH  25  26
ATOM     26  O   ALA A  1       27.917 -31.552  14.647  0.00  0.00    -0.393 OA
ATOM     27  H   ALA A  1       27.184 -31.946  15.168  0.00  0.00    +0.209 HD
ENDBRANCH  25  26
ENDBRANCH  24  25
ENDBRANCH  19  24
ENDBRANCH   1  21
TORSDOF 4
ENDMDL
MODEL 9
REMARK VINA RESULT:      -5.7      8.284     10.162
REMARK  Name = *****
REMARK                            x       y       z     vdW  Elec       q    Type
REMARK                         _______ _______ _______ _____ _____    ______ ____
ROOT
ATOM      1  C   UNK A  0       26.202 -27.053   5.752  0.00  0.00    +0.112 C 
ATOM      2  C   UNK A  0       26.630 -27.172   7.227  0.00  0.00    +0.101 C 
ATOM      3  N   UNK A  0       25.732 -27.946   8.134  0.00  0.00    -0.297 NA
ATOM      4  C   UNK A  0       26.567 -28.612   9.143  0.00  0.00    +0.105 C 
ATOM      5  C   UNK A  0       24.817 -28.895   7.414  0.00  0.00    +0.091 C 
ATOM      6  C   UNK A  0       25.358 -29.363   6.036  0.00  0.00    -0.025 C 
ATOM      7  C   UNK A  0       25.188 -30.767   5.617  0.00  0.00    -0.011 C 
ATOM      8  C   UNK A  0       24.483 -31.573   6.520  0.00  0.00    +0.010 C 
ATOM      9  C   UNK A  0       24.266 -32.921   6.272  0.00  0.00    +0.047 C 
ATOM     10  N   UNK A  0       23.548 -33.406   7.344  0.00  0.00    -0.360 NA
ATOM     11  H   UNK A  0       23.242 -34.362   7.445  0.00  0.00    +0.165 HD
ATOM     12  C   UNK A  0       23.324 -32.402   8.257  0.00  0.00    +0.087 C 
ATOM     13  C   UNK A  0       24.742 -33.546   5.119  0.00  0.00    +0.026 C 
ATOM     14  C   UNK A  0       25.452 -32.746   4.215  0.00  0.00    +0.003 C 
ATOM     15  C   UNK A  0       23.906 -31.255   7.766  0.00  0.00    -0.020 C 
ATOM     16  C   UNK A  0       25.672 -31.383   4.454  0.00  0.00    +0.009 C 
ATOM     17  C   UNK A  0       24.001 -29.890   8.331  0.00  0.00    +0.060 C 
ATOM     18  C   UNK A  0       25.904 -28.432   5.225  0.00  0.00    -0.007 C 
ENDROOT
BRANCH   1  21
ATOM     19  N   ALA A  1       25.305 -24.751   5.807  0.00  0.00    -0.310 N 
ATOM     20  H   ALA A  1       26.212 -24.530   6.215  0.00  0.00    +0.149 HD
ATOM     21  C   UNK A  0       25.065 -26.058   5.470  0.00  0.00    +0.221 C 
ATOM     22  O   UNK A  0       23.974 -26.423   5.014  0.00  0.00    -0.275 OA
BRANCH  19  24
ATOM     23  CB  ALA A  1       23.282 -23.852   6.818  0.00  0.00    +0.030 C 
ATOM     24  CA  ALA A  1       24.322 -23.676   5.711  0.00  0.00    +0.095 C 
BRANCH  24  25
ATOM     25  C   ALA A  1       24.971 -22.281   5.829  0.00  0.00    +0.177 C 
BRANCH  25  26
ATOM     26  O   ALA A  1       25.074 -21.585   4.591  0.00  0.00    -0.393 OA
ATOM     27  H   ALA A  1       24.909 -22.221   3.861  0.00  0.00    +0.209 HD
ENDBRANCH  25  26
ENDBRANCH  24  25
ENDBRANCH  19  24
ENDBRANCH   1  21
TORSDOF 4
ENDMDL
