MODEL 1
REMARK VINA RESULT:      -4.6      0.000      0.000
REMARK  Name = *****
REMARK                            x       y       z     vdW  Elec       q    Type
REMARK                         _______ _______ _______ _____ _____    ______ ____
ROOT
ATOM      1  F   LIG    1       22.272 -18.883   5.400  0.00  0.00    -0.168 F 
ATOM      2  C   LIG    1       22.767 -20.136   5.521  0.00  0.00    +0.415 C 
ATOM      3  F   LIG    1       21.784 -20.996   5.156  0.00  0.00    -0.168 F 
ATOM      4  F   LIG    1       22.999 -20.357   6.838  0.00  0.00    -0.168 F 
ENDROOT
BRANCH   2   5
ATOM      5  C   LIG    1       24.023 -20.360   4.694  0.00  0.00    +0.251 C 
ATOM      6 BR   LIG    1       25.570 -20.693   5.844  0.00  0.00    -0.061 Br
ATOM      7 CL   LIG    1       24.402 -18.981   3.630  0.00  0.00    -0.100 Cl
ENDBRANCH   2   5
TORSDOF 1
ENDMDL
MODEL 2
REMARK VINA RESULT:      -4.6      0.207      1.370
REMARK  Name = *****
REMARK                            x       y       z     vdW  Elec       q    Type
REMARK                         _______ _______ _______ _____ _____    ______ ____
ROOT
ATOM      1  F   LIG    1       21.643 -20.876   4.932  0.00  0.00    -0.168 F 
ATOM      2  C   LIG    1       22.681 -20.149   5.404  0.00  0.00    +0.415 C 
ATOM      3  F   LIG    1       22.911 -20.551   6.678  0.00  0.00    -0.168 F 
ATOM      4  F   LIG    1       22.274 -18.858   5.477  0.00  0.00    -0.168 F 
ENDROOT
BRANCH   2   5
ATOM      5  C   LIG    1       23.934 -20.284   4.553  0.00  0.00    +0.251 C 
ATOM      6 BR   LIG    1       25.500 -20.656   5.664  0.00  0.00    -0.061 Br
ATOM      7 CL   LIG    1       24.268 -18.827   3.583  0.00  0.00    -0.100 Cl
ENDBRANCH   2   5
TORSDOF 1
ENDMDL
MODEL 3
REMARK VINA RESULT:      -4.2      6.133      6.776
REMARK  Name = *****
REMARK                            x       y       z     vdW  Elec       q    Type
REMARK                         _______ _______ _______ _____ _____    ______ ____
ROOT
ATOM      1  F   LIG    1       23.366 -14.752   4.736  0.00  0.00    -0.168 F 
ATOM      2  C   LIG    1       24.118 -13.856   4.058  0.00  0.00    +0.415 C 
ATOM      3  F   LIG    1       24.068 -12.686   4.742  0.00  0.00    -0.168 F 
ATOM      4  F   LIG    1       23.509 -13.631   2.868  0.00  0.00    -0.168 F 
ENDROOT
BRANCH   2   5
ATOM      5  C   LIG    1       25.555 -14.314   3.864  0.00  0.00    +0.251 C 
ATOM      6 BR   LIG    1       26.729 -13.541   5.224  0.00  0.00    -0.061 Br
ATOM      7 CL   LIG    1       26.202 -13.890   2.258  0.00  0.00    -0.100 Cl
ENDBRANCH   2   5
TORSDOF 1
ENDMDL
MODEL 4
REMARK VINA RESULT:      -4.1      2.921      3.229
REMARK  Name = *****
REMARK                            x       y       z     vdW  Elec       q    Type
REMARK                         _______ _______ _______ _____ _____    ______ ____
ROOT
ATOM      1  F   LIG    1       23.867 -21.368   2.937  0.00  0.00    -0.168 F 
ATOM      2  C   LIG    1       24.147 -20.745   4.104  0.00  0.00    +0.415 C 
ATOM      3  F   LIG    1       24.895 -19.652   3.810  0.00  0.00    -0.168 F 
ATOM      4  F   LIG    1       24.944 -21.571   4.826  0.00  0.00    -0.168 F 
ENDROOT
BRANCH   2   5
ATOM      5  C   LIG    1       22.901 -20.361   4.885  0.00  0.00    +0.251 C 
ATOM      6 BR   LIG    1       22.321 -18.548   4.435  0.00  0.00    -0.061 Br
ATOM      7 CL   LIG    1       23.138 -20.452   6.649  0.00  0.00    -0.100 Cl
ENDBRANCH   2   5
TORSDOF 1
ENDMDL
MODEL 5
REMARK VINA RESULT:      -4.0      7.567      8.027
REMARK  Name = *****
REMARK                            x       y       z     vdW  Elec       q    Type
REMARK                         _______ _______ _______ _____ _____    ______ ____
ROOT
ATOM      1  F   LIG    1       25.840 -12.441   2.362  0.00  0.00    -0.168 F 
ATOM      2  C   LIG    1       26.677 -13.376   2.864  0.00  0.00    +0.415 C 
ATOM      3  F   LIG    1       27.830 -12.748   3.203  0.00  0.00    -0.168 F 
ATOM      4  F   LIG    1       26.987 -14.228   1.856  0.00  0.00    -0.168 F 
ENDROOT
BRANCH   2   5
ATOM      5  C   LIG    1       26.090 -14.120   4.053  0.00  0.00    +0.251 C 
ATOM      6 BR   LIG    1       24.139 -13.984   4.075  0.00  0.00    -0.061 Br
ATOM      7 CL   LIG    1       26.712 -13.523   5.614  0.00  0.00    -0.100 Cl
ENDBRANCH   2   5
TORSDOF 1
ENDMDL
MODEL 6
REMARK VINA RESULT:      -4.0      6.637      7.163
REMARK  Name = *****
REMARK                            x       y       z     vdW  Elec       q    Type
REMARK                         _______ _______ _______ _____ _____    ______ ____
ROOT
ATOM      1  F   LIG    1       23.354 -14.568   4.329  0.00  0.00    -0.168 F 
ATOM      2  C   LIG    1       24.332 -13.645   4.192  0.00  0.00    +0.415 C 
ATOM      3  F   LIG    1       25.352 -14.011   5.007  0.00  0.00    -0.168 F 
ATOM      4  F   LIG    1       23.856 -12.472   4.678  0.00  0.00    -0.168 F 
ENDROOT
BRANCH   2   5
ATOM      5  C   LIG    1       24.808 -13.493   2.756  0.00  0.00    +0.251 C 
ATOM      6 BR   LIG    1       26.718 -13.887   2.604  0.00  0.00    -0.061 Br
ATOM      7 CL   LIG    1       24.518 -11.860   2.103  0.00  0.00    -0.100 Cl
ENDBRANCH   2   5
TORSDOF 1
ENDMDL
MODEL 7
REMARK VINA RESULT:      -4.0      2.559      2.851
REMARK  Name = *****
REMARK                            x       y       z     vdW  Elec       q    Type
REMARK                         _______ _______ _______ _____ _____    ______ ____
ROOT
ATOM      1  F   LIG    1       25.452 -18.897   3.622  0.00  0.00    -0.168 F 
ATOM      2  C   LIG    1       24.438 -19.759   3.859  0.00  0.00    +0.415 C 
ATOM      3  F   LIG    1       24.208 -20.441   2.710  0.00  0.00    -0.168 F 
ATOM      4  F   LIG    1       23.324 -19.023   4.097  0.00  0.00    -0.168 F 
ENDROOT
BRANCH   2   5
ATOM      5  C   LIG    1       24.725 -20.710   5.010  0.00  0.00    +0.251 C 
ATOM      6 BR   LIG    1       23.291 -20.659   6.339  0.00  0.00    -0.061 Br
ATOM      7 CL   LIG    1       26.266 -20.351   5.832  0.00  0.00    -0.100 Cl
ENDBRANCH   2   5
TORSDOF 1
ENDMDL
MODEL 8
REMARK VINA RESULT:      -4.0      2.378      2.764
REMARK  Name = *****
REMARK                            x       y       z     vdW  Elec       q    Type
REMARK                         _______ _______ _______ _____ _____    ______ ____
ROOT
ATOM      1  F   LIG    1       21.238 -18.735   3.700  0.00  0.00    -0.168 F 
ATOM      2  C   LIG    1       22.361 -18.597   4.439  0.00  0.00    +0.415 C 
ATOM      3  F   LIG    1       22.200 -17.500   5.220  0.00  0.00    -0.168 F 
ATOM      4  F   LIG    1       23.378 -18.314   3.587  0.00  0.00    -0.168 F 
ENDROOT
BRANCH   2   5
ATOM      5  C   LIG    1       22.673 -19.825   5.280  0.00  0.00    +0.251 C 
ATOM      6 BR   LIG    1       24.535 -20.377   5.055  0.00  0.00    -0.061 Br
ATOM      7 CL   LIG    1       21.624 -21.212   4.888  0.00  0.00    -0.100 Cl
ENDBRANCH   2   5
TORSDOF 1
ENDMDL
MODEL 9
REMARK VINA RESULT:      -4.0      6.765      7.290
REMARK  Name = *****
REMARK                            x       y       z     vdW  Elec       q    Type
REMARK                         _______ _______ _______ _____ _____    ______ ____
ROOT
ATOM      1  F   LIG    1       27.169 -14.156   2.022  0.00  0.00    -0.168 F 
ATOM      2  C   LIG    1       26.588 -14.455   3.206  0.00  0.00    +0.415 C 
ATOM      3  F   LIG    1       27.563 -14.448   4.149  0.00  0.00    -0.168 F 
ATOM      4  F   LIG    1       26.139 -15.732   3.128  0.00  0.00    -0.168 F 
ENDROOT
BRANCH   2   5
ATOM      5  C   LIG    1       25.466 -13.497   3.574  0.00  0.00    +0.251 C 
ATOM      6 BR   LIG    1       23.887 -14.471   4.194  0.00  0.00    -0.061 Br
ATOM      7 CL   LIG    1       24.982 -12.449   2.217  0.00  0.00    -0.100 Cl
ENDBRANCH   2   5
TORSDOF 1
ENDMDL
