MODEL 1
REMARK VINA RESULT:      -5.7      0.000      0.000
REMARK  Name = *****
REMARK                            x       y       z     vdW  Elec       q    Type
REMARK                         _______ _______ _______ _____ _____    ______ ____
ROOT
ATOM      1  C   LIG    1       24.442 -15.772   3.956  0.00  0.00    -0.034 A 
ATOM      2  C   LIG    1       23.149 -15.720   4.495  0.00  0.00    +0.005 A 
ATOM      3  C   LIG    1       22.381 -16.882   4.620  0.00  0.00    +0.004 A 
ATOM      4  C   LIG    1       22.892 -18.121   4.219  0.00  0.00    -0.047 A 
ATOM      5  C   LIG    1       24.176 -18.173   3.667  0.00  0.00    +0.004 A 
ATOM      6  C   LIG    1       24.944 -17.012   3.535  0.00  0.00    +0.005 A 
ENDROOT
BRANCH   1   8
ATOM      7  C   LIG    1       25.487 -13.810   5.142  0.00  0.00    +0.024 C 
ATOM      8  C   LIG    1       25.252 -14.493   3.790  0.00  0.00    +0.124 C 
BRANCH   8   9
ATOM      9  C   LIG    1       26.579 -14.680   3.055  0.00  0.00    +0.312 C 
ATOM     10  O   LIG    1       26.734 -14.442   1.861  0.00  0.00    -0.250 OA
BRANCH   9  11
ATOM     11  O   LIG    1       27.584 -15.213   3.788  0.00  0.00    -0.480 OA
ATOM     12  H   LIG    1       27.344 -15.430   4.710  0.00  0.00    +0.295 HD
ENDBRANCH   9  11
ENDBRANCH   8   9
ENDBRANCH   1   8
BRANCH   4  13
ATOM     13  C   LIG    1       22.074 -19.383   4.368  0.00  0.00    +0.046 C 
BRANCH  13  14
ATOM     14  C   LIG    1       22.711 -20.423   5.289  0.00  0.00    +0.059 C 
ATOM     15  C   LIG    1       23.946 -21.036   4.662  0.00  0.00    +0.137 C 
ATOM     16  O   LIG    1       24.010 -21.420   3.501  0.00  0.00    -0.297 OA
ATOM     17  C   LIG    1       25.099 -21.111   5.630  0.00  0.00    +0.075 C 
ATOM     18  C   LIG    1       24.417 -20.803   6.955  0.00  0.00    +0.008 C 
ATOM     19  C   LIG    1       23.290 -19.846   6.586  0.00  0.00    +0.012 C 
ENDBRANCH  13  14
ENDBRANCH   4  13
TORSDOF 5
ENDMDL
MODEL 2
REMARK VINA RESULT:      -5.7      1.471      6.483
REMARK  Name = *****
REMARK                            x       y       z     vdW  Elec       q    Type
REMARK                         _______ _______ _______ _____ _____    ______ ____
ROOT
ATOM      1  C   LIG    1       23.756 -19.160   3.984  0.00  0.00    -0.034 A 
ATOM      2  C   LIG    1       22.820 -18.202   4.400  0.00  0.00    +0.005 A 
ATOM      3  C   LIG    1       23.129 -16.838   4.360  0.00  0.00    +0.004 A 
ATOM      4  C   LIG    1       24.374 -16.403   3.892  0.00  0.00    -0.047 A 
ATOM      5  C   LIG    1       25.314 -17.357   3.491  0.00  0.00    +0.004 A 
ATOM      6  C   LIG    1       25.010 -18.721   3.536  0.00  0.00    +0.005 A 
ENDROOT
BRANCH   1   8
ATOM      7  C   LIG    1       24.692 -21.489   4.190  0.00  0.00    +0.024 C 
ATOM      8  C   LIG    1       23.420 -20.642   4.071  0.00  0.00    +0.124 C 
BRANCH   8   9
ATOM      9  C   LIG    1       22.441 -21.000   5.189  0.00  0.00    +0.312 C 
ATOM     10  O   LIG    1       22.745 -21.018   6.377  0.00  0.00    -0.250 OA
BRANCH   9  11
ATOM     11  O   LIG    1       21.208 -21.385   4.786  0.00  0.00    -0.480 OA
ATOM     12  H   LIG    1       20.739 -20.732   4.230  0.00  0.00    +0.295 HD
ENDBRANCH   9  11
ENDBRANCH   8   9
ENDBRANCH   1   8
BRANCH   4  13
ATOM     13  C   LIG    1       24.707 -14.929   3.829  0.00  0.00    +0.046 C 
BRANCH  13  14
ATOM     14  C   LIG    1       26.168 -14.617   4.148  0.00  0.00    +0.059 C 
ATOM     15  C   LIG    1       26.873 -13.991   2.962  0.00  0.00    +0.137 C 
ATOM     16  O   LIG    1       26.781 -14.403   1.812  0.00  0.00    -0.297 OA
ATOM     17  C   LIG    1       27.696 -12.792   3.356  0.00  0.00    +0.075 C 
ATOM     18  C   LIG    1       27.708 -12.904   4.873  0.00  0.00    +0.008 C 
ATOM     19  C   LIG    1       26.364 -13.534   5.215  0.00  0.00    +0.012 C 
ENDBRANCH  13  14
ENDBRANCH   4  13
TORSDOF 5
ENDMDL
MODEL 3
REMARK VINA RESULT:      -5.6      1.385      2.165
REMARK  Name = *****
REMARK                            x       y       z     vdW  Elec       q    Type
REMARK                         _______ _______ _______ _____ _____    ______ ____
ROOT
ATOM      1  C   LIG    1       24.788 -15.869   3.863  0.00  0.00    -0.034 A 
ATOM      2  C   LIG    1       25.855 -16.677   3.445  0.00  0.00    +0.005 A 
ATOM      3  C   LIG    1       25.694 -18.060   3.312  0.00  0.00    +0.004 A 
ATOM      4  C   LIG    1       24.460 -18.663   3.583  0.00  0.00    -0.047 A 
ATOM      5  C   LIG    1       23.399 -17.860   4.015  0.00  0.00    +0.004 A 
ATOM      6  C   LIG    1       23.560 -16.479   4.154  0.00  0.00    +0.005 A 
ENDROOT
BRANCH   1   8
ATOM      7  C   LIG    1       26.316 -14.073   4.750  0.00  0.00    +0.024 C 
ATOM      8  C   LIG    1       24.990 -14.370   4.040  0.00  0.00    +0.124 C 
BRANCH   8   9
ATOM      9  C   LIG    1       24.893 -13.565   2.744  0.00  0.00    +0.312 C 
ATOM     10  O   LIG    1       25.846 -13.364   1.997  0.00  0.00    -0.250 OA
BRANCH   9  11
ATOM     11  O   LIG    1       23.689 -13.002   2.493  0.00  0.00    -0.480 OA
ATOM     12  H   LIG    1       22.923 -13.531   2.790  0.00  0.00    +0.295 HD
ENDBRANCH   9  11
ENDBRANCH   8   9
ENDBRANCH   1   8
BRANCH   4  13
ATOM     13  C   LIG    1       24.274 -20.155   3.425  0.00  0.00    +0.046 C 
BRANCH  13  14
ATOM     14  C   LIG    1       24.064 -20.891   4.748  0.00  0.00    +0.059 C 
ATOM     15  C   LIG    1       25.286 -20.790   5.638  0.00  0.00    +0.137 C 
ATOM     16  O   LIG    1       26.435 -20.960   5.251  0.00  0.00    -0.297 OA
ATOM     17  C   LIG    1       24.927 -20.446   7.061  0.00  0.00    +0.075 C 
ATOM     18  C   LIG    1       23.419 -20.647   7.062  0.00  0.00    +0.008 C 
ATOM     19  C   LIG    1       22.988 -20.274   5.649  0.00  0.00    +0.012 C 
ENDBRANCH  13  14
ENDBRANCH   4  13
TORSDOF 5
ENDMDL
MODEL 4
REMARK VINA RESULT:      -5.3      1.522      2.385
REMARK  Name = *****
REMARK                            x       y       z     vdW  Elec       q    Type
REMARK                         _______ _______ _______ _____ _____    ______ ____
ROOT
ATOM      1  C   LIG    1       25.403 -14.904   3.628  0.00  0.00    -0.034 A 
ATOM      2  C   LIG    1       26.374 -15.858   3.291  0.00  0.00    +0.005 A 
ATOM      3  C   LIG    1       26.073 -17.223   3.316  0.00  0.00    +0.004 A 
ATOM      4  C   LIG    1       24.792 -17.664   3.666  0.00  0.00    -0.047 A 
ATOM      5  C   LIG    1       23.826 -16.716   4.017  0.00  0.00    +0.004 A 
ATOM      6  C   LIG    1       24.126 -15.351   3.999  0.00  0.00    +0.005 A 
ENDROOT
BRANCH   1   8
ATOM      7  C   LIG    1       24.813 -12.635   4.549  0.00  0.00    +0.024 C 
ATOM      8  C   LIG    1       25.757 -13.424   3.635  0.00  0.00    +0.124 C 
BRANCH   8   9
ATOM      9  C   LIG    1       27.213 -13.127   3.997  0.00  0.00    +0.312 C 
ATOM     10  O   LIG    1       27.609 -12.981   5.148  0.00  0.00    -0.250 OA
BRANCH   9  11
ATOM     11  O   LIG    1       28.051 -12.951   2.950  0.00  0.00    -0.480 OA
ATOM     12  H   LIG    1       28.506 -13.762   2.651  0.00  0.00    +0.295 HD
ENDBRANCH   9  11
ENDBRANCH   8   9
ENDBRANCH   1   8
BRANCH   4  13
ATOM     13  C   LIG    1       24.454 -19.138   3.677  0.00  0.00    +0.046 C 
BRANCH  13  14
ATOM     14  C   LIG    1       23.890 -19.628   5.011  0.00  0.00    +0.059 C 
ATOM     15  C   LIG    1       22.448 -20.071   4.873  0.00  0.00    +0.137 C 
ATOM     16  O   LIG    1       21.589 -19.440   4.270  0.00  0.00    -0.297 OA
ATOM     17  C   LIG    1       22.189 -21.388   5.557  0.00  0.00    +0.075 C 
ATOM     18  C   LIG    1       23.458 -21.572   6.376  0.00  0.00    +0.008 C 
ATOM     19  C   LIG    1       24.546 -20.908   5.540  0.00  0.00    +0.012 C 
ENDBRANCH  13  14
ENDBRANCH   4  13
TORSDOF 5
ENDMDL
MODEL 5
REMARK VINA RESULT:      -5.0      1.763      6.350
REMARK  Name = *****
REMARK                            x       y       z     vdW  Elec       q    Type
REMARK                         _______ _______ _______ _____ _____    ______ ____
ROOT
ATOM      1  C   LIG    1       23.499 -18.206   4.085  0.00  0.00    -0.034 A 
ATOM      2  C   LIG    1       24.680 -17.580   3.659  0.00  0.00    +0.005 A 
ATOM      3  C   LIG    1       24.816 -16.190   3.731  0.00  0.00    +0.004 A 
ATOM      4  C   LIG    1       23.781 -15.397   4.239  0.00  0.00    -0.047 A 
ATOM      5  C   LIG    1       22.597 -16.018   4.650  0.00  0.00    +0.004 A 
ATOM      6  C   LIG    1       22.456 -17.407   4.574  0.00  0.00    +0.005 A 
ENDROOT
BRANCH   1   8
ATOM      7  C   LIG    1       24.705 -20.384   3.702  0.00  0.00    +0.024 C 
ATOM      8  C   LIG    1       23.350 -19.716   3.964  0.00  0.00    +0.124 C 
BRANCH   8   9
ATOM      9  C   LIG    1       22.657 -20.376   5.157  0.00  0.00    +0.312 C 
ATOM     10  O   LIG    1       22.978 -20.176   6.323  0.00  0.00    -0.250 OA
BRANCH   9  11
ATOM     11  O   LIG    1       21.698 -21.279   4.849  0.00  0.00    -0.480 OA
ATOM     12  H   LIG    1       21.513 -21.932   5.552  0.00  0.00    +0.295 HD
ENDBRANCH   9  11
ENDBRANCH   8   9
ENDBRANCH   1   8
BRANCH   4  13
ATOM     13  C   LIG    1       23.929 -13.896   4.336  0.00  0.00    +0.046 C 
BRANCH  13  14
ATOM     14  C   LIG    1       25.240 -13.370   3.752  0.00  0.00    +0.059 C 
ATOM     15  C   LIG    1       26.419 -13.713   4.639  0.00  0.00    +0.137 C 
ATOM     16  O   LIG    1       26.427 -13.578   5.856  0.00  0.00    -0.297 OA
ATOM     17  C   LIG    1       27.585 -14.253   3.852  0.00  0.00    +0.075 C 
ATOM     18  C   LIG    1       27.175 -13.932   2.423  0.00  0.00    +0.008 C 
ATOM     19  C   LIG    1       25.655 -14.034   2.434  0.00  0.00    +0.012 C 
ENDBRANCH  13  14
ENDBRANCH   4  13
TORSDOF 5
ENDMDL
MODEL 6
REMARK VINA RESULT:      -4.7      1.675      6.565
REMARK  Name = *****
REMARK                            x       y       z     vdW  Elec       q    Type
REMARK                         _______ _______ _______ _____ _____    ______ ____
ROOT
ATOM      1  C   LIG    1       24.811 -19.679   4.384  0.00  0.00    -0.034 A 
ATOM      2  C   LIG    1       23.838 -18.695   4.159  0.00  0.00    +0.005 A 
ATOM      3  C   LIG    1       24.198 -17.430   3.683  0.00  0.00    +0.004 A 
ATOM      4  C   LIG    1       25.537 -17.126   3.411  0.00  0.00    -0.047 A 
ATOM      5  C   LIG    1       26.511 -18.102   3.649  0.00  0.00    +0.004 A 
ATOM      6  C   LIG    1       26.153 -19.364   4.130  0.00  0.00    +0.005 A 
ENDROOT
BRANCH   1   8
ATOM      7  C   LIG    1       25.465 -21.572   5.913  0.00  0.00    +0.024 C 
ATOM      8  C   LIG    1       24.407 -21.038   4.940  0.00  0.00    +0.124 C 
BRANCH   8   9
ATOM      9  C   LIG    1       23.026 -21.064   5.595  0.00  0.00    +0.312 C 
ATOM     10  O   LIG    1       22.826 -20.769   6.768  0.00  0.00    -0.250 OA
BRANCH   9  11
ATOM     11  O   LIG    1       22.018 -21.518   4.815  0.00  0.00    -0.480 OA
ATOM     12  H   LIG    1       21.846 -22.477   4.888  0.00  0.00    +0.295 HD
ENDBRANCH   9  11
ENDBRANCH   8   9
ENDBRANCH   1   8
BRANCH   4  13
ATOM     13  C   LIG    1       25.932 -15.767   2.880  0.00  0.00    +0.046 C 
BRANCH  13  14
ATOM     14  C   LIG    1       25.549 -14.612   3.804  0.00  0.00    +0.059 C 
ATOM     15  C   LIG    1       25.880 -13.271   3.182  0.00  0.00    +0.137 C 
ATOM     16  O   LIG    1       26.938 -13.015   2.621  0.00  0.00    -0.297 OA
ATOM     17  C   LIG    1       24.751 -12.283   3.323  0.00  0.00    +0.075 C 
ATOM     18  C   LIG    1       23.845 -12.982   4.325  0.00  0.00    +0.008 C 
ATOM     19  C   LIG    1       24.041 -14.466   4.041  0.00  0.00    +0.012 C 
ENDBRANCH  13  14
ENDBRANCH   4  13
TORSDOF 5
ENDMDL
MODEL 7
REMARK VINA RESULT:      -4.6      1.601      2.700
REMARK  Name = *****
REMARK                            x       y       z     vdW  Elec       q    Type
REMARK                         _______ _______ _______ _____ _____    ______ ____
ROOT
ATOM      1  C   LIG    1       26.141 -14.973   3.663  0.00  0.00    -0.034 A 
ATOM      2  C   LIG    1       27.238 -15.837   3.789  0.00  0.00    +0.005 A 
ATOM      3  C   LIG    1       27.070 -17.223   3.696  0.00  0.00    +0.004 A 
ATOM      4  C   LIG    1       25.804 -17.773   3.463  0.00  0.00    -0.047 A 
ATOM      5  C   LIG    1       24.707 -16.913   3.352  0.00  0.00    +0.004 A 
ATOM      6  C   LIG    1       24.871 -15.529   3.451  0.00  0.00    +0.005 A 
ENDROOT
BRANCH   1   8
ATOM      7  C   LIG    1       25.098 -12.813   4.432  0.00  0.00    +0.024 C 
ATOM      8  C   LIG    1       26.334 -13.470   3.806  0.00  0.00    +0.124 C 
BRANCH   8   9
ATOM      9  C   LIG    1       27.592 -13.068   4.577  0.00  0.00    +0.312 C 
ATOM     10  O   LIG    1       28.671 -12.838   4.040  0.00  0.00    -0.250 OA
BRANCH   9  11
ATOM     11  O   LIG    1       27.475 -13.056   5.924  0.00  0.00    -0.480 OA
ATOM     12  H   LIG    1       27.297 -13.929   6.325  0.00  0.00    +0.295 HD
ENDBRANCH   9  11
ENDBRANCH   8   9
ENDBRANCH   1   8
BRANCH   4  13
ATOM     13  C   LIG    1       25.618 -19.268   3.343  0.00  0.00    +0.046 C 
BRANCH  13  14
ATOM     14  C   LIG    1       24.217 -19.745   3.725  0.00  0.00    +0.059 C 
ATOM     15  C   LIG    1       24.253 -20.657   4.934  0.00  0.00    +0.137 C 
ATOM     16  O   LIG    1       25.054 -21.572   5.082  0.00  0.00    -0.297 OA
ATOM     17  C   LIG    1       23.192 -20.305   5.945  0.00  0.00    +0.075 C 
ATOM     18  C   LIG    1       22.317 -19.340   5.159  0.00  0.00    +0.008 C 
ATOM     19  C   LIG    1       23.285 -18.632   4.218  0.00  0.00    +0.012 C 
ENDBRANCH  13  14
ENDBRANCH   4  13
TORSDOF 5
ENDMDL
MODEL 8
REMARK VINA RESULT:      -4.3      2.130      6.808
REMARK  Name = *****
REMARK                            x       y       z     vdW  Elec       q    Type
REMARK                         _______ _______ _______ _____ _____    ______ ____
ROOT
ATOM      1  C   LIG    1       24.077 -18.842   3.924  0.00  0.00    -0.034 A 
ATOM      2  C   LIG    1       25.392 -18.628   3.489  0.00  0.00    +0.005 A 
ATOM      3  C   LIG    1       25.882 -17.331   3.308  0.00  0.00    +0.004 A 
ATOM      4  C   LIG    1       25.072 -16.220   3.568  0.00  0.00    -0.047 A 
ATOM      5  C   LIG    1       23.754 -16.431   3.988  0.00  0.00    +0.004 A 
ATOM      6  C   LIG    1       23.261 -17.727   4.164  0.00  0.00    +0.005 A 
ENDROOT
BRANCH   1   8
ATOM      7  C   LIG    1       24.196 -21.207   3.064  0.00  0.00    +0.024 C 
ATOM      8  C   LIG    1       23.545 -20.260   4.080  0.00  0.00    +0.124 C 
BRANCH   8   9
ATOM      9  C   LIG    1       23.677 -20.830   5.493  0.00  0.00    +0.312 C 
ATOM     10  O   LIG    1       22.720 -21.191   6.170  0.00  0.00    -0.250 OA
BRANCH   9  11
ATOM     11  O   LIG    1       24.929 -20.841   6.004  0.00  0.00    -0.480 OA
ATOM     12  H   LIG    1       25.035 -20.338   6.835  0.00  0.00    +0.295 HD
ENDBRANCH   9  11
ENDBRANCH   8   9
ENDBRANCH   1   8
BRANCH   4  13
ATOM     13  C   LIG    1       25.600 -14.815   3.391  0.00  0.00    +0.046 C 
BRANCH  13  14
ATOM     14  C   LIG    1       24.556 -13.827   2.871  0.00  0.00    +0.059 C 
ATOM     15  C   LIG    1       24.103 -12.877   3.959  0.00  0.00    +0.137 C 
ATOM     16  O   LIG    1       23.811 -13.222   5.097  0.00  0.00    -0.297 OA
ATOM     17  C   LIG    1       24.059 -11.447   3.485  0.00  0.00    +0.075 C 
ATOM     18  C   LIG    1       24.207 -11.611   1.980  0.00  0.00    +0.008 C 
ATOM     19  C   LIG    1       25.085 -12.846   1.819  0.00  0.00    +0.012 C 
ENDBRANCH  13  14
ENDBRANCH   4  13
TORSDOF 5
ENDMDL
MODEL 9
REMARK VINA RESULT:      -4.1      1.578      2.342
REMARK  Name = *****
REMARK                            x       y       z     vdW  Elec       q    Type
REMARK                         _______ _______ _______ _____ _____    ______ ____
ROOT
ATOM      1  C   LIG    1       25.440 -14.949   3.351  0.00  0.00    -0.034 A 
ATOM      2  C   LIG    1       24.271 -14.431   3.927  0.00  0.00    +0.005 A 
ATOM      3  C   LIG    1       23.277 -15.286   4.414  0.00  0.00    +0.004 A 
ATOM      4  C   LIG    1       23.436 -16.675   4.348  0.00  0.00    -0.047 A 
ATOM      5  C   LIG    1       24.594 -17.193   3.760  0.00  0.00    +0.004 A 
ATOM      6  C   LIG    1       25.586 -16.341   3.266  0.00  0.00    +0.005 A 
ENDROOT
BRANCH   1   8
ATOM      7  C   LIG    1       25.850 -12.756   2.180  0.00  0.00    +0.024 C 
ATOM      8  C   LIG    1       26.496 -14.006   2.788  0.00  0.00    +0.124 C 
BRANCH   8   9
ATOM      9  C   LIG    1       27.580 -13.607   3.790  0.00  0.00    +0.312 C 
ATOM     10  O   LIG    1       27.417 -13.620   5.006  0.00  0.00    -0.250 OA
BRANCH   9  11
ATOM     11  O   LIG    1       28.733 -13.150   3.252  0.00  0.00    -0.480 OA
ATOM     12  H   LIG    1       29.388 -12.831   3.904  0.00  0.00    +0.295 HD
ENDBRANCH   9  11
ENDBRANCH   8   9
ENDBRANCH   1   8
BRANCH   4  13
ATOM     13  C   LIG    1       22.373 -17.604   4.889  0.00  0.00    +0.046 C 
BRANCH  13  14
ATOM     14  C   LIG    1       22.448 -19.020   4.319  0.00  0.00    +0.059 C 
ATOM     15  C   LIG    1       23.090 -19.979   5.300  0.00  0.00    +0.137 C 
ATOM     16  O   LIG    1       24.111 -19.736   5.932  0.00  0.00    -0.297 OA
ATOM     17  C   LIG    1       22.324 -21.271   5.419  0.00  0.00    +0.075 C 
ATOM     18  C   LIG    1       21.365 -21.177   4.242  0.00  0.00    +0.008 C 
ATOM     19  C   LIG    1       21.084 -19.685   4.102  0.00  0.00    +0.012 C 
ENDBRANCH  13  14
ENDBRANCH   4  13
TORSDOF 5
ENDMDL
