MODEL 1
REMARK VINA RESULT:      -2.9      0.000      0.000
REMARK  Name = *****
REMARK                            x       y       z     vdW  Elec       q    Type
REMARK                         _______ _______ _______ _____ _____    ______ ____
ROOT
ATOM      1  C   LIG    1       21.883 -17.984   4.524  0.00  0.00    +0.084 C 
ENDROOT
BRANCH   1   2
ATOM      2  N   LIG    1       22.048 -19.351   4.011  0.00  0.00    -0.299 NA
ATOM      3  C   LIG    1       23.235 -19.543   3.151  0.00  0.00    +0.103 C 
ATOM      4  C   LIG    1       24.603 -19.543   3.867  0.00  0.00    +0.122 C 
ATOM      5  N   LIG    1       24.637 -20.495   5.001  0.00  0.00    -0.312 N 
ATOM      6  C   LIG    1       23.470 -20.351   5.901  0.00  0.00    +0.122 C 
ATOM      7  C   LIG    1       22.135 -20.338   5.119  0.00  0.00    +0.103 C 
BRANCH   5   8
ATOM      8  C   LIG    1       25.857 -20.585   5.636  0.00  0.00    +0.138 A 
ATOM      9  C   LIG    1       26.912 -19.613   5.389  0.00  0.00    +0.031 A 
ATOM     10  C   LIG    1       28.044 -19.929   6.145  0.00  0.00    +0.041 A 
ATOM     11  C   LIG    1       29.224 -19.170   6.095  0.00  0.00    +0.017 A 
ATOM     12  C   LIG    1       29.265 -18.062   5.247  0.00  0.00    +0.001 A 
ATOM     13  C   LIG    1       28.159 -17.717   4.478  0.00  0.00    +0.001 A 
ATOM     14  S   LIG    1       27.695 -21.335   7.061  0.00  0.00    +0.014 S 
ATOM     15  C   LIG    1       26.987 -18.480   4.540  0.00  0.00    +0.012 A 
ATOM     16  N   LIG    1       26.167 -21.560   6.491  0.00  0.00    -0.194 NA
ENDBRANCH   5   8
ENDBRANCH   1   2
BRANCH   1  17
ATOM     17  C   LIG    1       23.150 -17.114   4.520  0.00  0.00    +0.017 C 
BRANCH  17  18
ATOM     18  C   LIG    1       22.927 -15.644   4.880  0.00  0.00    +0.021 C 
BRANCH  18  19
ATOM     19  C   LIG    1       23.100 -14.777   3.631  0.00  0.00    +0.116 C 
BRANCH  19  22
ATOM     20  O   LIG    1       25.680 -15.509   2.497  0.00  0.00    -0.275 OA
ATOM     21  C   LIG    1       25.490 -14.437   3.065  0.00  0.00    +0.226 C 
ATOM     22  N   LIG    1       24.334 -14.024   3.669  0.00  0.00    -0.242 N 
ATOM     23  C   LIG    1       24.452 -12.789   4.253  0.00  0.00    +0.226 C 
ATOM     24  O   LIG    1       23.564 -12.130   4.766  0.00  0.00    -0.275 OA
ATOM     25  C   LIG    1       25.921 -12.417   4.253  0.00  0.00    +0.087 C 
ATOM     26  C   LIG    1       26.492 -12.736   5.637  0.00  0.00    +0.013 C 
ATOM     27  C   LIG    1       27.997 -12.952   5.609  0.00  0.00    +0.001 C 
ATOM     28  C   LIG    1       28.359 -14.064   4.634  0.00  0.00    +0.001 C 
ATOM     29  C   LIG    1       27.924 -13.711   3.217  0.00  0.00    +0.013 C 
ATOM     30  C   LIG    1       26.462 -13.290   3.115  0.00  0.00    +0.087 C 
ENDBRANCH  19  22
ENDBRANCH  18  19
ENDBRANCH  17  18
ENDBRANCH   1  17
TORSDOF 6
ENDMDL
MODEL 2
REMARK VINA RESULT:      -1.2      1.407      2.443
REMARK  Name = *****
REMARK                            x       y       z     vdW  Elec       q    Type
REMARK                         _______ _______ _______ _____ _____    ______ ____
ROOT
ATOM      1  C   LIG    1       22.109 -18.732   4.844  0.00  0.00    +0.084 C 
ENDROOT
BRANCH   1   2
ATOM      2  N   LIG    1       22.239 -20.189   4.989  0.00  0.00    -0.299 NA
ATOM      3  C   LIG    1       23.216 -20.811   4.071  0.00  0.00    +0.103 C 
ATOM      4  C   LIG    1       24.706 -20.549   4.381  0.00  0.00    +0.122 C 
ATOM      5  N   LIG    1       25.048 -20.877   5.784  0.00  0.00    -0.312 N 
ATOM      6  C   LIG    1       24.101 -20.280   6.755  0.00  0.00    +0.122 C 
ATOM      7  C   LIG    1       22.628 -20.562   6.374  0.00  0.00    +0.103 C 
BRANCH   5   8
ATOM      8  C   LIG    1       26.381 -20.725   6.099  0.00  0.00    +0.138 A 
ATOM      9  C   LIG    1       27.169 -19.633   5.547  0.00  0.00    +0.031 A 
ATOM     10  C   LIG    1       28.484 -19.706   6.013  0.00  0.00    +0.041 A 
ATOM     11  C   LIG    1       29.475 -18.786   5.631  0.00  0.00    +0.017 A 
ATOM     12  C   LIG    1       29.126 -17.766   4.743  0.00  0.00    +0.001 A 
ATOM     13  C   LIG    1       27.828 -17.663   4.257  0.00  0.00    +0.001 A 
ATOM     14  S   LIG    1       28.604 -21.058   7.059  0.00  0.00    +0.014 S 
ATOM     15  C   LIG    1       26.849 -18.583   4.648  0.00  0.00    +0.012 A 
ATOM     16  N   LIG    1       27.044 -21.560   6.899  0.00  0.00    -0.194 NA
ENDBRANCH   5   8
ENDBRANCH   1   2
BRANCH   1  17
ATOM     17  C   LIG    1       21.930 -18.220   3.406  0.00  0.00    +0.017 C 
BRANCH  17  18
ATOM     18  C   LIG    1       22.575 -16.863   3.118  0.00  0.00    +0.021 C 
BRANCH  18  19
ATOM     19  C   LIG    1       23.956 -16.801   3.775  0.00  0.00    +0.116 C 
BRANCH  19  22
ATOM     20  O   LIG    1       22.639 -14.500   4.978  0.00  0.00    -0.275 OA
ATOM     21  C   LIG    1       23.765 -14.435   4.492  0.00  0.00    +0.226 C 
ATOM     22  N   LIG    1       24.445 -15.444   3.865  0.00  0.00    -0.242 N 
ATOM     23  C   LIG    1       25.669 -15.044   3.391  0.00  0.00    +0.226 C 
ATOM     24  O   LIG    1       26.528 -15.747   2.889  0.00  0.00    -0.275 OA
ATOM     25  C   LIG    1       25.735 -13.534   3.500  0.00  0.00    +0.087 C 
ATOM     26  C   LIG    1       25.405 -12.944   2.127  0.00  0.00    +0.013 C 
ATOM     27  C   LIG    1       24.889 -11.517   2.216  0.00  0.00    +0.001 C 
ATOM     28  C   LIG    1       23.661 -11.449   3.113  0.00  0.00    +0.001 C 
ATOM     29  C   LIG    1       23.992 -11.901   4.530  0.00  0.00    +0.013 C 
ATOM     30  C   LIG    1       24.692 -13.255   4.588  0.00  0.00    +0.087 C 
ENDBRANCH  19  22
ENDBRANCH  18  19
ENDBRANCH  17  18
ENDBRANCH   1  17
TORSDOF 6
ENDMDL
