MODEL 1
REMARK VINA RESULT:      -5.4      0.000      0.000
REMARK  Name = *****
REMARK                            x       y       z     vdW  Elec       q    Type
REMARK                         _______ _______ _______ _____ _____    ______ ____
ROOT
ATOM      1  C   LIG    1       27.915 -20.356   6.753  0.00  0.00    +0.059 C 
ATOM      2  C   LIG    1       27.073 -20.634   5.526  0.00  0.00    +0.037 C 
ATOM      3  C   LIG    1       27.983 -19.428   5.580  0.00  0.00    +0.029 C 
ENDROOT
BRANCH   2   4
ATOM      4  C   LIG    1       25.574 -20.456   5.583  0.00  0.00    -0.043 A 
ATOM      5  C   LIG    1       24.863 -19.915   4.499  0.00  0.00    +0.004 A 
ATOM      6  C   LIG    1       23.479 -19.734   4.551  0.00  0.00    +0.000 A 
ATOM      7  C   LIG    1       22.775 -20.087   5.698  0.00  0.00    +0.000 A 
ATOM      8  C   LIG    1       23.454 -20.617   6.791  0.00  0.00    +0.000 A 
ATOM      9  C   LIG    1       24.839 -20.794   6.732  0.00  0.00    +0.004 A 
ENDBRANCH   2   4
BRANCH   1  10
ATOM     10  N   LIG    1       29.058 -21.216   7.062  0.00  0.00    -0.327 NA
ATOM     11  H   LIG    1       29.937 -20.704   7.011  0.00  0.00    +0.118 HD
ATOM     12  H   LIG    1       28.992 -21.567   8.017  0.00  0.00    +0.118 HD
ENDBRANCH   1  10
TORSDOF 2
ENDMDL
MODEL 2
REMARK VINA RESULT:      -5.4      2.764      4.438
REMARK  Name = *****
REMARK                            x       y       z     vdW  Elec       q    Type
REMARK                         _______ _______ _______ _____ _____    ______ ____
ROOT
ATOM      1  C   LIG    1       22.614 -19.343   5.039  0.00  0.00    +0.059 C 
ATOM      2  C   LIG    1       23.641 -20.339   4.543  0.00  0.00    +0.037 C 
ATOM      3  C   LIG    1       22.347 -20.810   5.166  0.00  0.00    +0.029 C 
ENDROOT
BRANCH   2   4
ATOM      4  C   LIG    1       24.947 -20.510   5.285  0.00  0.00    -0.043 A 
ATOM      5  C   LIG    1       26.108 -19.831   4.879  0.00  0.00    +0.004 A 
ATOM      6  C   LIG    1       27.321 -19.996   5.551  0.00  0.00    +0.000 A 
ATOM      7  C   LIG    1       27.400 -20.853   6.645  0.00  0.00    +0.000 A 
ATOM      8  C   LIG    1       26.267 -21.546   7.062  0.00  0.00    +0.000 A 
ATOM      9  C   LIG    1       25.056 -21.377   6.385  0.00  0.00    +0.004 A 
ENDBRANCH   2   4
BRANCH   1  10
ATOM     10  N   LIG    1       21.848 -18.549   4.078  0.00  0.00    -0.327 NA
ATOM     11  H   LIG    1       21.095 -19.092   3.658  0.00  0.00    +0.118 HD
ATOM     12  H   LIG    1       21.399 -17.761   4.544  0.00  0.00    +0.118 HD
ENDBRANCH   1  10
TORSDOF 2
ENDMDL
MODEL 3
REMARK VINA RESULT:      -5.2      6.966      7.546
REMARK  Name = *****
REMARK                            x       y       z     vdW  Elec       q    Type
REMARK                         _______ _______ _______ _____ _____    ______ ____
ROOT
ATOM      1  C   LIG    1       28.455 -12.165   4.561  0.00  0.00    +0.059 C 
ATOM      2  C   LIG    1       27.680 -13.465   4.514  0.00  0.00    +0.037 C 
ATOM      3  C   LIG    1       28.888 -13.254   3.630  0.00  0.00    +0.029 C 
ENDROOT
BRANCH   2   4
ATOM      4  C   LIG    1       26.295 -13.496   3.911  0.00  0.00    -0.043 A 
ATOM      5  C   LIG    1       26.061 -13.044   2.602  0.00  0.00    +0.004 A 
ATOM      6  C   LIG    1       24.780 -13.057   2.044  0.00  0.00    +0.000 A 
ATOM      7  C   LIG    1       23.701 -13.518   2.791  0.00  0.00    +0.000 A 
ATOM      8  C   LIG    1       23.902 -13.962   4.095  0.00  0.00    +0.000 A 
ATOM      9  C   LIG    1       25.186 -13.947   4.647  0.00  0.00    +0.004 A 
ENDBRANCH   2   4
BRANCH   1  10
ATOM     10  N   LIG    1       29.273 -11.847   5.732  0.00  0.00    -0.327 NA
ATOM     11  H   LIG    1       29.095 -12.491   6.501  0.00  0.00    +0.118 HD
ATOM     12  H   LIG    1       30.264 -11.941   5.511  0.00  0.00    +0.118 HD
ENDBRANCH   1  10
TORSDOF 2
ENDMDL
MODEL 4
REMARK VINA RESULT:      -5.0      0.410      1.571
REMARK  Name = *****
REMARK                            x       y       z     vdW  Elec       q    Type
REMARK                         _______ _______ _______ _____ _____    ______ ____
ROOT
ATOM      1  C   LIG    1       28.232 -20.117   6.775  0.00  0.00    +0.059 C 
ATOM      2  C   LIG    1       27.356 -20.504   5.602  0.00  0.00    +0.037 C 
ATOM      3  C   LIG    1       28.154 -19.220   5.578  0.00  0.00    +0.029 C 
ENDROOT
BRANCH   2   4
ATOM      4  C   LIG    1       25.851 -20.459   5.737  0.00  0.00    -0.043 A 
ATOM      5  C   LIG    1       25.217 -20.829   6.935  0.00  0.00    +0.004 A 
ATOM      6  C   LIG    1       23.826 -20.804   7.062  0.00  0.00    +0.000 A 
ATOM      7  C   LIG    1       23.037 -20.414   5.985  0.00  0.00    +0.000 A 
ATOM      8  C   LIG    1       23.638 -20.052   4.783  0.00  0.00    +0.000 A 
ATOM      9  C   LIG    1       25.031 -20.079   4.663  0.00  0.00    +0.004 A 
ENDBRANCH   2   4
BRANCH   1  10
ATOM     10  N   LIG    1       29.463 -20.862   7.040  0.00  0.00    -0.327 NA
ATOM     11  H   LIG    1       29.446 -21.783   6.604  0.00  0.00    +0.118 HD
ATOM     12  H   LIG    1       30.267 -20.377   6.642  0.00  0.00    +0.118 HD
ENDBRANCH   1  10
TORSDOF 2
ENDMDL
MODEL 5
REMARK VINA RESULT:      -4.9      6.688      7.292
REMARK  Name = *****
REMARK                            x       y       z     vdW  Elec       q    Type
REMARK                         _______ _______ _______ _____ _____    ______ ____
ROOT
ATOM      1  C   LIG    1       26.183 -16.071   3.621  0.00  0.00    +0.059 C 
ATOM      2  C   LIG    1       26.364 -14.799   2.819  0.00  0.00    +0.037 C 
ATOM      3  C   LIG    1       27.346 -15.172   3.906  0.00  0.00    +0.029 C 
ENDROOT
BRANCH   2   4
ATOM      4  C   LIG    1       25.416 -13.639   3.019  0.00  0.00    -0.043 A 
ATOM      5  C   LIG    1       24.994 -12.849   1.937  0.00  0.00    +0.004 A 
ATOM      6  C   LIG    1       24.129 -11.767   2.117  0.00  0.00    +0.000 A 
ATOM      7  C   LIG    1       23.673 -11.447   3.392  0.00  0.00    +0.000 A 
ATOM      8  C   LIG    1       24.083 -12.207   4.484  0.00  0.00    +0.000 A 
ATOM      9  C   LIG    1       24.948 -13.288   4.296  0.00  0.00    +0.004 A 
ENDBRANCH   2   4
BRANCH   1  10
ATOM     10  N   LIG    1       26.411 -17.369   2.986  0.00  0.00    -0.327 NA
ATOM     11  H   LIG    1       27.276 -17.378   2.448  0.00  0.00    +0.118 HD
ATOM     12  H   LIG    1       26.512 -18.098   3.692  0.00  0.00    +0.118 HD
ENDBRANCH   1  10
TORSDOF 2
ENDMDL
MODEL 6
REMARK VINA RESULT:      -4.5      2.426      3.262
REMARK  Name = *****
REMARK                            x       y       z     vdW  Elec       q    Type
REMARK                         _______ _______ _______ _____ _____    ______ ____
ROOT
ATOM      1  C   LIG    1       25.411 -18.226   3.482  0.00  0.00    +0.059 C 
ATOM      2  C   LIG    1       25.750 -19.599   4.025  0.00  0.00    +0.037 C 
ATOM      3  C   LIG    1       25.324 -19.423   2.586  0.00  0.00    +0.029 C 
ENDROOT
BRANCH   2   4
ATOM      4  C   LIG    1       24.825 -20.269   5.014  0.00  0.00    -0.043 A 
ATOM      5  C   LIG    1       25.326 -20.924   6.151  0.00  0.00    +0.004 A 
ATOM      6  C   LIG    1       24.477 -21.558   7.062  0.00  0.00    +0.000 A 
ATOM      7  C   LIG    1       23.102 -21.555   6.847  0.00  0.00    +0.000 A 
ATOM      8  C   LIG    1       22.579 -20.923   5.723  0.00  0.00    +0.000 A 
ATOM      9  C   LIG    1       23.434 -20.291   4.817  0.00  0.00    +0.004 A 
ENDBRANCH   2   4
BRANCH   1  10
ATOM     10  N   LIG    1       26.475 -17.244   3.274  0.00  0.00    -0.327 NA
ATOM     11  H   LIG    1       27.365 -17.692   3.065  0.00  0.00    +0.118 HD
ATOM     12  H   LIG    1       26.262 -16.653   2.471  0.00  0.00    +0.118 HD
ENDBRANCH   1  10
TORSDOF 2
ENDMDL
MODEL 7
REMARK VINA RESULT:      -4.2      3.091      4.708
REMARK  Name = *****
REMARK                            x       y       z     vdW  Elec       q    Type
REMARK                         _______ _______ _______ _____ _____    ______ ____
ROOT
ATOM      1  C   LIG    1       22.344 -17.530   4.767  0.00  0.00    +0.059 C 
ATOM      2  C   LIG    1       23.100 -18.713   4.200  0.00  0.00    +0.037 C 
ATOM      3  C   LIG    1       21.595 -18.632   4.085  0.00  0.00    +0.029 C 
ENDROOT
BRANCH   2   4
ATOM      4  C   LIG    1       23.737 -19.719   5.131  0.00  0.00    -0.043 A 
ATOM      5  C   LIG    1       22.986 -20.364   6.128  0.00  0.00    +0.004 A 
ATOM      6  C   LIG    1       23.571 -21.284   7.002  0.00  0.00    +0.000 A 
ATOM      7  C   LIG    1       24.928 -21.572   6.901  0.00  0.00    +0.000 A 
ATOM      8  C   LIG    1       25.699 -20.939   5.929  0.00  0.00    +0.000 A 
ATOM      9  C   LIG    1       25.106 -20.020   5.058  0.00  0.00    +0.004 A 
ENDBRANCH   2   4
BRANCH   1  10
ATOM     10  N   LIG    1       22.451 -16.221   4.121  0.00  0.00    -0.327 NA
ATOM     11  H   LIG    1       23.345 -15.775   4.322  0.00  0.00    +0.118 HD
ATOM     12  H   LIG    1       22.408 -16.319   3.107  0.00  0.00    +0.118 HD
ENDBRANCH   1  10
TORSDOF 2
ENDMDL
MODEL 8
REMARK VINA RESULT:      -4.1      6.550      8.096
REMARK  Name = *****
REMARK                            x       y       z     vdW  Elec       q    Type
REMARK                         _______ _______ _______ _____ _____    ______ ____
ROOT
ATOM      1  C   LIG    1       23.767 -14.967   4.058  0.00  0.00    +0.059 C 
ATOM      2  C   LIG    1       24.426 -13.681   4.511  0.00  0.00    +0.037 C 
ATOM      3  C   LIG    1       23.505 -13.695   3.312  0.00  0.00    +0.029 C 
ENDROOT
BRANCH   2   4
ATOM      4  C   LIG    1       25.913 -13.488   4.322  0.00  0.00    -0.043 A 
ATOM      5  C   LIG    1       26.758 -13.228   5.415  0.00  0.00    +0.004 A 
ATOM      6  C   LIG    1       28.131 -13.034   5.246  0.00  0.00    +0.000 A 
ATOM      7  C   LIG    1       28.689 -13.090   3.972  0.00  0.00    +0.000 A 
ATOM      8  C   LIG    1       27.874 -13.336   2.871  0.00  0.00    +0.000 A 
ATOM      9  C   LIG    1       26.501 -13.529   3.047  0.00  0.00    +0.004 A 
ENDBRANCH   2   4
BRANCH   1  10
ATOM     10  N   LIG    1       22.704 -15.563   4.866  0.00  0.00    -0.327 NA
ATOM     11  H   LIG    1       21.819 -15.592   4.361  0.00  0.00    +0.118 HD
ATOM     12  H   LIG    1       22.929 -16.531   5.094  0.00  0.00    +0.118 HD
ENDBRANCH   1  10
TORSDOF 2
ENDMDL
MODEL 9
REMARK VINA RESULT:      -4.1      6.518      7.935
REMARK  Name = *****
REMARK                            x       y       z     vdW  Elec       q    Type
REMARK                         _______ _______ _______ _____ _____    ______ ____
ROOT
ATOM      1  C   LIG    1       23.712 -14.992   4.080  0.00  0.00    +0.059 C 
ATOM      2  C   LIG    1       24.371 -13.692   4.488  0.00  0.00    +0.037 C 
ATOM      3  C   LIG    1       23.446 -13.745   3.295  0.00  0.00    +0.029 C 
ENDROOT
BRANCH   2   4
ATOM      4  C   LIG    1       25.858 -13.503   4.288  0.00  0.00    -0.043 A 
ATOM      5  C   LIG    1       26.432 -13.561   3.007  0.00  0.00    +0.004 A 
ATOM      6  C   LIG    1       27.807 -13.403   2.817  0.00  0.00    +0.000 A 
ATOM      7  C   LIG    1       28.640 -13.189   3.911  0.00  0.00    +0.000 A 
ATOM      8  C   LIG    1       28.099 -13.138   5.192  0.00  0.00    +0.000 A 
ATOM      9  C   LIG    1       26.723 -13.297   5.375  0.00  0.00    +0.004 A 
ENDBRANCH   2   4
BRANCH   1  10
ATOM     10  N   LIG    1       22.653 -15.563   4.911  0.00  0.00    -0.327 NA
ATOM     11  H   LIG    1       22.660 -15.171   5.851  0.00  0.00    +0.118 HD
ATOM     12  H   LIG    1       21.736 -15.343   4.522  0.00  0.00    +0.118 HD
ENDBRANCH   1  10
TORSDOF 2
ENDMDL
