MODEL 1
REMARK VINA RESULT:      -7.6      0.000      0.000
REMARK  Name = *****
REMARK                            x       y       z     vdW  Elec       q    Type
REMARK                         _______ _______ _______ _____ _____    ______ ____
ROOT
ATOM      1  O   LIG    1       28.167 -21.211   6.879  0.00  0.00    -0.461 OA
ENDROOT
BRANCH   1  10
ATOM      2  C   LIG    1       23.657 -20.321   7.293  0.00  0.00    +0.193 C 
ATOM      3  N   LIG    1       24.063 -21.762   7.030  0.00  0.00    +0.247 N 
ATOM      4  C   LIG    1       22.751 -22.563   6.980  0.00  0.00    +0.193 C 
ATOM      5  C   LIG    1       24.903 -22.030   5.752  0.00  0.00    +0.102 C 
ATOM      6  C   LIG    1       25.428 -23.447   5.913  0.00  0.00    +0.201 C 
ATOM      7  C   LIG    1       25.515 -23.686   7.396  0.00  0.00    +0.201 C 
ATOM      8  O   LIG    1       26.677 -23.645   6.572  0.00  0.00    -0.357 OA
ATOM      9  C   LIG    1       26.063 -21.027   5.689  0.00  0.00    +0.102 C 
ATOM     10  C   LIG    1       26.798 -20.787   7.029  0.00  0.00    +0.187 C 
ATOM     11  C   LIG    1       26.200 -21.442   8.302  0.00  0.00    +0.102 C 
ATOM     12  C   LIG    1       25.033 -22.402   8.053  0.00  0.00    +0.102 C 
ENDBRANCH   1  10
BRANCH   1  13
ATOM     13  C   LIG    1       29.056 -20.627   7.742  0.00  0.00    +0.317 C 
ATOM     14  O   LIG    1       29.589 -21.222   8.676  0.00  0.00    -0.250 OA
BRANCH  13  15
ATOM     15  C   LIG    1       29.287 -19.178   7.365  0.00  0.00    +0.153 C 
BRANCH  15  16
ATOM     16  C   LIG    1       30.150 -18.463   8.387  0.00  0.00    -0.032 A 
ATOM     17  C   LIG    1       29.609 -17.953   9.577  0.00  0.00    +0.004 A 
ATOM     18  C   LIG    1       30.422 -17.298  10.503  0.00  0.00    +0.000 A 
ATOM     19  C   LIG    1       31.783 -17.141  10.252  0.00  0.00    +0.000 A 
ATOM     20  C   LIG    1       32.334 -17.639   9.074  0.00  0.00    +0.000 A 
ATOM     21  C   LIG    1       31.523 -18.298   8.146  0.00  0.00    +0.004 A 
ENDBRANCH  15  16
BRANCH  15  22
ATOM     22  C   LIG    1       29.866 -19.114   5.947  0.00  0.00    +0.175 C 
BRANCH  22  23
ATOM     23  O   LIG    1       29.459 -17.902   5.310  0.00  0.00    -0.394 OA
ATOM     24  H   LIG    1       30.210 -17.286   5.380  0.00  0.00    +0.209 HD
ENDBRANCH  22  23
ENDBRANCH  15  22
ENDBRANCH  13  15
ENDBRANCH   1  13
TORSDOF 6
ENDMDL
MODEL 2
REMARK VINA RESULT:      -7.4      1.335      2.435
REMARK  Name = *****
REMARK                            x       y       z     vdW  Elec       q    Type
REMARK                         _______ _______ _______ _____ _____    ______ ____
ROOT
ATOM      1  O   LIG    1       28.353 -20.324   7.554  0.00  0.00    -0.461 OA
ENDROOT
BRANCH   1  10
ATOM      2  C   LIG    1       25.135 -22.601   5.155  0.00  0.00    +0.193 C 
ATOM      3  N   LIG    1       24.818 -22.265   6.603  0.00  0.00    +0.247 N 
ATOM      4  C   LIG    1       23.407 -22.820   6.862  0.00  0.00    +0.193 C 
ATOM      5  C   LIG    1       25.807 -22.792   7.677  0.00  0.00    +0.102 C 
ATOM      6  C   LIG    1       25.439 -22.053   8.952  0.00  0.00    +0.201 C 
ATOM      7  C   LIG    1       24.841 -20.746   8.510  0.00  0.00    +0.201 C 
ATOM      8  O   LIG    1       26.071 -20.805   9.228  0.00  0.00    -0.357 OA
ATOM      9  C   LIG    1       27.243 -22.458   7.252  0.00  0.00    +0.102 C 
ATOM     10  C   LIG    1       27.445 -21.031   6.688  0.00  0.00    +0.187 C 
ATOM     11  C   LIG    1       26.179 -20.164   6.462  0.00  0.00    +0.102 C 
ATOM     12  C   LIG    1       24.874 -20.766   6.990  0.00  0.00    +0.102 C 
ENDBRANCH   1  10
BRANCH   1  13
ATOM     13  C   LIG    1       29.407 -19.716   6.925  0.00  0.00    +0.317 C 
ATOM     14  O   LIG    1       29.308 -19.119   5.855  0.00  0.00    -0.250 OA
BRANCH  13  15
ATOM     15  C   LIG    1       30.674 -19.875   7.739  0.00  0.00    +0.153 C 
BRANCH  15  16
ATOM     16  C   LIG    1       30.920 -18.674   8.633  0.00  0.00    -0.032 A 
ATOM     17  C   LIG    1       30.009 -18.303   9.634  0.00  0.00    +0.004 A 
ATOM     18  C   LIG    1       30.256 -17.194  10.443  0.00  0.00    +0.000 A 
ATOM     19  C   LIG    1       31.413 -16.440  10.263  0.00  0.00    +0.000 A 
ATOM     20  C   LIG    1       32.325 -16.793   9.272  0.00  0.00    +0.000 A 
ATOM     21  C   LIG    1       32.082 -17.904   8.461  0.00  0.00    +0.004 A 
ENDBRANCH  15  16
BRANCH  15  22
ATOM     22  C   LIG    1       30.609 -21.193   8.517  0.00  0.00    +0.175 C 
BRANCH  22  23
ATOM     23  O   LIG    1       31.859 -21.437   9.167  0.00  0.00    -0.394 OA
ATOM     24  H   LIG    1       31.746 -21.165  10.096  0.00  0.00    +0.209 HD
ENDBRANCH  22  23
ENDBRANCH  15  22
ENDBRANCH  13  15
ENDBRANCH   1  13
TORSDOF 6
ENDMDL
MODEL 3
REMARK VINA RESULT:      -7.3      2.165      6.928
REMARK  Name = *****
REMARK                            x       y       z     vdW  Elec       q    Type
REMARK                         _______ _______ _______ _____ _____    ______ ____
ROOT
ATOM      1  O   LIG    1       28.617 -21.516   7.720  0.00  0.00    -0.461 OA
ENDROOT
BRANCH   1  10
ATOM      2  C   LIG    1       30.794 -18.560  10.517  0.00  0.00    +0.193 C 
ATOM      3  N   LIG    1       31.029 -18.408   9.023  0.00  0.00    +0.247 N 
ATOM      4  C   LIG    1       31.993 -17.220   8.870  0.00  0.00    +0.193 C 
ATOM      5  C   LIG    1       31.584 -19.649   8.272  0.00  0.00    +0.102 C 
ATOM      6  C   LIG    1       31.411 -19.329   6.797  0.00  0.00    +0.201 C 
ATOM      7  C   LIG    1       30.241 -18.388   6.716  0.00  0.00    +0.201 C 
ATOM      8  O   LIG    1       30.193 -19.696   6.154  0.00  0.00    -0.357 OA
ATOM      9  C   LIG    1       30.761 -20.885   8.659  0.00  0.00    +0.102 C 
ATOM     10  C   LIG    1       29.231 -20.666   8.709  0.00  0.00    +0.187 C 
ATOM     11  C   LIG    1       28.708 -19.217   8.529  0.00  0.00    +0.102 C 
ATOM     12  C   LIG    1       29.771 -18.183   8.148  0.00  0.00    +0.102 C 
ENDBRANCH   1  10
BRANCH   1  13
ATOM     13  C   LIG    1       27.271 -21.713   7.874  0.00  0.00    +0.317 C 
ATOM     14  O   LIG    1       26.718 -21.811   8.967  0.00  0.00    -0.250 OA
BRANCH  13  15
ATOM     15  C   LIG    1       26.586 -21.773   6.524  0.00  0.00    +0.153 C 
BRANCH  15  16
ATOM     16  C   LIG    1       25.230 -22.447   6.613  0.00  0.00    -0.032 A 
ATOM     17  C   LIG    1       24.057 -21.712   6.842  0.00  0.00    +0.004 A 
ATOM     18  C   LIG    1       22.821 -22.355   6.921  0.00  0.00    +0.000 A 
ATOM     19  C   LIG    1       22.740 -23.737   6.774  0.00  0.00    +0.000 A 
ATOM     20  C   LIG    1       23.896 -24.481   6.549  0.00  0.00    +0.000 A 
ATOM     21  C   LIG    1       25.134 -23.841   6.468  0.00  0.00    +0.004 A 
ENDBRANCH  15  16
BRANCH  15  22
ATOM     22  C   LIG    1       26.511 -20.360   5.935  0.00  0.00    +0.175 C 
BRANCH  22  23
ATOM     23  O   LIG    1       27.642 -20.123   5.094  0.00  0.00    -0.394 OA
ATOM     24  H   LIG    1       27.597 -19.187   4.826  0.00  0.00    +0.209 HD
ENDBRANCH  22  23
ENDBRANCH  15  22
ENDBRANCH  13  15
ENDBRANCH   1  13
TORSDOF 6
ENDMDL
MODEL 4
REMARK VINA RESULT:      -7.1      1.076      2.019
REMARK  Name = *****
REMARK                            x       y       z     vdW  Elec       q    Type
REMARK                         _______ _______ _______ _____ _____    ______ ____
ROOT
ATOM      1  O   LIG    1       27.611 -20.301   7.634  0.00  0.00    -0.461 OA
ENDROOT
BRANCH   1  10
ATOM      2  C   LIG    1       25.690 -24.165   5.998  0.00  0.00    +0.193 C 
ATOM      3  N   LIG    1       24.761 -23.131   6.613  0.00  0.00    +0.247 N 
ATOM      4  C   LIG    1       23.345 -23.717   6.495  0.00  0.00    +0.193 C 
ATOM      5  C   LIG    1       25.050 -22.715   8.081  0.00  0.00    +0.102 C 
ATOM      6  C   LIG    1       24.206 -21.474   8.315  0.00  0.00    +0.201 C 
ATOM      7  C   LIG    1       24.047 -20.826   6.966  0.00  0.00    +0.201 C 
ATOM      8  O   LIG    1       24.769 -20.197   8.022  0.00  0.00    -0.357 OA
ATOM      9  C   LIG    1       26.542 -22.392   8.233  0.00  0.00    +0.102 C 
ATOM     10  C   LIG    1       27.152 -21.552   7.086  0.00  0.00    +0.187 C 
ATOM     11  C   LIG    1       26.257 -21.268   5.851  0.00  0.00    +0.102 C 
ATOM     12  C   LIG    1       24.799 -21.714   5.987  0.00  0.00    +0.102 C 
ENDBRANCH   1  10
BRANCH   1  13
ATOM     13  C   LIG    1       28.959 -20.226   7.870  0.00  0.00    +0.317 C 
ATOM     14  O   LIG    1       29.618 -21.147   8.346  0.00  0.00    -0.250 OA
BRANCH  13  15
ATOM     15  C   LIG    1       29.496 -18.874   7.449  0.00  0.00    +0.153 C 
BRANCH  15  16
ATOM     16  C   LIG    1       30.292 -18.216   8.559  0.00  0.00    -0.032 A 
ATOM     17  C   LIG    1       29.705 -17.896   9.793  0.00  0.00    +0.004 A 
ATOM     18  C   LIG    1       30.457 -17.290  10.800  0.00  0.00    +0.000 A 
ATOM     19  C   LIG    1       31.802 -16.993  10.588  0.00  0.00    +0.000 A 
ATOM     20  C   LIG    1       32.397 -17.302   9.368  0.00  0.00    +0.000 A 
ATOM     21  C   LIG    1       31.648 -17.911   8.359  0.00  0.00    +0.004 A 
ENDBRANCH  15  16
BRANCH  15  22
ATOM     22  C   LIG    1       30.301 -19.035   6.154  0.00  0.00    +0.175 C 
BRANCH  22  23
ATOM     23  O   LIG    1       29.899 -18.044   5.206  0.00  0.00    -0.394 OA
ATOM     24  H   LIG    1       28.962 -18.216   5.005  0.00  0.00    +0.209 HD
ENDBRANCH  22  23
ENDBRANCH  15  22
ENDBRANCH  13  15
ENDBRANCH   1  13
TORSDOF 6
ENDMDL
MODEL 5
REMARK VINA RESULT:      -7.0      6.203      9.282
REMARK  Name = *****
REMARK                            x       y       z     vdW  Elec       q    Type
REMARK                         _______ _______ _______ _____ _____    ______ ____
ROOT
ATOM      1  O   LIG    1       25.516 -28.815   6.549  0.00  0.00    -0.461 OA
ENDROOT
BRANCH   1  10
ATOM      2  C   LIG    1       23.158 -31.694   9.278  0.00  0.00    +0.193 C 
ATOM      3  N   LIG    1       24.169 -32.308   8.324  0.00  0.00    +0.247 N 
ATOM      4  C   LIG    1       24.110 -33.825   8.572  0.00  0.00    +0.193 C 
ATOM      5  C   LIG    1       23.982 -32.004   6.814  0.00  0.00    +0.102 C 
ATOM      6  C   LIG    1       25.277 -32.451   6.156  0.00  0.00    +0.201 C 
ATOM      7  C   LIG    1       26.339 -32.323   7.213  0.00  0.00    +0.201 C 
ATOM      8  O   LIG    1       26.346 -31.515   6.039  0.00  0.00    -0.357 OA
ATOM      9  C   LIG    1       23.771 -30.496   6.623  0.00  0.00    +0.102 C 
ATOM     10  C   LIG    1       24.709 -29.590   7.456  0.00  0.00    +0.187 C 
ATOM     11  C   LIG    1       25.632 -30.279   8.496  0.00  0.00    +0.102 C 
ATOM     12  C   LIG    1       25.630 -31.810   8.456  0.00  0.00    +0.102 C 
ENDBRANCH   1  10
BRANCH   1  13
ATOM     13  C   LIG    1       25.666 -27.495   6.883  0.00  0.00    +0.317 C 
ATOM     14  O   LIG    1       26.251 -27.111   7.894  0.00  0.00    -0.250 OA
BRANCH  13  15
ATOM     15  C   LIG    1       25.031 -26.607   5.834  0.00  0.00    +0.153 C 
BRANCH  15  16
ATOM     16  C   LIG    1       24.834 -25.191   6.341  0.00  0.00    -0.032 A 
ATOM     17  C   LIG    1       25.921 -24.385   6.711  0.00  0.00    +0.004 A 
ATOM     18  C   LIG    1       25.715 -23.086   7.177  0.00  0.00    +0.000 A 
ATOM     19  C   LIG    1       24.423 -22.576   7.282  0.00  0.00    +0.000 A 
ATOM     20  C   LIG    1       23.334 -23.365   6.921  0.00  0.00    +0.000 A 
ATOM     21  C   LIG    1       23.537 -24.665   6.452  0.00  0.00    +0.004 A 
ENDBRANCH  15  16
BRANCH  15  22
ATOM     22  C   LIG    1       25.866 -26.669   4.550  0.00  0.00    +0.175 C 
BRANCH  22  23
ATOM     23  O   LIG    1       27.177 -27.155   4.846  0.00  0.00    -0.394 OA
ATOM     24  H   LIG    1       27.749 -26.371   4.936  0.00  0.00    +0.209 HD
ENDBRANCH  22  23
ENDBRANCH  15  22
ENDBRANCH  13  15
ENDBRANCH   1  13
TORSDOF 6
ENDMDL
MODEL 6
REMARK VINA RESULT:      -6.9      3.445      6.081
REMARK  Name = *****
REMARK                            x       y       z     vdW  Elec       q    Type
REMARK                         _______ _______ _______ _____ _____    ______ ____
ROOT
ATOM      1  O   LIG    1       25.795 -23.654   6.361  0.00  0.00    -0.461 OA
ENDROOT
BRANCH   1  10
ATOM      2  C   LIG    1       25.652 -28.034   7.810  0.00  0.00    +0.193 C 
ATOM      3  N   LIG    1       25.346 -27.773   6.344  0.00  0.00    +0.247 N 
ATOM      4  C   LIG    1       25.063 -29.152   5.725  0.00  0.00    +0.193 C 
ATOM      5  C   LIG    1       24.180 -26.797   6.035  0.00  0.00    +0.102 C 
ATOM      6  C   LIG    1       24.312 -26.478   4.556  0.00  0.00    +0.201 C 
ATOM      7  C   LIG    1       25.772 -26.635   4.230  0.00  0.00    +0.201 C 
ATOM      8  O   LIG    1       25.119 -25.370   4.161  0.00  0.00    -0.357 OA
ATOM      9  C   LIG    1       24.345 -25.526   6.879  0.00  0.00    +0.102 C 
ATOM     10  C   LIG    1       25.786 -24.968   6.952  0.00  0.00    +0.187 C 
ATOM     11  C   LIG    1       26.916 -25.819   6.316  0.00  0.00    +0.102 C 
ATOM     12  C   LIG    1       26.445 -27.046   5.530  0.00  0.00    +0.102 C 
ENDBRANCH   1  10
BRANCH   1  13
ATOM     13  C   LIG    1       25.905 -22.616   7.248  0.00  0.00    +0.317 C 
ATOM     14  O   LIG    1       25.714 -22.730   8.457  0.00  0.00    -0.250 OA
BRANCH  13  15
ATOM     15  C   LIG    1       26.304 -21.344   6.529  0.00  0.00    +0.153 C 
BRANCH  15  16
ATOM     16  C   LIG    1       25.123 -20.703   5.825  0.00  0.00    -0.032 A 
ATOM     17  C   LIG    1       23.858 -20.632   6.429  0.00  0.00    +0.004 A 
ATOM     18  C   LIG    1       22.786 -20.038   5.762  0.00  0.00    +0.000 A 
ATOM     19  C   LIG    1       22.961 -19.512   4.485  0.00  0.00    +0.000 A 
ATOM     20  C   LIG    1       24.209 -19.578   3.871  0.00  0.00    +0.000 A 
ATOM     21  C   LIG    1       25.285 -20.169   4.537  0.00  0.00    +0.004 A 
ENDBRANCH  15  16
BRANCH  15  22
ATOM     22  C   LIG    1       26.991 -20.400   7.522  0.00  0.00    +0.175 C 
BRANCH  22  23
ATOM     23  O   LIG    1       27.951 -21.122   8.295  0.00  0.00    -0.394 OA
ATOM     24  H   LIG    1       28.708 -20.522   8.427  0.00  0.00    +0.209 HD
ENDBRANCH  22  23
ENDBRANCH  15  22
ENDBRANCH  13  15
ENDBRANCH   1  13
TORSDOF 6
ENDMDL
MODEL 7
REMARK VINA RESULT:      -6.9      6.180      9.373
REMARK  Name = *****
REMARK                            x       y       z     vdW  Elec       q    Type
REMARK                         _______ _______ _______ _____ _____    ______ ____
ROOT
ATOM      1  O   LIG    1       24.541 -28.590   7.138  0.00  0.00    -0.461 OA
ENDROOT
BRANCH   1  10
ATOM      2  C   LIG    1       26.501 -32.766   7.295  0.00  0.00    +0.193 C 
ATOM      3  N   LIG    1       25.325 -32.512   8.223  0.00  0.00    +0.247 N 
ATOM      4  C   LIG    1       25.113 -33.824   8.998  0.00  0.00    +0.193 C 
ATOM      5  C   LIG    1       25.456 -31.322   9.211  0.00  0.00    +0.102 C 
ATOM      6  C   LIG    1       24.057 -31.105   9.760  0.00  0.00    +0.201 C 
ATOM      7  C   LIG    1       23.117 -31.589   8.690  0.00  0.00    +0.201 C 
ATOM      8  O   LIG    1       23.179 -30.217   9.072  0.00  0.00    -0.357 OA
ATOM      9  C   LIG    1       25.936 -30.080   8.447  0.00  0.00    +0.102 C 
ATOM     10  C   LIG    1       25.250 -29.843   7.080  0.00  0.00    +0.187 C 
ATOM     11  C   LIG    1       24.291 -30.946   6.560  0.00  0.00    +0.102 C 
ATOM     12  C   LIG    1       23.999 -32.076   7.551  0.00  0.00    +0.102 C 
ENDBRANCH   1  10
BRANCH   1  13
ATOM     13  C   LIG    1       25.326 -27.471   7.040  0.00  0.00    +0.317 C 
ATOM     14  O   LIG    1       26.294 -27.253   7.765  0.00  0.00    -0.250 OA
BRANCH  13  15
ATOM     15  C   LIG    1       24.837 -26.578   5.918  0.00  0.00    +0.153 C 
BRANCH  15  16
ATOM     16  C   LIG    1       24.677 -25.141   6.376  0.00  0.00    -0.032 A 
ATOM     17  C   LIG    1       23.413 -24.543   6.492  0.00  0.00    +0.004 A 
ATOM     18  C   LIG    1       23.290 -23.218   6.913  0.00  0.00    +0.000 A 
ATOM     19  C   LIG    1       24.426 -22.474   7.221  0.00  0.00    +0.000 A 
ATOM     20  C   LIG    1       25.688 -23.053   7.108  0.00  0.00    +0.000 A 
ATOM     21  C   LIG    1       25.814 -24.379   6.688  0.00  0.00    +0.004 A 
ENDBRANCH  15  16
BRANCH  15  22
ATOM     22  C   LIG    1       25.777 -26.721   4.717  0.00  0.00    +0.175 C 
BRANCH  22  23
ATOM     23  O   LIG    1       27.058 -27.181   5.153  0.00  0.00    -0.394 OA
ATOM     24  H   LIG    1       27.720 -26.646   4.678  0.00  0.00    +0.209 HD
ENDBRANCH  22  23
ENDBRANCH  15  22
ENDBRANCH  13  15
ENDBRANCH   1  13
TORSDOF 6
ENDMDL
MODEL 8
REMARK VINA RESULT:      -6.8      6.062      9.263
REMARK  Name = *****
REMARK                            x       y       z     vdW  Elec       q    Type
REMARK                         _______ _______ _______ _____ _____    ______ ____
ROOT
ATOM      1  O   LIG    1       25.220 -28.429   7.113  0.00  0.00    -0.461 OA
ENDROOT
BRANCH   1  10
ATOM      2  C   LIG    1       23.891 -32.603   8.565  0.00  0.00    +0.193 C 
ATOM      3  N   LIG    1       24.981 -31.902   9.360  0.00  0.00    +0.247 N 
ATOM      4  C   LIG    1       25.344 -32.860  10.506  0.00  0.00    +0.193 C 
ATOM      5  C   LIG    1       26.258 -31.487   8.582  0.00  0.00    +0.102 C 
ATOM      6  C   LIG    1       27.003 -30.547   9.514  0.00  0.00    +0.201 C 
ATOM      7  C   LIG    1       25.951 -29.913  10.383  0.00  0.00    +0.201 C 
ATOM      8  O   LIG    1       26.718 -29.152   9.453  0.00  0.00    -0.357 OA
ATOM      9  C   LIG    1       25.854 -30.761   7.292  0.00  0.00    +0.102 C 
ATOM     10  C   LIG    1       24.708 -29.733   7.448  0.00  0.00    +0.187 C 
ATOM     11  C   LIG    1       23.994 -29.660   8.823  0.00  0.00    +0.102 C 
ATOM     12  C   LIG    1       24.626 -30.507   9.932  0.00  0.00    +0.102 C 
ENDBRANCH   1  10
BRANCH   1  13
ATOM     13  C   LIG    1       24.767 -27.911   5.928  0.00  0.00    +0.317 C 
ATOM     14  O   LIG    1       23.807 -28.365   5.310  0.00  0.00    -0.250 OA
BRANCH  13  15
ATOM     15  C   LIG    1       25.600 -26.713   5.520  0.00  0.00    +0.153 C 
BRANCH  15  16
ATOM     16  C   LIG    1       25.067 -25.427   6.122  0.00  0.00    -0.032 A 
ATOM     17  C   LIG    1       23.693 -25.146   6.154  0.00  0.00    +0.004 A 
ATOM     18  C   LIG    1       23.225 -23.955   6.713  0.00  0.00    +0.000 A 
ATOM     19  C   LIG    1       24.122 -23.030   7.241  0.00  0.00    +0.000 A 
ATOM     20  C   LIG    1       25.489 -23.295   7.213  0.00  0.00    +0.000 A 
ATOM     21  C   LIG    1       25.960 -24.486   6.658  0.00  0.00    +0.004 A 
ENDBRANCH  15  16
BRANCH  15  22
ATOM     22  C   LIG    1       27.067 -26.976   5.879  0.00  0.00    +0.175 C 
BRANCH  22  23
ATOM     23  O   LIG    1       27.803 -27.317   4.702  0.00  0.00    -0.394 OA
ATOM     24  H   LIG    1       28.347 -28.092   4.931  0.00  0.00    +0.209 HD
ENDBRANCH  22  23
ENDBRANCH  15  22
ENDBRANCH  13  15
ENDBRANCH   1  13
TORSDOF 6
ENDMDL
MODEL 9
REMARK VINA RESULT:      -6.7      4.389      7.819
REMARK  Name = *****
REMARK                            x       y       z     vdW  Elec       q    Type
REMARK                         _______ _______ _______ _____ _____    ______ ____
ROOT
ATOM      1  O   LIG    1       24.924 -24.403   6.620  0.00  0.00    -0.461 OA
ENDROOT
BRANCH   1  10
ATOM      2  C   LIG    1       21.880 -21.403   4.879  0.00  0.00    +0.193 C 
ATOM      3  N   LIG    1       23.144 -20.833   5.500  0.00  0.00    +0.247 N 
ATOM      4  C   LIG    1       23.033 -19.307   5.348  0.00  0.00    +0.193 C 
ATOM      5  C   LIG    1       23.428 -21.206   6.979  0.00  0.00    +0.102 C 
ATOM      6  C   LIG    1       24.868 -20.789   7.225  0.00  0.00    +0.201 C 
ATOM      7  C   LIG    1       25.551 -20.868   5.887  0.00  0.00    +0.201 C 
ATOM      8  O   LIG    1       25.908 -21.729   6.966  0.00  0.00    -0.357 OA
ATOM      9  C   LIG    1       23.265 -22.721   7.161  0.00  0.00    +0.102 C 
ATOM     10  C   LIG    1       23.887 -23.588   6.040  0.00  0.00    +0.187 C 
ATOM     11  C   LIG    1       24.455 -22.852   4.798  0.00  0.00    +0.102 C 
ATOM     12  C   LIG    1       24.486 -21.325   4.903  0.00  0.00    +0.102 C 
ENDBRANCH   1  10
BRANCH   1  13
ATOM     13  C   LIG    1       24.758 -25.754   6.466  0.00  0.00    +0.317 C 
ATOM     14  O   LIG    1       23.692 -26.277   6.149  0.00  0.00    -0.250 OA
BRANCH  13  15
ATOM     15  C   LIG    1       26.062 -26.481   6.723  0.00  0.00    +0.153 C 
BRANCH  15  16
ATOM     16  C   LIG    1       25.853 -27.727   7.562  0.00  0.00    -0.032 A 
ATOM     17  C   LIG    1       26.512 -27.906   8.788  0.00  0.00    +0.004 A 
ATOM     18  C   LIG    1       26.305 -29.061   9.543  0.00  0.00    +0.000 A 
ATOM     19  C   LIG    1       25.442 -30.053   9.083  0.00  0.00    +0.000 A 
ATOM     20  C   LIG    1       24.784 -29.891   7.866  0.00  0.00    +0.000 A 
ATOM     21  C   LIG    1       24.986 -28.735   7.110  0.00  0.00    +0.004 A 
ENDBRANCH  15  16
BRANCH  15  22
ATOM     22  C   LIG    1       26.747 -26.773   5.383  0.00  0.00    +0.175 C 
BRANCH  22  23
ATOM     23  O   LIG    1       25.916 -26.335   4.306  0.00  0.00    -0.394 OA
ATOM     24  H   LIG    1       25.982 -25.363   4.282  0.00  0.00    +0.209 HD
ENDBRANCH  22  23
ENDBRANCH  15  22
ENDBRANCH  13  15
ENDBRANCH   1  13
TORSDOF 6
ENDMDL
