MODEL 1
REMARK VINA RESULT:      -4.8      0.000      0.000
REMARK  Name = *****
REMARK                            x       y       z     vdW  Elec       q    Type
REMARK                         _______ _______ _______ _____ _____    ______ ____
ROOT
ATOM      1  C   LIG    1       24.727 -16.496   3.606  0.00  0.00    +0.043 A 
ATOM      2  C   LIG    1       23.503 -17.038   4.049  0.00  0.00    +0.124 A 
ATOM      3  C   LIG    1       23.336 -18.413   4.343  0.00  0.00    +0.049 A 
ATOM      4  C   LIG    1       24.386 -19.321   4.172  0.00  0.00    -0.041 A 
ATOM      5  C   LIG    1       25.582 -18.826   3.659  0.00  0.00    +0.049 A 
ATOM      6  C   LIG    1       25.748 -17.453   3.398  0.00  0.00    +0.124 A 
ENDROOT
BRANCH   1   8
ATOM      7  C   LIG    1       24.270 -13.958   4.360  0.00  0.00    +0.026 C 
ATOM      8  C   LIG    1       24.862 -14.971   3.301  0.00  0.00    +0.056 C 
ATOM      9  C   LIG    1       26.297 -14.537   3.042  0.00  0.00    -0.019 C 
ATOM     10  C   LIG    1       27.104 -14.037   3.981  0.00  0.00    -0.076 C 
ATOM     11  C   LIG    1       28.528 -13.694   3.687  0.00  0.00    +0.038 C 
ATOM     12  C   LIG    1       26.644 -13.801   5.406  0.00  0.00    +0.031 C 
ATOM     13  C   LIG    1       25.135 -13.975   5.640  0.00  0.00    +0.013 C 
BRANCH   7  15
ATOM     14  C   LIG    1       24.179 -12.144   2.509  0.00  0.00    +0.007 C 
ATOM     15  C   LIG    1       24.041 -12.518   3.797  0.00  0.00    -0.076 C 
ATOM     16  C   LIG    1       23.685 -11.447   4.796  0.00  0.00    +0.038 C 
ENDBRANCH   7  15
ENDBRANCH   1   8
BRANCH   2  17
ATOM     17  O   LIG    1       22.418 -16.211   4.179  0.00  0.00    -0.506 OA
ATOM     18  H   LIG    1       22.731 -15.294   4.247  0.00  0.00    +0.292 HD
ENDBRANCH   2  17
BRANCH   6  19
ATOM     19  O   LIG    1       26.975 -17.104   2.899  0.00  0.00    -0.506 OA
ATOM     20  H   LIG    1       27.121 -17.580   2.067  0.00  0.00    +0.292 HD
ENDBRANCH   6  19
BRANCH   4  21
ATOM     21  C   LIG    1       24.268 -20.787   4.538  0.00  0.00    +0.035 C 
BRANCH  21  22
ATOM     22  C   LIG    1       23.659 -21.039   5.925  0.00  0.00    +0.005 C 
BRANCH  22  23
ATOM     23  C   LIG    1       24.674 -20.823   7.062  0.00  0.00    +0.000 C 
BRANCH  23  24
ATOM     24  C   LIG    1       26.032 -21.461   6.741  0.00  0.00    -0.003 C 
ATOM     25  C   LIG    1       27.164 -20.441   6.700  0.00  0.00    +0.004 C 
ENDBRANCH  23  24
ENDBRANCH  22  23
ENDBRANCH  21  22
ENDBRANCH   4  21
TORSDOF 8
ENDMDL
MODEL 2
REMARK VINA RESULT:      -4.7      1.215      2.765
REMARK  Name = *****
REMARK                            x       y       z     vdW  Elec       q    Type
REMARK                         _______ _______ _______ _____ _____    ______ ____
ROOT
ATOM      1  C   LIG    1       24.507 -15.904   4.323  0.00  0.00    +0.043 A 
ATOM      2  C   LIG    1       23.154 -15.908   4.724  0.00  0.00    +0.124 A 
ATOM      3  C   LIG    1       22.323 -17.048   4.606  0.00  0.00    +0.049 A 
ATOM      4  C   LIG    1       22.803 -18.236   4.043  0.00  0.00    -0.041 A 
ATOM      5  C   LIG    1       24.110 -18.235   3.565  0.00  0.00    +0.049 A 
ATOM      6  C   LIG    1       24.938 -17.106   3.715  0.00  0.00    +0.124 A 
ENDROOT
BRANCH   1   8
ATOM      7  C   LIG    1       26.668 -14.499   3.568  0.00  0.00    +0.026 C 
ATOM      8  C   LIG    1       25.383 -14.622   4.481  0.00  0.00    +0.056 C 
ATOM      9  C   LIG    1       24.597 -13.333   4.298  0.00  0.00    -0.019 C 
ATOM     10  C   LIG    1       24.508 -12.673   3.140  0.00  0.00    -0.076 C 
ATOM     11  C   LIG    1       23.662 -11.450   3.000  0.00  0.00    +0.038 C 
ATOM     12  C   LIG    1       25.236 -13.125   1.890  0.00  0.00    +0.031 C 
ATOM     13  C   LIG    1       26.246 -14.264   2.101  0.00  0.00    +0.013 C 
BRANCH   7  15
ATOM     14  C   LIG    1       28.681 -12.879   3.343  0.00  0.00    +0.007 C 
ATOM     15  C   LIG    1       27.707 -13.449   4.080  0.00  0.00    -0.076 C 
ATOM     16  C   LIG    1       27.641 -13.086   5.542  0.00  0.00    +0.038 C 
ENDBRANCH   7  15
ENDBRANCH   1   8
BRANCH   2  17
ATOM     17  O   LIG    1       22.606 -14.757   5.228  0.00  0.00    -0.506 OA
ATOM     18  H   LIG    1       22.184 -14.269   4.501  0.00  0.00    +0.292 HD
ENDBRANCH   2  17
BRANCH   6  19
ATOM     19  O   LIG    1       26.200 -17.243   3.202  0.00  0.00    -0.506 OA
ATOM     20  H   LIG    1       26.844 -17.099   3.912  0.00  0.00    +0.292 HD
ENDBRANCH   6  19
BRANCH   4  21
ATOM     21  C   LIG    1       21.966 -19.497   3.959  0.00  0.00    +0.035 C 
BRANCH  21  22
ATOM     22  C   LIG    1       22.525 -20.674   4.771  0.00  0.00    +0.005 C 
BRANCH  22  23
ATOM     23  C   LIG    1       22.839 -20.287   6.228  0.00  0.00    +0.000 C 
BRANCH  23  24
ATOM     24  C   LIG    1       24.118 -20.968   6.734  0.00  0.00    -0.003 C 
ATOM     25  C   LIG    1       25.292 -20.794   5.778  0.00  0.00    +0.004 C 
ENDBRANCH  23  24
ENDBRANCH  22  23
ENDBRANCH  21  22
ENDBRANCH   4  21
TORSDOF 8
ENDMDL
MODEL 3
REMARK VINA RESULT:      -4.5      1.075      3.225
REMARK  Name = *****
REMARK                            x       y       z     vdW  Elec       q    Type
REMARK                         _______ _______ _______ _____ _____    ______ ____
ROOT
ATOM      1  C   LIG    1       25.227 -16.222   4.037  0.00  0.00    +0.043 A 
ATOM      2  C   LIG    1       26.002 -17.343   3.672  0.00  0.00    +0.124 A 
ATOM      3  C   LIG    1       25.434 -18.606   3.382  0.00  0.00    +0.049 A 
ATOM      4  C   LIG    1       24.054 -18.817   3.478  0.00  0.00    -0.041 A 
ATOM      5  C   LIG    1       23.273 -17.750   3.914  0.00  0.00    +0.049 A 
ATOM      6  C   LIG    1       23.844 -16.489   4.171  0.00  0.00    +0.124 A 
ENDROOT
BRANCH   1   8
ATOM      7  C   LIG    1       27.140 -14.429   3.454  0.00  0.00    +0.026 C 
ATOM      8  C   LIG    1       25.901 -14.848   4.342  0.00  0.00    +0.056 C 
ATOM      9  C   LIG    1       24.926 -13.681   4.302  0.00  0.00    -0.019 C 
ATOM     10  C   LIG    1       24.723 -12.917   3.226  0.00  0.00    -0.076 C 
ATOM     11  C   LIG    1       23.700 -11.829   3.221  0.00  0.00    +0.038 C 
ATOM     12  C   LIG    1       25.495 -13.109   1.936  0.00  0.00    +0.031 C 
ATOM     13  C   LIG    1       26.669 -14.099   2.021  0.00  0.00    +0.013 C 
BRANCH   7  15
ATOM     14  C   LIG    1       29.034 -12.657   3.479  0.00  0.00    +0.007 C 
ATOM     15  C   LIG    1       28.015 -13.298   4.086  0.00  0.00    -0.076 C 
ATOM     16  C   LIG    1       27.722 -12.933   5.519  0.00  0.00    +0.038 C 
ENDBRANCH   7  15
ENDBRANCH   1   8
BRANCH   2  17
ATOM     17  O   LIG    1       27.366 -17.218   3.619  0.00  0.00    -0.506 OA
ATOM     18  H   LIG    1       27.707 -17.810   2.928  0.00  0.00    +0.292 HD
ENDBRANCH   2  17
BRANCH   6  19
ATOM     19  O   LIG    1       22.961 -15.530   4.591  0.00  0.00    -0.506 OA
ATOM     20  H   LIG    1       23.003 -15.467   5.557  0.00  0.00    +0.292 HD
ENDBRANCH   6  19
BRANCH   4  21
ATOM     21  C   LIG    1       23.400 -20.135   3.112  0.00  0.00    +0.035 C 
BRANCH  21  22
ATOM     22  C   LIG    1       23.561 -21.229   4.177  0.00  0.00    +0.005 C 
BRANCH  22  23
ATOM     23  C   LIG    1       22.589 -21.050   5.358  0.00  0.00    +0.000 C 
BRANCH  23  24
ATOM     24  C   LIG    1       23.320 -20.617   6.636  0.00  0.00    -0.003 C 
ATOM     25  C   LIG    1       24.829 -20.802   6.538  0.00  0.00    +0.004 C 
ENDBRANCH  23  24
ENDBRANCH  22  23
ENDBRANCH  21  22
ENDBRANCH   4  21
TORSDOF 8
ENDMDL
MODEL 4
REMARK VINA RESULT:      -3.2      1.319      2.943
REMARK  Name = *****
REMARK                            x       y       z     vdW  Elec       q    Type
REMARK                         _______ _______ _______ _____ _____    ______ ____
ROOT
ATOM      1  C   LIG    1       25.211 -16.104   4.083  0.00  0.00    +0.043 A 
ATOM      2  C   LIG    1       23.820 -16.301   4.200  0.00  0.00    +0.124 A 
ATOM      3  C   LIG    1       23.194 -17.539   3.918  0.00  0.00    +0.049 A 
ATOM      4  C   LIG    1       23.936 -18.637   3.470  0.00  0.00    -0.041 A 
ATOM      5  C   LIG    1       25.300 -18.448   3.269  0.00  0.00    +0.049 A 
ATOM      6  C   LIG    1       25.918 -17.222   3.580  0.00  0.00    +0.124 A 
ENDROOT
BRANCH   1   8
ATOM      7  C   LIG    1       27.157 -14.312   3.616  0.00  0.00    +0.026 C 
ATOM      8  C   LIG    1       25.854 -14.720   4.412  0.00  0.00    +0.056 C 
ATOM      9  C   LIG    1       24.880 -13.560   4.271  0.00  0.00    -0.019 C 
ATOM     10  C   LIG    1       24.759 -12.819   3.167  0.00  0.00    -0.076 C 
ATOM     11  C   LIG    1       23.735 -11.737   3.059  0.00  0.00    +0.038 C 
ATOM     12  C   LIG    1       25.631 -13.033   1.946  0.00  0.00    +0.031 C 
ATOM     13  C   LIG    1       26.799 -14.013   2.144  0.00  0.00    +0.013 C 
BRANCH   7  15
ATOM     14  C   LIG    1       28.963 -12.453   3.712  0.00  0.00    +0.007 C 
ATOM     15  C   LIG    1       27.975 -13.163   4.291  0.00  0.00    -0.076 C 
ATOM     16  C   LIG    1       27.660 -12.863   5.735  0.00  0.00    +0.038 C 
ENDBRANCH   7  15
ENDBRANCH   1   8
BRANCH   2  17
ATOM     17  O   LIG    1       23.028 -15.246   4.576  0.00  0.00    -0.506 OA
ATOM     18  H   LIG    1       22.901 -15.280   5.539  0.00  0.00    +0.292 HD
ENDBRANCH   2  17
BRANCH   6  19
ATOM     19  O   LIG    1       27.265 -17.175   3.336  0.00  0.00    -0.506 OA
ATOM     20  H   LIG    1       27.649 -16.443   3.842  0.00  0.00    +0.292 HD
ENDBRANCH   6  19
BRANCH   4  21
ATOM     21  C   LIG    1       23.315 -19.997   3.221  0.00  0.00    +0.035 C 
BRANCH  21  22
ATOM     22  C   LIG    1       24.145 -21.171   3.759  0.00  0.00    +0.005 C 
BRANCH  22  23
ATOM     23  C   LIG    1       24.259 -21.157   5.295  0.00  0.00    +0.000 C 
BRANCH  23  24
ATOM     24  C   LIG    1       22.904 -20.890   5.964  0.00  0.00    -0.003 C 
ATOM     25  C   LIG    1       21.747 -21.554   5.227  0.00  0.00    +0.004 C 
ENDBRANCH  23  24
ENDBRANCH  22  23
ENDBRANCH  21  22
ENDBRANCH   4  21
TORSDOF 8
ENDMDL
