MODEL 1
REMARK VINA RESULT:      -5.4      0.000      0.000
REMARK  Name = *****
REMARK                            x       y       z     vdW  Elec       q    Type
REMARK                         _______ _______ _______ _____ _____    ______ ____
ROOT
ATOM      1  C   LIG    1       26.624 -17.922   3.369  0.00  0.00    +0.158 C 
ENDROOT
BRANCH   1   2
ATOM      2  C   LIG    1       26.188 -16.483   3.608  0.00  0.00    -0.017 A 
ATOM      3  C   LIG    1       27.136 -15.461   3.771  0.00  0.00    +0.023 A 
ATOM      4  C   LIG    1       26.749 -14.121   4.004  0.00  0.00    +0.078 A 
ATOM      5  C   LIG    1       25.381 -13.805   4.024  0.00  0.00    +0.129 A 
ATOM      6  C   LIG    1       24.427 -14.812   3.880  0.00  0.00    +0.046 A 
ATOM      7  C   LIG    1       24.830 -16.138   3.695  0.00  0.00    +0.010 A 
BRANCH   4   8
ATOM      8  C   LIG    1       27.829 -13.123   4.261  0.00  0.00    +0.245 C 
ATOM      9  O   LIG    1       27.885 -12.496   5.324  0.00  0.00    -0.270 OA
ATOM     10  N   LIG    1       28.749 -12.894   3.278  0.00  0.00    -0.325 N 
ATOM     11  H   LIG    1       29.457 -12.194   3.411  0.00  0.00    +0.145 HD
ATOM     12  H   LIG    1       28.686 -13.402   2.400  0.00  0.00    +0.145 HD
ENDBRANCH   4   8
BRANCH   5  13
ATOM     13  O   LIG    1       24.946 -12.516   4.200  0.00  0.00    -0.506 OA
ATOM     14  H   LIG    1       25.702 -11.962   4.464  0.00  0.00    +0.292 HD
ENDBRANCH   5  13
ENDBRANCH   1   2
BRANCH   1  15
ATOM     15  O   LIG    1       27.851 -18.159   4.067  0.00  0.00    -0.386 OA
ATOM     16  H   LIG    1       28.101 -17.298   4.450  0.00  0.00    +0.210 HD
ENDBRANCH   1  15
BRANCH   1  17
ATOM     17  C   LIG    1       25.557 -18.976   3.807  0.00  0.00    +0.117 C 
BRANCH  17  18
ATOM     18  N   LIG    1       26.169 -20.202   4.378  0.00  0.00    -0.311 NA
ATOM     19  H   LIG    1       25.775 -21.034   3.938  0.00  0.00    +0.122 HD
BRANCH  18  21
ATOM     20  C   LIG    1       27.423 -20.507   6.463  0.00  0.00    +0.024 C 
ATOM     21  C   LIG    1       26.029 -20.301   5.849  0.00  0.00    +0.051 C 
BRANCH  21  22
ATOM     22  C   LIG    1       25.052 -21.391   6.364  0.00  0.00    +0.023 C 
BRANCH  22  23
ATOM     23  C   LIG    1       23.732 -20.850   6.927  0.00  0.00    +0.036 C 
BRANCH  23  24
ATOM     24  C   LIG    1       22.832 -20.284   5.855  0.00  0.00    -0.047 A 
ATOM     25  C   LIG    1       22.809 -18.906   5.603  0.00  0.00    +0.003 A 
ATOM     26  C   LIG    1       21.999 -18.386   4.592  0.00  0.00    +0.000 A 
ATOM     27  C   LIG    1       21.201 -19.237   3.829  0.00  0.00    +0.000 A 
ATOM     28  C   LIG    1       21.208 -20.608   4.080  0.00  0.00    +0.000 A 
ATOM     29  C   LIG    1       22.018 -21.130   5.091  0.00  0.00    +0.003 A 
ENDBRANCH  23  24
ENDBRANCH  22  23
ENDBRANCH  21  22
ENDBRANCH  18  21
ENDBRANCH  17  18
ENDBRANCH   1  17
TORSDOF 10
ENDMDL
MODEL 2
REMARK VINA RESULT:      -5.2      2.577      6.132
REMARK  Name = *****
REMARK                            x       y       z     vdW  Elec       q    Type
REMARK                         _______ _______ _______ _____ _____    ______ ____
ROOT
ATOM      1  C   LIG    1       23.999 -20.898   5.400  0.00  0.00    +0.158 C 
ENDROOT
BRANCH   1   2
ATOM      2  C   LIG    1       25.454 -20.682   5.791  0.00  0.00    -0.017 A 
ATOM      3  C   LIG    1       26.189 -19.606   5.270  0.00  0.00    +0.023 A 
ATOM      4  C   LIG    1       27.544 -19.397   5.615  0.00  0.00    +0.078 A 
ATOM      5  C   LIG    1       28.150 -20.264   6.539  0.00  0.00    +0.129 A 
ATOM      6  C   LIG    1       27.438 -21.348   7.052  0.00  0.00    +0.046 A 
ATOM      7  C   LIG    1       26.112 -21.563   6.665  0.00  0.00    +0.010 A 
BRANCH   4   8
ATOM      8  C   LIG    1       28.268 -18.283   4.935  0.00  0.00    +0.245 C 
ATOM      9  O   LIG    1       29.403 -17.945   5.287  0.00  0.00    -0.270 OA
ATOM     10  N   LIG    1       27.636 -17.620   3.922  0.00  0.00    -0.325 N 
ATOM     11  H   LIG    1       28.086 -16.837   3.482  0.00  0.00    +0.145 HD
ATOM     12  H   LIG    1       26.695 -17.893   3.650  0.00  0.00    +0.145 HD
ENDBRANCH   4   8
BRANCH   5  13
ATOM     13  O   LIG    1       29.447 -20.085   6.946  0.00  0.00    -0.506 OA
ATOM     14  H   LIG    1       30.028 -20.116   6.166  0.00  0.00    +0.292 HD
ENDBRANCH   5  13
ENDBRANCH   1   2
BRANCH   1  15
ATOM     15  O   LIG    1       23.161 -20.514   6.495  0.00  0.00    -0.386 OA
ATOM     16  H   LIG    1       22.846 -19.617   6.278  0.00  0.00    +0.210 HD
ENDBRANCH   1  15
BRANCH   1  17
ATOM     17  C   LIG    1       23.577 -20.118   4.115  0.00  0.00    +0.117 C 
BRANCH  17  18
ATOM     18  N   LIG    1       23.803 -18.656   4.236  0.00  0.00    -0.311 NA
ATOM     19  H   LIG    1       24.519 -18.463   4.936  0.00  0.00    +0.122 HD
BRANCH  18  21
ATOM     20  C   LIG    1       21.354 -18.743   4.168  0.00  0.00    +0.024 C 
ATOM     21  C   LIG    1       22.575 -17.893   4.555  0.00  0.00    +0.051 C 
BRANCH  21  22
ATOM     22  C   LIG    1       22.468 -16.483   3.918  0.00  0.00    +0.023 C 
BRANCH  22  23
ATOM     23  C   LIG    1       23.159 -15.369   4.715  0.00  0.00    +0.036 C 
BRANCH  23  24
ATOM     24  C   LIG    1       24.156 -14.594   3.887  0.00  0.00    -0.047 A 
ATOM     25  C   LIG    1       23.831 -13.327   3.387  0.00  0.00    +0.003 A 
ATOM     26  C   LIG    1       24.764 -12.598   2.648  0.00  0.00    +0.000 A 
ATOM     27  C   LIG    1       26.027 -13.131   2.397  0.00  0.00    +0.000 A 
ATOM     28  C   LIG    1       26.356 -14.396   2.881  0.00  0.00    +0.000 A 
ATOM     29  C   LIG    1       25.425 -15.127   3.621  0.00  0.00    +0.003 A 
ENDBRANCH  23  24
ENDBRANCH  22  23
ENDBRANCH  21  22
ENDBRANCH  18  21
ENDBRANCH  17  18
ENDBRANCH   1  17
TORSDOF 10
ENDMDL
MODEL 3
REMARK VINA RESULT:      -5.0      1.389      1.995
REMARK  Name = *****
REMARK                            x       y       z     vdW  Elec       q    Type
REMARK                         _______ _______ _______ _____ _____    ______ ____
ROOT
ATOM      1  C   LIG    1       25.976 -18.094   3.694  0.00  0.00    +0.158 C 
ENDROOT
BRANCH   1   2
ATOM      2  C   LIG    1       25.474 -16.657   3.689  0.00  0.00    -0.017 A 
ATOM      3  C   LIG    1       26.312 -15.602   3.299  0.00  0.00    +0.023 A 
ATOM      4  C   LIG    1       25.865 -14.261   3.298  0.00  0.00    +0.078 A 
ATOM      5  C   LIG    1       24.534 -13.990   3.654  0.00  0.00    +0.129 A 
ATOM      6  C   LIG    1       23.694 -15.026   4.061  0.00  0.00    +0.046 A 
ATOM      7  C   LIG    1       24.168 -16.341   4.097  0.00  0.00    +0.010 A 
BRANCH   4   8
ATOM      8  C   LIG    1       26.858 -13.200   2.959  0.00  0.00    +0.245 C 
ATOM      9  O   LIG    1       26.502 -12.108   2.504  0.00  0.00    -0.270 OA
ATOM     10  N   LIG    1       28.185 -13.469   3.140  0.00  0.00    -0.325 N 
ATOM     11  H   LIG    1       28.873 -12.787   2.876  0.00  0.00    +0.145 HD
ATOM     12  H   LIG    1       28.471 -14.376   3.499  0.00  0.00    +0.145 HD
ENDBRANCH   4   8
BRANCH   5  13
ATOM     13  O   LIG    1       24.030 -12.714   3.630  0.00  0.00    -0.506 OA
ATOM     14  H   LIG    1       23.177 -12.705   4.097  0.00  0.00    +0.292 HD
ENDBRANCH   5  13
ENDBRANCH   1   2
BRANCH   1  15
ATOM     15  O   LIG    1       25.869 -18.629   2.370  0.00  0.00    -0.386 OA
ATOM     16  H   LIG    1       26.768 -18.925   2.138  0.00  0.00    +0.210 HD
ENDBRANCH   1  15
BRANCH   1  17
ATOM     17  C   LIG    1       27.445 -18.239   4.203  0.00  0.00    +0.117 C 
BRANCH  17  18
ATOM     18  N   LIG    1       27.717 -19.577   4.786  0.00  0.00    -0.311 NA
ATOM     19  H   LIG    1       26.973 -20.230   4.541  0.00  0.00    +0.122 HD
BRANCH  18  21
ATOM     20  C   LIG    1       29.382 -19.799   6.573  0.00  0.00    +0.024 C 
ATOM     21  C   LIG    1       27.897 -19.555   6.256  0.00  0.00    +0.051 C 
BRANCH  21  22
ATOM     22  C   LIG    1       27.010 -20.540   7.062  0.00  0.00    +0.023 C 
BRANCH  22  23
ATOM     23  C   LIG    1       26.264 -21.572   6.208  0.00  0.00    +0.036 C 
BRANCH  23  24
ATOM     24  C   LIG    1       24.913 -21.079   5.748  0.00  0.00    -0.047 A 
ATOM     25  C   LIG    1       24.523 -21.223   4.410  0.00  0.00    +0.003 A 
ATOM     26  C   LIG    1       23.262 -20.795   3.992  0.00  0.00    +0.000 A 
ATOM     27  C   LIG    1       22.383 -20.213   4.905  0.00  0.00    +0.000 A 
ATOM     28  C   LIG    1       22.766 -20.055   6.235  0.00  0.00    +0.000 A 
ATOM     29  C   LIG    1       24.027 -20.483   6.656  0.00  0.00    +0.003 A 
ENDBRANCH  23  24
ENDBRANCH  22  23
ENDBRANCH  21  22
ENDBRANCH  18  21
ENDBRANCH  17  18
ENDBRANCH   1  17
TORSDOF 10
ENDMDL
MODEL 4
REMARK VINA RESULT:      -4.8      1.962      4.017
REMARK  Name = *****
REMARK                            x       y       z     vdW  Elec       q    Type
REMARK                         _______ _______ _______ _____ _____    ______ ____
ROOT
ATOM      1  C   LIG    1       23.067 -16.407   4.738  0.00  0.00    +0.158 C 
ENDROOT
BRANCH   1   2
ATOM      2  C   LIG    1       23.885 -15.282   4.120  0.00  0.00    -0.017 A 
ATOM      3  C   LIG    1       25.288 -15.322   4.129  0.00  0.00    +0.023 A 
ATOM      4  C   LIG    1       26.064 -14.281   3.570  0.00  0.00    +0.078 A 
ATOM      5  C   LIG    1       25.407 -13.206   2.949  0.00  0.00    +0.129 A 
ATOM      6  C   LIG    1       24.014 -13.143   2.947  0.00  0.00    +0.046 A 
ATOM      7  C   LIG    1       23.265 -14.161   3.545  0.00  0.00    +0.010 A 
BRANCH   4   8
ATOM      8  C   LIG    1       27.547 -14.368   3.713  0.00  0.00    +0.245 C 
ATOM      9  O   LIG    1       28.279 -13.425   3.397  0.00  0.00    -0.270 OA
ATOM     10  N   LIG    1       28.087 -15.531   4.182  0.00  0.00    -0.325 N 
ATOM     11  H   LIG    1       29.085 -15.628   4.243  0.00  0.00    +0.145 HD
ATOM     12  H   LIG    1       27.479 -16.309   4.424  0.00  0.00    +0.145 HD
ENDBRANCH   4   8
BRANCH   5  13
ATOM     13  O   LIG    1       26.106 -12.189   2.349  0.00  0.00    -0.506 OA
ATOM     14  H   LIG    1       26.153 -11.435   2.962  0.00  0.00    +0.292 HD
ENDBRANCH   5  13
ENDBRANCH   1   2
BRANCH   1  15
ATOM     15  O   LIG    1       21.676 -16.084   4.630  0.00  0.00    -0.386 OA
ATOM     16  H   LIG    1       21.623 -15.120   4.766  0.00  0.00    +0.210 HD
ENDBRANCH   1  15
BRANCH   1  17
ATOM     17  C   LIG    1       23.336 -17.802   4.090  0.00  0.00    +0.117 C 
BRANCH  17  18
ATOM     18  N   LIG    1       22.276 -18.791   4.405  0.00  0.00    -0.311 NA
ATOM     19  H   LIG    1       21.685 -18.450   5.164  0.00  0.00    +0.122 HD
BRANCH  18  21
ATOM     20  C   LIG    1       21.642 -21.141   4.710  0.00  0.00    +0.024 C 
ATOM     21  C   LIG    1       22.802 -20.132   4.748  0.00  0.00    +0.051 C 
BRANCH  21  22
ATOM     22  C   LIG    1       23.558 -20.238   6.098  0.00  0.00    +0.023 C 
BRANCH  22  23
ATOM     23  C   LIG    1       24.531 -21.419   6.193  0.00  0.00    +0.036 C 
BRANCH  23  24
ATOM     24  C   LIG    1       25.977 -20.985   6.173  0.00  0.00    -0.047 A 
ATOM     25  C   LIG    1       26.410 -20.001   5.274  0.00  0.00    +0.003 A 
ATOM     26  C   LIG    1       27.739 -19.578   5.276  0.00  0.00    +0.000 A 
ATOM     27  C   LIG    1       28.650 -20.138   6.171  0.00  0.00    +0.000 A 
ATOM     28  C   LIG    1       28.232 -21.125   7.062  0.00  0.00    +0.000 A 
ATOM     29  C   LIG    1       26.902 -21.550   7.062  0.00  0.00    +0.003 A 
ENDBRANCH  23  24
ENDBRANCH  22  23
ENDBRANCH  21  22
ENDBRANCH  18  21
ENDBRANCH  17  18
ENDBRANCH   1  17
TORSDOF 10
ENDMDL
MODEL 5
REMARK VINA RESULT:      -4.7      2.892      7.748
REMARK  Name = *****
REMARK                            x       y       z     vdW  Elec       q    Type
REMARK                         _______ _______ _______ _____ _____    ______ ____
ROOT
ATOM      1  C   LIG    1       22.357 -16.116   4.437  0.00  0.00    +0.158 C 
ENDROOT
BRANCH   1   2
ATOM      2  C   LIG    1       23.038 -17.472   4.324  0.00  0.00    -0.017 A 
ATOM      3  C   LIG    1       22.431 -18.629   4.835  0.00  0.00    +0.023 A 
ATOM      4  C   LIG    1       23.054 -19.895   4.748  0.00  0.00    +0.078 A 
ATOM      5  C   LIG    1       24.291 -19.997   4.090  0.00  0.00    +0.129 A 
ATOM      6  C   LIG    1       24.915 -18.854   3.591  0.00  0.00    +0.046 A 
ATOM      7  C   LIG    1       24.302 -17.605   3.727  0.00  0.00    +0.010 A 
BRANCH   4   8
ATOM      8  C   LIG    1       22.374 -21.049   5.406  0.00  0.00    +0.245 C 
ATOM      9  O   LIG    1       22.812 -21.543   6.450  0.00  0.00    -0.270 OA
ATOM     10  N   LIG    1       21.261 -21.572   4.812  0.00  0.00    -0.325 N 
ATOM     11  H   LIG    1       20.814 -22.377   5.213  0.00  0.00    +0.145 HD
ATOM     12  H   LIG    1       20.917 -21.171   3.944  0.00  0.00    +0.145 HD
ENDBRANCH   4   8
BRANCH   5  13
ATOM     13  O   LIG    1       24.922 -21.205   3.934  0.00  0.00    -0.506 OA
ATOM     14  H   LIG    1       25.295 -21.477   4.791  0.00  0.00    +0.292 HD
ENDBRANCH   5  13
ENDBRANCH   1   2
BRANCH   1  15
ATOM     15  O   LIG    1       22.039 -15.868   5.810  0.00  0.00    -0.386 OA
ATOM     16  H   LIG    1       22.390 -16.635   6.299  0.00  0.00    +0.210 HD
ENDBRANCH   1  15
BRANCH   1  17
ATOM     17  C   LIG    1       23.215 -14.939   3.873  0.00  0.00    +0.117 C 
BRANCH  17  18
ATOM     18  N   LIG    1       23.547 -13.929   4.909  0.00  0.00    -0.311 NA
ATOM     19  H   LIG    1       22.723 -13.709   5.468  0.00  0.00    +0.122 HD
BRANCH  18  21
ATOM     20  C   LIG    1       23.598 -11.492   5.175  0.00  0.00    +0.024 C 
ATOM     21  C   LIG    1       24.122 -12.682   4.355  0.00  0.00    +0.051 C 
BRANCH  21  22
ATOM     22  C   LIG    1       23.879 -12.437   2.843  0.00  0.00    +0.023 C 
BRANCH  22  23
ATOM     23  C   LIG    1       25.039 -12.861   1.933  0.00  0.00    +0.036 C 
BRANCH  23  24
ATOM     24  C   LIG    1       26.195 -13.453   2.702  0.00  0.00    -0.047 A 
ATOM     25  C   LIG    1       27.190 -12.624   3.238  0.00  0.00    +0.003 A 
ATOM     26  C   LIG    1       28.242 -13.170   3.974  0.00  0.00    +0.000 A 
ATOM     27  C   LIG    1       28.314 -14.547   4.177  0.00  0.00    +0.000 A 
ATOM     28  C   LIG    1       27.336 -15.381   3.639  0.00  0.00    +0.000 A 
ATOM     29  C   LIG    1       26.282 -14.837   2.902  0.00  0.00    +0.003 A 
ENDBRANCH  23  24
ENDBRANCH  22  23
ENDBRANCH  21  22
ENDBRANCH  18  21
ENDBRANCH  17  18
ENDBRANCH   1  17
TORSDOF 10
ENDMDL
MODEL 6
REMARK VINA RESULT:      -4.6      2.995      6.770
REMARK  Name = *****
REMARK                            x       y       z     vdW  Elec       q    Type
REMARK                         _______ _______ _______ _____ _____    ______ ____
ROOT
ATOM      1  C   LIG    1       23.483 -19.514   4.031  0.00  0.00    +0.158 C 
ENDROOT
BRANCH   1   2
ATOM      2  C   LIG    1       24.697 -19.996   4.814  0.00  0.00    -0.017 A 
ATOM      3  C   LIG    1       25.921 -19.314   4.737  0.00  0.00    +0.023 A 
ATOM      4  C   LIG    1       27.061 -19.753   5.449  0.00  0.00    +0.078 A 
ATOM      5  C   LIG    1       26.945 -20.873   6.288  0.00  0.00    +0.129 A 
ATOM      6  C   LIG    1       25.740 -21.572   6.362  0.00  0.00    +0.046 A 
ATOM      7  C   LIG    1       24.637 -21.147   5.616  0.00  0.00    +0.010 A 
BRANCH   4   8
ATOM      8  C   LIG    1       28.341 -19.018   5.229  0.00  0.00    +0.245 C 
ATOM      9  O   LIG    1       29.378 -19.343   5.817  0.00  0.00    -0.270 OA
ATOM     10  N   LIG    1       28.340 -17.953   4.374  0.00  0.00    -0.325 N 
ATOM     11  H   LIG    1       29.179 -17.416   4.246  0.00  0.00    +0.145 HD
ATOM     12  H   LIG    1       27.479 -17.682   3.907  0.00  0.00    +0.145 HD
ENDBRANCH   4   8
BRANCH   5  13
ATOM     13  O   LIG    1       28.004 -21.319   7.038  0.00  0.00    -0.506 OA
ATOM     14  H   LIG    1       28.350 -22.136   6.638  0.00  0.00    +0.292 HD
ENDBRANCH   5  13
ENDBRANCH   1   2
BRANCH   1  15
ATOM     15  O   LIG    1       22.450 -20.502   4.120  0.00  0.00    -0.386 OA
ATOM     16  H   LIG    1       22.528 -21.030   3.305  0.00  0.00    +0.210 HD
ENDBRANCH   1  15
BRANCH   1  17
ATOM     17  C   LIG    1       22.936 -18.134   4.517  0.00  0.00    +0.117 C 
BRANCH  17  18
ATOM     18  N   LIG    1       23.619 -16.989   3.865  0.00  0.00    -0.311 NA
ATOM     19  H   LIG    1       24.622 -17.166   3.795  0.00  0.00    +0.122 HD
BRANCH  18  21
ATOM     20  C   LIG    1       22.182 -15.848   5.491  0.00  0.00    +0.024 C 
ATOM     21  C   LIG    1       23.387 -15.696   4.548  0.00  0.00    +0.051 C 
BRANCH  21  22
ATOM     22  C   LIG    1       23.191 -14.467   3.624  0.00  0.00    +0.023 C 
BRANCH  22  23
ATOM     23  C   LIG    1       24.002 -13.229   4.027  0.00  0.00    +0.036 C 
BRANCH  23  24
ATOM     24  C   LIG    1       25.492 -13.455   3.934  0.00  0.00    -0.047 A 
ATOM     25  C   LIG    1       26.088 -13.758   2.703  0.00  0.00    +0.003 A 
ATOM     26  C   LIG    1       27.469 -13.937   2.612  0.00  0.00    +0.000 A 
ATOM     27  C   LIG    1       28.266 -13.819   3.750  0.00  0.00    +0.000 A 
ATOM     28  C   LIG    1       27.681 -13.529   4.981  0.00  0.00    +0.000 A 
ATOM     29  C   LIG    1       26.299 -13.350   5.074  0.00  0.00    +0.003 A 
ENDBRANCH  23  24
ENDBRANCH  22  23
ENDBRANCH  21  22
ENDBRANCH  18  21
ENDBRANCH  17  18
ENDBRANCH   1  17
TORSDOF 10
ENDMDL
MODEL 7
REMARK VINA RESULT:      -4.5      1.441      2.171
REMARK  Name = *****
REMARK                            x       y       z     vdW  Elec       q    Type
REMARK                         _______ _______ _______ _____ _____    ______ ____
ROOT
ATOM      1  C   LIG    1       27.332 -17.682   3.675  0.00  0.00    +0.158 C 
ENDROOT
BRANCH   1   2
ATOM      2  C   LIG    1       26.932 -16.222   3.840  0.00  0.00    -0.017 A 
ATOM      3  C   LIG    1       25.589 -15.827   3.743  0.00  0.00    +0.023 A 
ATOM      4  C   LIG    1       25.201 -14.475   3.884  0.00  0.00    +0.078 A 
ATOM      5  C   LIG    1       26.185 -13.515   4.175  0.00  0.00    +0.129 A 
ATOM      6  C   LIG    1       27.526 -13.890   4.258  0.00  0.00    +0.046 A 
ATOM      7  C   LIG    1       27.893 -15.225   4.071  0.00  0.00    +0.010 A 
BRANCH   4   8
ATOM      8  C   LIG    1       23.763 -14.140   3.669  0.00  0.00    +0.245 C 
ATOM      9  O   LIG    1       22.862 -14.867   4.102  0.00  0.00    -0.270 OA
ATOM     10  N   LIG    1       23.457 -13.016   2.957  0.00  0.00    -0.325 N 
ATOM     11  H   LIG    1       22.497 -12.796   2.761  0.00  0.00    +0.145 HD
ATOM     12  H   LIG    1       24.204 -12.432   2.590  0.00  0.00    +0.145 HD
ENDBRANCH   4   8
BRANCH   5  13
ATOM     13  O   LIG    1       25.864 -12.195   4.367  0.00  0.00    -0.506 OA
ATOM     14  H   LIG    1       25.406 -12.105   5.221  0.00  0.00    +0.292 HD
ENDBRANCH   5  13
ENDBRANCH   1   2
BRANCH   1  15
ATOM     15  O   LIG    1       28.499 -17.937   4.463  0.00  0.00    -0.386 OA
ATOM     16  H   LIG    1       29.254 -17.731   3.880  0.00  0.00    +0.210 HD
ENDBRANCH   1  15
BRANCH   1  17
ATOM     17  C   LIG    1       26.201 -18.685   4.067  0.00  0.00    +0.117 C 
BRANCH  17  18
ATOM     18  N   LIG    1       26.734 -19.995   4.518  0.00  0.00    -0.311 NA
ATOM     19  H   LIG    1       26.281 -20.756   4.012  0.00  0.00    +0.122 HD
BRANCH  18  21
ATOM     20  C   LIG    1       27.998 -20.475   6.564  0.00  0.00    +0.024 C 
ATOM     21  C   LIG    1       26.600 -20.217   5.976  0.00  0.00    +0.051 C 
BRANCH  21  22
ATOM     22  C   LIG    1       25.624 -21.343   6.404  0.00  0.00    +0.023 C 
BRANCH  22  23
ATOM     23  C   LIG    1       24.330 -20.850   7.062  0.00  0.00    +0.036 C 
BRANCH  23  24
ATOM     24  C   LIG    1       23.252 -20.528   6.055  0.00  0.00    -0.047 A 
ATOM     25  C   LIG    1       23.111 -19.224   5.560  0.00  0.00    +0.003 A 
ATOM     26  C   LIG    1       22.134 -18.932   4.608  0.00  0.00    +0.000 A 
ATOM     27  C   LIG    1       21.286 -19.938   4.145  0.00  0.00    +0.000 A 
ATOM     28  C   LIG    1       21.412 -21.235   4.639  0.00  0.00    +0.000 A 
ATOM     29  C   LIG    1       22.388 -21.529   5.592  0.00  0.00    +0.003 A 
ENDBRANCH  23  24
ENDBRANCH  22  23
ENDBRANCH  21  22
ENDBRANCH  18  21
ENDBRANCH  17  18
ENDBRANCH   1  17
TORSDOF 10
ENDMDL
MODEL 8
REMARK VINA RESULT:      -4.4      2.098      4.020
REMARK  Name = *****
REMARK                            x       y       z     vdW  Elec       q    Type
REMARK                         _______ _______ _______ _____ _____    ______ ____
ROOT
ATOM      1  C   LIG    1       23.805 -14.915   4.192  0.00  0.00    +0.158 C 
ENDROOT
BRANCH   1   2
ATOM      2  C   LIG    1       25.203 -14.398   3.880  0.00  0.00    -0.017 A 
ATOM      3  C   LIG    1       26.048 -13.943   4.904  0.00  0.00    +0.023 A 
ATOM      4  C   LIG    1       27.345 -13.450   4.631  0.00  0.00    +0.078 A 
ATOM      5  C   LIG    1       27.810 -13.463   3.305  0.00  0.00    +0.129 A 
ATOM      6  C   LIG    1       26.975 -13.897   2.275  0.00  0.00    +0.046 A 
ATOM      7  C   LIG    1       25.680 -14.339   2.561  0.00  0.00    +0.010 A 
BRANCH   4   8
ATOM      8  C   LIG    1       28.132 -12.900   5.773  0.00  0.00    +0.245 C 
ATOM      9  O   LIG    1       28.003 -13.347   6.917  0.00  0.00    -0.270 OA
ATOM     10  N   LIG    1       28.987 -11.863   5.532  0.00  0.00    -0.325 N 
ATOM     11  H   LIG    1       29.493 -11.447   6.294  0.00  0.00    +0.145 HD
ATOM     12  H   LIG    1       29.075 -11.489   4.591  0.00  0.00    +0.145 HD
ENDBRANCH   4   8
BRANCH   5  13
ATOM     13  O   LIG    1       29.075 -13.040   2.985  0.00  0.00    -0.506 OA
ATOM     14  H   LIG    1       29.338 -13.450   2.142  0.00  0.00    +0.292 HD
ENDBRANCH   5  13
ENDBRANCH   1   2
BRANCH   1  15
ATOM     15  O   LIG    1       22.869 -14.289   3.308  0.00  0.00    -0.386 OA
ATOM     16  H   LIG    1       22.197 -14.969   3.120  0.00  0.00    +0.210 HD
ENDBRANCH   1  15
BRANCH   1  17
ATOM     17  C   LIG    1       23.676 -16.467   4.083  0.00  0.00    +0.117 C 
BRANCH  17  18
ATOM     18  N   LIG    1       22.330 -16.956   4.471  0.00  0.00    -0.311 NA
ATOM     19  H   LIG    1       22.161 -16.785   5.462  0.00  0.00    +0.122 HD
BRANCH  18  21
ATOM     20  C   LIG    1       20.706 -18.557   3.567  0.00  0.00    +0.024 C 
ATOM     21  C   LIG    1       22.112 -18.389   4.168  0.00  0.00    +0.051 C 
BRANCH  21  22
ATOM     22  C   LIG    1       22.306 -19.369   5.354  0.00  0.00    +0.023 C 
BRANCH  22  23
ATOM     23  C   LIG    1       23.160 -20.601   5.031  0.00  0.00    +0.036 C 
BRANCH  23  24
ATOM     24  C   LIG    1       24.606 -20.428   5.431  0.00  0.00    -0.047 A 
ATOM     25  C   LIG    1       25.042 -20.824   6.703  0.00  0.00    +0.003 A 
ATOM     26  C   LIG    1       26.384 -20.692   7.062  0.00  0.00    +0.000 A 
ATOM     27  C   LIG    1       27.300 -20.157   6.158  0.00  0.00    +0.000 A 
ATOM     28  C   LIG    1       26.874 -19.749   4.895  0.00  0.00    +0.000 A 
ATOM     29  C   LIG    1       25.532 -19.881   4.533  0.00  0.00    +0.003 A 
ENDBRANCH  23  24
ENDBRANCH  22  23
ENDBRANCH  21  22
ENDBRANCH  18  21
ENDBRANCH  17  18
ENDBRANCH   1  17
TORSDOF 10
ENDMDL
MODEL 9
REMARK VINA RESULT:      -4.0      2.644      7.276
REMARK  Name = *****
REMARK                            x       y       z     vdW  Elec       q    Type
REMARK                         _______ _______ _______ _____ _____    ______ ____
ROOT
ATOM      1  C   LIG    1       22.218 -16.042   4.595  0.00  0.00    +0.158 C 
ENDROOT
BRANCH   1   2
ATOM      2  C   LIG    1       22.594 -17.510   4.445  0.00  0.00    -0.017 A 
ATOM      3  C   LIG    1       23.910 -17.890   4.141  0.00  0.00    +0.023 A 
ATOM      4  C   LIG    1       24.274 -19.247   3.987  0.00  0.00    +0.078 A 
ATOM      5  C   LIG    1       23.299 -20.237   4.192  0.00  0.00    +0.129 A 
ATOM      6  C   LIG    1       21.982 -19.874   4.478  0.00  0.00    +0.046 A 
ATOM      7  C   LIG    1       21.633 -18.525   4.581  0.00  0.00    +0.010 A 
BRANCH   4   8
ATOM      8  C   LIG    1       25.675 -19.546   3.570  0.00  0.00    +0.245 C 
ATOM      9  O   LIG    1       26.108 -19.190   2.469  0.00  0.00    -0.270 OA
ATOM     10  N   LIG    1       26.472 -20.250   4.427  0.00  0.00    -0.325 N 
ATOM     11  H   LIG    1       27.403 -20.503   4.148  0.00  0.00    +0.145 HD
ATOM     12  H   LIG    1       26.103 -20.555   5.324  0.00  0.00    +0.145 HD
ENDBRANCH   4   8
BRANCH   5  13
ATOM     13  O   LIG    1       23.602 -21.572   4.101  0.00  0.00    -0.506 OA
ATOM     14  H   LIG    1       23.240 -21.920   3.268  0.00  0.00    +0.292 HD
ENDBRANCH   5  13
ENDBRANCH   1   2
BRANCH   1  15
ATOM     15  O   LIG    1       21.974 -15.763   5.978  0.00  0.00    -0.386 OA
ATOM     16  H   LIG    1       22.594 -15.048   6.211  0.00  0.00    +0.210 HD
ENDBRANCH   1  15
BRANCH   1  17
ATOM     17  C   LIG    1       23.302 -15.062   4.043  0.00  0.00    +0.117 C 
BRANCH  17  18
ATOM     18  N   LIG    1       23.537 -13.906   4.944  0.00  0.00    -0.311 NA
ATOM     19  H   LIG    1       22.674 -13.647   5.422  0.00  0.00    +0.122 HD
BRANCH  18  21
ATOM     20  C   LIG    1       23.550 -11.454   4.925  0.00  0.00    +0.024 C 
ATOM     21  C   LIG    1       24.099 -12.724   4.253  0.00  0.00    +0.051 C 
BRANCH  21  22
ATOM     22  C   LIG    1       23.866 -12.660   2.721  0.00  0.00    +0.023 C 
BRANCH  22  23
ATOM     23  C   LIG    1       25.113 -12.942   1.874  0.00  0.00    +0.036 C 
BRANCH  23  24
ATOM     24  C   LIG    1       26.223 -13.588   2.669  0.00  0.00    -0.047 A 
ATOM     25  C   LIG    1       27.271 -12.812   3.182  0.00  0.00    +0.003 A 
ATOM     26  C   LIG    1       28.280 -13.404   3.942  0.00  0.00    +0.000 A 
ATOM     27  C   LIG    1       28.255 -14.776   4.191  0.00  0.00    +0.000 A 
ATOM     28  C   LIG    1       27.223 -15.557   3.675  0.00  0.00    +0.000 A 
ATOM     29  C   LIG    1       26.212 -14.967   2.914  0.00  0.00    +0.003 A 
ENDBRANCH  23  24
ENDBRANCH  22  23
ENDBRANCH  21  22
ENDBRANCH  18  21
ENDBRANCH  17  18
ENDBRANCH   1  17
TORSDOF 10
ENDMDL
