MODEL 1
REMARK VINA RESULT:      -7.2      0.000      0.000
REMARK  Name = *****
REMARK                            x       y       z     vdW  Elec       q    Type
REMARK                         _______ _______ _______ _____ _____    ______ ____
ROOT
ATOM      1  N   LIG    1       24.284 -26.606   6.291  0.00  0.00    -0.300 N 
ATOM      2  H   LIG    1       23.766 -26.768   7.156  0.00  0.00    +0.150 HD
ATOM      3  C   LIG    1       24.278 -25.297   5.841  0.00  0.00    +0.235 C 
ATOM      4  O   LIG    1       24.819 -24.969   4.790  0.00  0.00    -0.274 OA
ENDROOT
BRANCH   1  10
ATOM      5  C   LIG    1       23.937 -29.849   8.761  0.00  0.00    +0.025 C 
ATOM      6  C   LIG    1       25.351 -30.122   8.215  0.00  0.00    +0.042 C 
ATOM      7  CA  LIG    1       25.287 -30.806   6.826  0.00  0.00    +0.201 C 
ATOM      8  N   LIG    1       25.284 -29.740   5.810  0.00  0.00    -0.271 N 
ATOM      9  C   LIG    1       26.024 -28.506   6.136  0.00  0.00    +0.165 C 
ATOM     10  CA  LIG    1       24.865 -27.704   5.494  0.00  0.00    +0.190 C 
ATOM     11  C   LIG    1       24.118 -29.069   5.522  0.00  0.00    +0.240 C 
ATOM     12  O   LIG    1       22.985 -29.479   5.504  0.00  0.00    -0.273 OA
ATOM     13  S   LIG    1       26.169 -28.473   7.959  0.00  0.00    -0.127 S 
ATOM     14  C   LIG    1       26.134 -30.878   9.295  0.00  0.00    +0.025 C 
BRANCH   7  15
ATOM     15  C   LIG    1       26.434 -31.774   6.488  0.00  0.00    +0.327 C 
ATOM     16  O   LIG    1       27.180 -32.288   7.308  0.00  0.00    -0.249 OA
BRANCH  15  17
ATOM     17  OXT LIG    1       26.508 -32.089   5.169  0.00  0.00    -0.479 OA
ATOM     18  HXT LIG    1       26.180 -31.342   4.628  0.00  0.00    +0.295 HD
ENDBRANCH  15  17
ENDBRANCH   7  15
ENDBRANCH   1  10
BRANCH   3  19
ATOM     19  CA  LIG    1       23.623 -24.308   6.841  0.00  0.00    +0.168 C 
BRANCH  19  20
ATOM     20  C   LIG    1       24.519 -23.147   7.235  0.00  0.00    -0.022 A 
ATOM     21  C   LIG    1       25.879 -23.375   7.509  0.00  0.00    +0.009 A 
ATOM     22  C   LIG    1       26.721 -22.322   7.871  0.00  0.00    +0.045 A 
ATOM     23  C   LIG    1       26.213 -21.034   7.970  0.00  0.00    +0.117 A 
ATOM     24  C   LIG    1       24.870 -20.780   7.711  0.00  0.00    +0.045 A 
ATOM     25  C   LIG    1       24.027 -21.834   7.342  0.00  0.00    +0.009 A 
BRANCH  23  26
ATOM     26  O   LIG    1       27.073 -20.037   8.325  0.00  0.00    -0.507 OA
ATOM     27  H   LIG    1       27.916 -20.175   7.862  0.00  0.00    +0.292 HD
ENDBRANCH  23  26
ENDBRANCH  19  20
BRANCH  19  28
ATOM     28  N   LIG    1       22.318 -23.830   6.308  0.00  0.00    -0.316 NA
ATOM     29  H1  LIG    1       22.187 -22.875   6.646  0.00  0.00    +0.119 HD
ATOM     30  H2  LIG    1       22.407 -23.737   5.296  0.00  0.00    +0.119 HD
ENDBRANCH  19  28
ENDBRANCH   3  19
TORSDOF 7
ENDMDL
MODEL 2
REMARK VINA RESULT:      -7.1      5.280      8.130
REMARK  Name = *****
REMARK                            x       y       z     vdW  Elec       q    Type
REMARK                         _______ _______ _______ _____ _____    ______ ____
ROOT
ATOM      1  N   LIG    1       27.435 -20.305   8.041  0.00  0.00    -0.300 N 
ATOM      2  H   LIG    1       26.928 -19.473   7.733  0.00  0.00    +0.150 HD
ATOM      3  C   LIG    1       28.814 -20.193   8.015  0.00  0.00    +0.235 C 
ATOM      4  O   LIG    1       29.547 -21.131   8.313  0.00  0.00    -0.274 OA
ENDROOT
BRANCH   1  10
ATOM      5  C   LIG    1       25.208 -21.017   4.684  0.00  0.00    +0.025 C 
ATOM      6  C   LIG    1       24.172 -21.435   5.744  0.00  0.00    +0.042 C 
ATOM      7  CA  LIG    1       24.431 -22.883   6.233  0.00  0.00    +0.201 C 
ATOM      8  N   LIG    1       25.334 -22.800   7.393  0.00  0.00    -0.271 N 
ATOM      9  C   LIG    1       25.214 -21.604   8.248  0.00  0.00    +0.165 C 
ATOM     10  CA  LIG    1       26.759 -21.582   8.346  0.00  0.00    +0.190 C 
ATOM     11  C   LIG    1       26.686 -22.633   7.201  0.00  0.00    +0.240 C 
ATOM     12  O   LIG    1       27.392 -23.063   6.323  0.00  0.00    -0.273 OA
ATOM     13  S   LIG    1       24.412 -20.326   7.214  0.00  0.00    -0.127 S 
ATOM     14  C   LIG    1       22.776 -21.166   5.168  0.00  0.00    +0.025 C 
BRANCH   7  15
ATOM     15  C   LIG    1       23.194 -23.693   6.656  0.00  0.00    +0.327 C 
ATOM     16  O   LIG    1       22.190 -23.220   7.167  0.00  0.00    -0.249 OA
BRANCH  15  17
ATOM     17  OXT LIG    1       23.273 -25.011   6.336  0.00  0.00    -0.479 OA
ATOM     18  HXT LIG    1       23.096 -25.134   5.382  0.00  0.00    +0.295 HD
ENDBRANCH  15  17
ENDBRANCH   7  15
ENDBRANCH   1  10
BRANCH   3  19
ATOM     19  CA  LIG    1       29.307 -18.761   7.680  0.00  0.00    +0.168 C 
BRANCH  19  20
ATOM     20  C   LIG    1       30.219 -18.161   8.736  0.00  0.00    -0.022 A 
ATOM     21  C   LIG    1       31.561 -17.881   8.423  0.00  0.00    +0.009 A 
ATOM     22  C   LIG    1       32.417 -17.327   9.377  0.00  0.00    +0.045 A 
ATOM     23  C   LIG    1       31.944 -17.056  10.653  0.00  0.00    +0.117 A 
ATOM     24  C   LIG    1       30.623 -17.329  10.993  0.00  0.00    +0.045 A 
ATOM     25  C   LIG    1       29.763 -17.877  10.035  0.00  0.00    +0.009 A 
BRANCH  23  26
ATOM     26  O   LIG    1       32.815 -16.513  11.552  0.00  0.00    -0.507 OA
ATOM     27  H   LIG    1       33.590 -16.181  11.070  0.00  0.00    +0.292 HD
ENDBRANCH  23  26
ENDBRANCH  19  20
BRANCH  19  28
ATOM     28  N   LIG    1       29.945 -18.741   6.336  0.00  0.00    -0.316 NA
ATOM     29  H1  LIG    1       29.232 -18.441   5.670  0.00  0.00    +0.119 HD
ATOM     30  H2  LIG    1       30.639 -17.992   6.328  0.00  0.00    +0.119 HD
ENDBRANCH  19  28
ENDBRANCH   3  19
TORSDOF 7
ENDMDL
MODEL 3
REMARK VINA RESULT:      -6.5      2.611      3.965
REMARK  Name = *****
REMARK                            x       y       z     vdW  Elec       q    Type
REMARK                         _______ _______ _______ _____ _____    ______ ____
ROOT
ATOM      1  N   LIG    1       25.792 -29.148   7.143  0.00  0.00    -0.300 N 
ATOM      2  H   LIG    1       26.682 -28.767   7.468  0.00  0.00    +0.150 HD
ATOM      3  C   LIG    1       25.076 -28.322   6.294  0.00  0.00    +0.235 C 
ATOM      4  O   LIG    1       23.969 -28.633   5.866  0.00  0.00    -0.274 OA
ENDROOT
BRANCH   1  10
ATOM      5  C   LIG    1       25.595 -28.521  11.181  0.00  0.00    +0.025 C 
ATOM      6  C   LIG    1       26.111 -29.972  11.196  0.00  0.00    +0.042 C 
ATOM      7  CA  LIG    1       24.948 -30.977  11.000  0.00  0.00    +0.201 C 
ATOM      8  N   LIG    1       24.812 -31.218   9.554  0.00  0.00    -0.271 N 
ATOM      9  C   LIG    1       26.047 -31.153   8.749  0.00  0.00    +0.165 C 
ATOM     10  CA  LIG    1       25.234 -30.414   7.657  0.00  0.00    +0.190 C 
ATOM     11  C   LIG    1       24.146 -30.308   8.766  0.00  0.00    +0.240 C 
ATOM     12  O   LIG    1       23.189 -29.625   9.029  0.00  0.00    -0.273 OA
ATOM     13  S   LIG    1       27.236 -30.169   9.731  0.00  0.00    -0.127 S 
ATOM     14  C   LIG    1       26.949 -30.161  12.466  0.00  0.00    +0.025 C 
BRANCH   7  15
ATOM     15  C   LIG    1       25.101 -32.342  11.692  0.00  0.00    +0.327 C 
ATOM     16  O   LIG    1       25.851 -33.233  11.324  0.00  0.00    -0.249 OA
BRANCH  15  17
ATOM     17  OXT LIG    1       24.370 -32.458  12.831  0.00  0.00    -0.479 OA
ATOM     18  HXT LIG    1       23.415 -32.415  12.622  0.00  0.00    +0.295 HD
ENDBRANCH  15  17
ENDBRANCH   7  15
ENDBRANCH   1  10
BRANCH   3  19
ATOM     19  CA  LIG    1       25.857 -27.049   5.873  0.00  0.00    +0.168 C 
BRANCH  19  20
ATOM     20  C   LIG    1       25.190 -25.751   6.290  0.00  0.00    -0.022 A 
ATOM     21  C   LIG    1       25.966 -24.701   6.809  0.00  0.00    +0.009 A 
ATOM     22  C   LIG    1       25.373 -23.497   7.197  0.00  0.00    +0.045 A 
ATOM     23  C   LIG    1       24.001 -23.334   7.076  0.00  0.00    +0.117 A 
ATOM     24  C   LIG    1       23.207 -24.358   6.571  0.00  0.00    +0.045 A 
ATOM     25  C   LIG    1       23.801 -25.562   6.177  0.00  0.00    +0.009 A 
BRANCH  23  26
ATOM     26  O   LIG    1       23.466 -22.141   7.465  0.00  0.00    -0.507 OA
ATOM     27  H   LIG    1       23.567 -22.055   8.427  0.00  0.00    +0.292 HD
ENDBRANCH  23  26
ENDBRANCH  19  20
BRANCH  19  28
ATOM     28  N   LIG    1       27.259 -27.122   6.368  0.00  0.00    -0.316 NA
ATOM     29  H1  LIG    1       27.797 -26.427   5.849  0.00  0.00    +0.119 HD
ATOM     30  H2  LIG    1       27.270 -26.791   7.333  0.00  0.00    +0.119 HD
ENDBRANCH  19  28
ENDBRANCH   3  19
TORSDOF 7
ENDMDL
MODEL 4
REMARK VINA RESULT:      -6.4      3.647      5.719
REMARK  Name = *****
REMARK                            x       y       z     vdW  Elec       q    Type
REMARK                         _______ _______ _______ _____ _____    ______ ____
ROOT
ATOM      1  N   LIG    1       24.973 -29.969   8.911  0.00  0.00    -0.300 N 
ATOM      2  H   LIG    1       24.244 -29.346   9.264  0.00  0.00    +0.150 HD
ATOM      3  C   LIG    1       25.005 -30.110   7.534  0.00  0.00    +0.235 C 
ATOM      4  O   LIG    1       25.797 -30.864   6.977  0.00  0.00    -0.274 OA
ENDROOT
BRANCH   1  10
ATOM      5  C   LIG    1       24.579 -28.116  12.537  0.00  0.00    +0.025 C 
ATOM      6  C   LIG    1       26.094 -28.392  12.579  0.00  0.00    +0.042 C 
ATOM      7  CA  LIG    1       26.381 -29.848  13.026  0.00  0.00    +0.201 C 
ATOM      8  N   LIG    1       26.435 -30.678  11.812  0.00  0.00    -0.271 N 
ATOM      9  C   LIG    1       26.937 -30.033  10.583  0.00  0.00    +0.165 C 
ATOM     10  CA  LIG    1       25.829 -30.778   9.801  0.00  0.00    +0.190 C 
ATOM     11  C   LIG    1       25.269 -31.101  11.216  0.00  0.00    +0.240 C 
ATOM     12  O   LIG    1       24.220 -31.411  11.724  0.00  0.00    -0.273 OA
ATOM     13  S   LIG    1       26.730 -28.233  10.841  0.00  0.00    -0.127 S 
ATOM     14  C   LIG    1       26.748 -27.293  13.426  0.00  0.00    +0.025 C 
BRANCH   7  15
ATOM     15  C   LIG    1       27.684 -30.077  13.811  0.00  0.00    +0.327 C 
ATOM     16  O   LIG    1       28.808 -30.005  13.338  0.00  0.00    -0.249 OA
BRANCH  15  17
ATOM     17  OXT LIG    1       27.487 -30.298  15.137  0.00  0.00    -0.479 OA
ATOM     18  HXT LIG    1       27.887 -29.573  15.660  0.00  0.00    +0.295 HD
ENDBRANCH  15  17
ENDBRANCH   7  15
ENDBRANCH   1  10
BRANCH   3  19
ATOM     19  CA  LIG    1       24.029 -29.156   6.796  0.00  0.00    +0.168 C 
BRANCH  19  20
ATOM     20  C   LIG    1       24.605 -27.779   6.518  0.00  0.00    -0.022 A 
ATOM     21  C   LIG    1       24.017 -26.959   5.541  0.00  0.00    +0.009 A 
ATOM     22  C   LIG    1       24.529 -25.688   5.270  0.00  0.00    +0.045 A 
ATOM     23  C   LIG    1       25.637 -25.229   5.967  0.00  0.00    +0.117 A 
ATOM     24  C   LIG    1       26.244 -26.021   6.936  0.00  0.00    +0.045 A 
ATOM     25  C   LIG    1       25.727 -27.291   7.212  0.00  0.00    +0.009 A 
BRANCH  23  26
ATOM     26  O   LIG    1       26.101 -23.981   5.672  0.00  0.00    -0.507 OA
ATOM     27  H   LIG    1       25.904 -23.789   4.740  0.00  0.00    +0.292 HD
ENDBRANCH  23  26
ENDBRANCH  19  20
BRANCH  19  28
ATOM     28  N   LIG    1       23.531 -29.798   5.550  0.00  0.00    -0.316 NA
ATOM     29  H1  LIG    1       23.064 -30.664   5.823  0.00  0.00    +0.119 HD
ATOM     30  H2  LIG    1       22.787 -29.212   5.169  0.00  0.00    +0.119 HD
ENDBRANCH  19  28
ENDBRANCH   3  19
TORSDOF 7
ENDMDL
MODEL 5
REMARK VINA RESULT:      -6.4      2.616      3.846
REMARK  Name = *****
REMARK                            x       y       z     vdW  Elec       q    Type
REMARK                         _______ _______ _______ _____ _____    ______ ____
ROOT
ATOM      1  N   LIG    1       26.063 -23.692   6.340  0.00  0.00    -0.300 N 
ATOM      2  H   LIG    1       26.991 -24.015   6.619  0.00  0.00    +0.150 HD
ATOM      3  C   LIG    1       25.618 -22.555   6.992  0.00  0.00    +0.235 C 
ATOM      4  O   LIG    1       24.503 -22.085   6.790  0.00  0.00    -0.274 OA
ENDROOT
BRANCH   1  10
ATOM      5  C   LIG    1       25.377 -27.169   8.383  0.00  0.00    +0.025 C 
ATOM      6  C   LIG    1       25.591 -27.763   6.978  0.00  0.00    +0.042 C 
ATOM      7  CA  LIG    1       24.296 -27.663   6.131  0.00  0.00    +0.201 C 
ATOM      8  N   LIG    1       24.339 -26.379   5.411  0.00  0.00    -0.271 N 
ATOM      9  C   LIG    1       25.671 -25.876   5.023  0.00  0.00    +0.165 C 
ATOM     10  CA  LIG    1       25.195 -24.459   5.424  0.00  0.00    +0.190 C 
ATOM     11  C   LIG    1       23.993 -25.216   6.059  0.00  0.00    +0.240 C 
ATOM     12  O   LIG    1       23.159 -25.034   6.911  0.00  0.00    -0.273 OA
ATOM     13  S   LIG    1       26.865 -26.714   6.126  0.00  0.00    -0.127 S 
ATOM     14  C   LIG    1       26.170 -29.172   7.146  0.00  0.00    +0.025 C 
BRANCH   7  15
ATOM     15  C   LIG    1       24.070 -28.776   5.095  0.00  0.00    +0.327 C 
ATOM     16  O   LIG    1       24.728 -28.928   4.076  0.00  0.00    -0.249 OA
BRANCH  15  17
ATOM     17  OXT LIG    1       23.099 -29.658   5.448  0.00  0.00    -0.479 OA
ATOM     18  HXT LIG    1       22.235 -29.202   5.496  0.00  0.00    +0.295 HD
ENDBRANCH  15  17
ENDBRANCH   7  15
ENDBRANCH   1  10
BRANCH   3  19
ATOM     19  CA  LIG    1       26.697 -21.905   7.898  0.00  0.00    +0.168 C 
BRANCH  19  20
ATOM     20  C   LIG    1       27.565 -20.884   7.187  0.00  0.00    -0.022 A 
ATOM     21  C   LIG    1       28.805 -20.515   7.737  0.00  0.00    +0.009 A 
ATOM     22  C   LIG    1       29.621 -19.579   7.098  0.00  0.00    +0.045 A 
ATOM     23  C   LIG    1       29.204 -18.998   5.910  0.00  0.00    +0.117 A 
ATOM     24  C   LIG    1       27.980 -19.339   5.345  0.00  0.00    +0.045 A 
ATOM     25  C   LIG    1       27.165 -20.282   5.981  0.00  0.00    +0.009 A 
BRANCH  23  26
ATOM     26  O   LIG    1       30.034 -18.091   5.320  0.00  0.00    -0.507 OA
ATOM     27  H   LIG    1       30.128 -17.326   5.911  0.00  0.00    +0.292 HD
ENDBRANCH  23  26
ENDBRANCH  19  20
BRANCH  19  28
ATOM     28  N   LIG    1       26.063 -21.327   9.114  0.00  0.00    -0.316 NA
ATOM     29  H1  LIG    1       26.748 -20.703   9.542  0.00  0.00    +0.119 HD
ATOM     30  H2  LIG    1       25.306 -20.712   8.812  0.00  0.00    +0.119 HD
ENDBRANCH  19  28
ENDBRANCH   3  19
TORSDOF 7
ENDMDL
MODEL 6
REMARK VINA RESULT:      -6.3      5.293      7.923
REMARK  Name = *****
REMARK                            x       y       z     vdW  Elec       q    Type
REMARK                         _______ _______ _______ _____ _____    ______ ____
ROOT
ATOM      1  N   LIG    1       27.472 -20.368   7.983  0.00  0.00    -0.300 N 
ATOM      2  H   LIG    1       27.985 -20.798   8.755  0.00  0.00    +0.150 HD
ATOM      3  C   LIG    1       28.261 -19.779   7.010  0.00  0.00    +0.235 C 
ATOM      4  O   LIG    1       27.775 -19.185   6.052  0.00  0.00    -0.274 OA
ENDROOT
BRANCH   1  10
ATOM      5  C   LIG    1       26.212 -24.176   7.178  0.00  0.00    +0.025 C 
ATOM      6  C   LIG    1       25.221 -23.409   6.283  0.00  0.00    +0.042 C 
ATOM      7  CA  LIG    1       24.024 -22.875   7.111  0.00  0.00    +0.201 C 
ATOM      8  N   LIG    1       24.381 -21.527   7.582  0.00  0.00    -0.271 N 
ATOM      9  C   LIG    1       25.257 -20.724   6.707  0.00  0.00    +0.165 C 
ATOM     10  CA  LIG    1       26.000 -20.246   7.978  0.00  0.00    +0.190 C 
ATOM     11  C   LIG    1       25.195 -21.377   8.681  0.00  0.00    +0.240 C 
ATOM     12  O   LIG    1       25.268 -22.052   9.676  0.00  0.00    -0.273 OA
ATOM     13  S   LIG    1       26.116 -21.921   5.622  0.00  0.00    -0.127 S 
ATOM     14  C   LIG    1       24.861 -24.312   5.097  0.00  0.00    +0.025 C 
BRANCH   7  15
ATOM     15  C   LIG    1       22.676 -22.776   6.376  0.00  0.00    +0.327 C 
ATOM     16  O   LIG    1       22.357 -21.872   5.618  0.00  0.00    -0.249 OA
BRANCH  15  17
ATOM     17  OXT LIG    1       21.866 -23.847   6.580  0.00  0.00    -0.479 OA
ATOM     18  HXT LIG    1       20.980 -23.547   6.866  0.00  0.00    +0.295 HD
ENDBRANCH  15  17
ENDBRANCH   7  15
ENDBRANCH   1  10
BRANCH   3  19
ATOM     19  CA  LIG    1       29.777 -20.042   7.207  0.00  0.00    +0.168 C 
BRANCH  19  20
ATOM     20  C   LIG    1       30.477 -18.999   8.060  0.00  0.00    -0.022 A 
ATOM     21  C   LIG    1       29.769 -18.340   9.080  0.00  0.00    +0.009 A 
ATOM     22  C   LIG    1       30.394 -17.379   9.878  0.00  0.00    +0.045 A 
ATOM     23  C   LIG    1       31.727 -17.063   9.660  0.00  0.00    +0.117 A 
ATOM     24  C   LIG    1       32.451 -17.694   8.654  0.00  0.00    +0.045 A 
ATOM     25  C   LIG    1       31.827 -18.662   7.859  0.00  0.00    +0.009 A 
BRANCH  23  26
ATOM     26  O   LIG    1       32.296 -16.120  10.465  0.00  0.00    -0.507 OA
ATOM     27  H   LIG    1       32.030 -15.241  10.149  0.00  0.00    +0.292 HD
ENDBRANCH  23  26
ENDBRANCH  19  20
BRANCH  19  28
ATOM     28  N   LIG    1       29.993 -21.414   7.741  0.00  0.00    -0.316 NA
ATOM     29  H1  LIG    1       30.074 -22.039   6.938  0.00  0.00    +0.119 HD
ATOM     30  H2  LIG    1       30.912 -21.439   8.184  0.00  0.00    +0.119 HD
ENDBRANCH  19  28
ENDBRANCH   3  19
TORSDOF 7
ENDMDL
MODEL 7
REMARK VINA RESULT:      -6.3      2.753      4.509
REMARK  Name = *****
REMARK                            x       y       z     vdW  Elec       q    Type
REMARK                         _______ _______ _______ _____ _____    ______ ____
ROOT
ATOM      1  N   LIG    1       25.262 -30.033   6.931  0.00  0.00    -0.300 N 
ATOM      2  H   LIG    1       26.207 -29.654   7.019  0.00  0.00    +0.150 HD
ATOM      3  C   LIG    1       24.445 -29.368   6.034  0.00  0.00    +0.235 C 
ATOM      4  O   LIG    1       23.272 -29.687   5.864  0.00  0.00    -0.274 OA
ENDROOT
BRANCH   1  10
ATOM      5  C   LIG    1       25.831 -28.548  10.700  0.00  0.00    +0.025 C 
ATOM      6  C   LIG    1       26.280 -30.000  10.952  0.00  0.00    +0.042 C 
ATOM      7  CA  LIG    1       25.058 -30.925  11.185  0.00  0.00    +0.201 C 
ATOM      8  N   LIG    1       24.652 -31.457   9.873  0.00  0.00    -0.271 N 
ATOM      9  C   LIG    1       25.721 -31.665   8.877  0.00  0.00    +0.165 C 
ATOM     10  CA  LIG    1       24.754 -31.112   7.802  0.00  0.00    +0.190 C 
ATOM     11  C   LIG    1       23.892 -30.685   9.025  0.00  0.00    +0.240 C 
ATOM     12  O   LIG    1       23.028 -29.886   9.286  0.00  0.00    -0.273 OA
ATOM     13  S   LIG    1       27.109 -30.595   9.400  0.00  0.00    -0.127 S 
ATOM     14  C   LIG    1       27.326 -29.982  12.073  0.00  0.00    +0.025 C 
BRANCH   7  15
ATOM     15  C   LIG    1       25.277 -32.120  12.129  0.00  0.00    +0.327 C 
ATOM     16  O   LIG    1       25.866 -33.148  11.832  0.00  0.00    -0.249 OA
BRANCH  15  17
ATOM     17  OXT LIG    1       24.817 -31.907  13.389  0.00  0.00    -0.479 OA
ATOM     18  HXT LIG    1       24.897 -32.726  13.918  0.00  0.00    +0.295 HD
ENDBRANCH  15  17
ENDBRANCH   7  15
ENDBRANCH   1  10
BRANCH   3  19
ATOM     19  CA  LIG    1       25.188 -28.278   5.217  0.00  0.00    +0.168 C 
BRANCH  19  20
ATOM     20  C   LIG    1       25.066 -26.881   5.800  0.00  0.00    -0.022 A 
ATOM     21  C   LIG    1       23.886 -26.143   5.605  0.00  0.00    +0.009 A 
ATOM     22  C   LIG    1       23.752 -24.858   6.133  0.00  0.00    +0.045 A 
ATOM     23  C   LIG    1       24.796 -24.295   6.854  0.00  0.00    +0.117 A 
ATOM     24  C   LIG    1       25.977 -25.000   7.057  0.00  0.00    +0.045 A 
ATOM     25  C   LIG    1       26.110 -26.291   6.534  0.00  0.00    +0.009 A 
BRANCH  23  26
ATOM     26  O   LIG    1       24.619 -23.039   7.353  0.00  0.00    -0.507 OA
ATOM     27  H   LIG    1       25.192 -22.930   8.130  0.00  0.00    +0.292 HD
ENDBRANCH  23  26
ENDBRANCH  19  20
BRANCH  19  28
ATOM     28  N   LIG    1       26.612 -28.665   5.026  0.00  0.00    -0.316 NA
ATOM     29  H1  LIG    1       26.894 -28.329   4.104  0.00  0.00    +0.119 HD
ATOM     30  H2  LIG    1       27.176 -28.125   5.683  0.00  0.00    +0.119 HD
ENDBRANCH  19  28
ENDBRANCH   3  19
TORSDOF 7
ENDMDL
MODEL 8
REMARK VINA RESULT:      -6.1      5.161      6.786
REMARK  Name = *****
REMARK                            x       y       z     vdW  Elec       q    Type
REMARK                         _______ _______ _______ _____ _____    ______ ____
ROOT
ATOM      1  N   LIG    1       26.116 -27.703  11.784  0.00  0.00    -0.300 N 
ATOM      2  H   LIG    1       25.296 -27.242  11.387  0.00  0.00    +0.150 HD
ATOM      3  C   LIG    1       26.336 -27.453  13.127  0.00  0.00    +0.235 C 
ATOM      4  O   LIG    1       27.311 -27.904  13.721  0.00  0.00    -0.274 OA
ENDROOT
BRANCH   1  10
ATOM      5  C   LIG    1       23.729 -30.082   9.464  0.00  0.00    +0.025 C 
ATOM      6  C   LIG    1       24.826 -31.110   9.800  0.00  0.00    +0.042 C 
ATOM      7  CA  LIG    1       26.054 -30.934   8.870  0.00  0.00    +0.201 C 
ATOM      8  N   LIG    1       26.973 -29.991   9.527  0.00  0.00    -0.271 N 
ATOM      9  C   LIG    1       26.997 -30.001  11.003  0.00  0.00    +0.165 C 
ATOM     10  CA  LIG    1       27.083 -28.455  10.960  0.00  0.00    +0.190 C 
ATOM     11  C   LIG    1       26.736 -28.637   9.454  0.00  0.00    +0.240 C 
ATOM     12  O   LIG    1       26.267 -27.991   8.551  0.00  0.00    -0.273 OA
ATOM     13  S   LIG    1       25.410 -30.746  11.525  0.00  0.00    -0.127 S 
ATOM     14  C   LIG    1       24.183 -32.502   9.799  0.00  0.00    +0.025 C 
BRANCH   7  15
ATOM     15  C   LIG    1       26.847 -32.209   8.538  0.00  0.00    +0.327 C 
ATOM     16  O   LIG    1       27.462 -32.882   9.351  0.00  0.00    -0.249 OA
BRANCH  15  17
ATOM     17  OXT LIG    1       26.745 -32.590   7.238  0.00  0.00    -0.479 OA
ATOM     18  HXT LIG    1       26.600 -31.806   6.670  0.00  0.00    +0.295 HD
ENDBRANCH  15  17
ENDBRANCH   7  15
ENDBRANCH   1  10
BRANCH   3  19
ATOM     19  CA  LIG    1       25.188 -26.653  13.798  0.00  0.00    +0.168 C 
BRANCH  19  20
ATOM     20  C   LIG    1       23.809 -27.250  13.576  0.00  0.00    -0.022 A 
ATOM     21  C   LIG    1       22.723 -26.409  13.280  0.00  0.00    +0.009 A 
ATOM     22  C   LIG    1       21.447 -26.936  13.070  0.00  0.00    +0.045 A 
ATOM     23  C   LIG    1       21.243 -28.306  13.161  0.00  0.00    +0.117 A 
ATOM     24  C   LIG    1       22.298 -29.161  13.458  0.00  0.00    +0.045 A 
ATOM     25  C   LIG    1       23.578 -28.634  13.662  0.00  0.00    +0.009 A 
BRANCH  23  26
ATOM     26  O   LIG    1       19.981 -28.776  12.945  0.00  0.00    -0.507 OA
ATOM     27  H   LIG    1       19.863 -29.593  13.457  0.00  0.00    +0.292 HD
ENDBRANCH  23  26
ENDBRANCH  19  20
BRANCH  19  28
ATOM     28  N   LIG    1       25.472 -26.468  15.247  0.00  0.00    -0.316 NA
ATOM     29  H1  LIG    1       25.255 -27.351  15.711  0.00  0.00    +0.119 HD
ATOM     30  H2  LIG    1       26.481 -26.359  15.358  0.00  0.00    +0.119 HD
ENDBRANCH  19  28
ENDBRANCH   3  19
TORSDOF 7
ENDMDL
MODEL 9
REMARK VINA RESULT:      -6.0      5.027      7.017
REMARK  Name = *****
REMARK                            x       y       z     vdW  Elec       q    Type
REMARK                         _______ _______ _______ _____ _____    ______ ____
ROOT
ATOM      1  N   LIG    1       25.038 -29.188  11.709  0.00  0.00    -0.300 N 
ATOM      2  H   LIG    1       24.497 -28.597  11.076  0.00  0.00    +0.150 HD
ATOM      3  C   LIG    1       25.202 -28.682  12.986  0.00  0.00    +0.235 C 
ATOM      4  O   LIG    1       25.870 -29.265  13.835  0.00  0.00    -0.274 OA
ENDROOT
BRANCH   1  10
ATOM      5  C   LIG    1       25.371 -28.655   7.666  0.00  0.00    +0.025 C 
ATOM      6  C   LIG    1       24.980 -30.145   7.673  0.00  0.00    +0.042 C 
ATOM      7  CA  LIG    1       26.213 -31.042   7.951  0.00  0.00    +0.201 C 
ATOM      8  N   LIG    1       26.300 -31.232   9.409  0.00  0.00    -0.271 N 
ATOM      9  C   LIG    1       25.028 -31.250  10.156  0.00  0.00    +0.165 C 
ATOM     10  CA  LIG    1       25.724 -30.416  11.259  0.00  0.00    +0.190 C 
ATOM     11  C   LIG    1       26.849 -30.248  10.198  0.00  0.00    +0.240 C 
ATOM     12  O   LIG    1       27.758 -29.493   9.957  0.00  0.00    -0.273 OA
ATOM     13  S   LIG    1       23.808 -30.398   9.092  0.00  0.00    -0.127 S 
ATOM     14  C   LIG    1       24.222 -30.439   6.373  0.00  0.00    +0.025 C 
BRANCH   7  15
ATOM     15  C   LIG    1       26.208 -32.433   7.295  0.00  0.00    +0.327 C 
ATOM     16  O   LIG    1       25.475 -33.356   7.618  0.00  0.00    -0.249 OA
BRANCH  15  17
ATOM     17  OXT LIG    1       27.056 -32.538   6.240  0.00  0.00    -0.479 OA
ATOM     18  HXT LIG    1       27.882 -32.047   6.424  0.00  0.00    +0.295 HD
ENDBRANCH  15  17
ENDBRANCH   7  15
ENDBRANCH   1  10
BRANCH   3  19
ATOM     19  CA  LIG    1       24.384 -27.390  13.245  0.00  0.00    +0.168 C 
BRANCH  19  20
ATOM     20  C   LIG    1       22.893 -27.627  13.410  0.00  0.00    -0.022 A 
ATOM     21  C   LIG    1       21.987 -26.583  13.157  0.00  0.00    +0.009 A 
ATOM     22  C   LIG    1       20.612 -26.780  13.300  0.00  0.00    +0.045 A 
ATOM     23  C   LIG    1       20.130 -28.017  13.703  0.00  0.00    +0.117 A 
ATOM     24  C   LIG    1       21.004 -29.067  13.966  0.00  0.00    +0.045 A 
ATOM     25  C   LIG    1       22.381 -28.872  13.816  0.00  0.00    +0.009 A 
BRANCH  23  26
ATOM     26  O   LIG    1       18.780 -28.164  13.827  0.00  0.00    -0.507 OA
ATOM     27  H   LIG    1       18.532 -27.983  14.749  0.00  0.00    +0.292 HD
ENDBRANCH  23  26
ENDBRANCH  19  20
BRANCH  19  28
ATOM     28  N   LIG    1       24.948 -26.651  14.407  0.00  0.00    -0.316 NA
ATOM     29  H1  LIG    1       25.785 -27.153  14.704  0.00  0.00    +0.119 HD
ATOM     30  H2  LIG    1       25.291 -25.750  14.071  0.00  0.00    +0.119 HD
ENDBRANCH  19  28
ENDBRANCH   3  19
TORSDOF 7
ENDMDL
