MODEL 1
REMARK VINA RESULT:      -3.1      0.000      0.000
REMARK  Name = *****
REMARK                            x       y       z     vdW  Elec       q    Type
REMARK                         _______ _______ _______ _____ _____    ______ ____
ROOT
ATOM      1  C   LIG    1       23.908 -13.256   2.346  0.00  0.00    +0.134 C 
ATOM      2  N   LIG    1       24.998 -13.388   3.304  0.00  0.00    -0.279 N 
ATOM      3  C   LIG    1       25.868 -14.576   3.154  0.00  0.00    +0.249 C 
ATOM      4  S   LIG    1       27.439 -14.542   4.063  0.00  0.00    -0.007 S 
ATOM      5  O   LIG    1       27.938 -15.880   4.315  0.00  0.00    -0.172 OA
ATOM      6  O   LIG    1       28.306 -13.550   3.450  0.00  0.00    -0.172 OA
ATOM      7  C   LIG    1       26.874 -13.872   5.598  0.00  0.00    +0.177 C 
ATOM      8  C   LIG    1       26.161 -12.564   5.358  0.00  0.00    +0.118 C 
ATOM      9  C   LIG    1       24.935 -12.631   4.464  0.00  0.00    +0.218 C 
ATOM     10  O   LIG    1       23.959 -11.929   4.732  0.00  0.00    -0.276 OA
ENDROOT
BRANCH   3  11
ATOM     11  C   LIG    1       25.150 -15.890   3.460  0.00  0.00    -0.006 A 
ATOM     12  C   LIG    1       23.865 -15.852   4.035  0.00  0.00    +0.008 A 
ATOM     13  C   LIG    1       23.171 -17.030   4.323  0.00  0.00    +0.020 A 
ATOM     14  C   LIG    1       23.753 -18.262   4.044  0.00  0.00    +0.041 A 
ATOM     15 CL   LIG    1       22.902 -19.713   4.402  0.00  0.00    -0.084 Cl
ATOM     16  C   LIG    1       25.023 -18.325   3.479  0.00  0.00    +0.020 A 
ATOM     17  C   LIG    1       25.718 -17.148   3.187  0.00  0.00    +0.008 A 
ENDBRANCH   3  11
TORSDOF 1
ENDMDL
MODEL 2
REMARK VINA RESULT:      -3.0      0.162      1.180
REMARK  Name = *****
REMARK                            x       y       z     vdW  Elec       q    Type
REMARK                         _______ _______ _______ _____ _____    ______ ____
ROOT
ATOM      1  C   LIG    1       23.942 -13.292   2.312  0.00  0.00    +0.134 C 
ATOM      2  N   LIG    1       25.019 -13.411   3.286  0.00  0.00    -0.279 N 
ATOM      3  C   LIG    1       25.909 -14.586   3.147  0.00  0.00    +0.249 C 
ATOM      4  S   LIG    1       27.465 -14.531   4.081  0.00  0.00    -0.007 S 
ATOM      5  O   LIG    1       27.980 -15.862   4.337  0.00  0.00    -0.172 OA
ATOM      6  O   LIG    1       28.327 -13.524   3.484  0.00  0.00    -0.172 OA
ATOM      7  C   LIG    1       26.866 -13.873   5.608  0.00  0.00    +0.177 C 
ATOM      8  C   LIG    1       26.137 -12.576   5.360  0.00  0.00    +0.118 C 
ATOM      9  C   LIG    1       24.927 -12.658   4.447  0.00  0.00    +0.218 C 
ATOM     10  O   LIG    1       23.936 -11.972   4.701  0.00  0.00    -0.276 OA
ENDROOT
BRANCH   3  11
ATOM     11  C   LIG    1       25.206 -15.911   3.438  0.00  0.00    -0.006 A 
ATOM     12  C   LIG    1       25.869 -17.118   3.145  0.00  0.00    +0.008 A 
ATOM     13  C   LIG    1       25.265 -18.352   3.404  0.00  0.00    +0.020 A 
ATOM     14  C   LIG    1       23.989 -18.395   3.954  0.00  0.00    +0.041 A 
ATOM     15 CL   LIG    1       23.242 -19.912   4.268  0.00  0.00    -0.084 Cl
ATOM     16  C   LIG    1       23.311 -17.216   4.248  0.00  0.00    +0.020 A 
ATOM     17  C   LIG    1       23.915 -15.980   3.993  0.00  0.00    +0.008 A 
ENDBRANCH   3  11
TORSDOF 1
ENDMDL
MODEL 3
REMARK VINA RESULT:      -2.5      4.383      6.260
REMARK  Name = *****
REMARK                            x       y       z     vdW  Elec       q    Type
REMARK                         _______ _______ _______ _____ _____    ______ ____
ROOT
ATOM      1  C   LIG    1       27.529 -19.583   4.819  0.00  0.00    +0.134 C 
ATOM      2  N   LIG    1       26.113 -19.924   4.827  0.00  0.00    -0.279 N 
ATOM      3  C   LIG    1       25.300 -19.396   3.708  0.00  0.00    +0.249 C 
ATOM      4  S   LIG    1       23.655 -20.134   3.491  0.00  0.00    -0.007 S 
ATOM      5  O   LIG    1       22.756 -19.237   2.793  0.00  0.00    -0.172 OA
ATOM      6  O   LIG    1       23.821 -21.501   3.024  0.00  0.00    -0.172 OA
ATOM      7  C   LIG    1       23.145 -20.213   5.181  0.00  0.00    +0.177 C 
ATOM      8  C   LIG    1       24.165 -20.972   5.993  0.00  0.00    +0.118 C 
ATOM      9  C   LIG    1       25.566 -20.385   6.015  0.00  0.00    +0.218 C 
ATOM     10  O   LIG    1       26.219 -20.433   7.058  0.00  0.00    -0.276 OA
ENDROOT
BRANCH   3  11
ATOM     11  C   LIG    1       25.158 -17.875   3.733  0.00  0.00    -0.006 A 
ATOM     12  C   LIG    1       26.254 -17.077   3.351  0.00  0.00    +0.008 A 
ATOM     13  C   LIG    1       26.163 -15.682   3.352  0.00  0.00    +0.020 A 
ATOM     14  C   LIG    1       24.978 -15.066   3.739  0.00  0.00    +0.041 A 
ATOM     15 CL   LIG    1       24.866 -13.350   3.745  0.00  0.00    -0.084 Cl
ATOM     16  C   LIG    1       23.882 -15.833   4.124  0.00  0.00    +0.020 A 
ATOM     17  C   LIG    1       23.969 -17.229   4.121  0.00  0.00    +0.008 A 
ENDBRANCH   3  11
TORSDOF 1
ENDMDL
MODEL 4
REMARK VINA RESULT:      -2.3      1.707      3.072
REMARK  Name = *****
REMARK                            x       y       z     vdW  Elec       q    Type
REMARK                         _______ _______ _______ _____ _____    ______ ____
ROOT
ATOM      1  C   LIG    1       26.897 -13.942   5.856  0.00  0.00    +0.134 C 
ATOM      2  N   LIG    1       26.315 -13.459   4.611  0.00  0.00    -0.279 N 
ATOM      3  C   LIG    1       24.914 -13.853   4.339  0.00  0.00    +0.249 C 
ATOM      4  S   LIG    1       24.064 -12.940   3.020  0.00  0.00    -0.007 S 
ATOM      5  O   LIG    1       22.971 -13.711   2.457  0.00  0.00    -0.172 OA
ATOM      6  O   LIG    1       23.830 -11.580   3.475  0.00  0.00    -0.172 OA
ATOM      7  C   LIG    1       25.362 -12.880   1.823  0.00  0.00    +0.177 C 
ATOM      8  C   LIG    1       26.597 -12.265   2.432  0.00  0.00    +0.118 C 
ATOM      9  C   LIG    1       27.179 -12.993   3.631  0.00  0.00    +0.218 C 
ATOM     10  O   LIG    1       28.402 -13.057   3.758  0.00  0.00    -0.276 OA
ENDROOT
BRANCH   3  11
ATOM     11  C   LIG    1       24.748 -15.351   4.088  0.00  0.00    -0.006 A 
ATOM     12  C   LIG    1       23.528 -15.971   4.419  0.00  0.00    +0.008 A 
ATOM     13  C   LIG    1       23.332 -17.338   4.198  0.00  0.00    +0.020 A 
ATOM     14  C   LIG    1       24.355 -18.103   3.648  0.00  0.00    +0.041 A 
ATOM     15 CL   LIG    1       24.117 -19.785   3.380  0.00  0.00    -0.084 Cl
ATOM     16  C   LIG    1       25.571 -17.513   3.318  0.00  0.00    +0.020 A 
ATOM     17  C   LIG    1       25.768 -16.146   3.534  0.00  0.00    +0.008 A 
ENDBRANCH   3  11
TORSDOF 1
ENDMDL
MODEL 5
REMARK VINA RESULT:      -2.0      4.357      6.225
REMARK  Name = *****
REMARK                            x       y       z     vdW  Elec       q    Type
REMARK                         _______ _______ _______ _____ _____    ______ ____
ROOT
ATOM      1  C   LIG    1       26.629 -19.818   4.093  0.00  0.00    +0.134 C 
ATOM      2  N   LIG    1       25.302 -19.937   4.684  0.00  0.00    -0.279 N 
ATOM      3  C   LIG    1       24.190 -19.301   3.943  0.00  0.00    +0.249 C 
ATOM      4  S   LIG    1       22.512 -19.781   4.444  0.00  0.00    -0.007 S 
ATOM      5  O   LIG    1       21.540 -18.762   4.097  0.00  0.00    -0.172 OA
ATOM      6  O   LIG    1       22.287 -21.160   4.046  0.00  0.00    -0.172 OA
ATOM      7  C   LIG    1       22.716 -19.765   6.199  0.00  0.00    +0.177 C 
ATOM      8  C   LIG    1       23.861 -20.664   6.593  0.00  0.00    +0.118 C 
ATOM      9  C   LIG    1       25.219 -20.299   6.020  0.00  0.00    +0.218 C 
ATOM     10  O   LIG    1       26.222 -20.437   6.721  0.00  0.00    -0.276 OA
ENDROOT
BRANCH   3  11
ATOM     11  C   LIG    1       24.279 -17.776   3.916  0.00  0.00    -0.006 A 
ATOM     12  C   LIG    1       23.189 -17.016   4.384  0.00  0.00    +0.008 A 
ATOM     13  C   LIG    1       23.233 -15.619   4.384  0.00  0.00    +0.020 A 
ATOM     14  C   LIG    1       24.365 -14.963   3.913  0.00  0.00    +0.041 A 
ATOM     15 CL   LIG    1       24.419 -13.244   3.908  0.00  0.00    -0.084 Cl
ATOM     16  C   LIG    1       25.453 -15.692   3.441  0.00  0.00    +0.020 A 
ATOM     17  C   LIG    1       25.412 -17.089   3.443  0.00  0.00    +0.008 A 
ENDBRANCH   3  11
TORSDOF 1
ENDMDL
MODEL 6
REMARK VINA RESULT:      -0.1      1.866      3.346
REMARK  Name = *****
REMARK                            x       y       z     vdW  Elec       q    Type
REMARK                         _______ _______ _______ _____ _____    ______ ____
ROOT
ATOM      1  C   LIG    1       27.668 -15.354   4.247  0.00  0.00    +0.134 C 
ATOM      2  N   LIG    1       26.469 -14.691   3.750  0.00  0.00    -0.279 N 
ATOM      3  C   LIG    1       25.185 -15.108   4.356  0.00  0.00    +0.249 C 
ATOM      4  S   LIG    1       23.760 -14.026   4.045  0.00  0.00    -0.007 S 
ATOM      5  O   LIG    1       22.507 -14.745   4.172  0.00  0.00    -0.172 OA
ATOM      6  O   LIG    1       23.957 -12.783   4.770  0.00  0.00    -0.172 OA
ATOM      7  C   LIG    1       24.022 -13.685   2.331  0.00  0.00    +0.177 C 
ATOM      8  C   LIG    1       25.405 -13.119   2.124  0.00  0.00    +0.118 C 
ATOM      9  C   LIG    1       26.558 -14.013   2.544  0.00  0.00    +0.218 C 
ATOM     10  O   LIG    1       27.583 -14.031   1.861  0.00  0.00    -0.276 OA
ENDROOT
BRANCH   3  11
ATOM     11  C   LIG    1       24.796 -16.546   4.013  0.00  0.00    -0.006 A 
ATOM     12  C   LIG    1       25.757 -17.396   3.433  0.00  0.00    +0.008 A 
ATOM     13  C   LIG    1       25.445 -18.721   3.111  0.00  0.00    +0.020 A 
ATOM     14  C   LIG    1       24.168 -19.210   3.360  0.00  0.00    +0.041 A 
ATOM     15 CL   LIG    1       23.781 -20.837   2.960  0.00  0.00    -0.084 Cl
ATOM     16  C   LIG    1       23.200 -18.388   3.929  0.00  0.00    +0.020 A 
ATOM     17  C   LIG    1       23.511 -17.064   4.255  0.00  0.00    +0.008 A 
ENDBRANCH   3  11
TORSDOF 1
ENDMDL
