MODEL 1
REMARK VINA RESULT:      -3.8      0.000      0.000
REMARK  Name = *****
REMARK                            x       y       z     vdW  Elec       q    Type
REMARK                         _______ _______ _______ _____ _____    ______ ____
ROOT
ATOM      1  C   LIG    1       24.703 -17.823   3.887  0.00  0.00    +0.119 A 
ATOM      2  C   LIG    1       23.364 -17.519   4.183  0.00  0.00    +0.083 A 
ATOM      3  C   LIG    1       22.978 -16.152   4.177  0.00  0.00    +0.039 A 
ATOM      4  C   LIG    1       23.875 -15.108   3.915  0.00  0.00    +0.055 A 
ATOM      5  N   LIG    1       23.389 -13.806   3.824  0.00  0.00    -0.328 N 
ATOM      6  H   LIG    1       22.572 -13.629   4.402  0.00  0.00    +0.147 HD
ATOM      7  C   LIG    1       24.317 -12.701   3.799  0.00  0.00    +0.209 C 
ATOM      8  N   LIG    1       25.317 -12.925   2.782  0.00  0.00    -0.173 NA
ATOM      9  H   LIG    1       25.881 -12.101   2.588  0.00  0.00    +0.150 HD
ATOM     10  S   LIG    1       26.324 -14.202   3.188  0.00  0.00    +0.062 S 
ATOM     11  O   LIG    1       27.022 -13.822   4.397  0.00  0.00    -0.153 OA
ATOM     12  O   LIG    1       27.035 -14.580   1.988  0.00  0.00    -0.153 OA
ATOM     13  C   LIG    1       25.183 -15.467   3.601  0.00  0.00    +0.128 A 
ATOM     14  C   LIG    1       25.612 -16.799   3.589  0.00  0.00    +0.059 A 
ENDROOT
BRANCH   2  15
ATOM     15  C   LIG    1       22.269 -18.514   4.502  0.00  0.00    +0.419 C 
ATOM     16  F   LIG    1       21.035 -17.980   4.260  0.00  0.00    -0.166 F 
ATOM     17  F   LIG    1       22.262 -18.839   5.827  0.00  0.00    -0.166 F 
ATOM     18  F   LIG    1       22.273 -19.694   3.835  0.00  0.00    -0.166 F 
ENDBRANCH   2  15
BRANCH   1  19
ATOM     19  S   LIG    1       25.324 -19.485   3.884  0.00  0.00    +0.057 S 
ATOM     20  O   LIG    1       24.822 -20.176   5.048  0.00  0.00    -0.153 OA
ATOM     21  O   LIG    1       25.175 -20.016   2.553  0.00  0.00    -0.153 OA
BRANCH  19  22
ATOM     22  N   LIG    1       26.955 -19.255   4.187  0.00  0.00    -0.203 NA
ATOM     23  H   LIG    1       27.291 -19.954   4.852  0.00  0.00    +0.144 HD
ATOM     24  H   LIG    1       27.473 -19.239   3.305  0.00  0.00    +0.144 HD
ENDBRANCH  19  22
ENDBRANCH   1  19
TORSDOF 3
ENDMDL
MODEL 2
REMARK VINA RESULT:      -2.7      2.886      5.327
REMARK  Name = *****
REMARK                            x       y       z     vdW  Elec       q    Type
REMARK                         _______ _______ _______ _____ _____    ______ ____
ROOT
ATOM      1  C   LIG    1       25.454 -15.290   3.678  0.00  0.00    +0.119 A 
ATOM      2  C   LIG    1       24.256 -14.682   4.089  0.00  0.00    +0.083 A 
ATOM      3  C   LIG    1       23.154 -15.525   4.392  0.00  0.00    +0.039 A 
ATOM      4  C   LIG    1       23.208 -16.920   4.274  0.00  0.00    +0.055 A 
ATOM      5  N   LIG    1       22.115 -17.675   4.693  0.00  0.00    -0.328 N 
ATOM      6  H   LIG    1       21.222 -17.200   4.596  0.00  0.00    +0.147 HD
ATOM      7  C   LIG    1       22.052 -19.078   4.359  0.00  0.00    +0.209 C 
ATOM      8  N   LIG    1       23.280 -19.731   4.748  0.00  0.00    -0.173 NA
ATOM      9  H   LIG    1       23.221 -20.746   4.712  0.00  0.00    +0.150 HD
ATOM     10  S   LIG    1       24.567 -19.218   3.805  0.00  0.00    +0.062 S 
ATOM     11  O   LIG    1       24.282 -19.620   2.444  0.00  0.00    -0.153 OA
ATOM     12  O   LIG    1       25.777 -19.628   4.478  0.00  0.00    -0.153 OA
ATOM     13  C   LIG    1       24.427 -17.473   3.890  0.00  0.00    +0.128 A 
ATOM     14  C   LIG    1       25.543 -16.686   3.585  0.00  0.00    +0.059 A 
ENDROOT
BRANCH   2  15
ATOM     15  C   LIG    1       24.018 -13.196   4.256  0.00  0.00    +0.419 C 
ATOM     16  F   LIG    1       22.872 -12.960   4.960  0.00  0.00    -0.166 F 
ATOM     17  F   LIG    1       23.829 -12.584   3.052  0.00  0.00    -0.166 F 
ATOM     18  F   LIG    1       24.970 -12.471   4.891  0.00  0.00    -0.166 F 
ENDBRANCH   2  15
BRANCH   1  19
ATOM     19  S   LIG    1       26.898 -14.355   3.247  0.00  0.00    +0.057 S 
ATOM     20  O   LIG    1       27.064 -14.383   1.812  0.00  0.00    -0.153 OA
ATOM     21  O   LIG    1       26.873 -13.123   3.992  0.00  0.00    -0.153 OA
BRANCH  19  22
ATOM     22  N   LIG    1       28.134 -15.316   3.844  0.00  0.00    -0.203 NA
ATOM     23  H   LIG    1       28.891 -15.379   3.161  0.00  0.00    +0.144 HD
ATOM     24  H   LIG    1       28.431 -14.970   4.759  0.00  0.00    +0.144 HD
ENDBRANCH  19  22
ENDBRANCH   1  19
TORSDOF 3
ENDMDL
MODEL 3
REMARK VINA RESULT:      -2.5      0.638      1.098
REMARK  Name = *****
REMARK                            x       y       z     vdW  Elec       q    Type
REMARK                         _______ _______ _______ _____ _____    ______ ____
ROOT
ATOM      1  C   LIG    1       24.532 -17.520   3.809  0.00  0.00    +0.119 A 
ATOM      2  C   LIG    1       23.265 -17.082   4.230  0.00  0.00    +0.083 A 
ATOM      3  C   LIG    1       23.037 -15.682   4.298  0.00  0.00    +0.039 A 
ATOM      4  C   LIG    1       24.022 -14.734   3.990  0.00  0.00    +0.055 A 
ATOM      5  N   LIG    1       23.680 -13.384   3.982  0.00  0.00    -0.328 N 
ATOM      6  H   LIG    1       22.939 -13.140   4.634  0.00  0.00    +0.147 HD
ATOM      7  C   LIG    1       24.722 -12.387   3.909  0.00  0.00    +0.209 C 
ATOM      8  N   LIG    1       25.602 -12.680   2.802  0.00  0.00    -0.173 NA
ATOM      9  H   LIG    1       26.238 -11.915   2.585  0.00  0.00    +0.150 HD
ATOM     10  S   LIG    1       26.489 -14.075   3.080  0.00  0.00    +0.062 S 
ATOM     11  O   LIG    1       27.323 -13.823   4.235  0.00  0.00    -0.153 OA
ATOM     12  O   LIG    1       27.050 -14.481   1.813  0.00  0.00    -0.153 OA
ATOM     13  C   LIG    1       25.250 -15.222   3.553  0.00  0.00    +0.128 A 
ATOM     14  C   LIG    1       25.523 -16.591   3.464  0.00  0.00    +0.059 A 
ENDROOT
BRANCH   2  15
ATOM     15  C   LIG    1       22.095 -17.962   4.612  0.00  0.00    +0.419 C 
ATOM     16  F   LIG    1       22.481 -18.936   5.490  0.00  0.00    -0.166 F 
ATOM     17  F   LIG    1       21.602 -18.633   3.531  0.00  0.00    -0.166 F 
ATOM     18  F   LIG    1       21.024 -17.373   5.197  0.00  0.00    -0.166 F 
ENDBRANCH   2  15
BRANCH   1  19
ATOM     19  S   LIG    1       24.959 -19.239   3.702  0.00  0.00    +0.057 S 
ATOM     20  O   LIG    1       25.070 -19.779   5.037  0.00  0.00    -0.153 OA
ATOM     21  O   LIG    1       24.124 -19.845   2.696  0.00  0.00    -0.153 OA
BRANCH  19  22
ATOM     22  N   LIG    1       26.531 -19.179   3.126  0.00  0.00    -0.203 NA
ATOM     23  H   LIG    1       26.586 -19.622   2.208  0.00  0.00    +0.144 HD
ATOM     24  H   LIG    1       26.869 -18.214   3.141  0.00  0.00    +0.144 HD
ENDBRANCH  19  22
ENDBRANCH   1  19
TORSDOF 3
ENDMDL
MODEL 4
REMARK VINA RESULT:      -2.0      2.900      5.341
REMARK  Name = *****
REMARK                            x       y       z     vdW  Elec       q    Type
REMARK                         _______ _______ _______ _____ _____    ______ ____
ROOT
ATOM      1  C   LIG    1       25.574 -15.255   3.790  0.00  0.00    +0.119 A 
ATOM      2  C   LIG    1       24.379 -14.591   4.115  0.00  0.00    +0.083 A 
ATOM      3  C   LIG    1       23.221 -15.383   4.336  0.00  0.00    +0.039 A 
ATOM      4  C   LIG    1       23.219 -16.780   4.220  0.00  0.00    +0.055 A 
ATOM      5  N   LIG    1       22.066 -17.483   4.559  0.00  0.00    -0.328 N 
ATOM      6  H   LIG    1       21.205 -16.968   4.400  0.00  0.00    +0.147 HD
ATOM      7  C   LIG    1       21.962 -18.882   4.219  0.00  0.00    +0.209 C 
ATOM      8  N   LIG    1       23.129 -19.590   4.693  0.00  0.00    -0.173 NA
ATOM      9  H   LIG    1       23.026 -20.602   4.651  0.00  0.00    +0.150 HD
ATOM     10  S   LIG    1       24.502 -19.138   3.845  0.00  0.00    +0.062 S 
ATOM     11  O   LIG    1       24.296 -19.528   2.467  0.00  0.00    -0.153 OA
ATOM     12  O   LIG    1       25.641 -19.602   4.602  0.00  0.00    -0.153 OA
ATOM     13  C   LIG    1       24.436 -17.388   3.923  0.00  0.00    +0.128 A 
ATOM     14  C   LIG    1       25.605 -16.653   3.700  0.00  0.00    +0.059 A 
ENDROOT
BRANCH   2  15
ATOM     15  C   LIG    1       24.198 -13.097   4.267  0.00  0.00    +0.419 C 
ATOM     16  F   LIG    1       25.140 -12.572   5.106  0.00  0.00    -0.166 F 
ATOM     17  F   LIG    1       23.000 -12.797   4.846  0.00  0.00    -0.166 F 
ATOM     18  F   LIG    1       24.266 -12.334   3.150  0.00  0.00    -0.166 F 
ENDBRANCH   2  15
BRANCH   1  19
ATOM     19  S   LIG    1       27.087 -14.388   3.464  0.00  0.00    +0.057 S 
ATOM     20  O   LIG    1       27.063 -13.122   4.160  0.00  0.00    -0.153 OA
ATOM     21  O   LIG    1       28.176 -15.320   3.605  0.00  0.00    -0.153 OA
BRANCH  19  22
ATOM     22  N   LIG    1       26.929 -13.993   1.844  0.00  0.00    -0.203 NA
ATOM     23  H   LIG    1       27.012 -12.983   1.718  0.00  0.00    +0.144 HD
ATOM     24  H   LIG    1       27.594 -14.535   1.288  0.00  0.00    +0.144 HD
ENDBRANCH  19  22
ENDBRANCH   1  19
TORSDOF 3
ENDMDL
MODEL 5
REMARK VINA RESULT:      -1.9      2.538      3.418
REMARK  Name = *****
REMARK                            x       y       z     vdW  Elec       q    Type
REMARK                         _______ _______ _______ _____ _____    ______ ____
ROOT
ATOM      1  C   LIG    1       23.750 -17.262   4.066  0.00  0.00    +0.119 A 
ATOM      2  C   LIG    1       24.888 -18.011   3.725  0.00  0.00    +0.083 A 
ATOM      3  C   LIG    1       26.070 -17.302   3.383  0.00  0.00    +0.039 A 
ATOM      4  C   LIG    1       26.136 -15.902   3.349  0.00  0.00    +0.055 A 
ATOM      5  N   LIG    1       27.363 -15.290   3.107  0.00  0.00    -0.328 N 
ATOM      6  H   LIG    1       27.987 -15.833   2.517  0.00  0.00    +0.147 HD
ATOM      7  C   LIG    1       27.407 -13.874   2.828  0.00  0.00    +0.209 C 
ATOM      8  N   LIG    1       26.688 -13.151   3.850  0.00  0.00    -0.173 NA
ATOM      9  H   LIG    1       26.845 -12.146   3.813  0.00  0.00    +0.150 HD
ATOM     10  S   LIG    1       25.043 -13.458   3.772  0.00  0.00    +0.062 S 
ATOM     11  O   LIG    1       24.580 -12.963   2.493  0.00  0.00    -0.153 OA
ATOM     12  O   LIG    1       24.466 -13.002   5.015  0.00  0.00    -0.153 OA
ATOM     13  C   LIG    1       24.987 -15.210   3.722  0.00  0.00    +0.128 A 
ATOM     14  C   LIG    1       23.800 -15.862   4.071  0.00  0.00    +0.059 A 
ENDROOT
BRANCH   2  15
ATOM     15  C   LIG    1       24.991 -19.521   3.695  0.00  0.00    +0.419 C 
ATOM     16  F   LIG    1       25.038 -20.034   4.961  0.00  0.00    -0.166 F 
ATOM     17  F   LIG    1       26.149 -19.929   3.103  0.00  0.00    -0.166 F 
ATOM     18  F   LIG    1       24.001 -20.210   3.078  0.00  0.00    -0.166 F 
ENDBRANCH   2  15
BRANCH   1  19
ATOM     19  S   LIG    1       22.203 -18.020   4.489  0.00  0.00    +0.057 S 
ATOM     20  O   LIG    1       21.476 -18.315   3.276  0.00  0.00    -0.153 OA
ATOM     21  O   LIG    1       22.455 -19.021   5.495  0.00  0.00    -0.153 OA
BRANCH  19  22
ATOM     22  N   LIG    1       21.367 -16.751   5.196  0.00  0.00    -0.203 NA
ATOM     23  H   LIG    1       20.417 -16.706   4.825  0.00  0.00    +0.144 HD
ATOM     24  H   LIG    1       21.411 -16.832   6.214  0.00  0.00    +0.144 HD
ENDBRANCH  19  22
ENDBRANCH   1  19
TORSDOF 3
ENDMDL
MODEL 6
REMARK VINA RESULT:      -1.8      3.597      6.068
REMARK  Name = *****
REMARK                            x       y       z     vdW  Elec       q    Type
REMARK                         _______ _______ _______ _____ _____    ______ ____
ROOT
ATOM      1  C   LIG    1       24.655 -15.147   3.961  0.00  0.00    +0.119 A 
ATOM      2  C   LIG    1       25.946 -15.475   3.516  0.00  0.00    +0.083 A 
ATOM      3  C   LIG    1       26.248 -16.847   3.311  0.00  0.00    +0.039 A 
ATOM      4  C   LIG    1       25.326 -17.875   3.555  0.00  0.00    +0.055 A 
ATOM      5  N   LIG    1       25.671 -19.183   3.225  0.00  0.00    -0.328 N 
ATOM      6  H   LIG    1       26.666 -19.378   3.293  0.00  0.00    +0.147 HD
ATOM      7  C   LIG    1       24.846 -20.273   3.687  0.00  0.00    +0.209 C 
ATOM      8  N   LIG    1       23.466 -20.024   3.340  0.00  0.00    -0.173 NA
ATOM      9  H   LIG    1       22.869 -20.839   3.470  0.00  0.00    +0.150 HD
ATOM     10  S   LIG    1       22.841 -18.736   4.211  0.00  0.00    +0.062 S 
ATOM     11  O   LIG    1       22.869 -19.115   5.607  0.00  0.00    -0.153 OA
ATOM     12  O   LIG    1       21.617 -18.336   3.558  0.00  0.00    -0.153 OA
ATOM     13  C   LIG    1       24.053 -17.492   3.968  0.00  0.00    +0.128 A 
ATOM     14  C   LIG    1       23.705 -16.154   4.181  0.00  0.00    +0.059 A 
ENDROOT
BRANCH   2  15
ATOM     15  C   LIG    1       27.064 -14.500   3.217  0.00  0.00    +0.419 C 
ATOM     16  F   LIG    1       27.263 -14.379   1.871  0.00  0.00    -0.166 F 
ATOM     17  F   LIG    1       28.255 -14.941   3.714  0.00  0.00    -0.166 F 
ATOM     18  F   LIG    1       26.930 -13.227   3.663  0.00  0.00    -0.166 F 
ENDBRANCH   2  15
BRANCH   1  19
ATOM     19  S   LIG    1       24.153 -13.476   4.281  0.00  0.00    +0.057 S 
ATOM     20  O   LIG    1       22.835 -13.486   4.871  0.00  0.00    -0.153 OA
ATOM     21  O   LIG    1       25.260 -12.785   4.890  0.00  0.00    -0.153 OA
BRANCH  19  22
ATOM     22  N   LIG    1       23.930 -12.870   2.735  0.00  0.00    -0.203 NA
ATOM     23  H   LIG    1       24.730 -12.296   2.464  0.00  0.00    +0.144 HD
ATOM     24  H   LIG    1       23.731 -13.636   2.088  0.00  0.00    +0.144 HD
ENDBRANCH  19  22
ENDBRANCH   1  19
TORSDOF 3
ENDMDL
MODEL 7
REMARK VINA RESULT:      -1.7      2.694      3.379
REMARK  Name = *****
REMARK                            x       y       z     vdW  Elec       q    Type
REMARK                         _______ _______ _______ _____ _____    ______ ____
ROOT
ATOM      1  C   LIG    1       23.929 -17.687   3.955  0.00  0.00    +0.119 A 
ATOM      2  C   LIG    1       25.189 -18.288   3.800  0.00  0.00    +0.083 A 
ATOM      3  C   LIG    1       26.304 -17.438   3.571  0.00  0.00    +0.039 A 
ATOM      4  C   LIG    1       26.193 -16.045   3.470  0.00  0.00    +0.055 A 
ATOM      5  N   LIG    1       27.352 -15.282   3.350  0.00  0.00    -0.328 N 
ATOM      6  H   LIG    1       28.113 -15.758   2.874  0.00  0.00    +0.147 HD
ATOM      7  C   LIG    1       27.250 -13.885   3.004  0.00  0.00    +0.209 C 
ATOM      8  N   LIG    1       26.317 -13.228   3.888  0.00  0.00    -0.173 NA
ATOM      9  H   LIG    1       26.346 -12.213   3.816  0.00  0.00    +0.150 HD
ATOM     10  S   LIG    1       24.749 -13.756   3.621  0.00  0.00    +0.062 S 
ATOM     11  O   LIG    1       24.398 -13.376   2.269  0.00  0.00    -0.153 OA
ATOM     12  O   LIG    1       23.960 -13.337   4.756  0.00  0.00    -0.153 OA
ATOM     13  C   LIG    1       24.926 -15.500   3.659  0.00  0.00    +0.128 A 
ATOM     14  C   LIG    1       23.797 -16.293   3.891  0.00  0.00    +0.059 A 
ENDROOT
BRANCH   2  15
ATOM     15  C   LIG    1       25.488 -19.770   3.864  0.00  0.00    +0.419 C 
ATOM     16  F   LIG    1       26.812 -19.992   4.118  0.00  0.00    -0.166 F 
ATOM     17  F   LIG    1       25.248 -20.378   2.667  0.00  0.00    -0.166 F 
ATOM     18  F   LIG    1       24.829 -20.508   4.789  0.00  0.00    -0.166 F 
ENDBRANCH   2  15
BRANCH   1  19
ATOM     19  S   LIG    1       22.450 -18.629   4.222  0.00  0.00    +0.057 S 
ATOM     20  O   LIG    1       21.321 -17.730   4.265  0.00  0.00    -0.153 OA
ATOM     21  O   LIG    1       22.486 -19.775   3.348  0.00  0.00    -0.153 OA
BRANCH  19  22
ATOM     22  N   LIG    1       22.644 -19.156   5.800  0.00  0.00    -0.203 NA
ATOM     23  H   LIG    1       23.565 -18.886   6.150  0.00  0.00    +0.144 HD
ATOM     24  H   LIG    1       21.868 -18.820   6.376  0.00  0.00    +0.144 HD
ENDBRANCH  19  22
ENDBRANCH   1  19
TORSDOF 3
ENDMDL
MODEL 8
REMARK VINA RESULT:      -1.5      2.670      3.291
REMARK  Name = *****
REMARK                            x       y       z     vdW  Elec       q    Type
REMARK                         _______ _______ _______ _____ _____    ______ ____
ROOT
ATOM      1  C   LIG    1       23.802 -17.643   4.058  0.00  0.00    +0.119 A 
ATOM      2  C   LIG    1       25.057 -18.226   3.818  0.00  0.00    +0.083 A 
ATOM      3  C   LIG    1       26.141 -17.362   3.509  0.00  0.00    +0.039 A 
ATOM      4  C   LIG    1       26.002 -15.971   3.411  0.00  0.00    +0.055 A 
ATOM      5  N   LIG    1       27.138 -15.191   3.209  0.00  0.00    -0.328 N 
ATOM      6  H   LIG    1       27.871 -15.658   2.682  0.00  0.00    +0.147 HD
ATOM      7  C   LIG    1       26.991 -13.797   2.865  0.00  0.00    +0.209 C 
ATOM      8  N   LIG    1       26.112 -13.150   3.810  0.00  0.00    -0.173 NA
ATOM      9  H   LIG    1       26.121 -12.135   3.734  0.00  0.00    +0.150 HD
ATOM     10  S   LIG    1       24.537 -13.703   3.655  0.00  0.00    +0.062 S 
ATOM     11  O   LIG    1       24.087 -13.333   2.330  0.00  0.00    -0.153 OA
ATOM     12  O   LIG    1       23.823 -13.290   4.841  0.00  0.00    -0.153 OA
ATOM     13  C   LIG    1       24.743 -15.444   3.686  0.00  0.00    +0.128 A 
ATOM     14  C   LIG    1       23.645 -16.252   4.000  0.00  0.00    +0.059 A 
ENDROOT
BRANCH   2  15
ATOM     15  C   LIG    1       25.382 -19.703   3.866  0.00  0.00    +0.419 C 
ATOM     16  F   LIG    1       24.928 -20.268   5.025  0.00  0.00    -0.166 F 
ATOM     17  F   LIG    1       26.729 -19.917   3.871  0.00  0.00    -0.166 F 
ATOM     18  F   LIG    1       24.890 -20.492   2.880  0.00  0.00    -0.166 F 
ENDBRANCH   2  15
BRANCH   1  19
ATOM     19  S   LIG    1       22.360 -18.607   4.431  0.00  0.00    +0.057 S 
ATOM     20  O   LIG    1       22.502 -19.175   5.751  0.00  0.00    -0.153 OA
ATOM     21  O   LIG    1       21.200 -17.844   4.046  0.00  0.00    -0.153 OA
BRANCH  19  22
ATOM     22  N   LIG    1       22.518 -19.903   3.382  0.00  0.00    -0.203 NA
ATOM     23  H   LIG    1       22.115 -19.671   2.473  0.00  0.00    +0.144 HD
ATOM     24  H   LIG    1       23.497 -20.197   3.339  0.00  0.00    +0.144 HD
ENDBRANCH  19  22
ENDBRANCH   1  19
TORSDOF 3
ENDMDL
MODEL 9
REMARK VINA RESULT:      -1.0      3.692      6.213
REMARK  Name = *****
REMARK                            x       y       z     vdW  Elec       q    Type
REMARK                         _______ _______ _______ _____ _____    ______ ____
ROOT
ATOM      1  C   LIG    1       25.535 -14.962   3.537  0.00  0.00    +0.119 A 
ATOM      2  C   LIG    1       26.905 -14.868   3.835  0.00  0.00    +0.083 A 
ATOM      3  C   LIG    1       27.600 -16.068   4.141  0.00  0.00    +0.039 A 
ATOM      4  C   LIG    1       26.975 -17.322   4.180  0.00  0.00    +0.055 A 
ATOM      5  N   LIG    1       27.755 -18.458   4.384  0.00  0.00    -0.328 N 
ATOM      6  H   LIG    1       28.584 -18.295   4.949  0.00  0.00    +0.147 HD
ATOM      7  C   LIG    1       27.112 -19.718   4.669  0.00  0.00    +0.209 C 
ATOM      8  N   LIG    1       26.098 -19.987   3.676  0.00  0.00    -0.173 NA
ATOM      9  H   LIG    1       25.745 -20.941   3.714  0.00  0.00    +0.150 HD
ATOM     10  S   LIG    1       24.815 -18.917   3.809  0.00  0.00    +0.062 S 
ATOM     11  O   LIG    1       24.212 -19.137   5.106  0.00  0.00    -0.153 OA
ATOM     12  O   LIG    1       24.049 -19.019   2.589  0.00  0.00    -0.153 OA
ATOM     13  C   LIG    1       25.623 -17.361   3.850  0.00  0.00    +0.128 A 
ATOM     14  C   LIG    1       24.895 -16.209   3.538  0.00  0.00    +0.059 A 
ENDROOT
BRANCH   2  15
ATOM     15  C   LIG    1       27.732 -13.601   3.852  0.00  0.00    +0.419 C 
ATOM     16  F   LIG    1       29.063 -13.883   3.730  0.00  0.00    -0.166 F 
ATOM     17  F   LIG    1       27.616 -12.947   5.044  0.00  0.00    -0.166 F 
ATOM     18  F   LIG    1       27.486 -12.671   2.898  0.00  0.00    -0.166 F 
ENDBRANCH   2  15
BRANCH   1  19
ATOM     19  S   LIG    1       24.542 -13.541   3.162  0.00  0.00    +0.057 S 
ATOM     20  O   LIG    1       24.599 -12.621   4.274  0.00  0.00    -0.153 OA
ATOM     21  O   LIG    1       24.838 -13.132   1.813  0.00  0.00    -0.153 OA
BRANCH  19  22
ATOM     22  N   LIG    1       22.991 -14.171   3.201  0.00  0.00    -0.203 NA
ATOM     23  H   LIG    1       22.803 -14.586   4.116  0.00  0.00    +0.144 HD
ATOM     24  H   LIG    1       22.317 -13.452   2.927  0.00  0.00    +0.144 HD
ENDBRANCH  19  22
ENDBRANCH   1  19
TORSDOF 3
ENDMDL
