MODEL 1
REMARK VINA RESULT:      43.2      0.000      0.000
REMARK  Name = *****
REMARK                            x       y       z     vdW  Elec       q    Type
REMARK                         _______ _______ _______ _____ _____    ______ ____
ROOT
ATOM      1  C   LIG    1       21.951 -20.106   5.018  0.00  0.00    +0.133 C 
ATOM      2  C   LIG    1       22.982 -18.977   4.643  0.00  0.00    +0.012 C 
ATOM      3  C   LIG    1       23.037 -18.680   3.116  0.00  0.00    +0.011 C 
ATOM      4  C   LIG    1       22.016 -17.545   2.723  0.00  0.00    +0.089 C 
ATOM      5  N   LIG    1       22.135 -16.324   3.565  0.00  0.00    -0.293 NA
ATOM      6  C   LIG    1       23.237 -16.455   4.531  0.00  0.00    +0.104 C 
ATOM      7  C   LIG    1       23.700 -15.165   5.118  0.00  0.00    +0.038 C 
ATOM      8  C   LIG    1       23.486 -13.929   4.541  0.00  0.00    -0.016 C 
ATOM      9  C   LIG    1       24.651 -13.142   4.815  0.00  0.00    +0.003 C 
ATOM     10  C   LIG    1       25.452 -13.883   5.693  0.00  0.00    +0.051 C 
ATOM     11  C   LIG    1       26.739 -13.462   6.093  0.00  0.00    +0.072 C 
ATOM     12  C   LIG    1       27.250 -12.271   5.551  0.00  0.00    +0.122 C 
ATOM     13  C   LIG    1       26.447 -11.495   4.717  0.00  0.00    +0.046 C 
ATOM     14  C   LIG    1       25.157 -11.913   4.347  0.00  0.00    +0.014 C 
ATOM     15  C   LIG    1       22.338 -13.746   3.609  0.00  0.00    +0.053 C 
ATOM     16  N   LIG    1       24.746 -15.034   5.998  0.00  0.00    -0.356 NA
ATOM     17  H   LIG    1       25.087 -15.766   6.605  0.00  0.00    +0.166 HD
ATOM     18  C   LIG    1       22.051 -15.055   2.811  0.00  0.00    +0.090 C 
ATOM     19  C   LIG    1       23.157 -19.940   2.228  0.00  0.00    +0.052 C 
ATOM     20  C   LIG    1       23.147 -21.267   2.998  0.00  0.00    +0.206 C 
ATOM     21  C   LIG    1       22.845 -17.631   5.442  0.00  0.00    +0.030 C 
ATOM     22  C   LIG    1       21.980 -21.313   4.004  0.00  0.00    +0.172 C 
ENDROOT
BRANCH   1  23
ATOM     23  C   LIG    1       22.227 -20.637   6.433  0.00  0.00    +0.313 C 
ATOM     24  O   LIG    1       21.606 -21.542   6.975  0.00  0.00    -0.250 OA
BRANCH  23  26
ATOM     25  C   LIG    1       24.547 -20.252   6.498  0.00  0.00    +0.280 C 
ATOM     26  O   LIG    1       23.253 -19.967   7.030  0.00  0.00    -0.468 OA
ENDBRANCH  23  26
ENDBRANCH   1  23
BRANCH  12  27
ATOM     27  O   LIG    1       28.537 -11.933   5.903  0.00  0.00    -0.495 OA
ATOM     28  C   LIG    1       29.453 -11.781   4.812  0.00  0.00    +0.277 C 
ENDBRANCH  12  27
BRANCH  22  29
ATOM     29  O   LIG    1       20.690 -21.568   3.409  0.00  0.00    -0.375 OA
ATOM     30  C   LIG    1       19.822 -20.466   3.240  0.00  0.00    +0.194 C 
ENDBRANCH  22  29
BRANCH  20  31
ATOM     31  O   LIG    1       24.425 -21.389   3.719  0.00  0.00    -0.456 OA
BRANCH  31  32
ATOM     32  C   LIG    1       25.484 -20.623   3.411  0.00  0.00    +0.332 C 
ATOM     33  O   LIG    1       26.643 -20.710   3.886  0.00  0.00    -0.246 OA
BRANCH  32  34
ATOM     34  C   LIG    1       24.988 -19.598   2.452  0.00  0.00    +0.092 C 
ATOM     35  C   LIG    1       25.301 -18.280   2.323  0.00  0.00    +0.015 C 
BRANCH  35  36
ATOM     36  C   LIG    1       26.243 -17.462   3.085  0.00  0.00    -0.018 A 
ATOM     37  C   LIG    1       27.225 -18.021   3.903  0.00  0.00    +0.057 A 
ATOM     38  C   LIG    1       28.161 -17.209   4.579  0.00  0.00    +0.166 A 
ATOM     39  C   LIG    1       28.139 -15.806   4.414  0.00  0.00    +0.203 A 
ATOM     40  C   LIG    1       27.218 -15.267   3.497  0.00  0.00    +0.166 A 
ATOM     41  C   LIG    1       26.262 -16.085   2.874  0.00  0.00    +0.057 A 
BRANCH  38  42
ATOM     42  O   LIG    1       29.049 -17.946   5.327  0.00  0.00    -0.491 OA
ATOM     43  C   LIG    1       28.500 -18.854   6.272  0.00  0.00    +0.277 C 
ENDBRANCH  38  42
BRANCH  39  44
ATOM     44  O   LIG    1       29.091 -15.050   5.060  0.00  0.00    -0.488 OA
ATOM     45  C   LIG    1       28.916 -14.829   6.463  0.00  0.00    +0.277 C 
ENDBRANCH  39  44
BRANCH  40  46
ATOM     46  O   LIG    1       27.274 -13.926   3.220  0.00  0.00    -0.491 OA
ATOM     47  C   LIG    1       27.365 -13.596   1.840  0.00  0.00    +0.277 C 
ENDBRANCH  40  46
ENDBRANCH  35  36
ENDBRANCH  32  34
ENDBRANCH  31  32
ENDBRANCH  20  31
TORSDOF 11
ENDMDL
