MODEL 1
REMARK VINA RESULT:      -6.5      0.000      0.000
REMARK  Name = *****
REMARK                            x       y       z     vdW  Elec       q    Type
REMARK                         _______ _______ _______ _____ _____    ______ ____
ROOT
ATOM      1  CA  LIG    1       26.294 -26.871   6.132  0.00  0.00    +0.191 C 
ATOM      2  C   LIG    1       26.713 -28.035   7.079  0.00  0.00    +0.169 C 
ATOM      3  N   LIG    1       25.750 -28.874   6.381  0.00  0.00    -0.249 N 
ATOM      4  CA  LIG    1       25.112 -29.986   6.904  0.00  0.00    +0.126 C 
ATOM      5  C   LIG    1       25.340 -30.402   8.177  0.00  0.00    -0.009 C 
ATOM      6  C   LIG    1       26.319 -29.676   9.086  0.00  0.00    +0.108 C 
ATOM      7  S   LIG    1       26.260 -27.878   8.830  0.00  0.00    -0.131 S 
ATOM      8  C   LIG    1       25.262 -27.891   5.587  0.00  0.00    +0.244 C 
ATOM      9  O   LIG    1       24.269 -27.806   4.872  0.00  0.00    -0.273 OA
ENDROOT
BRANCH   5  10
ATOM     10  C   LIG    1       24.620 -31.457   8.899  0.00  0.00    +0.015 C 
ATOM     11  C   LIG    1       23.583 -31.355   9.744  0.00  0.00    +0.016 C 
ATOM     12  C   LIG    1       22.940 -32.564  10.366  0.00  0.00    +0.243 C 
ATOM     13  O   LIG    1       23.352 -33.706  10.296  0.00  0.00    -0.270 OA
ATOM     14  N   LIG    1       21.784 -32.111  10.998  0.00  0.00    -0.293 N 
ATOM     15  C   LIG    1       21.469 -30.770  10.551  0.00  0.00    +0.113 C 
ATOM     16  C   LIG    1       22.823 -30.164  10.222  0.00  0.00    +0.059 C 
BRANCH  14  17
ATOM     17  C   LIG    1       20.838 -33.018  11.662  0.00  0.00    +0.091 C 
ATOM     18  C   LIG    1       19.912 -32.378  12.717  0.00  0.00    +0.103 C 
ATOM     19  N   LIG    1       18.520 -32.683  12.335  0.00  0.00    -0.314 NA
ATOM     20  H   LIG    1       18.231 -33.530  12.826  0.00  0.00    +0.122 HD
ATOM     21  C   LIG    1       18.567 -32.969  10.899  0.00  0.00    +0.083 C 
ATOM     22  C   LIG    1       19.873 -33.708  10.700  0.00  0.00    +0.039 C 
ENDBRANCH  14  17
ENDBRANCH   5  10
BRANCH   1  24
ATOM     23  C   LIG    1       25.093 -24.655   6.001  0.00  0.00    +0.270 C 
ATOM     24  N   LIG    1       25.689 -25.657   6.733  0.00  0.00    -0.296 N 
ATOM     25  H   LIG    1       25.681 -25.526   7.743  0.00  0.00    +0.150 HD
ATOM     26  O   LIG    1       25.062 -24.699   4.780  0.00  0.00    -0.268 OA
BRANCH  23  27
ATOM     27  C   LIG    1       24.471 -23.481   6.809  0.00  0.00    +0.208 C 
ATOM     28  N   LIG    1       23.185 -23.307   7.011  0.00  0.00    -0.079 NA
BRANCH  27  32
ATOM     29  C   LIG    1       27.297 -21.480   7.859  0.00  0.00    +0.176 A 
ATOM     30  S   LIG    1       26.129 -20.513   8.663  0.00  0.00    +0.049 S 
ATOM     31  N   LIG    1       24.852 -21.450   8.164  0.00  0.00    -0.185 NA
ATOM     32  C   LIG    1       25.341 -22.450   7.419  0.00  0.00    +0.197 A 
ATOM     33  N   LIG    1       26.742 -22.482   7.225  0.00  0.00    -0.202 NA
BRANCH  29  34
ATOM     34  N   LIG    1       28.615 -21.224   7.873  0.00  0.00    -0.336 N 
ATOM     35  H   LIG    1       29.232 -22.027   7.813  0.00  0.00    +0.144 HD
ATOM     36  H   LIG    1       28.958 -20.394   7.403  0.00  0.00    +0.144 HD
ENDBRANCH  29  34
ENDBRANCH  27  32
BRANCH  28  37
ATOM     37  O   LIG    1       22.332 -24.260   6.454  0.00  0.00    -0.408 OA
ATOM     38  H   LIG    1       21.963 -23.784   5.681  0.00  0.00    +0.328 HD
ENDBRANCH  28  37
ENDBRANCH  23  27
ENDBRANCH   1  24
BRANCH   4  39
ATOM     39  C   LIG    1       24.132 -30.678   6.000  0.00  0.00    +0.352 C 
ATOM     40  O   LIG    1       24.236 -31.767   5.472  0.00  0.00    -0.244 OA
BRANCH  39  41
ATOM     41  OXT LIG    1       23.061 -29.895   5.754  0.00  0.00    -0.476 OA
ATOM     42  HXT LIG    1       23.203 -29.572   4.839  0.00  0.00    +0.295 HD
ENDBRANCH  39  41
ENDBRANCH   4  39
TORSDOF 9
ENDMDL
MODEL 2
REMARK VINA RESULT:      -5.9      4.497      6.664
REMARK  Name = *****
REMARK                            x       y       z     vdW  Elec       q    Type
REMARK                         _______ _______ _______ _____ _____    ______ ____
ROOT
ATOM      1  CA  LIG    1       26.754 -31.352   9.528  0.00  0.00    +0.191 C 
ATOM      2  C   LIG    1       26.932 -30.263  10.628  0.00  0.00    +0.169 C 
ATOM      3  N   LIG    1       25.895 -30.943  11.389  0.00  0.00    -0.249 N 
ATOM      4  CA  LIG    1       25.063 -30.360  12.330  0.00  0.00    +0.126 C 
ATOM      5  C   LIG    1       25.149 -29.038  12.630  0.00  0.00    -0.009 C 
ATOM      6  C   LIG    1       26.172 -28.136  11.959  0.00  0.00    +0.108 C 
ATOM      7  S   LIG    1       26.406 -28.576  10.212  0.00  0.00    -0.131 S 
ATOM      8  C   LIG    1       25.612 -31.867  10.440  0.00  0.00    +0.244 C 
ATOM      9  O   LIG    1       24.687 -32.660  10.291  0.00  0.00    -0.273 OA
ENDROOT
BRANCH   5  10
ATOM     10  C   LIG    1       24.233 -28.269  13.482  0.00  0.00    +0.015 C 
ATOM     11  C   LIG    1       22.926 -28.016  13.314  0.00  0.00    +0.016 C 
ATOM     12  C   LIG    1       22.131 -27.234  14.323  0.00  0.00    +0.243 C 
ATOM     13  O   LIG    1       22.583 -26.646  15.286  0.00  0.00    -0.270 OA
ATOM     14  N   LIG    1       20.795 -27.351  13.944  0.00  0.00    -0.293 N 
ATOM     15  C   LIG    1       20.649 -28.410  12.968  0.00  0.00    +0.113 C 
ATOM     16  C   LIG    1       21.981 -28.423  12.235  0.00  0.00    +0.059 C 
BRANCH  14  17
ATOM     17  C   LIG    1       19.696 -26.778  14.733  0.00  0.00    +0.091 C 
ATOM     18  C   LIG    1       18.638 -25.981  13.944  0.00  0.00    +0.103 C 
ATOM     19  N   LIG    1       17.320 -26.575  14.234  0.00  0.00    -0.314 NA
ATOM     20  H   LIG    1       16.899 -26.059  15.009  0.00  0.00    +0.122 HD
ATOM     21  C   LIG    1       17.601 -27.941  14.680  0.00  0.00    +0.083 C 
ATOM     22  C   LIG    1       18.876 -27.823  15.488  0.00  0.00    +0.039 C 
ENDBRANCH  14  17
ENDBRANCH   5  10
BRANCH   1  24
ATOM     23  C   LIG    1       26.167 -31.782   7.111  0.00  0.00    +0.270 C 
ATOM     24  N   LIG    1       26.308 -30.925   8.179  0.00  0.00    -0.296 N 
ATOM     25  H   LIG    1       26.071 -29.951   7.995  0.00  0.00    +0.150 HD
ATOM     26  O   LIG    1       26.442 -32.968   7.214  0.00  0.00    -0.268 OA
BRANCH  23  27
ATOM     27  C   LIG    1       25.643 -31.159   5.786  0.00  0.00    +0.208 C 
ATOM     28  N   LIG    1       25.526 -31.804   4.648  0.00  0.00    -0.079 NA
BRANCH  27  32
ATOM     29  C   LIG    1       25.431 -27.612   5.107  0.00  0.00    +0.176 A 
ATOM     30  S   LIG    1       24.022 -27.655   6.088  0.00  0.00    +0.049 S 
ATOM     31  N   LIG    1       24.145 -29.286   6.380  0.00  0.00    -0.185 NA
ATOM     32  C   LIG    1       25.231 -29.738   5.739  0.00  0.00    +0.197 A 
ATOM     33  N   LIG    1       25.979 -28.795   4.996  0.00  0.00    -0.202 NA
BRANCH  29  34
ATOM     34  N   LIG    1       25.895 -26.498   4.519  0.00  0.00    -0.336 N 
ATOM     35  H   LIG    1       26.810 -26.564   4.085  0.00  0.00    +0.144 HD
ATOM     36  H   LIG    1       25.244 -25.891   4.035  0.00  0.00    +0.144 HD
ENDBRANCH  29  34
ENDBRANCH  27  32
BRANCH  28  37
ATOM     37  O   LIG    1       25.901 -33.148   4.652  0.00  0.00    -0.408 OA
ATOM     38  H   LIG    1       25.912 -33.365   3.696  0.00  0.00    +0.328 HD
ENDBRANCH  28  37
ENDBRANCH  23  27
ENDBRANCH   1  24
BRANCH   4  39
ATOM     39  C   LIG    1       24.044 -31.260  12.968  0.00  0.00    +0.352 C 
ATOM     40  O   LIG    1       22.906 -31.482  12.606  0.00  0.00    -0.244 OA
BRANCH  39  41
ATOM     41  OXT LIG    1       24.519 -31.800  14.110  0.00  0.00    -0.476 OA
ATOM     42  HXT LIG    1       23.780 -31.711  14.746  0.00  0.00    +0.295 HD
ENDBRANCH  39  41
ENDBRANCH   4  39
TORSDOF 9
ENDMDL
MODEL 3
REMARK VINA RESULT:      -5.9      4.235      9.698
REMARK  Name = *****
REMARK                            x       y       z     vdW  Elec       q    Type
REMARK                         _______ _______ _______ _____ _____    ______ ____
ROOT
ATOM      1  CA  LIG    1       20.708 -31.930  13.328  0.00  0.00    +0.191 C 
ATOM      2  C   LIG    1       21.646 -32.115  12.098  0.00  0.00    +0.169 C 
ATOM      3  N   LIG    1       22.664 -31.382  12.836  0.00  0.00    -0.249 N 
ATOM      4  CA  LIG    1       23.704 -30.655  12.282  0.00  0.00    +0.126 C 
ATOM      5  C   LIG    1       23.862 -30.556  10.936  0.00  0.00    -0.009 C 
ATOM      6  C   LIG    1       22.915 -31.252   9.972  0.00  0.00    +0.108 C 
ATOM      7  S   LIG    1       21.204 -31.223  10.580  0.00  0.00    -0.131 S 
ATOM      8  C   LIG    1       21.880 -31.095  13.903  0.00  0.00    +0.244 C 
ATOM      9  O   LIG    1       21.998 -30.318  14.845  0.00  0.00    -0.273 OA
ENDROOT
BRANCH   5  10
ATOM     10  C   LIG    1       24.816 -29.696  10.225  0.00  0.00    +0.015 C 
ATOM     11  C   LIG    1       24.862 -29.371   8.924  0.00  0.00    +0.016 C 
ATOM     12  C   LIG    1       25.900 -28.432   8.374  0.00  0.00    +0.243 C 
ATOM     13  O   LIG    1       26.859 -27.995   8.981  0.00  0.00    -0.270 OA
ATOM     14  N   LIG    1       25.522 -28.155   7.062  0.00  0.00    -0.293 N 
ATOM     15  C   LIG    1       24.155 -28.579   6.841  0.00  0.00    +0.113 C 
ATOM     16  C   LIG    1       23.978 -29.757   7.786  0.00  0.00    +0.059 C 
BRANCH  14  17
ATOM     17  C   LIG    1       26.254 -27.208   6.211  0.00  0.00    +0.091 C 
ATOM     18  C   LIG    1       25.963 -27.289   4.699  0.00  0.00    +0.103 C 
ATOM     19  N   LIG    1       25.537 -25.950   4.251  0.00  0.00    -0.314 NA
ATOM     20  H   LIG    1       26.359 -25.452   3.904  0.00  0.00    +0.122 HD
ATOM     21  C   LIG    1       25.056 -25.273   5.458  0.00  0.00    +0.083 C 
ATOM     22  C   LIG    1       25.988 -25.743   6.555  0.00  0.00    +0.039 C 
ENDBRANCH  14  17
ENDBRANCH   5  10
BRANCH   1  24
ATOM     23  C   LIG    1       18.301 -31.395  13.868  0.00  0.00    +0.270 C 
ATOM     24  N   LIG    1       19.450 -31.165  13.145  0.00  0.00    -0.296 N 
ATOM     25  H   LIG    1       19.396 -30.409  12.464  0.00  0.00    +0.150 HD
ATOM     26  O   LIG    1       18.247 -32.290  14.698  0.00  0.00    -0.268 OA
BRANCH  23  27
ATOM     27  C   LIG    1       17.095 -30.460  13.570  0.00  0.00    +0.208 C 
ATOM     28  N   LIG    1       16.001 -30.824  12.942  0.00  0.00    -0.079 NA
BRANCH  27  32
ATOM     29  C   LIG    1       18.117 -27.185  14.719  0.00  0.00    +0.176 A 
ATOM     30  S   LIG    1       16.456 -26.774  14.571  0.00  0.00    +0.049 S 
ATOM     31  N   LIG    1       16.018 -28.287  14.044  0.00  0.00    -0.185 NA
ATOM     32  C   LIG    1       17.122 -29.043  14.000  0.00  0.00    +0.197 A 
ATOM     33  N   LIG    1       18.339 -28.429  14.376  0.00  0.00    -0.202 NA
BRANCH  29  34
ATOM     34  N   LIG    1       19.065 -26.325  15.125  0.00  0.00    -0.336 N 
ATOM     35  H   LIG    1       20.002 -26.699  15.224  0.00  0.00    +0.144 HD
ATOM     36  H   LIG    1       19.028 -25.366  14.799  0.00  0.00    +0.144 HD
ENDBRANCH  29  34
ENDBRANCH  27  32
BRANCH  28  37
ATOM     37  O   LIG    1       15.935 -32.153  12.523  0.00  0.00    -0.408 OA
ATOM     38  H   LIG    1       16.447 -32.135  11.688  0.00  0.00    +0.328 HD
ENDBRANCH  28  37
ENDBRANCH  23  27
ENDBRANCH   1  24
BRANCH   4  39
ATOM     39  C   LIG    1       24.617 -29.956  13.248  0.00  0.00    +0.352 C 
ATOM     40  O   LIG    1       25.594 -30.401  13.817  0.00  0.00    -0.244 OA
BRANCH  39  41
ATOM     41  OXT LIG    1       24.189 -28.701  13.500  0.00  0.00    -0.476 OA
ATOM     42  HXT LIG    1       24.927 -28.288  13.996  0.00  0.00    +0.295 HD
ENDBRANCH  39  41
ENDBRANCH   4  39
TORSDOF 9
ENDMDL
MODEL 4
REMARK VINA RESULT:      -5.8      3.083      9.351
REMARK  Name = *****
REMARK                            x       y       z     vdW  Elec       q    Type
REMARK                         _______ _______ _______ _____ _____    ______ ____
ROOT
ATOM      1  CA  LIG    1       24.368 -32.008   8.967  0.00  0.00    +0.191 C 
ATOM      2  C   LIG    1       24.942 -31.156   7.796  0.00  0.00    +0.169 C 
ATOM      3  N   LIG    1       25.683 -30.393   8.789  0.00  0.00    -0.249 N 
ATOM      4  CA  LIG    1       26.114 -29.084   8.652  0.00  0.00    +0.126 C 
ATOM      5  C   LIG    1       25.863 -28.369   7.525  0.00  0.00    -0.009 C 
ATOM      6  C   LIG    1       25.109 -28.974   6.352  0.00  0.00    +0.108 C 
ATOM      7  S   LIG    1       23.780 -30.079   6.911  0.00  0.00    -0.131 S 
ATOM      8  C   LIG    1       25.154 -31.021   9.867  0.00  0.00    +0.244 C 
ATOM      9  O   LIG    1       25.153 -30.767  11.067  0.00  0.00    -0.273 OA
ENDROOT
BRANCH   5  10
ATOM     10  C   LIG    1       26.121 -26.939   7.316  0.00  0.00    +0.015 C 
ATOM     11  C   LIG    1       25.352 -26.013   6.722  0.00  0.00    +0.016 C 
ATOM     12  C   LIG    1       25.767 -24.571   6.634  0.00  0.00    +0.243 C 
ATOM     13  O   LIG    1       26.854 -24.122   6.944  0.00  0.00    -0.270 OA
ATOM     14  N   LIG    1       24.658 -23.872   6.162  0.00  0.00    -0.293 N 
ATOM     15  C   LIG    1       23.475 -24.701   6.255  0.00  0.00    +0.113 C 
ATOM     16  C   LIG    1       24.004 -26.117   6.093  0.00  0.00    +0.059 C 
BRANCH  14  17
ATOM     17  C   LIG    1       24.649 -22.410   6.012  0.00  0.00    +0.091 C 
ATOM     18  C   LIG    1       24.509 -21.878   4.571  0.00  0.00    +0.103 C 
ATOM     19  N   LIG    1       23.345 -20.973   4.538  0.00  0.00    -0.314 NA
ATOM     20  H   LIG    1       23.676 -20.019   4.690  0.00  0.00    +0.122 HD
ATOM     21  C   LIG    1       22.517 -21.366   5.681  0.00  0.00    +0.083 C 
ATOM     22  C   LIG    1       23.511 -21.725   6.766  0.00  0.00    +0.039 C 
ENDBRANCH  14  17
ENDBRANCH   5  10
BRANCH   1  24
ATOM     23  C   LIG    1       22.283 -32.638  10.243  0.00  0.00    +0.270 C 
ATOM     24  N   LIG    1       22.902 -31.998   9.192  0.00  0.00    -0.296 N 
ATOM     25  H   LIG    1       22.284 -31.489   8.563  0.00  0.00    +0.150 HD
ATOM     26  O   LIG    1       22.926 -33.294  11.048  0.00  0.00    -0.268 OA
BRANCH  23  27
ATOM     27  C   LIG    1       20.740 -32.477  10.341  0.00  0.00    +0.208 C 
ATOM     28  N   LIG    1       19.873 -33.031   9.525  0.00  0.00    -0.079 NA
BRANCH  27  32
ATOM     29  C   LIG    1       19.996 -29.838  12.703  0.00  0.00    +0.176 A 
ATOM     30  S   LIG    1       18.708 -30.854  13.211  0.00  0.00    +0.049 S 
ATOM     31  N   LIG    1       19.074 -32.046  12.115  0.00  0.00    -0.185 NA
ATOM     32  C   LIG    1       20.141 -31.647  11.412  0.00  0.00    +0.197 A 
ATOM     33  N   LIG    1       20.683 -30.379  11.728  0.00  0.00    -0.202 NA
BRANCH  29  34
ATOM     34  N   LIG    1       20.250 -28.632  13.236  0.00  0.00    -0.336 N 
ATOM     35  H   LIG    1       20.916 -28.608  14.001  0.00  0.00    +0.144 HD
ATOM     36  H   LIG    1       20.281 -27.823  12.627  0.00  0.00    +0.144 HD
ENDBRANCH  29  34
ENDBRANCH  27  32
BRANCH  28  37
ATOM     37  O   LIG    1       20.398 -33.824   8.504  0.00  0.00    -0.408 OA
ATOM     38  H   LIG    1       20.701 -34.618   8.990  0.00  0.00    +0.328 HD
ENDBRANCH  28  37
ENDBRANCH  23  27
ENDBRANCH   1  24
BRANCH   4  39
ATOM     39  C   LIG    1       26.837 -28.494   9.829  0.00  0.00    +0.352 C 
ATOM     40  O   LIG    1       26.632 -27.432  10.382  0.00  0.00    -0.244 OA
BRANCH  39  41
ATOM     41  OXT LIG    1       27.863 -29.282  10.214  0.00  0.00    -0.476 OA
ATOM     42  HXT LIG    1       28.033 -29.021  11.143  0.00  0.00    +0.295 HD
ENDBRANCH  39  41
ENDBRANCH   4  39
TORSDOF 9
ENDMDL
MODEL 5
REMARK VINA RESULT:      -5.6      1.428      1.634
REMARK  Name = *****
REMARK                            x       y       z     vdW  Elec       q    Type
REMARK                         _______ _______ _______ _____ _____    ______ ____
ROOT
ATOM      1  CA  LIG    1       25.980 -27.156   6.550  0.00  0.00    +0.191 C 
ATOM      2  C   LIG    1       26.642 -28.101   7.596  0.00  0.00    +0.169 C 
ATOM      3  N   LIG    1       25.603 -29.074   7.290  0.00  0.00    -0.249 N 
ATOM      4  CA  LIG    1       25.144 -30.066   8.139  0.00  0.00    +0.126 C 
ATOM      5  C   LIG    1       25.646 -30.216   9.392  0.00  0.00    -0.009 C 
ATOM      6  C   LIG    1       26.749 -29.312   9.919  0.00  0.00    +0.108 C 
ATOM      7  S   LIG    1       26.545 -27.603   9.338  0.00  0.00    -0.131 S 
ATOM      8  C   LIG    1       24.914 -28.275   6.440  0.00  0.00    +0.244 C 
ATOM      9  O   LIG    1       23.793 -28.347   5.946  0.00  0.00    -0.273 OA
ENDROOT
BRANCH   5  10
ATOM     10  C   LIG    1       25.143 -31.114  10.439  0.00  0.00    +0.015 C 
ATOM     11  C   LIG    1       24.216 -30.886  11.382  0.00  0.00    +0.016 C 
ATOM     12  C   LIG    1       23.794 -31.951  12.356  0.00  0.00    +0.243 C 
ATOM     13  O   LIG    1       24.317 -33.040  12.493  0.00  0.00    -0.270 OA
ATOM     14  N   LIG    1       22.684 -31.446  13.030  0.00  0.00    -0.293 N 
ATOM     15  C   LIG    1       22.169 -30.285  12.336  0.00  0.00    +0.113 C 
ATOM     16  C   LIG    1       23.397 -29.676  11.677  0.00  0.00    +0.059 C 
BRANCH  14  17
ATOM     17  C   LIG    1       21.935 -32.232  14.021  0.00  0.00    +0.091 C 
ATOM     18  C   LIG    1       21.115 -31.424  15.048  0.00  0.00    +0.103 C 
ATOM     19  N   LIG    1       19.719 -31.891  14.973  0.00  0.00    -0.314 NA
ATOM     20  H   LIG    1       19.585 -32.619  15.677  0.00  0.00    +0.122 HD
ATOM     21  C   LIG    1       19.583 -32.495  13.646  0.00  0.00    +0.083 C 
ATOM     22  C   LIG    1       20.910 -33.181  13.401  0.00  0.00    +0.039 C 
ENDBRANCH  14  17
ENDBRANCH   5  10
BRANCH   1  24
ATOM     23  C   LIG    1       24.971 -24.872   6.175  0.00  0.00    +0.270 C 
ATOM     24  N   LIG    1       25.446 -25.853   7.017  0.00  0.00    -0.296 N 
ATOM     25  H   LIG    1       25.398 -25.638   8.012  0.00  0.00    +0.150 HD
ATOM     26  O   LIG    1       24.998 -25.016   4.962  0.00  0.00    -0.268 OA
BRANCH  23  27
ATOM     27  C   LIG    1       24.406 -23.590   6.851  0.00  0.00    +0.208 C 
ATOM     28  N   LIG    1       23.130 -23.311   6.983  0.00  0.00    -0.079 NA
BRANCH  27  32
ATOM     29  C   LIG    1       27.323 -21.650   7.756  0.00  0.00    +0.176 A 
ATOM     30  S   LIG    1       26.210 -20.626   8.570  0.00  0.00    +0.049 S 
ATOM     31  N   LIG    1       24.891 -21.537   8.137  0.00  0.00    -0.185 NA
ATOM     32  C   LIG    1       25.326 -22.570   7.405  0.00  0.00    +0.197 A 
ATOM     33  N   LIG    1       26.718 -22.650   7.168  0.00  0.00    -0.202 NA
BRANCH  29  34
ATOM     34  N   LIG    1       28.647 -21.433   7.721  0.00  0.00    -0.336 N 
ATOM     35  H   LIG    1       29.198 -21.884   8.444  0.00  0.00    +0.144 HD
ATOM     36  H   LIG    1       29.110 -21.366   6.822  0.00  0.00    +0.144 HD
ENDBRANCH  29  34
ENDBRANCH  27  32
BRANCH  28  37
ATOM     37  O   LIG    1       22.231 -24.250   6.476  0.00  0.00    -0.408 OA
ATOM     38  H   LIG    1       21.366 -23.815   6.626  0.00  0.00    +0.328 HD
ENDBRANCH  28  37
ENDBRANCH  23  27
ENDBRANCH   1  24
BRANCH   4  39
ATOM     39  C   LIG    1       24.039 -30.936   7.611  0.00  0.00    +0.352 C 
ATOM     40  O   LIG    1       23.031 -31.301   8.183  0.00  0.00    -0.244 OA
BRANCH  39  41
ATOM     41  OXT LIG    1       24.314 -31.367   6.362  0.00  0.00    -0.476 OA
ATOM     42  HXT LIG    1       25.287 -31.278   6.284  0.00  0.00    +0.295 HD
ENDBRANCH  39  41
ENDBRANCH   4  39
TORSDOF 9
ENDMDL
MODEL 6
REMARK VINA RESULT:      -5.5      5.924      9.066
REMARK  Name = *****
REMARK                            x       y       z     vdW  Elec       q    Type
REMARK                         _______ _______ _______ _____ _____    ______ ____
ROOT
ATOM      1  CA  LIG    1       22.236 -28.528  15.114  0.00  0.00    +0.191 C 
ATOM      2  C   LIG    1       23.116 -29.802  14.950  0.00  0.00    +0.169 C 
ATOM      3  N   LIG    1       23.934 -29.047  14.013  0.00  0.00    -0.249 N 
ATOM      4  CA  LIG    1       24.700 -29.581  12.990  0.00  0.00    +0.126 C 
ATOM      5  C   LIG    1       24.747 -30.920  12.764  0.00  0.00    -0.009 C 
ATOM      6  C   LIG    1       23.975 -31.900  13.631  0.00  0.00    +0.108 C 
ATOM      7  S   LIG    1       22.359 -31.228  14.120  0.00  0.00    -0.131 S 
ATOM      8  C   LIG    1       23.164 -27.933  14.026  0.00  0.00    +0.244 C 
ATOM      9  O   LIG    1       23.118 -26.938  13.309  0.00  0.00    -0.273 OA
ENDROOT
BRANCH   5  10
ATOM     10  C   LIG    1       25.385 -31.596  11.628  0.00  0.00    +0.015 C 
ATOM     11  C   LIG    1       24.893 -31.855  10.406  0.00  0.00    +0.016 C 
ATOM     12  C   LIG    1       25.716 -32.531   9.344  0.00  0.00    +0.243 C 
ATOM     13  O   LIG    1       26.815 -33.027   9.501  0.00  0.00    -0.270 OA
ATOM     14  N   LIG    1       24.980 -32.441   8.164  0.00  0.00    -0.293 N 
ATOM     15  C   LIG    1       23.910 -31.479   8.320  0.00  0.00    +0.113 C 
ATOM     16  C   LIG    1       23.567 -31.546   9.799  0.00  0.00    +0.059 C 
BRANCH  14  17
ATOM     17  C   LIG    1       25.491 -32.927   6.874  0.00  0.00    +0.091 C 
ATOM     18  C   LIG    1       24.431 -33.231   5.796  0.00  0.00    +0.103 C 
ATOM     19  N   LIG    1       24.772 -32.444   4.597  0.00  0.00    -0.314 NA
ATOM     20  H   LIG    1       25.338 -33.029   3.980  0.00  0.00    +0.122 HD
ATOM     21  C   LIG    1       25.603 -31.339   5.083  0.00  0.00    +0.083 C 
ATOM     22  C   LIG    1       26.442 -31.950   6.186  0.00  0.00    +0.039 C 
ENDBRANCH  14  17
ENDBRANCH   5  10
BRANCH   1  24
ATOM     23  C   LIG    1       19.900 -27.589  14.929  0.00  0.00    +0.270 C 
ATOM     24  N   LIG    1       20.808 -28.603  14.720  0.00  0.00    -0.296 N 
ATOM     25  H   LIG    1       20.441 -29.431  14.253  0.00  0.00    +0.150 HD
ATOM     26  O   LIG    1       20.227 -26.558  15.498  0.00  0.00    -0.268 OA
BRANCH  23  27
ATOM     27  C   LIG    1       18.456 -27.830  14.405  0.00  0.00    +0.208 C 
ATOM     28  N   LIG    1       17.629 -26.885  14.022  0.00  0.00    -0.079 NA
BRANCH  27  32
ATOM     29  C   LIG    1       17.959 -31.337  13.664  0.00  0.00    +0.176 A 
ATOM     30  S   LIG    1       16.494 -31.165  14.543  0.00  0.00    +0.049 S 
ATOM     31  N   LIG    1       16.751 -29.557  14.869  0.00  0.00    -0.185 NA
ATOM     32  C   LIG    1       17.916 -29.205  14.309  0.00  0.00    +0.197 A 
ATOM     33  N   LIG    1       18.629 -30.213  13.619  0.00  0.00    -0.202 NA
BRANCH  29  34
ATOM     34  N   LIG    1       18.364 -32.489  13.107  0.00  0.00    -0.336 N 
ATOM     35  H   LIG    1       17.683 -32.980  12.538  0.00  0.00    +0.144 HD
ATOM     36  H   LIG    1       19.319 -32.565  12.777  0.00  0.00    +0.144 HD
ENDBRANCH  29  34
ENDBRANCH  27  32
BRANCH  28  37
ATOM     37  O   LIG    1       18.102 -25.575  14.094  0.00  0.00    -0.408 OA
ATOM     38  H   LIG    1       19.061 -25.707  14.248  0.00  0.00    +0.328 HD
ENDBRANCH  28  37
ENDBRANCH  23  27
ENDBRANCH   1  24
BRANCH   4  39
ATOM     39  C   LIG    1       25.440 -28.598  12.129  0.00  0.00    +0.352 C 
ATOM     40  O   LIG    1       25.525 -28.575  10.917  0.00  0.00    -0.244 OA
BRANCH  39  41
ATOM     41  OXT LIG    1       26.110 -27.701  12.881  0.00  0.00    -0.476 OA
ATOM     42  HXT LIG    1       26.319 -26.972  12.261  0.00  0.00    +0.295 HD
ENDBRANCH  39  41
ENDBRANCH   4  39
TORSDOF 9
ENDMDL
MODEL 7
REMARK VINA RESULT:      -5.0      4.273     12.201
REMARK  Name = *****
REMARK                            x       y       z     vdW  Elec       q    Type
REMARK                         _______ _______ _______ _____ _____    ______ ____
ROOT
ATOM      1  CA  LIG    1       24.396 -22.855   5.930  0.00  0.00    +0.191 C 
ATOM      2  C   LIG    1       25.219 -22.152   7.050  0.00  0.00    +0.169 C 
ATOM      3  N   LIG    1       25.549 -21.119   6.081  0.00  0.00    -0.249 N 
ATOM      4  CA  LIG    1       26.673 -20.310   6.107  0.00  0.00    +0.126 C 
ATOM      5  C   LIG    1       27.608 -20.426   7.086  0.00  0.00    -0.009 C 
ATOM      6  C   LIG    1       27.459 -21.438   8.211  0.00  0.00    +0.108 C 
ATOM      7  S   LIG    1       26.725 -22.990   7.617  0.00  0.00    -0.131 S 
ATOM      8  C   LIG    1       24.939 -21.716   5.030  0.00  0.00    +0.244 C 
ATOM      9  O   LIG    1       24.977 -21.525   3.818  0.00  0.00    -0.273 OA
ENDROOT
BRANCH   5  10
ATOM     10  C   LIG    1       28.908 -19.748   7.144  0.00  0.00    +0.015 C 
ATOM     11  C   LIG    1       29.431 -18.991   8.120  0.00  0.00    +0.016 C 
ATOM     12  C   LIG    1       30.812 -18.405   8.020  0.00  0.00    +0.243 C 
ATOM     13  O   LIG    1       31.525 -18.423   7.035  0.00  0.00    -0.270 OA
ATOM     14  N   LIG    1       31.105 -17.875   9.276  0.00  0.00    -0.293 N 
ATOM     15  C   LIG    1       30.156 -18.367  10.253  0.00  0.00    +0.113 C 
ATOM     16  C   LIG    1       28.886 -18.595   9.451  0.00  0.00    +0.059 C 
BRANCH  14  17
ATOM     17  C   LIG    1       32.407 -17.275   9.597  0.00  0.00    +0.091 C 
ATOM     18  C   LIG    1       32.589 -15.796   9.199  0.00  0.00    +0.103 C 
ATOM     19  N   LIG    1       32.973 -15.050  10.411  0.00  0.00    -0.314 NA
ATOM     20  H   LIG    1       33.993 -15.000  10.448  0.00  0.00    +0.122 HD
ATOM     21  C   LIG    1       32.505 -15.867  11.534  0.00  0.00    +0.083 C 
ATOM     22  C   LIG    1       32.738 -17.295  11.089  0.00  0.00    +0.039 C 
ENDBRANCH  14  17
ENDBRANCH   5  10
BRANCH   1  24
ATOM     23  C   LIG    1       24.221 -25.373   5.963  0.00  0.00    +0.270 C 
ATOM     24  N   LIG    1       24.806 -24.215   5.502  0.00  0.00    -0.296 N 
ATOM     25  H   LIG    1       25.551 -24.341   4.818  0.00  0.00    +0.150 HD
ATOM     26  O   LIG    1       23.331 -25.339   6.799  0.00  0.00    -0.268 OA
BRANCH  23  27
ATOM     27  C   LIG    1       24.753 -26.706   5.364  0.00  0.00    +0.208 C 
ATOM     28  N   LIG    1       25.398 -26.812   4.225  0.00  0.00    -0.079 NA
BRANCH  27  32
ATOM     29  C   LIG    1       24.000 -30.138   6.228  0.00  0.00    +0.176 A 
ATOM     30  S   LIG    1       24.424 -29.676   7.827  0.00  0.00    +0.049 S 
ATOM     31  N   LIG    1       24.764 -28.108   7.399  0.00  0.00    -0.185 NA
ATOM     32  C   LIG    1       24.547 -27.983   6.083  0.00  0.00    +0.197 A 
ATOM     33  N   LIG    1       24.115 -29.138   5.390  0.00  0.00    -0.202 NA
BRANCH  29  34
ATOM     34  N   LIG    1       23.612 -31.377   5.888  0.00  0.00    -0.336 N 
ATOM     35  H   LIG    1       24.127 -31.821   5.135  0.00  0.00    +0.144 HD
ATOM     36  H   LIG    1       23.303 -32.011   6.616  0.00  0.00    +0.144 HD
ENDBRANCH  29  34
ENDBRANCH  27  32
BRANCH  28  37
ATOM     37  O   LIG    1       25.615 -25.629   3.519  0.00  0.00    -0.408 OA
ATOM     38  H   LIG    1       24.830 -25.094   3.761  0.00  0.00    +0.328 HD
ENDBRANCH  28  37
ENDBRANCH  23  27
ENDBRANCH   1  24
BRANCH   4  39
ATOM     39  C   LIG    1       26.816 -19.330   4.978  0.00  0.00    +0.352 C 
ATOM     40  O   LIG    1       25.952 -18.907   4.235  0.00  0.00    -0.244 OA
BRANCH  39  41
ATOM     41  OXT LIG    1       28.106 -18.976   4.802  0.00  0.00    -0.476 OA
ATOM     42  HXT LIG    1       28.501 -19.734   4.322  0.00  0.00    +0.295 HD
ENDBRANCH  39  41
ENDBRANCH   4  39
TORSDOF 9
ENDMDL
MODEL 8
REMARK VINA RESULT:      -5.0      8.332     11.970
REMARK  Name = *****
REMARK                            x       y       z     vdW  Elec       q    Type
REMARK                         _______ _______ _______ _____ _____    ______ ____
ROOT
ATOM      1  CA  LIG    1       24.037 -20.865   5.166  0.00  0.00    +0.191 C 
ATOM      2  C   LIG    1       25.577 -21.073   5.055  0.00  0.00    +0.169 C 
ATOM      3  N   LIG    1       25.551 -21.567   6.424  0.00  0.00    -0.249 N 
ATOM      4  CA  LIG    1       26.608 -21.538   7.318  0.00  0.00    +0.126 C 
ATOM      5  C   LIG    1       27.814 -21.014   6.975  0.00  0.00    -0.009 C 
ATOM      6  C   LIG    1       28.067 -20.448   5.587  0.00  0.00    +0.108 C 
ATOM      7  S   LIG    1       26.606 -19.582   4.942  0.00  0.00    -0.131 S 
ATOM      8  C   LIG    1       24.235 -21.324   6.632  0.00  0.00    +0.244 C 
ATOM      9  O   LIG    1       23.538 -21.296   7.642  0.00  0.00    -0.273 OA
ENDROOT
BRANCH   5  10
ATOM     10  C   LIG    1       28.956 -20.779   7.867  0.00  0.00    +0.015 C 
ATOM     11  C   LIG    1       29.666 -19.658   8.062  0.00  0.00    +0.016 C 
ATOM     12  C   LIG    1       30.791 -19.591   9.058  0.00  0.00    +0.243 C 
ATOM     13  O   LIG    1       31.260 -20.533   9.667  0.00  0.00    -0.270 OA
ATOM     14  N   LIG    1       31.150 -18.248   9.153  0.00  0.00    -0.293 N 
ATOM     15  C   LIG    1       30.130 -17.419   8.547  0.00  0.00    +0.113 C 
ATOM     16  C   LIG    1       29.538 -18.300   7.459  0.00  0.00    +0.059 C 
BRANCH  14  17
ATOM     17  C   LIG    1       32.174 -17.768  10.091  0.00  0.00    +0.091 C 
ATOM     18  C   LIG    1       32.802 -16.397   9.766  0.00  0.00    +0.103 C 
ATOM     19  N   LIG    1       32.623 -15.530  10.944  0.00  0.00    -0.314 NA
ATOM     20  H   LIG    1       33.461 -15.599  11.524  0.00  0.00    +0.122 HD
ATOM     21  C   LIG    1       31.497 -16.108  11.683  0.00  0.00    +0.083 C 
ATOM     22  C   LIG    1       31.665 -17.605  11.522  0.00  0.00    +0.039 C 
ENDBRANCH  14  17
ENDBRANCH   5  10
BRANCH   1  24
ATOM     23  C   LIG    1       23.514 -18.775   3.850  0.00  0.00    +0.270 C 
ATOM     24  N   LIG    1       23.501 -19.489   5.028  0.00  0.00    -0.296 N 
ATOM     25  H   LIG    1       23.078 -19.014   5.824  0.00  0.00    +0.150 HD
ATOM     26  O   LIG    1       24.013 -19.240   2.837  0.00  0.00    -0.268 OA
BRANCH  23  27
ATOM     27  C   LIG    1       22.862 -17.363   3.887  0.00  0.00    +0.208 C 
ATOM     28  N   LIG    1       21.570 -17.132   3.874  0.00  0.00    -0.079 NA
BRANCH  27  32
ATOM     29  C   LIG    1       25.606 -15.015   3.665  0.00  0.00    +0.176 A 
ATOM     30  S   LIG    1       24.484 -13.868   4.275  0.00  0.00    +0.049 S 
ATOM     31  N   LIG    1       23.243 -14.969   4.364  0.00  0.00    -0.185 NA
ATOM     32  C   LIG    1       23.710 -16.150   3.939  0.00  0.00    +0.197 A 
ATOM     33  N   LIG    1       25.062 -16.198   3.526  0.00  0.00    -0.202 NA
BRANCH  29  34
ATOM     34  N   LIG    1       26.880 -14.722   3.358  0.00  0.00    -0.336 N 
ATOM     35  H   LIG    1       27.591 -15.334   3.744  0.00  0.00    +0.144 HD
ATOM     36  H   LIG    1       27.092 -14.364   2.434  0.00  0.00    +0.144 HD
ENDBRANCH  29  34
ENDBRANCH  27  32
BRANCH  28  37
ATOM     37  O   LIG    1       20.737 -18.251   3.828  0.00  0.00    -0.408 OA
ATOM     38  H   LIG    1       20.660 -18.416   2.865  0.00  0.00    +0.328 HD
ENDBRANCH  28  37
ENDBRANCH  23  27
ENDBRANCH   1  24
BRANCH   4  39
ATOM     39  C   LIG    1       26.335 -22.082   8.691  0.00  0.00    +0.352 C 
ATOM     40  O   LIG    1       26.433 -23.228   9.080  0.00  0.00    -0.244 OA
BRANCH  39  41
ATOM     41  OXT LIG    1       25.870 -21.116   9.512  0.00  0.00    -0.476 OA
ATOM     42  HXT LIG    1       26.326 -20.303   9.211  0.00  0.00    +0.295 HD
ENDBRANCH  39  41
ENDBRANCH   4  39
TORSDOF 9
ENDMDL
MODEL 9
REMARK VINA RESULT:      -4.9      4.322     11.486
REMARK  Name = *****
REMARK                            x       y       z     vdW  Elec       q    Type
REMARK                         _______ _______ _______ _____ _____    ______ ____
ROOT
ATOM      1  CA  LIG    1       23.907 -23.957   5.480  0.00  0.00    +0.191 C 
ATOM      2  C   LIG    1       24.293 -23.091   6.716  0.00  0.00    +0.169 C 
ATOM      3  N   LIG    1       24.600 -22.009   5.792  0.00  0.00    -0.249 N 
ATOM      4  CA  LIG    1       25.489 -20.973   6.020  0.00  0.00    +0.126 C 
ATOM      5  C   LIG    1       26.189 -20.882   7.181  0.00  0.00    -0.009 C 
ATOM      6  C   LIG    1       26.017 -21.903   8.294  0.00  0.00    +0.108 C 
ATOM      7  S   LIG    1       25.783 -23.578   7.632  0.00  0.00    -0.131 S 
ATOM      8  C   LIG    1       24.377 -22.726   4.664  0.00  0.00    +0.244 C 
ATOM      9  O   LIG    1       24.639 -22.530   3.481  0.00  0.00    -0.273 OA
ENDROOT
BRANCH   5  10
ATOM     10  C   LIG    1       27.269 -19.935   7.484  0.00  0.00    +0.015 C 
ATOM     11  C   LIG    1       28.446 -20.152   8.090  0.00  0.00    +0.016 C 
ATOM     12  C   LIG    1       29.458 -19.056   8.280  0.00  0.00    +0.243 C 
ATOM     13  O   LIG    1       29.281 -17.875   8.051  0.00  0.00    -0.270 OA
ATOM     14  N   LIG    1       30.621 -19.672   8.736  0.00  0.00    -0.293 N 
ATOM     15  C   LIG    1       30.533 -21.104   8.537  0.00  0.00    +0.113 C 
ATOM     16  C   LIG    1       29.046 -21.399   8.645  0.00  0.00    +0.059 C 
BRANCH  14  17
ATOM     17  C   LIG    1       31.869 -18.933   8.968  0.00  0.00    +0.091 C 
ATOM     18  C   LIG    1       32.242 -17.880   7.905  0.00  0.00    +0.103 C 
ATOM     19  N   LIG    1       32.420 -16.589   8.595  0.00  0.00    -0.314 NA
ATOM     20  H   LIG    1       33.411 -16.480   8.820  0.00  0.00    +0.122 HD
ATOM     21  C   LIG    1       31.668 -16.712   9.846  0.00  0.00    +0.083 C 
ATOM     22  C   LIG    1       31.880 -18.147  10.278  0.00  0.00    +0.039 C 
ENDBRANCH  14  17
ENDBRANCH   5  10
BRANCH   1  24
ATOM     23  C   LIG    1       24.442 -26.398   5.836  0.00  0.00    +0.270 C 
ATOM     24  N   LIG    1       24.683 -25.193   5.215  0.00  0.00    -0.296 N 
ATOM     25  H   LIG    1       25.439 -25.195   4.531  0.00  0.00    +0.150 HD
ATOM     26  O   LIG    1       23.572 -26.505   6.687  0.00  0.00    -0.268 OA
BRANCH  23  27
ATOM     27  C   LIG    1       25.329 -27.596   5.394  0.00  0.00    +0.208 C 
ATOM     28  N   LIG    1       26.160 -27.580   4.378  0.00  0.00    -0.079 NA
BRANCH  27  32
ATOM     29  C   LIG    1       25.330 -31.098   6.304  0.00  0.00    +0.176 A 
ATOM     30  S   LIG    1       25.096 -30.532   7.908  0.00  0.00    +0.049 S 
ATOM     31  N   LIG    1       25.102 -28.933   7.459  0.00  0.00    -0.185 NA
ATOM     32  C   LIG    1       25.275 -28.878   6.133  0.00  0.00    +0.197 A 
ATOM     33  N   LIG    1       25.416 -30.109   5.450  0.00  0.00    -0.202 NA
BRANCH  29  34
ATOM     34  N   LIG    1       25.426 -32.397   5.978  0.00  0.00    -0.336 N 
ATOM     35  H   LIG    1       26.363 -32.758   5.832  0.00  0.00    +0.144 HD
ATOM     36  H   LIG    1       24.783 -33.057   6.399  0.00  0.00    +0.144 HD
ENDBRANCH  29  34
ENDBRANCH  27  32
BRANCH  28  37
ATOM     37  O   LIG    1       26.242 -26.388   3.658  0.00  0.00    -0.408 OA
ATOM     38  H   LIG    1       26.788 -25.826   4.246  0.00  0.00    +0.328 HD
ENDBRANCH  28  37
ENDBRANCH  23  27
ENDBRANCH   1  24
BRANCH   4  39
ATOM     39  C   LIG    1       25.663 -19.985   4.902  0.00  0.00    +0.352 C 
ATOM     40  O   LIG    1       24.817 -19.294   4.371  0.00  0.00    -0.244 OA
BRANCH  39  41
ATOM     41  OXT LIG    1       26.937 -19.975   4.456  0.00  0.00    -0.476 OA
ATOM     42  HXT LIG    1       26.894 -19.474   3.615  0.00  0.00    +0.295 HD
ENDBRANCH  39  41
ENDBRANCH   4  39
TORSDOF 9
ENDMDL
