MODEL 1
REMARK VINA RESULT:      -9.3      0.000      0.000
REMARK  Name = *****
REMARK                            x       y       z     vdW  Elec       q    Type
REMARK                         _______ _______ _______ _____ _____    ______ ____
ROOT
ATOM      1  C   LIG    1       25.482 -28.287   6.885  0.00  0.00    +0.170 A 
ATOM      2  S   LIG    1       25.060 -27.923   5.257  0.00  0.00    -0.056 S 
ATOM      3  C   LIG    1       25.314 -26.267   5.485  0.00  0.00    -0.001 A 
ATOM      4  C   LIG    1       25.107 -25.250   4.424  0.00  0.00    +0.058 C 
ATOM      5  C   LIG    1       24.733 -23.916   5.107  0.00  0.00    +0.091 C 
ATOM      6  N   LIG    1       25.621 -23.507   6.215  0.00  0.00    -0.285 NA
ATOM      7  C   LIG    1       25.865 -24.537   7.253  0.00  0.00    +0.121 C 
ATOM      8  C   LIG    1       25.679 -25.944   6.769  0.00  0.00    -0.019 A 
ATOM      9  C   LIG    1       25.778 -27.122   7.574  0.00  0.00    +0.059 A 
ENDROOT
BRANCH   1  10
ATOM     10  O   LIG    1       25.478 -29.557   7.247  0.00  0.00    -0.419 OA
BRANCH  10  12
ATOM     11  C   LIG    1       23.927 -30.103   8.880  0.00  0.00    +0.136 C 
ATOM     12  C   LIG    1       24.295 -30.200   7.426  0.00  0.00    +0.310 C 
ATOM     13  O   LIG    1       23.569 -30.697   6.587  0.00  0.00    -0.251 OA
ENDBRANCH  10  12
ENDBRANCH   1  10
BRANCH   6  14
ATOM     14  C   LIG    1       25.271 -22.196   6.869  0.00  0.00    +0.157 C 
BRANCH  14  15
ATOM     15  C   LIG    1       24.622 -21.129   5.979  0.00  0.00    +0.012 A 
ATOM     16  C   LIG    1       23.350 -20.632   6.303  0.00  0.00    +0.129 A 
ATOM     17  F   LIG    1       22.718 -21.076   7.399  0.00  0.00    -0.205 F 
ATOM     18  C   LIG    1       22.704 -19.679   5.513  0.00  0.00    +0.039 A 
ATOM     19  C   LIG    1       23.326 -19.185   4.370  0.00  0.00    +0.003 A 
ATOM     20  C   LIG    1       24.596 -19.641   4.035  0.00  0.00    +0.001 A 
ATOM     21  C   LIG    1       25.241 -20.589   4.840  0.00  0.00    +0.008 A 
ENDBRANCH  14  15
BRANCH  14  22
ATOM     22  C   LIG    1       26.465 -21.636   7.680  0.00  0.00    +0.158 C 
ATOM     23  O   LIG    1       26.422 -21.380   8.881  0.00  0.00    -0.295 OA
BRANCH  22  24
ATOM     24  C   LIG    1       27.743 -21.415   6.914  0.00  0.00    +0.057 C 
ATOM     25  C   LIG    1       28.372 -20.040   6.851  0.00  0.00    +0.012 C 
ATOM     26  C   LIG    1       29.029 -21.120   7.657  0.00  0.00    +0.012 C 
ENDBRANCH  22  24
ENDBRANCH  14  22
ENDBRANCH   6  14
TORSDOF 6
ENDMDL
MODEL 2
REMARK VINA RESULT:      -9.0      4.441      8.101
REMARK  Name = *****
REMARK                            x       y       z     vdW  Elec       q    Type
REMARK                         _______ _______ _______ _____ _____    ______ ____
ROOT
ATOM      1  C   LIG    1       31.015 -18.488   7.958  0.00  0.00    +0.170 A 
ATOM      2  S   LIG    1       31.068 -20.057   8.663  0.00  0.00    -0.056 S 
ATOM      3  C   LIG    1       29.677 -20.553   7.842  0.00  0.00    -0.001 A 
ATOM      4  C   LIG    1       29.070 -21.899   7.989  0.00  0.00    +0.058 C 
ATOM      5  C   LIG    1       27.555 -21.773   7.718  0.00  0.00    +0.091 C 
ATOM      6  N   LIG    1       27.196 -21.048   6.482  0.00  0.00    -0.285 NA
ATOM      7  C   LIG    1       27.836 -19.722   6.310  0.00  0.00    +0.121 C 
ATOM      8  C   LIG    1       29.126 -19.567   7.060  0.00  0.00    -0.019 A 
ATOM      9  C   LIG    1       29.910 -18.373   7.130  0.00  0.00    +0.059 A 
ENDROOT
BRANCH   1  10
ATOM     10  O   LIG    1       31.984 -17.646   8.271  0.00  0.00    -0.419 OA
BRANCH  10  12
ATOM     11  C   LIG    1       30.754 -16.604   9.937  0.00  0.00    +0.136 C 
ATOM     12  C   LIG    1       32.085 -17.183   9.544  0.00  0.00    +0.310 C 
ATOM     13  O   LIG    1       33.021 -17.279  10.313  0.00  0.00    -0.251 OA
ENDBRANCH  10  12
ENDBRANCH   1  10
BRANCH   6  14
ATOM     14  C   LIG    1       25.720 -20.942   6.204  0.00  0.00    +0.157 C 
BRANCH  14  15
ATOM     15  C   LIG    1       24.905 -22.240   6.279  0.00  0.00    +0.012 A 
ATOM     16  C   LIG    1       23.676 -22.252   6.955  0.00  0.00    +0.129 A 
ATOM     17  F   LIG    1       23.208 -21.126   7.512  0.00  0.00    -0.205 F 
ATOM     18  C   LIG    1       22.907 -23.412   7.074  0.00  0.00    +0.039 A 
ATOM     19  C   LIG    1       23.351 -24.601   6.504  0.00  0.00    +0.003 A 
ATOM     20  C   LIG    1       24.555 -24.617   5.809  0.00  0.00    +0.001 A 
ATOM     21  C   LIG    1       25.313 -23.446   5.684  0.00  0.00    +0.008 A 
ENDBRANCH  14  15
BRANCH  14  22
ATOM     22  C   LIG    1       25.449 -20.155   4.899  0.00  0.00    +0.158 C 
ATOM     23  O   LIG    1       26.293 -19.481   4.313  0.00  0.00    -0.295 OA
BRANCH  22  24
ATOM     24  C   LIG    1       24.054 -20.256   4.340  0.00  0.00    +0.057 C 
ATOM     25  C   LIG    1       22.937 -19.408   4.908  0.00  0.00    +0.012 C 
ATOM     26  C   LIG    1       23.474 -19.108   3.541  0.00  0.00    +0.012 C 
ENDBRANCH  22  24
ENDBRANCH  14  22
ENDBRANCH   6  14
TORSDOF 6
ENDMDL
MODEL 3
REMARK VINA RESULT:      -8.8      3.914      7.753
REMARK  Name = *****
REMARK                            x       y       z     vdW  Elec       q    Type
REMARK                         _______ _______ _______ _____ _____    ______ ____
ROOT
ATOM      1  C   LIG    1       30.188 -19.445   8.014  0.00  0.00    +0.170 A 
ATOM      2  S   LIG    1       30.093 -19.144   6.323  0.00  0.00    -0.056 S 
ATOM      3  C   LIG    1       28.456 -19.561   6.267  0.00  0.00    -0.001 A 
ATOM      4  C   LIG    1       27.648 -19.553   5.023  0.00  0.00    +0.058 C 
ATOM      5  C   LIG    1       26.523 -20.601   5.176  0.00  0.00    +0.091 C 
ATOM      6  N   LIG    1       25.753 -20.515   6.435  0.00  0.00    -0.285 NA
ATOM      7  C   LIG    1       26.560 -20.478   7.677  0.00  0.00    +0.121 C 
ATOM      8  C   LIG    1       27.955 -19.963   7.481  0.00  0.00    -0.019 A 
ATOM      9  C   LIG    1       28.965 -19.890   8.491  0.00  0.00    +0.059 A 
ENDROOT
BRANCH   1  10
ATOM     10  O   LIG    1       31.346 -19.220   8.610  0.00  0.00    -0.419 OA
BRANCH  10  12
ATOM     11  C   LIG    1       32.005 -17.073   9.181  0.00  0.00    +0.136 C 
ATOM     12  C   LIG    1       31.404 -18.363   9.663  0.00  0.00    +0.310 C 
ATOM     13  O   LIG    1       30.973 -18.518  10.788  0.00  0.00    -0.251 OA
ENDBRANCH  10  12
ENDBRANCH   1  10
BRANCH   6  14
ATOM     14  C   LIG    1       24.642 -21.522   6.578  0.00  0.00    +0.157 C 
BRANCH  14  15
ATOM     15  C   LIG    1       24.972 -22.975   6.213  0.00  0.00    +0.012 A 
ATOM     16  C   LIG    1       25.610 -23.801   7.151  0.00  0.00    +0.129 A 
ATOM     17  F   LIG    1       25.909 -23.324   8.368  0.00  0.00    -0.205 F 
ATOM     18  C   LIG    1       25.955 -25.123   6.861  0.00  0.00    +0.039 A 
ATOM     19  C   LIG    1       25.657 -25.661   5.612  0.00  0.00    +0.003 A 
ATOM     20  C   LIG    1       25.005 -24.875   4.669  0.00  0.00    +0.001 A 
ATOM     21  C   LIG    1       24.652 -23.554   4.973  0.00  0.00    +0.008 A 
ENDBRANCH  14  15
BRANCH  14  22
ATOM     22  C   LIG    1       23.343 -21.027   5.897  0.00  0.00    +0.158 C 
ATOM     23  O   LIG    1       22.325 -21.705   5.782  0.00  0.00    -0.295 OA
BRANCH  22  24
ATOM     24  C   LIG    1       23.367 -19.618   5.366  0.00  0.00    +0.057 C 
ATOM     25  C   LIG    1       23.448 -19.362   3.876  0.00  0.00    +0.012 C 
ATOM     26  C   LIG    1       22.173 -19.074   4.610  0.00  0.00    +0.012 C 
ENDBRANCH  22  24
ENDBRANCH  14  22
ENDBRANCH   6  14
TORSDOF 6
ENDMDL
MODEL 4
REMARK VINA RESULT:      -8.1      4.287      8.060
REMARK  Name = *****
REMARK                            x       y       z     vdW  Elec       q    Type
REMARK                         _______ _______ _______ _____ _____    ______ ____
ROOT
ATOM      1  C   LIG    1       31.084 -18.742   9.244  0.00  0.00    +0.170 A 
ATOM      2  S   LIG    1       31.444 -18.350   7.608  0.00  0.00    -0.056 S 
ATOM      3  C   LIG    1       29.915 -18.842   7.079  0.00  0.00    -0.001 A 
ATOM      4  C   LIG    1       29.485 -18.803   5.659  0.00  0.00    +0.058 C 
ATOM      5  C   LIG    1       28.430 -19.911   5.449  0.00  0.00    +0.091 C 
ATOM      6  N   LIG    1       27.337 -19.935   6.443  0.00  0.00    -0.285 NA
ATOM      7  C   LIG    1       27.764 -19.929   7.863  0.00  0.00    +0.121 C 
ATOM      8  C   LIG    1       29.124 -19.336   8.086  0.00  0.00    -0.019 A 
ATOM      9  C   LIG    1       29.808 -19.271   9.340  0.00  0.00    +0.059 A 
ENDROOT
BRANCH   1  10
ATOM     10  O   LIG    1       32.015 -18.494  10.149  0.00  0.00    -0.419 OA
BRANCH  10  12
ATOM     11  C   LIG    1       31.528 -16.939  11.797  0.00  0.00    +0.136 C 
ATOM     12  C   LIG    1       32.269 -17.211  10.517  0.00  0.00    +0.310 C 
ATOM     13  O   LIG    1       33.025 -16.411  10.003  0.00  0.00    -0.251 OA
ENDBRANCH  10  12
ENDBRANCH   1  10
BRANCH   6  14
ATOM     14  C   LIG    1       26.295 -21.001   6.228  0.00  0.00    +0.157 C 
BRANCH  14  15
ATOM     15  C   LIG    1       24.929 -20.540   5.703  0.00  0.00    +0.012 A 
ATOM     16  C   LIG    1       24.821 -20.032   4.399  0.00  0.00    +0.129 A 
ATOM     17  F   LIG    1       25.905 -19.972   3.613  0.00  0.00    -0.205 F 
ATOM     18  C   LIG    1       23.607 -19.576   3.880  0.00  0.00    +0.039 A 
ATOM     19  C   LIG    1       22.455 -19.626   4.660  0.00  0.00    +0.003 A 
ATOM     20  C   LIG    1       22.526 -20.145   5.948  0.00  0.00    +0.001 A 
ATOM     21  C   LIG    1       23.745 -20.612   6.455  0.00  0.00    +0.008 A 
ENDBRANCH  14  15
BRANCH  14  22
ATOM     22  C   LIG    1       26.166 -21.919   7.468  0.00  0.00    +0.158 C 
ATOM     23  O   LIG    1       26.142 -21.511   8.627  0.00  0.00    -0.295 OA
BRANCH  22  24
ATOM     24  C   LIG    1       26.055 -23.395   7.193  0.00  0.00    +0.057 C 
ATOM     25  C   LIG    1       24.698 -24.058   7.097  0.00  0.00    +0.012 C 
ATOM     26  C   LIG    1       25.525 -23.879   5.859  0.00  0.00    +0.012 C 
ENDBRANCH  22  24
ENDBRANCH  14  22
ENDBRANCH   6  14
TORSDOF 6
ENDMDL
MODEL 5
REMARK VINA RESULT:      -7.8      1.698      3.437
REMARK  Name = *****
REMARK                            x       y       z     vdW  Elec       q    Type
REMARK                         _______ _______ _______ _____ _____    ______ ____
ROOT
ATOM      1  C   LIG    1       25.223 -27.739   6.666  0.00  0.00    +0.170 A 
ATOM      2  S   LIG    1       24.528 -27.263   5.166  0.00  0.00    -0.056 S 
ATOM      3  C   LIG    1       25.095 -25.678   5.323  0.00  0.00    -0.001 A 
ATOM      4  C   LIG    1       24.837 -24.610   4.325  0.00  0.00    +0.058 C 
ATOM      5  C   LIG    1       24.844 -23.254   5.065  0.00  0.00    +0.091 C 
ATOM      6  N   LIG    1       26.005 -23.028   5.952  0.00  0.00    -0.285 NA
ATOM      7  C   LIG    1       26.291 -24.114   6.919  0.00  0.00    +0.121 C 
ATOM      8  C   LIG    1       25.775 -25.457   6.495  0.00  0.00    -0.019 A 
ATOM      9  C   LIG    1       25.849 -26.659   7.268  0.00  0.00    +0.059 A 
ENDROOT
BRANCH   1  10
ATOM     10  O   LIG    1       25.086 -29.002   7.028  0.00  0.00    -0.419 OA
BRANCH  10  12
ATOM     11  C   LIG    1       25.615 -30.711   5.554  0.00  0.00    +0.136 C 
ATOM     12  C   LIG    1       24.518 -29.888   6.169  0.00  0.00    +0.310 C 
ATOM     13  O   LIG    1       23.338 -30.095   5.966  0.00  0.00    -0.251 OA
ENDBRANCH  10  12
ENDBRANCH   1  10
BRANCH   6  14
ATOM     14  C   LIG    1       26.025 -21.698   6.658  0.00  0.00    +0.157 C 
BRANCH  14  15
ATOM     15  C   LIG    1       27.383 -20.991   6.766  0.00  0.00    +0.012 A 
ATOM     16  C   LIG    1       27.698 -19.950   5.880  0.00  0.00    +0.129 A 
ATOM     17  F   LIG    1       26.804 -19.563   4.958  0.00  0.00    -0.205 F 
ATOM     18  C   LIG    1       28.928 -19.290   5.918  0.00  0.00    +0.039 A 
ATOM     19  C   LIG    1       29.882 -19.655   6.863  0.00  0.00    +0.003 A 
ATOM     20  C   LIG    1       29.592 -20.668   7.770  0.00  0.00    +0.001 A 
ATOM     21  C   LIG    1       28.350 -21.316   7.731  0.00  0.00    +0.008 A 
ENDBRANCH  14  15
BRANCH  14  22
ATOM     22  C   LIG    1       25.294 -21.773   8.020  0.00  0.00    +0.158 C 
ATOM     23  O   LIG    1       25.812 -22.179   9.058  0.00  0.00    -0.295 OA
BRANCH  22  24
ATOM     24  C   LIG    1       23.865 -21.299   8.034  0.00  0.00    +0.057 C 
ATOM     25  C   LIG    1       23.248 -20.686   6.795  0.00  0.00    +0.012 C 
ATOM     26  C   LIG    1       22.812 -22.048   7.245  0.00  0.00    +0.012 C 
ENDBRANCH  22  24
ENDBRANCH  14  22
ENDBRANCH   6  14
TORSDOF 6
ENDMDL
MODEL 6
REMARK VINA RESULT:      -7.7      1.800      3.708
REMARK  Name = *****
REMARK                            x       y       z     vdW  Elec       q    Type
REMARK                         _______ _______ _______ _____ _____    ______ ____
ROOT
ATOM      1  C   LIG    1       24.830 -27.482   5.280  0.00  0.00    +0.170 A 
ATOM      2  S   LIG    1       25.847 -27.342   6.660  0.00  0.00    -0.056 S 
ATOM      3  C   LIG    1       25.505 -25.696   6.835  0.00  0.00    -0.001 A 
ATOM      4  C   LIG    1       26.096 -24.842   7.896  0.00  0.00    +0.058 C 
ATOM      5  C   LIG    1       26.159 -23.393   7.363  0.00  0.00    +0.091 C 
ATOM      6  N   LIG    1       24.905 -22.888   6.766  0.00  0.00    -0.285 NA
ATOM      7  C   LIG    1       24.289 -23.761   5.738  0.00  0.00    +0.121 C 
ATOM      8  C   LIG    1       24.666 -25.208   5.864  0.00  0.00    -0.019 A 
ATOM      9  C   LIG    1       24.275 -26.251   4.967  0.00  0.00    +0.059 A 
ENDROOT
BRANCH   1  10
ATOM     10  O   LIG    1       24.709 -28.677   4.730  0.00  0.00    -0.419 OA
BRANCH  10  12
ATOM     11  C   LIG    1       25.527 -30.775   5.279  0.00  0.00    +0.136 C 
ATOM     12  C   LIG    1       24.450 -29.754   5.517  0.00  0.00    +0.310 C 
ATOM     13  O   LIG    1       23.579 -29.888   6.354  0.00  0.00    -0.251 OA
ENDBRANCH  10  12
ENDBRANCH   1  10
BRANCH   6  14
ATOM     14  C   LIG    1       24.957 -21.469   6.264  0.00  0.00    +0.157 C 
BRANCH  14  15
ATOM     15  C   LIG    1       26.287 -20.723   6.433  0.00  0.00    +0.012 A 
ATOM     16  C   LIG    1       26.881 -20.100   5.325  0.00  0.00    +0.129 A 
ATOM     17  F   LIG    1       26.274 -20.141   4.130  0.00  0.00    -0.205 F 
ATOM     18  C   LIG    1       28.102 -19.429   5.419  0.00  0.00    +0.039 A 
ATOM     19  C   LIG    1       28.763 -19.356   6.641  0.00  0.00    +0.003 A 
ATOM     20  C   LIG    1       28.189 -19.944   7.763  0.00  0.00    +0.001 A 
ATOM     21  C   LIG    1       26.958 -20.604   7.662  0.00  0.00    +0.008 A 
ENDBRANCH  14  15
BRANCH  14  22
ATOM     22  C   LIG    1       23.753 -20.646   6.782  0.00  0.00    +0.158 C 
ATOM     23  O   LIG    1       23.463 -20.523   7.969  0.00  0.00    -0.295 OA
BRANCH  22  24
ATOM     24  C   LIG    1       22.918 -19.960   5.733  0.00  0.00    +0.057 C 
ATOM     25  C   LIG    1       23.212 -20.165   4.263  0.00  0.00    +0.012 C 
ATOM     26  C   LIG    1       21.979 -20.770   4.865  0.00  0.00    +0.012 C 
ENDBRANCH  22  24
ENDBRANCH  14  22
ENDBRANCH   6  14
TORSDOF 6
ENDMDL
MODEL 7
REMARK VINA RESULT:      -7.5      1.911      3.842
REMARK  Name = *****
REMARK                            x       y       z     vdW  Elec       q    Type
REMARK                         _______ _______ _______ _____ _____    ______ ____
ROOT
ATOM      1  C   LIG    1       25.545 -27.490   5.274  0.00  0.00    +0.170 A 
ATOM      2  S   LIG    1       24.265 -27.320   6.411  0.00  0.00    -0.056 S 
ATOM      3  C   LIG    1       24.087 -25.673   6.074  0.00  0.00    -0.001 A 
ATOM      4  C   LIG    1       23.099 -24.796   6.751  0.00  0.00    +0.058 C 
ATOM      5  C   LIG    1       23.660 -23.357   6.754  0.00  0.00    +0.091 C 
ATOM      6  N   LIG    1       24.150 -22.870   5.448  0.00  0.00    -0.285 NA
ATOM      7  C   LIG    1       25.102 -23.765   4.749  0.00  0.00    +0.121 C 
ATOM      8  C   LIG    1       24.986 -25.207   5.146  0.00  0.00    -0.019 A 
ATOM      9  C   LIG    1       25.827 -26.268   4.684  0.00  0.00    +0.059 A 
ENDROOT
BRANCH   1  10
ATOM     10  O   LIG    1       26.061 -28.695   5.113  0.00  0.00    -0.419 OA
BRANCH  10  12
ATOM     11  C   LIG    1       25.546 -30.951   4.972  0.00  0.00    +0.136 C 
ATOM     12  C   LIG    1       25.587 -29.732   5.852  0.00  0.00    +0.310 C 
ATOM     13  O   LIG    1       25.322 -29.758   7.037  0.00  0.00    -0.251 OA
ENDBRANCH  10  12
ENDBRANCH   1  10
BRANCH   6  14
ATOM     14  C   LIG    1       24.677 -21.460   5.444  0.00  0.00    +0.157 C 
BRANCH  14  15
ATOM     15  C   LIG    1       25.973 -21.202   6.225  0.00  0.00    +0.012 A 
ATOM     16  C   LIG    1       26.873 -20.224   5.776  0.00  0.00    +0.129 A 
ATOM     17  F   LIG    1       26.589 -19.506   4.681  0.00  0.00    -0.205 F 
ATOM     18  C   LIG    1       28.077 -19.967   6.436  0.00  0.00    +0.039 A 
ATOM     19  C   LIG    1       28.409 -20.685   7.581  0.00  0.00    +0.003 A 
ATOM     20  C   LIG    1       27.527 -21.645   8.063  0.00  0.00    +0.001 A 
ATOM     21  C   LIG    1       26.316 -21.888   7.402  0.00  0.00    +0.008 A 
ENDBRANCH  14  15
BRANCH  14  22
ATOM     22  C   LIG    1       23.566 -20.443   5.799  0.00  0.00    +0.158 C 
ATOM     23  O   LIG    1       23.301 -20.086   6.944  0.00  0.00    -0.295 OA
BRANCH  22  24
ATOM     24  C   LIG    1       22.794 -19.871   4.640  0.00  0.00    +0.057 C 
ATOM     25  C   LIG    1       22.263 -18.455   4.696  0.00  0.00    +0.012 C 
ATOM     26  C   LIG    1       23.407 -18.783   3.784  0.00  0.00    +0.012 C 
ENDBRANCH  22  24
ENDBRANCH  14  22
ENDBRANCH   6  14
TORSDOF 6
ENDMDL
MODEL 8
REMARK VINA RESULT:      -6.9      1.600      3.240
REMARK  Name = *****
REMARK                            x       y       z     vdW  Elec       q    Type
REMARK                         _______ _______ _______ _____ _____    ______ ____
ROOT
ATOM      1  C   LIG    1       25.509 -28.549   7.380  0.00  0.00    +0.170 A 
ATOM      2  S   LIG    1       25.207 -28.644   5.689  0.00  0.00    -0.056 S 
ATOM      3  C   LIG    1       25.361 -26.972   5.494  0.00  0.00    -0.001 A 
ATOM      4  C   LIG    1       25.195 -26.277   4.193  0.00  0.00    +0.058 C 
ATOM      5  C   LIG    1       24.702 -24.841   4.478  0.00  0.00    +0.091 C 
ATOM      6  N   LIG    1       25.475 -24.102   5.498  0.00  0.00    -0.285 NA
ATOM      7  C   LIG    1       25.681 -24.813   6.783  0.00  0.00    +0.121 C 
ATOM      8  C   LIG    1       25.603 -26.307   6.671  0.00  0.00    -0.019 A 
ATOM      9  C   LIG    1       25.692 -27.229   7.760  0.00  0.00    +0.059 A 
ENDROOT
BRANCH   1  10
ATOM     10  O   LIG    1       25.536 -29.682   8.059  0.00  0.00    -0.419 OA
BRANCH  10  12
ATOM     11  C   LIG    1       24.123 -30.334   9.777  0.00  0.00    +0.136 C 
ATOM     12  C   LIG    1       24.377 -30.350   8.296  0.00  0.00    +0.310 C 
ATOM     13  O   LIG    1       23.592 -30.812   7.491  0.00  0.00    -0.251 OA
ENDBRANCH  10  12
ENDBRANCH   1  10
BRANCH   6  14
ATOM     14  C   LIG    1       25.010 -22.695   5.763  0.00  0.00    +0.157 C 
BRANCH  14  15
ATOM     15  C   LIG    1       25.970 -21.782   6.538  0.00  0.00    +0.012 A 
ATOM     16  C   LIG    1       26.600 -20.715   5.879  0.00  0.00    +0.129 A 
ATOM     17  F   LIG    1       26.345 -20.485   4.583  0.00  0.00    -0.205 F 
ATOM     18  C   LIG    1       27.501 -19.871   6.531  0.00  0.00    +0.039 A 
ATOM     19  C   LIG    1       27.789 -20.069   7.878  0.00  0.00    +0.003 A 
ATOM     20  C   LIG    1       27.164 -21.104   8.564  0.00  0.00    +0.001 A 
ATOM     21  C   LIG    1       26.253 -21.939   7.905  0.00  0.00    +0.008 A 
ENDBRANCH  14  15
BRANCH  14  22
ATOM     22  C   LIG    1       23.580 -22.676   6.353  0.00  0.00    +0.158 C 
ATOM     23  O   LIG    1       23.175 -23.468   7.202  0.00  0.00    -0.295 OA
BRANCH  22  24
ATOM     24  C   LIG    1       22.662 -21.600   5.837  0.00  0.00    +0.057 C 
ATOM     25  C   LIG    1       22.981 -20.140   6.075  0.00  0.00    +0.012 C 
ATOM     26  C   LIG    1       23.106 -20.711   4.694  0.00  0.00    +0.012 C 
ENDBRANCH  22  24
ENDBRANCH  14  22
ENDBRANCH   6  14
TORSDOF 6
ENDMDL
MODEL 9
REMARK VINA RESULT:      -6.5      3.184      8.810
REMARK  Name = *****
REMARK                            x       y       z     vdW  Elec       q    Type
REMARK                         _______ _______ _______ _____ _____    ______ ____
ROOT
ATOM      1  C   LIG    1       24.142 -23.349   6.540  0.00  0.00    +0.170 A 
ATOM      2  S   LIG    1       25.845 -23.590   6.595  0.00  0.00    -0.056 S 
ATOM      3  C   LIG    1       25.685 -25.268   6.477  0.00  0.00    -0.001 A 
ATOM      4  C   LIG    1       26.834 -26.207   6.483  0.00  0.00    +0.058 C 
ATOM      5  C   LIG    1       26.350 -27.553   7.066  0.00  0.00    +0.091 C 
ATOM      6  N   LIG    1       25.103 -28.081   6.474  0.00  0.00    -0.285 NA
ATOM      7  C   LIG    1       23.966 -27.131   6.427  0.00  0.00    +0.121 C 
ATOM      8  C   LIG    1       24.378 -25.688   6.431  0.00  0.00    -0.019 A 
ATOM      9  C   LIG    1       23.489 -24.569   6.464  0.00  0.00    +0.059 A 
ENDROOT
BRANCH   1  10
ATOM     10  O   LIG    1       23.701 -22.104   6.567  0.00  0.00    -0.419 OA
BRANCH  10  12
ATOM     11  C   LIG    1       22.824 -20.153   5.674  0.00  0.00    +0.136 C 
ATOM     12  C   LIG    1       23.643 -21.387   5.415  0.00  0.00    +0.310 C 
ATOM     13  O   LIG    1       24.211 -21.600   4.361  0.00  0.00    -0.251 OA
ENDBRANCH  10  12
ENDBRANCH   1  10
BRANCH   6  14
ATOM     14  C   LIG    1       24.639 -29.403   7.025  0.00  0.00    +0.157 C 
BRANCH  14  15
ATOM     15  C   LIG    1       25.163 -29.799   8.412  0.00  0.00    +0.012 A 
ATOM     16  C   LIG    1       24.258 -30.008   9.464  0.00  0.00    +0.129 A 
ATOM     17  F   LIG    1       22.941 -29.883   9.248  0.00  0.00    -0.205 F 
ATOM     18  C   LIG    1       24.683 -30.344  10.751  0.00  0.00    +0.039 A 
ATOM     19  C   LIG    1       26.041 -30.491  11.019  0.00  0.00    +0.003 A 
ATOM     20  C   LIG    1       26.961 -30.312   9.992  0.00  0.00    +0.001 A 
ATOM     21  C   LIG    1       26.525 -29.987   8.701  0.00  0.00    +0.008 A 
ENDBRANCH  14  15
BRANCH  14  22
ATOM     22  C   LIG    1       24.816 -30.538   5.987  0.00  0.00    +0.158 C 
ATOM     23  O   LIG    1       25.673 -30.538   5.106  0.00  0.00    -0.295 OA
BRANCH  22  24
ATOM     24  C   LIG    1       23.867 -31.700   6.106  0.00  0.00    +0.057 C 
ATOM     25  C   LIG    1       24.136 -32.990   5.360  0.00  0.00    +0.012 C 
ATOM     26  C   LIG    1       24.288 -32.949   6.851  0.00  0.00    +0.012 C 
ENDBRANCH  22  24
ENDBRANCH  14  22
ENDBRANCH   6  14
TORSDOF 6
ENDMDL
