MODEL 1
REMARK VINA RESULT:      -3.9      0.000      0.000
REMARK  Name = *****
REMARK                            x       y       z     vdW  Elec       q    Type
REMARK                         _______ _______ _______ _____ _____    ______ ____
ROOT
ATOM      1  C   LIG    1       25.859 -31.143   8.966  0.00  0.00    +0.176 C 
ATOM      2  C   LIG    1       24.907 -30.170   8.161  0.00  0.00    +0.156 C 
ATOM      3  C   LIG    1       23.444 -30.666   8.244  0.00  0.00    +0.028 C 
ATOM      4  C   LIG    1       22.869 -30.448   9.696  0.00  0.00    +0.012 C 
ATOM      5  C   LIG    1       22.328 -31.642  10.521  0.00  0.00    +0.019 C 
ATOM      6  C   LIG    1       22.912 -32.982  10.108  0.00  0.00    +0.010 C 
ATOM      7  C   LIG    1       22.237 -31.653  12.109  0.00  0.00    +0.147 C 
ATOM      8  C   LIG    1       23.582 -32.060  12.787  0.00  0.00    +0.004 C 
ATOM      9  C   LIG    1       24.260 -31.496  13.812  0.00  0.00    -0.002 C 
ATOM     10  C   LIG    1       25.675 -31.808  14.102  0.00  0.00    -0.004 C 
ATOM     11  C   LIG    1       26.467 -30.959  14.792  0.00  0.00    -0.023 C 
ATOM     12  C   LIG    1       27.996 -30.912  14.802  0.00  0.00    +0.071 C 
ATOM     13  C   LIG    1       28.500 -29.713  13.960  0.00  0.00    +0.177 C 
ATOM     14  C   LIG    1       30.019 -29.561  13.896  0.00  0.00    +0.052 C 
ATOM     15  O   LIG    1       28.099 -29.935  12.597  0.00  0.00    -0.461 OA
ATOM     16  C   LIG    1       27.026 -29.196  12.167  0.00  0.00    +0.310 C 
ATOM     17  O   LIG    1       26.407 -28.393  12.795  0.00  0.00    -0.251 OA
ATOM     18  C   LIG    1       26.811 -29.530  10.713  0.00  0.00    +0.154 C 
ATOM     19  C   LIG    1       26.043 -30.823  10.483  0.00  0.00    +0.156 C 
ENDROOT
BRANCH   1  21
ATOM     20  C   LIG    1       27.375 -32.388   7.544  0.00  0.00    +0.194 C 
ATOM     21  O   LIG    1       27.175 -31.241   8.364  0.00  0.00    -0.375 OA
ENDBRANCH   1  21
BRANCH  19  22
ATOM     22  O   LIG    1       26.689 -31.961  11.090  0.00  0.00    -0.389 OA
ATOM     23  H   LIG    1       27.269 -32.374  10.426  0.00  0.00    +0.210 HD
ENDBRANCH  19  22
BRANCH   2  24
ATOM     24  O   LIG    1       25.059 -28.780   8.507  0.00  0.00    -0.343 OA
BRANCH  24  25
ATOM     25  C   LIG    1       24.946 -27.760   7.475  0.00  0.00    +0.281 C 
ATOM     26  C   LIG    1       26.303 -27.127   7.079  0.00  0.00    +0.190 C 
ATOM     27  C   LIG    1       26.312 -26.507   5.641  0.00  0.00    +0.121 C 
ATOM     28  C   LIG    1       24.825 -26.094   5.216  0.00  0.00    +0.169 C 
ATOM     29  C   LIG    1       23.850 -27.305   5.361  0.00  0.00    +0.149 C 
ATOM     30  C   LIG    1       23.632 -28.068   4.036  0.00  0.00    +0.040 C 
ATOM     31  O   LIG    1       24.251 -28.266   6.344  0.00  0.00    -0.343 OA
BRANCH  27  32
ATOM     32  N   LIG    1       27.126 -27.312   4.645  0.00  0.00    -0.301 NA
ATOM     33  C   LIG    1       26.838 -28.736   4.626  0.00  0.00    +0.105 C 
ATOM     34  C   LIG    1       28.577 -27.170   4.793  0.00  0.00    +0.105 C 
ENDBRANCH  27  32
BRANCH  26  35
ATOM     35  O   LIG    1       26.743 -26.179   8.066  0.00  0.00    -0.385 OA
ATOM     36  H   LIG    1       27.374 -25.574   7.639  0.00  0.00    +0.210 HD
ENDBRANCH  26  35
BRANCH  28  37
ATOM     37  O   LIG    1       24.435 -24.923   6.033  0.00  0.00    -0.344 OA
BRANCH  37  38
ATOM     38  C   LIG    1       25.397 -23.846   6.210  0.00  0.00    +0.254 C 
ATOM     39  O   LIG    1       25.565 -23.483   7.583  0.00  0.00    -0.346 OA
ATOM     40  C   LIG    1       24.803 -22.362   8.075  0.00  0.00    +0.150 C 
ATOM     41  C   LIG    1       25.692 -21.115   8.200  0.00  0.00    +0.040 C 
ATOM     42  C   LIG    1       23.496 -22.136   7.285  0.00  0.00    +0.174 C 
ATOM     43  C   LIG    1       23.752 -21.879   5.784  0.00  0.00    +0.096 C 
ATOM     44  C   LIG    1       23.738 -20.369   5.470  0.00  0.00    +0.044 C 
ATOM     45  C   LIG    1       25.032 -22.614   5.332  0.00  0.00    +0.098 C 
BRANCH  42  46
ATOM     46  O   LIG    1       22.679 -23.321   7.403  0.00  0.00    -0.386 OA
ATOM     47  H   LIG    1       23.273 -24.042   7.697  0.00  0.00    +0.210 HD
ENDBRANCH  42  46
BRANCH  43  48
ATOM     48  O   LIG    1       22.656 -22.384   4.999  0.00  0.00    -0.386 OA
ATOM     49  H   LIG    1       22.702 -21.939   4.131  0.00  0.00    +0.210 HD
ENDBRANCH  43  48
ENDBRANCH  37  38
ENDBRANCH  28  37
ENDBRANCH  24  25
ENDBRANCH   2  24
BRANCH   3  50
ATOM     50  C   LIG    1       23.252 -31.928   7.352  0.00  0.00    +0.077 C 
BRANCH  50  51
ATOM     51  C   LIG    1       23.936 -31.873   6.000  0.00  0.00    +0.223 C 
ATOM     52  O   LIG    1       24.302 -32.854   5.364  0.00  0.00    -0.301 OA
ENDBRANCH  50  51
ENDBRANCH   3  50
BRANCH   7  53
ATOM     53  O   LIG    1       21.279 -32.709  12.472  0.00  0.00    -0.344 OA
BRANCH  53  54
ATOM     54  C   LIG    1       20.293 -32.391  13.477  0.00  0.00    +0.251 C 
ATOM     55  O   LIG    1       19.301 -33.412  13.592  0.00  0.00    -0.347 OA
ATOM     56  C   LIG    1       18.276 -33.377  12.570  0.00  0.00    +0.135 C 
ATOM     57  C   LIG    1       16.947 -32.967  13.227  0.00  0.00    +0.039 C 
ATOM     58  C   LIG    1       18.648 -32.455  11.355  0.00  0.00    +0.085 C 
ATOM     59  C   LIG    1       18.762 -31.030  11.941  0.00  0.00    +0.026 C 
ATOM     60  C   LIG    1       19.580 -31.041  13.240  0.00  0.00    +0.063 C 
BRANCH  58  61
ATOM     61  N   LIG    1       17.783 -32.516  10.142  0.00  0.00    -0.303 NA
ATOM     62  C   LIG    1       17.762 -31.212   9.448  0.00  0.00    +0.105 C 
ATOM     63  C   LIG    1       18.317 -33.501   9.187  0.00  0.00    +0.105 C 
ENDBRANCH  58  61
ENDBRANCH  53  54
ENDBRANCH   7  53
TORSDOF 15
ENDMDL
MODEL 2
REMARK VINA RESULT:      -3.7      1.388      2.288
REMARK  Name = *****
REMARK                            x       y       z     vdW  Elec       q    Type
REMARK                         _______ _______ _______ _____ _____    ______ ____
ROOT
ATOM      1  C   LIG    1       25.737 -31.710   9.302  0.00  0.00    +0.176 C 
ATOM      2  C   LIG    1       25.100 -30.616   8.355  0.00  0.00    +0.156 C 
ATOM      3  C   LIG    1       23.642 -30.997   8.005  0.00  0.00    +0.028 C 
ATOM      4  C   LIG    1       22.709 -30.825   9.265  0.00  0.00    +0.012 C 
ATOM      5  C   LIG    1       21.894 -32.021   9.817  0.00  0.00    +0.019 C 
ATOM      6  C   LIG    1       22.486 -33.375   9.466  0.00  0.00    +0.010 C 
ATOM      7  C   LIG    1       21.375 -32.123  11.317  0.00  0.00    +0.147 C 
ATOM      8  C   LIG    1       22.459 -32.678  12.293  0.00  0.00    +0.004 C 
ATOM      9  C   LIG    1       22.867 -32.234  13.504  0.00  0.00    -0.002 C 
ATOM     10  C   LIG    1       24.129 -32.677  14.133  0.00  0.00    -0.004 C 
ATOM     11  C   LIG    1       24.754 -31.938  15.075  0.00  0.00    -0.023 C 
ATOM     12  C   LIG    1       26.224 -32.014  15.495  0.00  0.00    +0.071 C 
ATOM     13  C   LIG    1       27.008 -30.809  14.917  0.00  0.00    +0.177 C 
ATOM     14  C   LIG    1       28.493 -30.776  15.272  0.00  0.00    +0.052 C 
ATOM     15  O   LIG    1       26.979 -30.913  13.483  0.00  0.00    -0.461 OA
ATOM     16  C   LIG    1       26.109 -30.065  12.845  0.00  0.00    +0.310 C 
ATOM     17  O   LIG    1       25.393 -29.257  13.349  0.00  0.00    -0.251 OA
ATOM     18  C   LIG    1       26.276 -30.291  11.365  0.00  0.00    +0.154 C 
ATOM     19  C   LIG    1       25.522 -31.501  10.834  0.00  0.00    +0.156 C 
ENDROOT
BRANCH   1  21
ATOM     20  C   LIG    1       27.491 -32.798   8.033  0.00  0.00    +0.194 C 
ATOM     21  O   LIG    1       27.159 -31.875   9.066  0.00  0.00    -0.375 OA
ENDBRANCH   1  21
BRANCH  19  22
ATOM     22  O   LIG    1       25.910 -32.722  11.497  0.00  0.00    -0.389 OA
ATOM     23  H   LIG    1       26.598 -32.509  12.153  0.00  0.00    +0.210 HD
ENDBRANCH  19  22
BRANCH   2  24
ATOM     24  O   LIG    1       25.235 -29.267   8.840  0.00  0.00    -0.343 OA
BRANCH  24  25
ATOM     25  C   LIG    1       25.135 -28.149   7.913  0.00  0.00    +0.281 C 
ATOM     26  C   LIG    1       26.484 -27.436   7.655  0.00  0.00    +0.190 C 
ATOM     27  C   LIG    1       26.540 -26.669   6.290  0.00  0.00    +0.121 C 
ATOM     28  C   LIG    1       25.061 -26.263   5.833  0.00  0.00    +0.169 C 
ATOM     29  C   LIG    1       24.126 -27.512   5.804  0.00  0.00    +0.149 C 
ATOM     30  C   LIG    1       24.001 -28.141   4.398  0.00  0.00    +0.040 C 
ATOM     31  O   LIG    1       24.514 -28.557   6.703  0.00  0.00    -0.343 OA
BRANCH  27  32
ATOM     32  N   LIG    1       27.431 -27.341   5.261  0.00  0.00    -0.301 NA
ATOM     33  C   LIG    1       28.821 -26.917   5.283  0.00  0.00    +0.105 C 
ATOM     34  C   LIG    1       26.964 -27.211   3.878  0.00  0.00    +0.105 C 
ENDBRANCH  27  32
BRANCH  26  35
ATOM     35  O   LIG    1       26.841 -26.581   8.755  0.00  0.00    -0.385 OA
ATOM     36  H   LIG    1       27.536 -25.973   8.448  0.00  0.00    +0.210 HD
ENDBRANCH  26  35
BRANCH  28  37
ATOM     37  O   LIG    1       24.589 -25.196   6.744  0.00  0.00    -0.344 OA
BRANCH  37  38
ATOM     38  C   LIG    1       23.657 -24.204   6.232  0.00  0.00    +0.254 C 
ATOM     39  O   LIG    1       24.060 -23.674   4.966  0.00  0.00    -0.346 OA
ATOM     40  C   LIG    1       24.784 -22.427   4.966  0.00  0.00    +0.150 C 
ATOM     41  C   LIG    1       23.867 -21.267   4.547  0.00  0.00    +0.040 C 
ATOM     42  C   LIG    1       25.557 -22.185   6.280  0.00  0.00    +0.174 C 
ATOM     43  C   LIG    1       24.628 -22.162   7.514  0.00  0.00    +0.096 C 
ATOM     44  C   LIG    1       24.276 -20.716   7.916  0.00  0.00    +0.044 C 
ATOM     45  C   LIG    1       23.406 -23.074   7.273  0.00  0.00    +0.098 C 
BRANCH  42  46
ATOM     46  O   LIG    1       26.509 -23.257   6.456  0.00  0.00    -0.386 OA
ATOM     47  H   LIG    1       26.616 -23.380   7.421  0.00  0.00    +0.210 HD
ENDBRANCH  42  46
BRANCH  43  48
ATOM     48  O   LIG    1       25.326 -22.661   8.671  0.00  0.00    -0.386 OA
ATOM     49  H   LIG    1       25.667 -21.883   9.152  0.00  0.00    +0.210 HD
ENDBRANCH  43  48
ENDBRANCH  37  38
ENDBRANCH  28  37
ENDBRANCH  24  25
ENDBRANCH   2  24
BRANCH   3  50
ATOM     50  C   LIG    1       23.623 -32.182   6.995  0.00  0.00    +0.077 C 
BRANCH  50  51
ATOM     51  C   LIG    1       24.406 -31.953   5.716  0.00  0.00    +0.223 C 
ATOM     52  O   LIG    1       25.552 -32.339   5.522  0.00  0.00    -0.301 OA
ENDBRANCH  50  51
ENDBRANCH   3  50
BRANCH   7  53
ATOM     53  O   LIG    1       20.293 -33.120  11.325  0.00  0.00    -0.344 OA
BRANCH  53  54
ATOM     54  C   LIG    1       19.040 -32.740  10.717  0.00  0.00    +0.251 C 
ATOM     55  O   LIG    1       18.621 -31.439  11.129  0.00  0.00    -0.347 OA
ATOM     56  C   LIG    1       18.005 -31.389  12.438  0.00  0.00    +0.135 C 
ATOM     57  C   LIG    1       16.512 -31.064  12.262  0.00  0.00    +0.039 C 
ATOM     58  C   LIG    1       18.236 -32.694  13.279  0.00  0.00    +0.085 C 
ATOM     59  C   LIG    1       17.537 -33.821  12.486  0.00  0.00    +0.026 C 
ATOM     60  C   LIG    1       17.891 -33.735  10.995  0.00  0.00    +0.063 C 
BRANCH  58  61
ATOM     61  N   LIG    1       17.851 -32.674  14.719  0.00  0.00    -0.303 NA
ATOM     62  C   LIG    1       17.947 -31.306  15.269  0.00  0.00    +0.105 C 
ATOM     63  C   LIG    1       16.450 -33.100  14.875  0.00  0.00    +0.105 C 
ENDBRANCH  58  61
ENDBRANCH  53  54
ENDBRANCH   7  53
TORSDOF 15
ENDMDL
MODEL 3
REMARK VINA RESULT:      -3.1      2.813      4.796
REMARK  Name = *****
REMARK                            x       y       z     vdW  Elec       q    Type
REMARK                         _______ _______ _______ _____ _____    ______ ____
ROOT
ATOM      1  C   LIG    1       25.472 -30.378  12.472  0.00  0.00    +0.176 C 
ATOM      2  C   LIG    1       24.827 -30.740  11.074  0.00  0.00    +0.156 C 
ATOM      3  C   LIG    1       23.371 -31.227  11.269  0.00  0.00    +0.028 C 
ATOM      4  C   LIG    1       22.438 -30.024  11.681  0.00  0.00    +0.012 C 
ATOM      5  C   LIG    1       21.631 -30.065  13.002  0.00  0.00    +0.019 C 
ATOM      6  C   LIG    1       22.231 -30.980  14.054  0.00  0.00    +0.010 C 
ATOM      7  C   LIG    1       21.113 -28.768  13.764  0.00  0.00    +0.147 C 
ATOM      8  C   LIG    1       22.200 -28.139  14.689  0.00  0.00    +0.004 C 
ATOM      9  C   LIG    1       22.606 -26.856  14.829  0.00  0.00    -0.002 C 
ATOM     10  C   LIG    1       23.871 -26.487  15.497  0.00  0.00    -0.004 C 
ATOM     11  C   LIG    1       24.492 -25.312  15.251  0.00  0.00    -0.023 C 
ATOM     12  C   LIG    1       25.962 -24.966  15.499  0.00  0.00    +0.071 C 
ATOM     13  C   LIG    1       26.738 -24.946  14.158  0.00  0.00    +0.177 C 
ATOM     14  C   LIG    1       28.224 -24.609  14.278  0.00  0.00    +0.052 C 
ATOM     15  O   LIG    1       26.709 -26.276  13.613  0.00  0.00    -0.461 OA
ATOM     16  C   LIG    1       25.834 -26.472  12.575  0.00  0.00    +0.310 C 
ATOM     17  O   LIG    1       25.113 -25.662  12.079  0.00  0.00    -0.251 OA
ATOM     18  C   LIG    1       26.002 -27.897  12.116  0.00  0.00    +0.154 C 
ATOM     19  C   LIG    1       25.256 -28.914  12.968  0.00  0.00    +0.156 C 
ENDROOT
BRANCH   1  21
ATOM     20  C   LIG    1       27.397 -31.046  13.781  0.00  0.00    +0.194 C 
ATOM     21  O   LIG    1       26.894 -30.659  12.507  0.00  0.00    -0.375 OA
ENDBRANCH   1  21
BRANCH  19  22
ATOM     22  O   LIG    1       25.652 -28.863  14.354  0.00  0.00    -0.389 OA
ATOM     23  H   LIG    1       24.898 -28.534  14.876  0.00  0.00    +0.210 HD
ENDBRANCH  19  22
BRANCH   2  24
ATOM     24  O   LIG    1       24.954 -29.705  10.081  0.00  0.00    -0.343 OA
BRANCH  24  25
ATOM     25  C   LIG    1       25.151 -30.060   8.683  0.00  0.00    +0.281 C 
ATOM     26  C   LIG    1       26.527 -30.710   8.398  0.00  0.00    +0.190 C 
ATOM     27  C   LIG    1       26.544 -31.608   7.115  0.00  0.00    +0.121 C 
ATOM     28  C   LIG    1       25.405 -31.127   6.098  0.00  0.00    +0.169 C 
ATOM     29  C   LIG    1       24.014 -31.082   6.803  0.00  0.00    +0.149 C 
ATOM     30  C   LIG    1       23.177 -32.360   6.572  0.00  0.00    +0.040 C 
ATOM     31  O   LIG    1       24.079 -30.868   8.218  0.00  0.00    -0.343 OA
BRANCH  27  32
ATOM     32  N   LIG    1       26.626 -33.092   7.422  0.00  0.00    -0.301 NA
ATOM     33  C   LIG    1       26.041 -33.489   8.692  0.00  0.00    +0.105 C 
ATOM     34  C   LIG    1       27.982 -33.645   7.384  0.00  0.00    +0.105 C 
ENDBRANCH  27  32
BRANCH  26  35
ATOM     35  O   LIG    1       27.572 -29.723   8.366  0.00  0.00    -0.385 OA
ATOM     36  H   LIG    1       27.925 -29.691   7.459  0.00  0.00    +0.210 HD
ENDBRANCH  26  35
BRANCH  28  37
ATOM     37  O   LIG    1       25.826 -29.821   5.541  0.00  0.00    -0.344 OA
BRANCH  37  38
ATOM     38  C   LIG    1       24.814 -28.800   5.316  0.00  0.00    +0.254 C 
ATOM     39  O   LIG    1       24.998 -28.111   4.077  0.00  0.00    -0.346 OA
ATOM     40  C   LIG    1       25.703 -26.854   4.112  0.00  0.00    +0.150 C 
ATOM     41  C   LIG    1       24.721 -25.677   3.996  0.00  0.00    +0.040 C 
ATOM     42  C   LIG    1       26.682 -26.751   5.301  0.00  0.00    +0.174 C 
ATOM     43  C   LIG    1       25.972 -26.903   6.663  0.00  0.00    +0.096 C 
ATOM     44  C   LIG    1       25.682 -25.526   7.294  0.00  0.00    +0.044 C 
ATOM     45  C   LIG    1       24.733 -27.812   6.516  0.00  0.00    +0.098 C 
BRANCH  42  46
ATOM     46  O   LIG    1       27.657 -27.810   5.183  0.00  0.00    -0.386 OA
ATOM     47  H   LIG    1       27.288 -28.462   4.553  0.00  0.00    +0.210 HD
ENDBRANCH  42  46
BRANCH  43  48
ATOM     48  O   LIG    1       26.856 -27.519   7.619  0.00  0.00    -0.386 OA
ATOM     49  H   LIG    1       26.792 -28.483   7.484  0.00  0.00    +0.210 HD
ENDBRANCH  43  48
ENDBRANCH  37  38
ENDBRANCH  28  37
ENDBRANCH  24  25
ENDBRANCH   2  24
BRANCH   3  50
ATOM     50  C   LIG    1       23.359 -32.659  11.879  0.00  0.00    +0.077 C 
BRANCH  50  51
ATOM     51  C   LIG    1       22.634 -33.706  11.056  0.00  0.00    +0.223 C 
ATOM     52  O   LIG    1       22.570 -33.710   9.833  0.00  0.00    -0.301 OA
ENDBRANCH  50  51
ENDBRANCH   3  50
BRANCH   7  53
ATOM     53  O   LIG    1       20.037 -29.208  14.666  0.00  0.00    -0.344 OA
BRANCH  53  54
ATOM     54  C   LIG    1       18.678 -29.015  14.218  0.00  0.00    +0.251 C 
ATOM     55  O   LIG    1       17.729 -29.417  15.207  0.00  0.00    -0.347 OA
ATOM     56  C   LIG    1       17.506 -30.845  15.284  0.00  0.00    +0.135 C 
ATOM     57  C   LIG    1       16.082 -31.143  14.783  0.00  0.00    +0.039 C 
ATOM     58  C   LIG    1       18.592 -31.682  14.521  0.00  0.00    +0.085 C 
ATOM     59  C   LIG    1       18.455 -31.275  13.036  0.00  0.00    +0.026 C 
ATOM     60  C   LIG    1       18.352 -29.750  12.899  0.00  0.00    +0.063 C 
BRANCH  58  61
ATOM     61  N   LIG    1       18.601 -33.160  14.718  0.00  0.00    -0.303 NA
ATOM     62  C   LIG    1       19.790 -33.579  15.488  0.00  0.00    +0.105 C 
ATOM     63  C   LIG    1       17.420 -33.575  15.494  0.00  0.00    +0.105 C 
ENDBRANCH  58  61
ENDBRANCH  53  54
ENDBRANCH   7  53
TORSDOF 15
ENDMDL
MODEL 4
REMARK VINA RESULT:      -2.9      4.290      6.887
REMARK  Name = *****
REMARK                            x       y       z     vdW  Elec       q    Type
REMARK                         _______ _______ _______ _____ _____    ______ ____
ROOT
ATOM      1  C   LIG    1       26.722 -30.132  14.201  0.00  0.00    +0.176 C 
ATOM      2  C   LIG    1       26.370 -31.004  12.930  0.00  0.00    +0.156 C 
ATOM      3  C   LIG    1       24.952 -31.605  13.072  0.00  0.00    +0.028 C 
ATOM      4  C   LIG    1       23.858 -30.478  12.925  0.00  0.00    +0.012 C 
ATOM      5  C   LIG    1       22.836 -30.214  14.058  0.00  0.00    +0.019 C 
ATOM      6  C   LIG    1       23.318 -30.657  15.428  0.00  0.00    +0.010 C 
ATOM      7  C   LIG    1       22.079 -28.830  14.264  0.00  0.00    +0.147 C 
ATOM      8  C   LIG    1       22.925 -27.794  15.066  0.00  0.00    +0.004 C 
ATOM      9  C   LIG    1       23.185 -26.489  14.824  0.00  0.00    -0.002 C 
ATOM     10  C   LIG    1       24.274 -25.753  15.499  0.00  0.00    -0.004 C 
ATOM     11  C   LIG    1       24.823 -24.641  14.964  0.00  0.00    -0.023 C 
ATOM     12  C   LIG    1       26.189 -24.030  15.283  0.00  0.00    +0.071 C 
ATOM     13  C   LIG    1       27.186 -24.324  14.134  0.00  0.00    +0.177 C 
ATOM     14  C   LIG    1       28.591 -23.760  14.339  0.00  0.00    +0.052 C 
ATOM     15  O   LIG    1       27.372 -25.748  14.066  0.00  0.00    -0.461 OA
ATOM     16  C   LIG    1       26.715 -26.383  13.042  0.00  0.00    +0.310 C 
ATOM     17  O   LIG    1       26.025 -25.881  12.210  0.00  0.00    -0.251 OA
ATOM     18  C   LIG    1       27.087 -27.841  13.114  0.00  0.00    +0.154 C 
ATOM     19  C   LIG    1       26.294 -28.632  14.145  0.00  0.00    +0.156 C 
ENDROOT
BRANCH   1  21
ATOM     20  C   LIG    1       29.009 -30.114  13.403  0.00  0.00    +0.194 C 
ATOM     21  O   LIG    1       28.135 -30.184  14.525  0.00  0.00    -0.375 OA
ENDBRANCH   1  21
BRANCH  19  22
ATOM     22  O   LIG    1       26.431 -28.091  15.475  0.00  0.00    -0.389 OA
ATOM     23  H   LIG    1       27.366 -27.855  15.614  0.00  0.00    +0.210 HD
ENDBRANCH  19  22
BRANCH   2  24
ATOM     24  O   LIG    1       26.580 -30.327  11.676  0.00  0.00    -0.343 OA
BRANCH  24  25
ATOM     25  C   LIG    1       25.811 -30.718  10.503  0.00  0.00    +0.281 C 
ATOM     26  C   LIG    1       25.998 -32.204  10.109  0.00  0.00    +0.190 C 
ATOM     27  C   LIG    1       24.803 -32.790   9.283  0.00  0.00    +0.121 C 
ATOM     28  C   LIG    1       24.044 -31.611   8.511  0.00  0.00    +0.169 C 
ATOM     29  C   LIG    1       23.616 -30.484   9.503  0.00  0.00    +0.149 C 
ATOM     30  C   LIG    1       22.155 -30.624   9.984  0.00  0.00    +0.040 C 
ATOM     31  O   LIG    1       24.440 -30.385  10.670  0.00  0.00    -0.343 OA
BRANCH  27  32
ATOM     32  N   LIG    1       23.954 -33.772  10.070  0.00  0.00    -0.301 NA
ATOM     33  C   LIG    1       22.542 -33.775   9.727  0.00  0.00    +0.105 C 
ATOM     34  C   LIG    1       24.042 -33.618  11.525  0.00  0.00    +0.105 C 
ENDBRANCH  27  32
BRANCH  26  35
ATOM     35  O   LIG    1       27.254 -32.411   9.440  0.00  0.00    -0.385 OA
ATOM     36  H   LIG    1       27.066 -32.620   8.509  0.00  0.00    +0.210 HD
ENDBRANCH  26  35
BRANCH  28  37
ATOM     37  O   LIG    1       24.936 -31.137   7.430  0.00  0.00    -0.344 OA
BRANCH  37  38
ATOM     38  C   LIG    1       24.494 -31.272   6.051  0.00  0.00    +0.254 C 
ATOM     39  O   LIG    1       23.561 -32.341   5.878  0.00  0.00    -0.346 OA
ATOM     40  C   LIG    1       24.077 -33.611   5.428  0.00  0.00    +0.150 C 
ATOM     41  C   LIG    1       23.770 -33.825   3.938  0.00  0.00    +0.040 C 
ATOM     42  C   LIG    1       25.558 -33.822   5.810  0.00  0.00    +0.174 C 
ATOM     43  C   LIG    1       26.479 -32.730   5.222  0.00  0.00    +0.096 C 
ATOM     44  C   LIG    1       27.155 -33.217   3.923  0.00  0.00    +0.044 C 
ATOM     45  C   LIG    1       25.704 -31.403   5.080  0.00  0.00    +0.098 C 
BRANCH  42  46
ATOM     46  O   LIG    1       25.671 -33.774   7.250  0.00  0.00    -0.386 OA
ATOM     47  H   LIG    1       24.784 -33.540   7.592  0.00  0.00    +0.210 HD
ENDBRANCH  42  46
BRANCH  43  48
ATOM     48  O   LIG    1       27.595 -32.495   6.101  0.00  0.00    -0.386 OA
ATOM     49  H   LIG    1       27.445 -31.627   6.521  0.00  0.00    +0.210 HD
ENDBRANCH  43  48
ENDBRANCH  37  38
ENDBRANCH  28  37
ENDBRANCH  24  25
ENDBRANCH   2  24
BRANCH   3  50
ATOM     50  C   LIG    1       24.958 -32.758  14.118  0.00  0.00    +0.077 C 
BRANCH  50  51
ATOM     51  C   LIG    1       26.149 -33.694  14.041  0.00  0.00    +0.223 C 
ATOM     52  O   LIG    1       27.258 -33.449  14.497  0.00  0.00    -0.301 OA
ENDBRANCH  50  51
ENDBRANCH   3  50
BRANCH   7  53
ATOM     53  O   LIG    1       20.903 -29.110  15.102  0.00  0.00    -0.344 OA
BRANCH  53  54
ATOM     54  C   LIG    1       19.609 -28.761  14.565  0.00  0.00    +0.251 C 
ATOM     55  O   LIG    1       18.548 -29.404  15.272  0.00  0.00    -0.347 OA
ATOM     56  C   LIG    1       18.330 -30.788  14.908  0.00  0.00    +0.135 C 
ATOM     57  C   LIG    1       16.983 -30.891  14.173  0.00  0.00    +0.039 C 
ATOM     58  C   LIG    1       19.511 -31.400  14.076  0.00  0.00    +0.085 C 
ATOM     59  C   LIG    1       19.557 -30.582  12.766  0.00  0.00    +0.026 C 
ATOM     60  C   LIG    1       19.457 -29.079  13.061  0.00  0.00    +0.063 C 
BRANCH  58  61
ATOM     61  N   LIG    1       19.510 -32.872  13.840  0.00  0.00    -0.303 NA
ATOM     62  C   LIG    1       20.817 -33.322  13.320  0.00  0.00    +0.105 C 
ATOM     63  C   LIG    1       19.285 -33.588  15.107  0.00  0.00    +0.105 C 
ENDBRANCH  58  61
ENDBRANCH  53  54
ENDBRANCH   7  53
TORSDOF 15
ENDMDL
MODEL 5
REMARK VINA RESULT:      -2.1      2.746      5.430
REMARK  Name = *****
REMARK                            x       y       z     vdW  Elec       q    Type
REMARK                         _______ _______ _______ _____ _____    ______ ____
ROOT
ATOM      1  C   LIG    1       26.696 -30.446  13.722  0.00  0.00    +0.176 C 
ATOM      2  C   LIG    1       26.348 -31.162  12.356  0.00  0.00    +0.156 C 
ATOM      3  C   LIG    1       24.922 -31.761  12.416  0.00  0.00    +0.028 C 
ATOM      4  C   LIG    1       23.840 -30.614  12.391  0.00  0.00    +0.012 C 
ATOM      5  C   LIG    1       22.810 -30.472  13.538  0.00  0.00    +0.019 C 
ATOM      6  C   LIG    1       23.276 -31.075  14.852  0.00  0.00    +0.010 C 
ATOM      7  C   LIG    1       22.064 -29.114  13.897  0.00  0.00    +0.147 C 
ATOM      8  C   LIG    1       22.912 -28.186  14.820  0.00  0.00    +0.004 C 
ATOM      9  C   LIG    1       23.186 -26.864  14.733  0.00  0.00    -0.002 C 
ATOM     10  C   LIG    1       24.274 -26.222  15.497  0.00  0.00    -0.004 C 
ATOM     11  C   LIG    1       24.838 -25.061  15.098  0.00  0.00    -0.023 C 
ATOM     12  C   LIG    1       26.207 -24.505  15.497  0.00  0.00    +0.071 C 
ATOM     13  C   LIG    1       27.212 -24.673  14.329  0.00  0.00    +0.177 C 
ATOM     14  C   LIG    1       28.620 -24.151  14.610  0.00  0.00    +0.052 C 
ATOM     15  O   LIG    1       27.385 -26.082  14.099  0.00  0.00    -0.461 OA
ATOM     16  C   LIG    1       26.732 -26.588  13.003  0.00  0.00    +0.310 C 
ATOM     17  O   LIG    1       26.055 -25.987  12.229  0.00  0.00    -0.251 OA
ATOM     18  C   LIG    1       27.091 -28.049  12.910  0.00  0.00    +0.154 C 
ATOM     19  C   LIG    1       26.281 -28.945  13.835  0.00  0.00    +0.156 C 
ENDROOT
BRANCH   1  21
ATOM     20  C   LIG    1       28.382 -31.068  15.345  0.00  0.00    +0.194 C 
ATOM     21  O   LIG    1       28.105 -30.549  14.049  0.00  0.00    -0.375 OA
ENDBRANCH   1  21
BRANCH  19  22
ATOM     22  O   LIG    1       26.411 -28.563  15.220  0.00  0.00    -0.389 OA
ATOM     23  H   LIG    1       25.528 -28.330  15.558  0.00  0.00    +0.210 HD
ENDBRANCH  19  22
BRANCH   2  24
ATOM     24  O   LIG    1       26.575 -30.347  11.190  0.00  0.00    -0.343 OA
BRANCH  24  25
ATOM     25  C   LIG    1       25.734 -30.514  10.013  0.00  0.00    +0.281 C 
ATOM     26  C   LIG    1       26.085 -31.767   9.175  0.00  0.00    +0.190 C 
ATOM     27  C   LIG    1       24.896 -32.292   8.300  0.00  0.00    +0.121 C 
ATOM     28  C   LIG    1       23.885 -31.093   7.979  0.00  0.00    +0.169 C 
ATOM     29  C   LIG    1       23.423 -30.391   9.294  0.00  0.00    +0.149 C 
ATOM     30  C   LIG    1       22.067 -30.917   9.816  0.00  0.00    +0.040 C 
ATOM     31  O   LIG    1       24.360 -30.488  10.373  0.00  0.00    -0.343 OA
BRANCH  27  32
ATOM     32  N   LIG    1       24.302 -33.591   8.812  0.00  0.00    -0.301 NA
ATOM     33  C   LIG    1       22.905 -33.801   8.476  0.00  0.00    +0.105 C 
ATOM     34  C   LIG    1       24.429 -33.786  10.259  0.00  0.00    +0.105 C 
ENDBRANCH  27  32
BRANCH  26  35
ATOM     35  O   LIG    1       27.267 -31.551   8.385  0.00  0.00    -0.385 OA
ATOM     36  H   LIG    1       27.605 -30.661   8.590  0.00  0.00    +0.210 HD
ENDBRANCH  26  35
BRANCH  28  37
ATOM     37  O   LIG    1       24.561 -30.180   7.030  0.00  0.00    -0.344 OA
BRANCH  37  38
ATOM     38  C   LIG    1       24.761 -28.793   7.420  0.00  0.00    +0.254 C 
ATOM     39  O   LIG    1       23.671 -27.953   7.033  0.00  0.00    -0.346 OA
ATOM     40  C   LIG    1       23.800 -27.219   5.798  0.00  0.00    +0.150 C 
ATOM     41  C   LIG    1       24.129 -25.744   6.074  0.00  0.00    +0.040 C 
ATOM     42  C   LIG    1       24.749 -27.906   4.792  0.00  0.00    +0.174 C 
ATOM     43  C   LIG    1       26.175 -28.085   5.357  0.00  0.00    +0.096 C 
ATOM     44  C   LIG    1       27.111 -26.961   4.868  0.00  0.00    +0.044 C 
ATOM     45  C   LIG    1       26.121 -28.249   6.891  0.00  0.00    +0.098 C 
BRANCH  42  46
ATOM     46  O   LIG    1       24.222 -29.215   4.485  0.00  0.00    -0.386 OA
ATOM     47  H   LIG    1       24.841 -29.623   3.845  0.00  0.00    +0.210 HD
ENDBRANCH  42  46
BRANCH  43  48
ATOM     48  O   LIG    1       26.781 -29.272   4.810  0.00  0.00    -0.386 OA
ATOM     49  H   LIG    1       27.666 -29.348   5.213  0.00  0.00    +0.210 HD
ENDBRANCH  43  48
ENDBRANCH  37  38
ENDBRANCH  28  37
ENDBRANCH  24  25
ENDBRANCH   2  24
BRANCH   3  50
ATOM     50  C   LIG    1       24.909 -33.027  13.321  0.00  0.00    +0.077 C 
BRANCH  50  51
ATOM     51  C   LIG    1       25.552 -32.854  14.684  0.00  0.00    +0.223 C 
ATOM     52  O   LIG    1       25.708 -33.754  15.500  0.00  0.00    -0.301 OA
ENDBRANCH  50  51
ENDBRANCH   3  50
BRANCH   7  53
ATOM     53  O   LIG    1       20.878 -29.477  14.688  0.00  0.00    -0.344 OA
BRANCH  53  54
ATOM     54  C   LIG    1       19.595 -29.025  14.203  0.00  0.00    +0.251 C 
ATOM     55  O   LIG    1       18.513 -29.663  14.883  0.00  0.00    -0.347 OA
ATOM     56  C   LIG    1       18.218 -31.004  14.425  0.00  0.00    +0.135 C 
ATOM     57  C   LIG    1       16.856 -30.985  13.710  0.00  0.00    +0.039 C 
ATOM     58  C   LIG    1       19.352 -31.613  13.527  0.00  0.00    +0.085 C 
ATOM     59  C   LIG    1       19.419 -30.704  12.279  0.00  0.00    +0.026 C 
ATOM     60  C   LIG    1       19.403 -29.224  12.683  0.00  0.00    +0.063 C 
BRANCH  58  61
ATOM     61  N   LIG    1       19.270 -33.062  13.186  0.00  0.00    -0.303 NA
ATOM     62  C   LIG    1       19.013 -33.247  11.743  0.00  0.00    +0.105 C 
ATOM     63  C   LIG    1       20.552 -33.725  13.481  0.00  0.00    +0.105 C 
ENDBRANCH  58  61
ENDBRANCH  53  54
ENDBRANCH   7  53
TORSDOF 15
ENDMDL
MODEL 6
REMARK VINA RESULT:      -1.6      1.926      2.549
REMARK  Name = *****
REMARK                            x       y       z     vdW  Elec       q    Type
REMARK                         _______ _______ _______ _____ _____    ______ ____
ROOT
ATOM      1  C   LIG    1       26.066 -31.081   9.524  0.00  0.00    +0.176 C 
ATOM      2  C   LIG    1       25.225 -30.057   8.662  0.00  0.00    +0.156 C 
ATOM      3  C   LIG    1       23.711 -30.294   8.879  0.00  0.00    +0.028 C 
ATOM      4  C   LIG    1       23.281 -29.831  10.324  0.00  0.00    +0.012 C 
ATOM      5  C   LIG    1       22.619 -30.825  11.310  0.00  0.00    +0.019 C 
ATOM      6  C   LIG    1       22.955 -32.279  11.025  0.00  0.00    +0.010 C 
ATOM      7  C   LIG    1       22.639 -30.651  12.891  0.00  0.00    +0.147 C 
ATOM      8  C   LIG    1       23.947 -31.198  13.540  0.00  0.00    +0.004 C 
ATOM      9  C   LIG    1       24.777 -30.646  14.456  0.00  0.00    -0.002 C 
ATOM     10  C   LIG    1       26.141 -31.154  14.706  0.00  0.00    -0.004 C 
ATOM     11  C   LIG    1       27.104 -30.377  15.249  0.00  0.00    -0.023 C 
ATOM     12  C   LIG    1       28.618 -30.581  15.174  0.00  0.00    +0.071 C 
ATOM     13  C   LIG    1       29.243 -29.577  14.172  0.00  0.00    +0.177 C 
ATOM     14  C   LIG    1       30.759 -29.685  14.012  0.00  0.00    +0.052 C 
ATOM     15  O   LIG    1       28.718 -29.875  12.867  0.00  0.00    -0.461 OA
ATOM     16  C   LIG    1       27.746 -29.020  12.411  0.00  0.00    +0.310 C 
ATOM     17  O   LIG    1       27.307 -28.065  12.972  0.00  0.00    -0.251 OA
ATOM     18  C   LIG    1       27.380 -29.469  11.019  0.00  0.00    +0.154 C 
ATOM     19  C   LIG    1       26.404 -30.635  10.982  0.00  0.00    +0.156 C 
ENDROOT
BRANCH   1  21
ATOM     20  C   LIG    1       27.239 -32.657   8.107  0.00  0.00    +0.194 C 
ATOM     21  O   LIG    1       27.305 -31.457   8.871  0.00  0.00    -0.375 OA
ENDBRANCH   1  21
BRANCH  19  22
ATOM     22  O   LIG    1       26.905 -31.792  11.684  0.00  0.00    -0.389 OA
ATOM     23  H   LIG    1       26.922 -32.543  11.063  0.00  0.00    +0.210 HD
ENDBRANCH  19  22
BRANCH   2  24
ATOM     24  O   LIG    1       25.616 -28.681   8.835  0.00  0.00    -0.343 OA
BRANCH  24  25
ATOM     25  C   LIG    1       25.304 -27.703   7.803  0.00  0.00    +0.281 C 
ATOM     26  C   LIG    1       26.545 -26.942   7.275  0.00  0.00    +0.190 C 
ATOM     27  C   LIG    1       26.360 -26.359   5.833  0.00  0.00    +0.121 C 
ATOM     28  C   LIG    1       24.806 -26.115   5.541  0.00  0.00    +0.169 C 
ATOM     29  C   LIG    1       23.982 -27.416   5.792  0.00  0.00    +0.149 C 
ATOM     30  C   LIG    1       23.729 -28.230   4.503  0.00  0.00    +0.040 C 
ATOM     31  O   LIG    1       24.569 -28.307   6.748  0.00  0.00    -0.343 OA
BRANCH  27  32
ATOM     32  N   LIG    1       27.163 -27.099   4.780  0.00  0.00    -0.301 NA
ATOM     33  C   LIG    1       26.796 -28.493   4.594  0.00  0.00    +0.105 C 
ATOM     34  C   LIG    1       28.613 -27.061   4.985  0.00  0.00    +0.105 C 
ENDBRANCH  27  32
BRANCH  26  35
ATOM     35  O   LIG    1       26.969 -25.930   8.204  0.00  0.00    -0.385 OA
ATOM     36  H   LIG    1       26.579 -25.084   7.922  0.00  0.00    +0.210 HD
ENDBRANCH  26  35
BRANCH  28  37
ATOM     37  O   LIG    1       24.369 -24.971   6.372  0.00  0.00    -0.344 OA
BRANCH  37  38
ATOM     38  C   LIG    1       23.493 -23.972   5.780  0.00  0.00    +0.254 C 
ATOM     39  O   LIG    1       24.051 -23.383   4.603  0.00  0.00    -0.346 OA
ATOM     40  C   LIG    1       24.743 -22.127   4.750  0.00  0.00    +0.150 C 
ATOM     41  C   LIG    1       23.867 -20.964   4.258  0.00  0.00    +0.040 C 
ATOM     42  C   LIG    1       25.329 -21.929   6.164  0.00  0.00    +0.174 C 
ATOM     43  C   LIG    1       24.243 -21.973   7.262  0.00  0.00    +0.096 C 
ATOM     44  C   LIG    1       23.810 -20.550   7.671  0.00  0.00    +0.044 C 
ATOM     45  C   LIG    1       23.082 -22.892   6.823  0.00  0.00    +0.098 C 
BRANCH  42  46
ATOM     46  O   LIG    1       26.270 -22.994   6.423  0.00  0.00    -0.386 OA
ATOM     47  H   LIG    1       26.951 -22.625   7.023  0.00  0.00    +0.210 HD
ENDBRANCH  42  46
BRANCH  43  48
ATOM     48  O   LIG    1       24.790 -22.510   8.481  0.00  0.00    -0.386 OA
ATOM     49  H   LIG    1       24.871 -21.765   9.106  0.00  0.00    +0.210 HD
ENDBRANCH  43  48
ENDBRANCH  37  38
ENDBRANCH  28  37
ENDBRANCH  24  25
ENDBRANCH   2  24
BRANCH   3  50
ATOM     50  C   LIG    1       23.261 -31.595   8.152  0.00  0.00    +0.077 C 
BRANCH  50  51
ATOM     51  C   LIG    1       23.791 -31.763   6.741  0.00  0.00    +0.223 C 
ATOM     52  O   LIG    1       23.261 -32.447   5.874  0.00  0.00    -0.301 OA
ENDBRANCH  50  51
ENDBRANCH   3  50
BRANCH   7  53
ATOM     53  O   LIG    1       21.555 -31.491  13.424  0.00  0.00    -0.344 OA
BRANCH  53  54
ATOM     54  C   LIG    1       21.062 -31.176  14.744  0.00  0.00    +0.251 C 
ATOM     55  O   LIG    1       19.675 -30.835  14.726  0.00  0.00    -0.347 OA
ATOM     56  C   LIG    1       19.391 -29.483  14.293  0.00  0.00    +0.135 C 
ATOM     57  C   LIG    1       18.869 -28.685  15.500  0.00  0.00    +0.039 C 
ATOM     58  C   LIG    1       20.616 -28.786  13.603  0.00  0.00    +0.085 C 
ATOM     59  C   LIG    1       21.706 -28.699  14.694  0.00  0.00    +0.026 C 
ATOM     60  C   LIG    1       21.838 -30.035  15.438  0.00  0.00    +0.063 C 
BRANCH  58  61
ATOM     61  N   LIG    1       20.381 -27.485  12.913  0.00  0.00    -0.303 NA
ATOM     62  C   LIG    1       19.362 -26.689  13.628  0.00  0.00    +0.105 C 
ATOM     63  C   LIG    1       21.618 -26.687  12.901  0.00  0.00    +0.105 C 
ENDBRANCH  58  61
ENDBRANCH  53  54
ENDBRANCH   7  53
TORSDOF 15
ENDMDL
