MODEL 1
REMARK VINA RESULT:      -4.3      0.000      0.000
REMARK  Name = *****
REMARK                            x       y       z     vdW  Elec       q    Type
REMARK                         _______ _______ _______ _____ _____    ______ ____
ROOT
ATOM      1  C   LIG    1       22.516 -19.731   4.250  0.00  0.00    +0.158 C 
ENDROOT
BRANCH   1   2
ATOM      2  C   LIG    1       23.754 -20.191   4.996  0.00  0.00    -0.016 A 
ATOM      3  C   LIG    1       25.034 -19.710   4.660  0.00  0.00    +0.033 A 
ATOM      4  C   LIG    1       26.192 -20.161   5.325  0.00  0.00    +0.075 A 
ATOM      5  C   LIG    1       26.043 -21.098   6.360  0.00  0.00    +0.138 A 
ATOM      6  C   LIG    1       24.779 -21.571   6.714  0.00  0.00    +0.048 A 
ATOM      7  C   LIG    1       23.647 -21.117   6.040  0.00  0.00    +0.010 A 
BRANCH   4   8
ATOM      8  N   LIG    1       27.421 -19.617   4.886  0.00  0.00    -0.285 N 
ATOM      9  H   LIG    1       27.646 -19.685   3.902  0.00  0.00    +0.155 HD
ATOM     10  C   LIG    1       28.404 -19.005   5.603  0.00  0.00    +0.330 C 
ATOM     11  O   LIG    1       29.417 -18.576   5.073  0.00  0.00    -0.279 OA
ENDBRANCH   4   8
BRANCH   5  12
ATOM     12  O   LIG    1       27.117 -21.572   7.058  0.00  0.00    -0.505 OA
ATOM     13  H   LIG    1       26.901 -21.590   8.004  0.00  0.00    +0.292 HD
ENDBRANCH   5  12
ENDBRANCH   1   2
BRANCH   1  14
ATOM     14  O   LIG    1       21.450 -20.668   4.466  0.00  0.00    -0.386 OA
ATOM     15  H   LIG    1       21.888 -21.542   4.516  0.00  0.00    +0.210 HD
ENDBRANCH   1  14
BRANCH   1  16
ATOM     16  C   LIG    1       22.034 -18.326   4.687  0.00  0.00    +0.117 C 
BRANCH  16  17
ATOM     17  N   LIG    1       22.975 -17.289   4.207  0.00  0.00    -0.310 NA
ATOM     18  H   LIG    1       23.820 -17.320   4.783  0.00  0.00    +0.122 HD
BRANCH  17  19
ATOM     19  C   LIG    1       22.421 -15.917   4.283  0.00  0.00    +0.055 C 
ATOM     20  C   LIG    1       22.554 -15.458   5.744  0.00  0.00    +0.024 C 
BRANCH  19  21
ATOM     21  C   LIG    1       23.127 -14.935   3.319  0.00  0.00    +0.053 C 
BRANCH  21  25
ATOM     22  C   LIG    1       26.951 -13.558   4.771  0.00  0.00    +0.120 A 
ATOM     23  C   LIG    1       25.772 -12.960   5.215  0.00  0.00    +0.046 A 
ATOM     24  C   LIG    1       24.536 -13.407   4.745  0.00  0.00    +0.007 A 
ATOM     25  C   LIG    1       24.467 -14.448   3.812  0.00  0.00    -0.046 A 
ATOM     26  C   LIG    1       25.653 -15.033   3.355  0.00  0.00    +0.007 A 
ATOM     27  C   LIG    1       26.886 -14.589   3.834  0.00  0.00    +0.046 A 
BRANCH  22  29
ATOM     28  C   LIG    1       29.019 -12.620   4.120  0.00  0.00    +0.277 C 
ATOM     29  O   LIG    1       28.213 -13.187   5.146  0.00  0.00    -0.495 OA
ENDBRANCH  22  29
ENDBRANCH  21  25
ENDBRANCH  19  21
ENDBRANCH  17  19
ENDBRANCH  16  17
ENDBRANCH   1  16
TORSDOF 10
ENDMDL
MODEL 2
REMARK VINA RESULT:      -4.1      1.860      6.225
REMARK  Name = *****
REMARK                            x       y       z     vdW  Elec       q    Type
REMARK                         _______ _______ _______ _____ _____    ______ ____
ROOT
ATOM      1  C   LIG    1       23.585 -14.867   3.991  0.00  0.00    +0.158 C 
ENDROOT
BRANCH   1   2
ATOM      2  C   LIG    1       25.035 -14.482   3.765  0.00  0.00    -0.016 A 
ATOM      3  C   LIG    1       26.088 -15.325   4.170  0.00  0.00    +0.033 A 
ATOM      4  C   LIG    1       27.438 -14.958   3.996  0.00  0.00    +0.075 A 
ATOM      5  C   LIG    1       27.719 -13.727   3.383  0.00  0.00    +0.138 A 
ATOM      6  C   LIG    1       26.685 -12.890   2.962  0.00  0.00    +0.048 A 
ATOM      7  C   LIG    1       25.358 -13.268   3.149  0.00  0.00    +0.010 A 
BRANCH   4   8
ATOM      8  N   LIG    1       28.405 -15.880   4.459  0.00  0.00    -0.285 N 
ATOM      9  H   LIG    1       29.320 -15.526   4.704  0.00  0.00    +0.155 HD
ATOM     10  C   LIG    1       28.309 -17.229   4.619  0.00  0.00    +0.330 C 
ATOM     11  O   LIG    1       29.241 -17.896   5.041  0.00  0.00    -0.279 OA
ENDBRANCH   4   8
BRANCH   5  12
ATOM     12  O   LIG    1       29.002 -13.309   3.169  0.00  0.00    -0.505 OA
ATOM     13  H   LIG    1       29.072 -12.365   3.388  0.00  0.00    +0.292 HD
ENDBRANCH   5  12
ENDBRANCH   1   2
BRANCH   1  14
ATOM     14  O   LIG    1       22.741 -14.070   3.147  0.00  0.00    -0.386 OA
ATOM     15  H   LIG    1       23.098 -13.161   3.218  0.00  0.00    +0.210 HD
ENDBRANCH   1  14
BRANCH   1  16
ATOM     16  C   LIG    1       23.303 -16.361   3.700  0.00  0.00    +0.117 C 
BRANCH  16  17
ATOM     17  N   LIG    1       22.530 -16.962   4.811  0.00  0.00    -0.310 NA
ATOM     18  H   LIG    1       23.142 -17.050   5.628  0.00  0.00    +0.122 HD
BRANCH  17  19
ATOM     19  C   LIG    1       21.999 -18.308   4.492  0.00  0.00    +0.055 C 
ATOM     20  C   LIG    1       20.708 -18.103   3.684  0.00  0.00    +0.024 C 
BRANCH  19  21
ATOM     21  C   LIG    1       23.015 -19.181   3.718  0.00  0.00    +0.053 C 
BRANCH  21  25
ATOM     22  C   LIG    1       26.089 -20.893   6.216  0.00  0.00    +0.120 A 
ATOM     23  C   LIG    1       26.432 -20.144   5.092  0.00  0.00    +0.046 A 
ATOM     24  C   LIG    1       25.437 -19.590   4.285  0.00  0.00    +0.007 A 
ATOM     25  C   LIG    1       24.085 -19.793   4.586  0.00  0.00    -0.046 A 
ATOM     26  C   LIG    1       23.745 -20.561   5.706  0.00  0.00    +0.007 A 
ATOM     27  C   LIG    1       24.742 -21.106   6.514  0.00  0.00    +0.046 A 
BRANCH  22  29
ATOM     28  C   LIG    1       28.333 -21.085   6.930  0.00  0.00    +0.277 C 
ATOM     29  O   LIG    1       26.978 -21.499   7.062  0.00  0.00    -0.495 OA
ENDBRANCH  22  29
ENDBRANCH  21  25
ENDBRANCH  19  21
ENDBRANCH  17  19
ENDBRANCH  16  17
ENDBRANCH   1  16
TORSDOF 10
ENDMDL
MODEL 3
REMARK VINA RESULT:      -2.9      2.023      7.724
REMARK  Name = *****
REMARK                            x       y       z     vdW  Elec       q    Type
REMARK                         _______ _______ _______ _____ _____    ______ ____
ROOT
ATOM      1  C   LIG    1       27.761 -16.344   3.674  0.00  0.00    +0.158 C 
ENDROOT
BRANCH   1   2
ATOM      2  C   LIG    1       26.680 -15.306   3.441  0.00  0.00    -0.016 A 
ATOM      3  C   LIG    1       25.393 -15.453   3.994  0.00  0.00    +0.033 A 
ATOM      4  C   LIG    1       24.372 -14.511   3.752  0.00  0.00    +0.075 A 
ATOM      5  C   LIG    1       24.671 -13.396   2.954  0.00  0.00    +0.138 A 
ATOM      6  C   LIG    1       25.946 -13.230   2.413  0.00  0.00    +0.048 A 
ATOM      7  C   LIG    1       26.940 -14.175   2.659  0.00  0.00    +0.010 A 
BRANCH   4   8
ATOM      8  N   LIG    1       23.117 -14.777   4.348  0.00  0.00    -0.285 N 
ATOM      9  H   LIG    1       22.421 -14.044   4.335  0.00  0.00    +0.155 HD
ATOM     10  C   LIG    1       22.679 -15.901   4.980  0.00  0.00    +0.330 C 
ATOM     11  O   LIG    1       21.552 -15.982   5.443  0.00  0.00    -0.279 OA
ENDBRANCH   4   8
BRANCH   5  12
ATOM     12  O   LIG    1       23.738 -12.436   2.685  0.00  0.00    -0.505 OA
ATOM     13  H   LIG    1       23.709 -11.802   3.420  0.00  0.00    +0.292 HD
ENDBRANCH   5  12
ENDBRANCH   1   2
BRANCH   1  14
ATOM     14  O   LIG    1       28.635 -15.897   4.723  0.00  0.00    -0.386 OA
ATOM     15  H   LIG    1       29.393 -15.484   4.263  0.00  0.00    +0.210 HD
ENDBRANCH   1  14
BRANCH   1  16
ATOM     16  C   LIG    1       27.195 -17.731   4.062  0.00  0.00    +0.117 C 
BRANCH  16  17
ATOM     17  N   LIG    1       27.974 -18.306   5.183  0.00  0.00    -0.310 NA
ATOM     18  H   LIG    1       28.970 -18.162   5.000  0.00  0.00    +0.122 HD
BRANCH  17  19
ATOM     19  C   LIG    1       27.749 -19.759   5.365  0.00  0.00    +0.055 C 
ATOM     20  C   LIG    1       29.127 -20.404   5.587  0.00  0.00    +0.024 C 
BRANCH  19  21
ATOM     21  C   LIG    1       26.788 -20.072   6.536  0.00  0.00    +0.053 C 
BRANCH  21  25
ATOM     22  C   LIG    1       22.775 -21.082   5.312  0.00  0.00    +0.120 A 
ATOM     23  C   LIG    1       23.132 -21.125   6.659  0.00  0.00    +0.046 A 
ATOM     24  C   LIG    1       24.430 -20.797   7.053  0.00  0.00    +0.007 A 
ATOM     25  C   LIG    1       25.391 -20.437   6.101  0.00  0.00    -0.046 A 
ATOM     26  C   LIG    1       25.033 -20.413   4.749  0.00  0.00    +0.007 A 
ATOM     27  C   LIG    1       23.733 -20.733   4.359  0.00  0.00    +0.046 A 
BRANCH  22  29
ATOM     28  C   LIG    1       20.886 -20.373   4.083  0.00  0.00    +0.277 C 
ATOM     29  O   LIG    1       21.543 -21.403   4.812  0.00  0.00    -0.495 OA
ENDBRANCH  22  29
ENDBRANCH  21  25
ENDBRANCH  19  21
ENDBRANCH  17  19
ENDBRANCH  16  17
ENDBRANCH   1  16
TORSDOF 10
ENDMDL
MODEL 4
REMARK VINA RESULT:      -2.3      1.739      4.592
REMARK  Name = *****
REMARK                            x       y       z     vdW  Elec       q    Type
REMARK                         _______ _______ _______ _____ _____    ______ ____
ROOT
ATOM      1  C   LIG    1       26.855 -20.318   6.402  0.00  0.00    +0.158 C 
ENDROOT
BRANCH   1   2
ATOM      2  C   LIG    1       25.376 -20.512   6.127  0.00  0.00    -0.016 A 
ATOM      3  C   LIG    1       24.725 -19.810   5.094  0.00  0.00    +0.033 A 
ATOM      4  C   LIG    1       23.343 -19.958   4.856  0.00  0.00    +0.075 A 
ATOM      5  C   LIG    1       22.620 -20.847   5.667  0.00  0.00    +0.138 A 
ATOM      6  C   LIG    1       23.256 -21.561   6.683  0.00  0.00    +0.048 A 
ATOM      7  C   LIG    1       24.621 -21.396   6.906  0.00  0.00    +0.010 A 
BRANCH   4   8
ATOM      8  N   LIG    1       22.801 -19.187   3.802  0.00  0.00    -0.285 N 
ATOM      9  H   LIG    1       23.348 -19.088   2.957  0.00  0.00    +0.155 HD
ATOM     10  C   LIG    1       21.620 -18.513   3.740  0.00  0.00    +0.330 C 
ATOM     11  O   LIG    1       21.285 -17.890   2.744  0.00  0.00    -0.279 OA
ENDBRANCH   4   8
BRANCH   5  12
ATOM     12  O   LIG    1       21.282 -21.052   5.489  0.00  0.00    -0.505 OA
ATOM     13  H   LIG    1       20.833 -21.002   6.348  0.00  0.00    +0.292 HD
ENDBRANCH   5  12
ENDBRANCH   1   2
BRANCH   1  14
ATOM     14  O   LIG    1       27.378 -21.484   7.056  0.00  0.00    -0.386 OA
ATOM     15  H   LIG    1       27.796 -21.150   7.875  0.00  0.00    +0.210 HD
ENDBRANCH   1  14
BRANCH   1  16
ATOM     16  C   LIG    1       27.681 -20.062   5.118  0.00  0.00    +0.117 C 
BRANCH  16  17
ATOM     17  N   LIG    1       27.251 -18.799   4.476  0.00  0.00    -0.310 NA
ATOM     18  H   LIG    1       27.388 -18.880   3.465  0.00  0.00    +0.122 HD
BRANCH  17  19
ATOM     19  C   LIG    1       28.011 -17.617   4.946  0.00  0.00    +0.055 C 
ATOM     20  C   LIG    1       29.402 -18.114   5.368  0.00  0.00    +0.024 C 
BRANCH  19  21
ATOM     21  C   LIG    1       28.113 -16.508   3.871  0.00  0.00    +0.053 C 
BRANCH  21  25
ATOM     22  C   LIG    1       25.127 -13.423   4.300  0.00  0.00    +0.120 A 
ATOM     23  C   LIG    1       24.795 -14.648   3.721  0.00  0.00    +0.046 A 
ATOM     24  C   LIG    1       25.762 -15.645   3.584  0.00  0.00    +0.007 A 
ATOM     25  C   LIG    1       27.077 -15.422   4.010  0.00  0.00    -0.046 A 
ATOM     26  C   LIG    1       27.409 -14.184   4.573  0.00  0.00    +0.007 A 
ATOM     27  C   LIG    1       26.439 -13.194   4.717  0.00  0.00    +0.046 A 
BRANCH  22  29
ATOM     28  C   LIG    1       23.829 -11.742   3.265  0.00  0.00    +0.277 C 
ATOM     29  O   LIG    1       24.268 -12.370   4.463  0.00  0.00    -0.495 OA
ENDBRANCH  22  29
ENDBRANCH  21  25
ENDBRANCH  19  21
ENDBRANCH  17  19
ENDBRANCH  16  17
ENDBRANCH   1  16
TORSDOF 10
ENDMDL
MODEL 5
REMARK VINA RESULT:      -1.8      2.058      4.916
REMARK  Name = *****
REMARK                            x       y       z     vdW  Elec       q    Type
REMARK                         _______ _______ _______ _____ _____    ______ ____
ROOT
ATOM      1  C   LIG    1       25.379 -20.875   4.803  0.00  0.00    +0.158 C 
ENDROOT
BRANCH   1   2
ATOM      2  C   LIG    1       24.027 -20.225   4.577  0.00  0.00    -0.016 A 
ATOM      3  C   LIG    1       23.910 -18.841   4.344  0.00  0.00    +0.033 A 
ATOM      4  C   LIG    1       22.654 -18.224   4.169  0.00  0.00    +0.075 A 
ATOM      5  C   LIG    1       21.506 -19.030   4.211  0.00  0.00    +0.138 A 
ATOM      6  C   LIG    1       21.609 -20.404   4.426  0.00  0.00    +0.048 A 
ATOM      7  C   LIG    1       22.858 -20.994   4.603  0.00  0.00    +0.010 A 
BRANCH   4   8
ATOM      8  N   LIG    1       22.665 -16.825   3.959  0.00  0.00    -0.285 N 
ATOM      9  H   LIG    1       22.461 -16.484   3.029  0.00  0.00    +0.155 HD
ATOM     10  C   LIG    1       22.935 -15.820   4.836  0.00  0.00    +0.330 C 
ATOM     11  O   LIG    1       22.897 -14.646   4.501  0.00  0.00    -0.279 OA
ENDBRANCH   4   8
BRANCH   5  12
ATOM     12  O   LIG    1       20.256 -18.506   4.039  0.00  0.00    -0.505 OA
ATOM     13  H   LIG    1       19.689 -18.780   4.777  0.00  0.00    +0.292 HD
ENDBRANCH   5  12
ENDBRANCH   1   2
BRANCH   1  14
ATOM     14  O   LIG    1       26.138 -20.837   3.585  0.00  0.00    -0.386 OA
ATOM     15  H   LIG    1       25.929 -19.970   3.183  0.00  0.00    +0.210 HD
ENDBRANCH   1  14
BRANCH   1  16
ATOM     16  C   LIG    1       26.203 -20.186   5.918  0.00  0.00    +0.117 C 
BRANCH  16  17
ATOM     17  N   LIG    1       27.640 -20.178   5.561  0.00  0.00    -0.310 NA
ATOM     18  H   LIG    1       28.078 -21.024   5.938  0.00  0.00    +0.122 HD
BRANCH  17  19
ATOM     19  C   LIG    1       28.370 -19.008   6.103  0.00  0.00    +0.055 C 
ATOM     20  C   LIG    1       29.443 -19.549   7.060  0.00  0.00    +0.024 C 
BRANCH  19  21
ATOM     21  C   LIG    1       28.997 -18.131   4.993  0.00  0.00    +0.053 C 
BRANCH  21  25
ATOM     22  C   LIG    1       26.350 -15.142   3.356  0.00  0.00    +0.120 A 
ATOM     23  C   LIG    1       27.451 -14.763   4.123  0.00  0.00    +0.046 A 
ATOM     24  C   LIG    1       28.306 -15.731   4.651  0.00  0.00    +0.007 A 
ATOM     25  C   LIG    1       28.061 -17.092   4.430  0.00  0.00    -0.046 A 
ATOM     26  C   LIG    1       26.945 -17.468   3.675  0.00  0.00    +0.007 A 
ATOM     27  C   LIG    1       26.097 -16.497   3.141  0.00  0.00    +0.046 A 
BRANCH  22  29
ATOM     28  C   LIG    1       25.911 -12.969   2.539  0.00  0.00    +0.277 C 
ATOM     29  O   LIG    1       25.436 -14.283   2.810  0.00  0.00    -0.495 OA
ENDBRANCH  22  29
ENDBRANCH  21  25
ENDBRANCH  19  21
ENDBRANCH  17  19
ENDBRANCH  16  17
ENDBRANCH   1  16
TORSDOF 10
ENDMDL
MODEL 6
REMARK VINA RESULT:      -1.8      1.824      3.606
REMARK  Name = *****
REMARK                            x       y       z     vdW  Elec       q    Type
REMARK                         _______ _______ _______ _____ _____    ______ ____
ROOT
ATOM      1  C   LIG    1       22.352 -15.937   4.634  0.00  0.00    +0.158 C 
ENDROOT
BRANCH   1   2
ATOM      2  C   LIG    1       22.553 -17.437   4.530  0.00  0.00    -0.016 A 
ATOM      3  C   LIG    1       23.822 -18.020   4.709  0.00  0.00    +0.033 A 
ATOM      4  C   LIG    1       24.024 -19.409   4.577  0.00  0.00    +0.075 A 
ATOM      5  C   LIG    1       22.915 -20.217   4.281  0.00  0.00    +0.138 A 
ATOM      6  C   LIG    1       21.649 -19.655   4.117  0.00  0.00    +0.048 A 
ATOM      7  C   LIG    1       21.472 -18.279   4.245  0.00  0.00    +0.010 A 
BRANCH   4   8
ATOM      8  N   LIG    1       25.347 -19.873   4.763  0.00  0.00    -0.285 N 
ATOM      9  H   LIG    1       25.995 -19.782   3.992  0.00  0.00    +0.155 HD
ATOM     10  C   LIG    1       25.913 -20.465   5.851  0.00  0.00    +0.330 C 
ATOM     11  O   LIG    1       27.085 -20.808   5.861  0.00  0.00    -0.279 OA
ENDBRANCH   4   8
BRANCH   5  12
ATOM     12  O   LIG    1       23.029 -21.572   4.150  0.00  0.00    -0.505 OA
ATOM     13  H   LIG    1       23.875 -21.860   4.530  0.00  0.00    +0.292 HD
ENDBRANCH   5  12
ENDBRANCH   1   2
BRANCH   1  14
ATOM     14  O   LIG    1       21.842 -15.613   5.937  0.00  0.00    -0.386 OA
ATOM     15  H   LIG    1       21.397 -14.748   5.827  0.00  0.00    +0.210 HD
ENDBRANCH   1  14
BRANCH   1  16
ATOM     16  C   LIG    1       23.654 -15.134   4.401  0.00  0.00    +0.117 C 
BRANCH  16  17
ATOM     17  N   LIG    1       23.440 -14.103   3.360  0.00  0.00    -0.310 NA
ATOM     18  H   LIG    1       23.527 -14.542   2.439  0.00  0.00    +0.122 HD
BRANCH  17  19
ATOM     19  C   LIG    1       24.417 -12.992   3.428  0.00  0.00    +0.055 C 
ATOM     20  C   LIG    1       24.657 -12.694   4.917  0.00  0.00    +0.024 C 
BRANCH  19  21
ATOM     21  C   LIG    1       25.743 -13.319   2.700  0.00  0.00    +0.053 C 
BRANCH  21  25
ATOM     22  C   LIG    1       27.660 -16.906   4.142  0.00  0.00    +0.120 A 
ATOM     23  C   LIG    1       28.139 -15.652   4.518  0.00  0.00    +0.046 A 
ATOM     24  C   LIG    1       27.517 -14.493   4.052  0.00  0.00    +0.007 A 
ATOM     25  C   LIG    1       26.418 -14.575   3.190  0.00  0.00    -0.046 A 
ATOM     26  C   LIG    1       25.951 -15.836   2.800  0.00  0.00    +0.007 A 
ATOM     27  C   LIG    1       26.569 -16.992   3.275  0.00  0.00    +0.046 A 
BRANCH  22  29
ATOM     28  C   LIG    1       29.193 -18.038   5.538  0.00  0.00    +0.277 C 
ATOM     29  O   LIG    1       28.203 -18.104   4.519  0.00  0.00    -0.495 OA
ENDBRANCH  22  29
ENDBRANCH  21  25
ENDBRANCH  19  21
ENDBRANCH  17  19
ENDBRANCH  16  17
ENDBRANCH   1  16
TORSDOF 10
ENDMDL
MODEL 7
REMARK VINA RESULT:      -1.6      2.178      4.861
REMARK  Name = *****
REMARK                            x       y       z     vdW  Elec       q    Type
REMARK                         _______ _______ _______ _____ _____    ______ ____
ROOT
ATOM      1  C   LIG    1       27.574 -16.732   3.697  0.00  0.00    +0.158 C 
ENDROOT
BRANCH   1   2
ATOM      2  C   LIG    1       27.754 -17.990   4.525  0.00  0.00    -0.016 A 
ATOM      3  C   LIG    1       26.727 -18.946   4.636  0.00  0.00    +0.033 A 
ATOM      4  C   LIG    1       26.873 -20.100   5.434  0.00  0.00    +0.075 A 
ATOM      5  C   LIG    1       28.089 -20.292   6.109  0.00  0.00    +0.138 A 
ATOM      6  C   LIG    1       29.121 -19.360   5.994  0.00  0.00    +0.048 A 
ATOM      7  C   LIG    1       28.954 -18.223   5.207  0.00  0.00    +0.010 A 
BRANCH   4   8
ATOM      8  N   LIG    1       25.765 -20.978   5.479  0.00  0.00    -0.285 N 
ATOM      9  H   LIG    1       25.948 -21.971   5.519  0.00  0.00    +0.155 HD
ATOM     10  C   LIG    1       24.433 -20.694   5.458  0.00  0.00    +0.330 C 
ATOM     11  O   LIG    1       23.586 -21.572   5.512  0.00  0.00    -0.279 OA
ENDBRANCH   4   8
BRANCH   5  12
ATOM     12  O   LIG    1       28.309 -21.391   6.889  0.00  0.00    -0.505 OA
ATOM     13  H   LIG    1       27.606 -21.456   7.556  0.00  0.00    +0.292 HD
ENDBRANCH   5  12
ENDBRANCH   1   2
BRANCH   1  14
ATOM     14  O   LIG    1       26.205 -16.627   3.277  0.00  0.00    -0.386 OA
ATOM     15  H   LIG    1       25.815 -17.506   3.462  0.00  0.00    +0.210 HD
ENDBRANCH   1  14
BRANCH   1  16
ATOM     16  C   LIG    1       27.953 -15.442   4.465  0.00  0.00    +0.117 C 
BRANCH  16  17
ATOM     17  N   LIG    1       28.355 -14.380   3.514  0.00  0.00    -0.310 NA
ATOM     18  H   LIG    1       29.359 -14.465   3.331  0.00  0.00    +0.122 HD
BRANCH  17  19
ATOM     19  C   LIG    1       28.099 -13.013   4.023  0.00  0.00    +0.055 C 
ATOM     20  C   LIG    1       29.306 -12.149   3.625  0.00  0.00    +0.024 C 
BRANCH  19  21
ATOM     21  C   LIG    1       26.778 -12.415   3.484  0.00  0.00    +0.053 C 
BRANCH  21  25
ATOM     22  C   LIG    1       23.295 -14.796   4.392  0.00  0.00    +0.120 A 
ATOM     23  C   LIG    1       23.514 -14.335   3.094  0.00  0.00    +0.046 A 
ATOM     24  C   LIG    1       24.641 -13.566   2.803  0.00  0.00    +0.007 A 
ATOM     25  C   LIG    1       25.555 -13.235   3.810  0.00  0.00    -0.046 A 
ATOM     26  C   LIG    1       25.322 -13.684   5.115  0.00  0.00    +0.007 A 
ATOM     27  C   LIG    1       24.199 -14.460   5.401  0.00  0.00    +0.046 A 
BRANCH  22  29
ATOM     28  C   LIG    1       22.322 -16.939   4.592  0.00  0.00    +0.277 C 
ATOM     29  O   LIG    1       22.217 -15.535   4.795  0.00  0.00    -0.495 OA
ENDBRANCH  22  29
ENDBRANCH  21  25
ENDBRANCH  19  21
ENDBRANCH  17  19
ENDBRANCH  16  17
ENDBRANCH   1  16
TORSDOF 10
ENDMDL
