MODEL 1
REMARK VINA RESULT:      -3.5      0.000      0.000
REMARK  Name = *****
REMARK                            x       y       z     vdW  Elec       q    Type
REMARK                         _______ _______ _______ _____ _____    ______ ____
ROOT
ATOM      1  C   LIG    1       26.471 -20.277   5.292  0.00  0.00    +0.132 C 
ATOM      2  S   LIG    1       25.863 -20.673   6.793  0.00  0.00    -0.019 S 
ENDROOT
BRANCH   1   4
ATOM      3  C   LIG    1       28.763 -19.883   6.270  0.00  0.00    +0.127 C 
ATOM      4  N   LIG    1       27.784 -19.929   5.207  0.00  0.00    -0.330 N 
ATOM      5  H   LIG    1       28.135 -19.891   4.254  0.00  0.00    +0.147 HD
ENDBRANCH   1   4
BRANCH   1   6
ATOM      6  N   LIG    1       25.769 -20.224   4.124  0.00  0.00    -0.304 N 
ATOM      7  H   LIG    1       25.409 -21.097   3.782  0.00  0.00    +0.150 HD
BRANCH   6   8
ATOM      8  C   LIG    1       25.063 -19.086   3.612  0.00  0.00    +0.263 C 
BRANCH   8   9
ATOM      9  O   LIG    1       26.072 -18.162   3.286  0.00  0.00    -0.377 OA
ATOM     10  H   LIG    1       25.793 -17.343   3.728  0.00  0.00    +0.211 HD
ENDBRANCH   8   9
ENDBRANCH   6   8
ENDBRANCH   1   6
TORSDOF 4
ENDMDL
MODEL 2
REMARK VINA RESULT:      -3.5      1.392      2.969
REMARK  Name = *****
REMARK                            x       y       z     vdW  Elec       q    Type
REMARK                         _______ _______ _______ _____ _____    ______ ____
ROOT
ATOM      1  C   LIG    1       27.009 -20.189   5.571  0.00  0.00    +0.132 C 
ATOM      2  S   LIG    1       26.124 -20.631   6.913  0.00  0.00    -0.019 S 
ENDROOT
BRANCH   1   4
ATOM      3  C   LIG    1       24.915 -20.068   4.170  0.00  0.00    +0.127 C 
ATOM      4  N   LIG    1       26.337 -19.961   4.410  0.00  0.00    -0.330 N 
ATOM      5  H   LIG    1       26.889 -19.477   3.708  0.00  0.00    +0.147 HD
ENDBRANCH   1   4
BRANCH   1   6
ATOM      6  N   LIG    1       28.366 -20.071   5.501  0.00  0.00    -0.304 N 
ATOM      7  H   LIG    1       28.837 -20.717   4.891  0.00  0.00    +0.150 HD
BRANCH   6   8
ATOM      8  C   LIG    1       29.126 -18.882   5.754  0.00  0.00    +0.263 C 
BRANCH   8   9
ATOM      9  O   LIG    1       28.814 -18.028   4.682  0.00  0.00    -0.377 OA
ATOM     10  H   LIG    1       29.042 -17.142   5.012  0.00  0.00    +0.211 HD
ENDBRANCH   8   9
ENDBRANCH   6   8
ENDBRANCH   1   6
TORSDOF 4
ENDMDL
MODEL 3
REMARK VINA RESULT:      -3.3      6.434      6.979
REMARK  Name = *****
REMARK                            x       y       z     vdW  Elec       q    Type
REMARK                         _______ _______ _______ _____ _____    ______ ____
ROOT
ATOM      1  C   LIG    1       25.702 -13.528   2.748  0.00  0.00    +0.132 C 
ATOM      2  S   LIG    1       24.666 -12.425   2.048  0.00  0.00    -0.019 S 
ENDROOT
BRANCH   1   4
ATOM      3  C   LIG    1       23.864 -14.437   4.216  0.00  0.00    +0.127 C 
ATOM      4  N   LIG    1       25.176 -14.442   3.608  0.00  0.00    -0.330 N 
ATOM      5  H   LIG    1       25.706 -15.306   3.659  0.00  0.00    +0.147 HD
ENDBRANCH   1   4
BRANCH   1   6
ATOM      6  N   LIG    1       27.055 -13.588   2.579  0.00  0.00    -0.304 N 
ATOM      7  H   LIG    1       27.419 -13.140   1.757  0.00  0.00    +0.150 HD
BRANCH   6   8
ATOM      8  C   LIG    1       28.031 -13.735   3.618  0.00  0.00    +0.263 C 
BRANCH   8   9
ATOM      9  O   LIG    1       27.930 -15.082   4.009  0.00  0.00    -0.377 OA
ATOM     10  H   LIG    1       28.464 -15.559   3.351  0.00  0.00    +0.211 HD
ENDBRANCH   8   9
ENDBRANCH   6   8
ENDBRANCH   1   6
TORSDOF 4
ENDMDL
MODEL 4
REMARK VINA RESULT:      -3.3      1.960      3.231
REMARK  Name = *****
REMARK                            x       y       z     vdW  Elec       q    Type
REMARK                         _______ _______ _______ _____ _____    ______ ____
ROOT
ATOM      1  C   LIG    1       25.184 -21.195   5.858  0.00  0.00    +0.132 C 
ATOM      2  S   LIG    1       23.841 -20.978   6.822  0.00  0.00    -0.019 S 
ENDROOT
BRANCH   1   4
ATOM      3  C   LIG    1       24.553 -20.188   3.632  0.00  0.00    +0.127 C 
ATOM      4  N   LIG    1       25.000 -21.247   4.510  0.00  0.00    -0.330 N 
ATOM      5  H   LIG    1       25.413 -22.066   4.073  0.00  0.00    +0.147 HD
ENDBRANCH   1   4
BRANCH   1   6
ATOM      6  N   LIG    1       26.467 -21.373   6.285  0.00  0.00    -0.304 N 
ATOM      7  H   LIG    1       26.846 -22.297   6.177  0.00  0.00    +0.150 HD
BRANCH   6   8
ATOM      8  C   LIG    1       27.475 -20.359   6.379  0.00  0.00    +0.263 C 
BRANCH   8   9
ATOM      9  O   LIG    1       27.808 -20.068   5.044  0.00  0.00    -0.377 OA
ATOM     10  H   LIG    1       27.326 -20.737   4.529  0.00  0.00    +0.211 HD
ENDBRANCH   8   9
ENDBRANCH   6   8
ENDBRANCH   1   6
TORSDOF 4
ENDMDL
MODEL 5
REMARK VINA RESULT:      -3.1      1.579      2.524
REMARK  Name = *****
REMARK                            x       y       z     vdW  Elec       q    Type
REMARK                         _______ _______ _______ _____ _____    ______ ____
ROOT
ATOM      1  C   LIG    1       25.653 -20.503   5.337  0.00  0.00    +0.132 C 
ATOM      2  S   LIG    1       26.718 -20.559   6.618  0.00  0.00    -0.019 S 
ENDROOT
BRANCH   1   4
ATOM      3  C   LIG    1       23.315 -20.628   6.278  0.00  0.00    +0.127 C 
ATOM      4  N   LIG    1       24.436 -21.093   5.491  0.00  0.00    -0.330 N 
ATOM      5  H   LIG    1       24.254 -21.833   4.820  0.00  0.00    +0.147 HD
ENDBRANCH   1   4
BRANCH   1   6
ATOM      6  N   LIG    1       25.890 -19.953   4.111  0.00  0.00    -0.304 N 
ATOM      7  H   LIG    1       26.338 -20.549   3.437  0.00  0.00    +0.150 HD
BRANCH   6   8
ATOM      8  C   LIG    1       25.160 -18.876   3.511  0.00  0.00    +0.263 C 
BRANCH   8   9
ATOM      9  O   LIG    1       26.151 -17.976   3.078  0.00  0.00    -0.377 OA
ATOM     10  H   LIG    1       26.290 -17.393   3.844  0.00  0.00    +0.211 HD
ENDBRANCH   8   9
ENDBRANCH   6   8
ENDBRANCH   1   6
TORSDOF 4
ENDMDL
MODEL 6
REMARK VINA RESULT:      -3.1      3.095      3.257
REMARK  Name = *****
REMARK                            x       y       z     vdW  Elec       q    Type
REMARK                         _______ _______ _______ _____ _____    ______ ____
ROOT
ATOM      1  C   LIG    1       24.788 -20.810   4.680  0.00  0.00    +0.132 C 
ATOM      2  S   LIG    1       25.051 -19.498   3.686  0.00  0.00    -0.019 S 
ENDROOT
BRANCH   1   4
ATOM      3  C   LIG    1       26.720 -20.456   6.263  0.00  0.00    +0.127 C 
ATOM      4  N   LIG    1       25.822 -21.246   5.450  0.00  0.00    -0.330 N 
ATOM      5  H   LIG    1       25.819 -22.250   5.606  0.00  0.00    +0.147 HD
ENDBRANCH   1   4
BRANCH   1   6
ATOM      6  N   LIG    1       23.635 -21.534   4.776  0.00  0.00    -0.304 N 
ATOM      7  H   LIG    1       23.581 -22.360   4.205  0.00  0.00    +0.150 HD
BRANCH   6   8
ATOM      8  C   LIG    1       22.751 -21.572   5.903  0.00  0.00    +0.263 C 
BRANCH   8   9
ATOM      9  O   LIG    1       23.104 -20.445   6.667  0.00  0.00    -0.377 OA
ATOM     10  H   LIG    1       22.283 -19.928   6.717  0.00  0.00    +0.211 HD
ENDBRANCH   8   9
ENDBRANCH   6   8
ENDBRANCH   1   6
TORSDOF 4
ENDMDL
MODEL 7
REMARK VINA RESULT:      -3.1      6.752      6.878
REMARK  Name = *****
REMARK                            x       y       z     vdW  Elec       q    Type
REMARK                         _______ _______ _______ _____ _____    ______ ____
ROOT
ATOM      1  C   LIG    1       26.619 -13.844   2.838  0.00  0.00    +0.132 C 
ATOM      2  S   LIG    1       26.359 -15.406   3.361  0.00  0.00    -0.019 S 
ENDROOT
BRANCH   1   4
ATOM      3  C   LIG    1       28.714 -12.929   3.906  0.00  0.00    +0.127 C 
ATOM      4  N   LIG    1       27.902 -13.389   2.802  0.00  0.00    -0.330 N 
ATOM      5  H   LIG    1       28.380 -13.587   1.928  0.00  0.00    +0.147 HD
ENDBRANCH   1   4
BRANCH   1   6
ATOM      6  N   LIG    1       25.663 -12.942   2.476  0.00  0.00    -0.304 N 
ATOM      7  H   LIG    1       25.810 -12.465   1.604  0.00  0.00    +0.150 HD
BRANCH   6   8
ATOM      8  C   LIG    1       24.288 -12.958   2.881  0.00  0.00    +0.263 C 
BRANCH   8   9
ATOM      9  O   LIG    1       23.746 -11.780   2.337  0.00  0.00    -0.377 OA
ATOM     10  H   LIG    1       24.314 -11.075   2.689  0.00  0.00    +0.211 HD
ENDBRANCH   8   9
ENDBRANCH   6   8
ENDBRANCH   1   6
TORSDOF 4
ENDMDL
MODEL 8
REMARK VINA RESULT:      -3.1      1.386      1.386
REMARK  Name = *****
REMARK                            x       y       z     vdW  Elec       q    Type
REMARK                         _______ _______ _______ _____ _____    ______ ____
ROOT
ATOM      1  C   LIG    1       25.359 -20.457   4.824  0.00  0.00    +0.132 C 
ATOM      2  S   LIG    1       23.850 -20.981   5.302  0.00  0.00    -0.019 S 
ENDROOT
BRANCH   1   4
ATOM      3  C   LIG    1       27.623 -20.007   5.842  0.00  0.00    +0.127 C 
ATOM      4  N   LIG    1       26.424 -20.781   5.606  0.00  0.00    -0.330 N 
ATOM      5  H   LIG    1       26.248 -21.562   6.232  0.00  0.00    +0.147 HD
ENDBRANCH   1   4
BRANCH   1   6
ATOM      6  N   LIG    1       25.640 -19.687   3.734  0.00  0.00    -0.304 N 
ATOM      7  H   LIG    1       25.911 -20.179   2.901  0.00  0.00    +0.150 HD
BRANCH   6   8
ATOM      8  C   LIG    1       25.125 -18.375   3.470  0.00  0.00    +0.263 C 
BRANCH   8   9
ATOM      9  O   LIG    1       26.246 -17.633   3.056  0.00  0.00    -0.377 OA
ATOM     10  H   LIG    1       26.892 -17.763   3.772  0.00  0.00    +0.211 HD
ENDBRANCH   8   9
ENDBRANCH   6   8
ENDBRANCH   1   6
TORSDOF 4
ENDMDL
MODEL 9
REMARK VINA RESULT:      -3.0      2.748      3.686
REMARK  Name = *****
REMARK                            x       y       z     vdW  Elec       q    Type
REMARK                         _______ _______ _______ _____ _____    ______ ____
ROOT
ATOM      1  C   LIG    1       24.535 -20.809   4.703  0.00  0.00    +0.132 C 
ATOM      2  S   LIG    1       24.221 -19.594   3.605  0.00  0.00    -0.019 S 
ENDROOT
BRANCH   1   4
ATOM      3  C   LIG    1       23.104 -21.571   6.636  0.00  0.00    +0.127 C 
ATOM      4  N   LIG    1       23.475 -21.472   5.242  0.00  0.00    -0.330 N 
ATOM      5  H   LIG    1       22.779 -21.753   4.558  0.00  0.00    +0.147 HD
ENDBRANCH   1   4
BRANCH   1   6
ATOM      6  N   LIG    1       25.763 -21.189   5.160  0.00  0.00    -0.304 N 
ATOM      7  H   LIG    1       26.226 -21.912   4.637  0.00  0.00    +0.150 HD
BRANCH   6   8
ATOM      8  C   LIG    1       26.666 -20.385   5.929  0.00  0.00    +0.263 C 
BRANCH   8   9
ATOM      9  O   LIG    1       27.684 -20.034   5.024  0.00  0.00    -0.377 OA
ATOM     10  H   LIG    1       27.941 -20.879   4.619  0.00  0.00    +0.211 HD
ENDBRANCH   8   9
ENDBRANCH   6   8
ENDBRANCH   1   6
TORSDOF 4
ENDMDL
