MODEL 1
REMARK VINA RESULT:      -4.3      0.000      0.000
REMARK  Name = *****
REMARK                            x       y       z     vdW  Elec       q    Type
REMARK                         _______ _______ _______ _____ _____    ______ ____
ROOT
ATOM      1  C   LIG    1       24.906 -12.875   2.042  0.00  0.00    +0.044 C 
ENDROOT
BRANCH   1   2
ATOM      2  C   LIG    1       23.955 -12.552   3.197  0.00  0.00    +0.003 C 
BRANCH   2   4
ATOM      3  C   LIG    1       23.459 -14.748   4.345  0.00  0.00    +0.004 C 
ATOM      4  C   LIG    1       24.221 -13.432   4.421  0.00  0.00    -0.003 C 
ENDBRANCH   2   4
ENDBRANCH   1   2
BRANCH   1   5
ATOM      5  C   LIG    1       26.319 -13.206   2.526  0.00  0.00    +0.266 C 
BRANCH   5   6
ATOM      6  O   LIG    1       26.652 -14.518   2.067  0.00  0.00    -0.363 OA
BRANCH   6   7
ATOM      7  N   LIG    1       26.932 -15.327   3.165  0.00  0.00    +0.155 NA
ATOM      8  O   LIG    1       26.289 -16.383   3.115  0.00  0.00    -0.105 OA
ENDBRANCH   6   7
ENDBRANCH   5   6
ENDBRANCH   1   5
TORSDOF 5
ENDMDL
MODEL 2
REMARK VINA RESULT:      -3.9      5.792      7.237
REMARK  Name = *****
REMARK                            x       y       z     vdW  Elec       q    Type
REMARK                         _______ _______ _______ _____ _____    ______ ____
ROOT
ATOM      1  C   LIG    1       23.135 -20.866   6.606  0.00  0.00    +0.044 C 
ENDROOT
BRANCH   1   2
ATOM      2  C   LIG    1       22.467 -20.728   5.235  0.00  0.00    +0.003 C 
BRANCH   2   4
ATOM      3  C   LIG    1       23.407 -18.910   3.753  0.00  0.00    +0.004 C 
ATOM      4  C   LIG    1       22.356 -19.266   4.795  0.00  0.00    -0.003 C 
ENDBRANCH   2   4
ENDBRANCH   1   2
BRANCH   1   5
ATOM      5  C   LIG    1       24.550 -21.439   6.510  0.00  0.00    +0.266 C 
BRANCH   5   6
ATOM      6  O   LIG    1       25.458 -20.483   7.062  0.00  0.00    -0.363 OA
BRANCH   6   7
ATOM      7  N   LIG    1       26.610 -20.447   6.283  0.00  0.00    +0.155 NA
ATOM      8  O   LIG    1       26.352 -20.098   5.123  0.00  0.00    -0.105 OA
ENDBRANCH   6   7
ENDBRANCH   5   6
ENDBRANCH   1   5
TORSDOF 5
ENDMDL
MODEL 3
REMARK VINA RESULT:      -3.9      5.511      6.335
REMARK  Name = *****
REMARK                            x       y       z     vdW  Elec       q    Type
REMARK                         _______ _______ _______ _____ _____    ______ ____
ROOT
ATOM      1  C   LIG    1       23.429 -18.938   3.970  0.00  0.00    +0.044 C 
ENDROOT
BRANCH   1   2
ATOM      2  C   LIG    1       22.450 -19.425   5.043  0.00  0.00    +0.003 C 
BRANCH   2   4
ATOM      3  C   LIG    1       23.329 -20.748   7.009  0.00  0.00    +0.004 C 
ATOM      4  C   LIG    1       22.825 -20.811   5.573  0.00  0.00    -0.003 C 
ENDBRANCH   2   4
ENDBRANCH   1   2
BRANCH   1   5
ATOM      5  C   LIG    1       24.501 -19.980   3.645  0.00  0.00    +0.266 C 
BRANCH   5   6
ATOM      6  O   LIG    1       25.773 -19.439   4.008  0.00  0.00    -0.363 OA
BRANCH   6   7
ATOM      7  N   LIG    1       26.275 -20.148   5.096  0.00  0.00    +0.155 NA
ATOM      8  O   LIG    1       27.438 -19.808   5.350  0.00  0.00    -0.105 OA
ENDBRANCH   6   7
ENDBRANCH   5   6
ENDBRANCH   1   5
TORSDOF 5
ENDMDL
MODEL 4
REMARK VINA RESULT:      -3.8      6.338      7.283
REMARK  Name = *****
REMARK                            x       y       z     vdW  Elec       q    Type
REMARK                         _______ _______ _______ _____ _____    ______ ____
ROOT
ATOM      1  C   LIG    1       24.567 -21.100   6.981  0.00  0.00    +0.044 C 
ENDROOT
BRANCH   1   2
ATOM      2  C   LIG    1       23.217 -20.469   6.629  0.00  0.00    +0.003 C 
BRANCH   2   4
ATOM      3  C   LIG    1       22.361 -19.044   4.725  0.00  0.00    +0.004 C 
ATOM      4  C   LIG    1       23.009 -20.365   5.116  0.00  0.00    -0.003 C 
ENDBRANCH   2   4
ENDBRANCH   1   2
BRANCH   1   5
ATOM      5  C   LIG    1       25.665 -20.718   5.985  0.00  0.00    +0.266 C 
BRANCH   5   6
ATOM      6  O   LIG    1       26.801 -20.268   6.726  0.00  0.00    -0.363 OA
BRANCH   6   7
ATOM      7  N   LIG    1       27.847 -20.013   5.844  0.00  0.00    +0.155 NA
ATOM      8  O   LIG    1       28.898 -20.535   6.238  0.00  0.00    -0.105 OA
ENDBRANCH   6   7
ENDBRANCH   5   6
ENDBRANCH   1   5
TORSDOF 5
ENDMDL
MODEL 5
REMARK VINA RESULT:      -3.8      2.289      2.705
REMARK  Name = *****
REMARK                            x       y       z     vdW  Elec       q    Type
REMARK                         _______ _______ _______ _____ _____    ______ ____
ROOT
ATOM      1  C   LIG    1       26.213 -14.915   3.189  0.00  0.00    +0.044 C 
ENDROOT
BRANCH   1   2
ATOM      2  C   LIG    1       25.603 -13.608   2.675  0.00  0.00    +0.003 C 
BRANCH   2   4
ATOM      3  C   LIG    1       23.816 -14.411   4.272  0.00  0.00    +0.004 C 
ATOM      4  C   LIG    1       24.179 -13.396   3.197  0.00  0.00    -0.003 C 
ENDBRANCH   2   4
ENDBRANCH   1   2
BRANCH   1   5
ATOM      5  C   LIG    1       27.526 -14.689   3.942  0.00  0.00    +0.266 C 
BRANCH   5   6
ATOM      6  O   LIG    1       27.372 -13.535   4.771  0.00  0.00    -0.363 OA
BRANCH   6   7
ATOM      7  N   LIG    1       28.494 -12.723   4.636  0.00  0.00    +0.155 NA
ATOM      8  O   LIG    1       29.171 -13.060   3.656  0.00  0.00    -0.105 OA
ENDBRANCH   6   7
ENDBRANCH   5   6
ENDBRANCH   1   5
TORSDOF 5
ENDMDL
MODEL 6
REMARK VINA RESULT:      -3.8      5.168      6.163
REMARK  Name = *****
REMARK                            x       y       z     vdW  Elec       q    Type
REMARK                         _______ _______ _______ _____ _____    ______ ____
ROOT
ATOM      1  C   LIG    1       24.657 -21.059   4.996  0.00  0.00    +0.044 C 
ENDROOT
BRANCH   1   2
ATOM      2  C   LIG    1       23.506 -20.483   5.826  0.00  0.00    +0.003 C 
BRANCH   2   4
ATOM      3  C   LIG    1       22.161 -18.685   4.666  0.00  0.00    +0.004 C 
ATOM      4  C   LIG    1       22.279 -20.173   4.964  0.00  0.00    -0.003 C 
ENDBRANCH   2   4
ENDBRANCH   1   2
BRANCH   1   5
ATOM      5  C   LIG    1       25.729 -20.013   4.682  0.00  0.00    +0.266 C 
BRANCH   5   6
ATOM      6  O   LIG    1       25.475 -19.494   3.375  0.00  0.00    -0.363 OA
BRANCH   6   7
ATOM      7  N   LIG    1       25.199 -18.133   3.471  0.00  0.00    +0.155 NA
ATOM      8  O   LIG    1       26.147 -17.456   3.050  0.00  0.00    -0.105 OA
ENDBRANCH   6   7
ENDBRANCH   5   6
ENDBRANCH   1   5
TORSDOF 5
ENDMDL
MODEL 7
REMARK VINA RESULT:      -3.7      1.444      2.291
REMARK  Name = *****
REMARK                            x       y       z     vdW  Elec       q    Type
REMARK                         _______ _______ _______ _____ _____    ______ ____
ROOT
ATOM      1  C   LIG    1       26.174 -13.686   5.163  0.00  0.00    +0.044 C 
ENDROOT
BRANCH   1   2
ATOM      2  C   LIG    1       25.104 -12.615   4.934  0.00  0.00    +0.003 C 
BRANCH   2   4
ATOM      3  C   LIG    1       24.205 -12.116   2.625  0.00  0.00    +0.004 C 
ATOM      4  C   LIG    1       24.109 -13.024   3.844  0.00  0.00    -0.003 C 
ENDBRANCH   2   4
ENDBRANCH   1   2
BRANCH   1   5
ATOM      5  C   LIG    1       27.440 -13.427   4.342  0.00  0.00    +0.266 C 
BRANCH   5   6
ATOM      6  O   LIG    1       27.798 -14.642   3.679  0.00  0.00    -0.363 OA
BRANCH   6   7
ATOM      7  N   LIG    1       26.747 -15.037   2.855  0.00  0.00    +0.155 NA
ATOM      8  O   LIG    1       26.723 -14.368   1.814  0.00  0.00    -0.105 OA
ENDBRANCH   6   7
ENDBRANCH   5   6
ENDBRANCH   1   5
TORSDOF 5
ENDMDL
MODEL 8
REMARK VINA RESULT:      -3.7      6.087      6.844
REMARK  Name = *****
REMARK                            x       y       z     vdW  Elec       q    Type
REMARK                         _______ _______ _______ _____ _____    ______ ____
ROOT
ATOM      1  C   LIG    1       25.123 -20.552   5.333  0.00  0.00    +0.044 C 
ENDROOT
BRANCH   1   2
ATOM      2  C   LIG    1       23.869 -20.571   6.212  0.00  0.00    +0.003 C 
BRANCH   2   4
ATOM      3  C   LIG    1       22.427 -19.094   4.755  0.00  0.00    +0.004 C 
ATOM      4  C   LIG    1       22.587 -20.472   5.382  0.00  0.00    -0.003 C 
ENDBRANCH   2   4
ENDBRANCH   1   2
BRANCH   1   5
ATOM      5  C   LIG    1       26.412 -20.528   6.159  0.00  0.00    +0.266 C 
BRANCH   5   6
ATOM      6  O   LIG    1       27.431 -19.901   5.377  0.00  0.00    -0.363 OA
BRANCH   6   7
ATOM      7  N   LIG    1       28.523 -19.621   6.193  0.00  0.00    +0.155 NA
ATOM      8  O   LIG    1       29.220 -18.719   5.709  0.00  0.00    -0.105 OA
ENDBRANCH   6   7
ENDBRANCH   5   6
ENDBRANCH   1   5
TORSDOF 5
ENDMDL
MODEL 9
REMARK VINA RESULT:      -3.6      6.920      7.564
REMARK  Name = *****
REMARK                            x       y       z     vdW  Elec       q    Type
REMARK                         _______ _______ _______ _____ _____    ______ ____
ROOT
ATOM      1  C   LIG    1       23.171 -20.796   6.640  0.00  0.00    +0.044 C 
ENDROOT
BRANCH   1   2
ATOM      2  C   LIG    1       24.628 -21.001   7.061  0.00  0.00    +0.003 C 
BRANCH   2   4
ATOM      3  C   LIG    1       27.030 -20.447   6.505  0.00  0.00    +0.004 C 
ATOM      4  C   LIG    1       25.608 -20.555   5.973  0.00  0.00    -0.003 C 
ENDBRANCH   2   4
ENDBRANCH   1   2
BRANCH   1   5
ATOM      5  C   LIG    1       22.998 -20.805   5.119  0.00  0.00    +0.266 C 
BRANCH   5   6
ATOM      6  O   LIG    1       21.973 -19.867   4.781  0.00  0.00    -0.363 OA
BRANCH   6   7
ATOM      7  N   LIG    1       22.561 -18.648   4.457  0.00  0.00    +0.155 NA
ATOM      8  O   LIG    1       23.516 -18.805   3.685  0.00  0.00    -0.105 OA
ENDBRANCH   6   7
ENDBRANCH   5   6
ENDBRANCH   1   5
TORSDOF 5
ENDMDL
