MODEL 1
REMARK VINA RESULT:      -4.7      0.000      0.000
REMARK  Name = *****
REMARK                            x       y       z     vdW  Elec       q    Type
REMARK                         _______ _______ _______ _____ _____    ______ ____
ROOT
ATOM      1  C   LIG    1       26.181 -14.813   3.998  0.00  0.00    +0.253 C 
ATOM      2  N   LIG    1       25.040 -14.460   3.159  0.00  0.00    -0.245 N 
ATOM      3  C   LIG    1       25.439 -13.368   2.251  0.00  0.00    +0.274 C 
ATOM      4  C   LIG    1       24.171 -12.613   2.677  0.00  0.00    +0.161 C 
ATOM      5  O   LIG    1       26.723 -12.839   2.649  0.00  0.00    -0.472 OA
ATOM      6  C   LIG    1       24.042 -13.716   3.734  0.00  0.00    +0.224 C 
ATOM      7  O   LIG    1       23.442 -13.880   4.767  0.00  0.00    -0.275 OA
ATOM      8  C   LIG    1       27.153 -13.694   3.673  0.00  0.00    +0.130 C 
ATOM      9  C   LIG    1       28.289 -13.447   4.342  0.00  0.00    +0.044 C 
ENDROOT
BRANCH   1  11
ATOM     10  O   LIG    1       26.124 -17.008   2.912  0.00  0.00    -0.248 OA
ATOM     11  C   LIG    1       26.718 -16.198   3.609  0.00  0.00    +0.333 C 
BRANCH  11  12
ATOM     12  O   LIG    1       27.978 -16.433   4.065  0.00  0.00    -0.479 OA
ATOM     13  H   LIG    1       28.508 -15.607   4.034  0.00  0.00    +0.295 HD
ENDBRANCH  11  12
ENDBRANCH   1  11
BRANCH   9  14
ATOM     14  C   LIG    1       29.240 -12.335   4.056  0.00  0.00    +0.186 C 
BRANCH  14  15
ATOM     15  O   LIG    1       29.415 -11.586   5.248  0.00  0.00    -0.391 OA
ATOM     16  H   LIG    1       29.897 -10.778   5.001  0.00  0.00    +0.210 HD
ENDBRANCH  14  15
ENDBRANCH   9  14
TORSDOF 4
ENDMDL
MODEL 2
REMARK VINA RESULT:      -4.3      1.533      3.706
REMARK  Name = *****
REMARK                            x       y       z     vdW  Elec       q    Type
REMARK                         _______ _______ _______ _____ _____    ______ ____
ROOT
ATOM      1  C   LIG    1       26.633 -13.557   3.330  0.00  0.00    +0.253 C 
ATOM      2  N   LIG    1       25.552 -12.699   3.804  0.00  0.00    -0.245 N 
ATOM      3  C   LIG    1       24.538 -13.538   4.472  0.00  0.00    +0.274 C 
ATOM      4  C   LIG    1       23.467 -12.839   3.622  0.00  0.00    +0.161 C 
ATOM      5  O   LIG    1       24.812 -14.935   4.224  0.00  0.00    -0.472 OA
ATOM      6  C   LIG    1       24.660 -12.237   2.871  0.00  0.00    +0.224 C 
ATOM      7  O   LIG    1       24.851 -11.692   1.812  0.00  0.00    -0.275 OA
ATOM      8  C   LIG    1       26.044 -14.937   3.556  0.00  0.00    +0.130 C 
ATOM      9  C   LIG    1       26.571 -16.081   3.091  0.00  0.00    +0.044 C 
ENDROOT
BRANCH   1  11
ATOM     10  O   LIG    1       29.040 -13.296   3.700  0.00  0.00    -0.248 OA
ATOM     11  C   LIG    1       27.906 -13.313   4.155  0.00  0.00    +0.333 C 
BRANCH  11  12
ATOM     12  O   LIG    1       27.654 -13.045   5.464  0.00  0.00    -0.479 OA
ATOM     13  H   LIG    1       26.736 -13.307   5.692  0.00  0.00    +0.295 HD
ENDBRANCH  11  12
ENDBRANCH   1  11
BRANCH   9  14
ATOM     14  C   LIG    1       25.991 -17.442   3.277  0.00  0.00    +0.186 C 
BRANCH  14  15
ATOM     15  O   LIG    1       26.921 -18.221   4.012  0.00  0.00    -0.391 OA
ATOM     16  H   LIG    1       27.788 -17.793   3.907  0.00  0.00    +0.210 HD
ENDBRANCH  14  15
ENDBRANCH   9  14
TORSDOF 4
ENDMDL
MODEL 3
REMARK VINA RESULT:      -4.2      2.042      4.893
REMARK  Name = *****
REMARK                            x       y       z     vdW  Elec       q    Type
REMARK                         _______ _______ _______ _____ _____    ______ ____
ROOT
ATOM      1  C   LIG    1       24.732 -13.488   4.226  0.00  0.00    +0.253 C 
ATOM      2  N   LIG    1       26.117 -13.577   3.776  0.00  0.00    -0.245 N 
ATOM      3  C   LIG    1       26.337 -14.908   3.178  0.00  0.00    +0.274 C 
ATOM      4  C   LIG    1       27.591 -15.043   4.055  0.00  0.00    +0.161 C 
ATOM      5  O   LIG    1       25.208 -15.766   3.454  0.00  0.00    -0.472 OA
ATOM      6  C   LIG    1       27.079 -13.767   4.734  0.00  0.00    +0.224 C 
ATOM      7  O   LIG    1       27.278 -13.178   5.768  0.00  0.00    -0.275 OA
ATOM      8  C   LIG    1       24.269 -14.924   4.066  0.00  0.00    +0.130 C 
ATOM      9  C   LIG    1       23.114 -15.415   4.539  0.00  0.00    +0.044 C 
ENDROOT
BRANCH   1  11
ATOM     10  O   LIG    1       23.478 -11.447   3.717  0.00  0.00    -0.248 OA
ATOM     11  C   LIG    1       23.946 -12.510   3.339  0.00  0.00    +0.333 C 
BRANCH  11  12
ATOM     12  O   LIG    1       23.866 -12.908   2.041  0.00  0.00    -0.479 OA
ATOM     13  H   LIG    1       24.742 -12.819   1.606  0.00  0.00    +0.295 HD
ENDBRANCH  11  12
ENDBRANCH   1  11
BRANCH   9  14
ATOM     14  C   LIG    1       22.657 -16.830   4.419  0.00  0.00    +0.186 C 
BRANCH  14  15
ATOM     15  O   LIG    1       23.773 -17.624   4.052  0.00  0.00    -0.391 OA
ATOM     16  H   LIG    1       23.567 -18.535   4.322  0.00  0.00    +0.210 HD
ENDBRANCH  14  15
ENDBRANCH   9  14
TORSDOF 4
ENDMDL
MODEL 4
REMARK VINA RESULT:      -3.9      5.422      6.876
REMARK  Name = *****
REMARK                            x       y       z     vdW  Elec       q    Type
REMARK                         _______ _______ _______ _____ _____    ______ ____
ROOT
ATOM      1  C   LIG    1       23.986 -19.929   5.546  0.00  0.00    +0.253 C 
ATOM      2  N   LIG    1       23.898 -19.678   4.111  0.00  0.00    -0.245 N 
ATOM      3  C   LIG    1       25.142 -20.149   3.471  0.00  0.00    +0.274 C 
ATOM      4  C   LIG    1       25.235 -18.791   2.759  0.00  0.00    +0.161 C 
ATOM      5  O   LIG    1       26.127 -20.467   4.480  0.00  0.00    -0.472 OA
ATOM      6  C   LIG    1       24.082 -18.388   3.685  0.00  0.00    +0.224 C 
ATOM      7  O   LIG    1       23.573 -17.362   4.063  0.00  0.00    -0.275 OA
ATOM      8  C   LIG    1       25.439 -20.337   5.694  0.00  0.00    +0.130 C 
ATOM      9  C   LIG    1       26.081 -20.480   6.864  0.00  0.00    +0.044 C 
ENDROOT
BRANCH   1  11
ATOM     10  O   LIG    1       22.971 -21.572   7.052  0.00  0.00    -0.248 OA
ATOM     11  C   LIG    1       23.011 -21.045   5.951  0.00  0.00    +0.333 C 
BRANCH  11  12
ATOM     12  O   LIG    1       22.126 -21.367   4.969  0.00  0.00    -0.479 OA
ATOM     13  H   LIG    1       21.404 -21.922   5.335  0.00  0.00    +0.295 HD
ENDBRANCH  11  12
ENDBRANCH   1  11
BRANCH   9  14
ATOM     14  C   LIG    1       27.516 -20.851   7.028  0.00  0.00    +0.186 C 
BRANCH  14  15
ATOM     15  O   LIG    1       28.306 -19.742   6.632  0.00  0.00    -0.391 OA
ATOM     16  H   LIG    1       27.737 -18.956   6.698  0.00  0.00    +0.210 HD
ENDBRANCH  14  15
ENDBRANCH   9  14
TORSDOF 4
ENDMDL
MODEL 5
REMARK VINA RESULT:      -3.9      1.602      4.407
REMARK  Name = *****
REMARK                            x       y       z     vdW  Elec       q    Type
REMARK                         _______ _______ _______ _____ _____    ______ ____
ROOT
ATOM      1  C   LIG    1       25.499 -13.636   4.258  0.00  0.00    +0.253 C 
ATOM      2  N   LIG    1       26.681 -12.926   3.780  0.00  0.00    -0.245 N 
ATOM      3  C   LIG    1       27.326 -13.734   2.727  0.00  0.00    +0.274 C 
ATOM      4  C   LIG    1       28.659 -13.548   3.466  0.00  0.00    +0.161 C 
ATOM      5  O   LIG    1       26.738 -15.053   2.688  0.00  0.00    -0.472 OA
ATOM      6  C   LIG    1       27.794 -12.946   4.580  0.00  0.00    +0.224 C 
ATOM      7  O   LIG    1       27.917 -12.698   5.754  0.00  0.00    -0.275 OA
ATOM      8  C   LIG    1       25.666 -14.987   3.588  0.00  0.00    +0.130 C 
ATOM      9  C   LIG    1       24.937 -16.078   3.868  0.00  0.00    +0.044 C 
ENDROOT
BRANCH   1  11
ATOM     10  O   LIG    1       23.653 -12.039   4.460  0.00  0.00    -0.248 OA
ATOM     11  C   LIG    1       24.223 -12.905   3.814  0.00  0.00    +0.333 C 
BRANCH  11  12
ATOM     12  O   LIG    1       23.802 -13.269   2.572  0.00  0.00    -0.479 OA
ATOM     13  H   LIG    1       22.828 -13.164   2.503  0.00  0.00    +0.295 HD
ENDBRANCH  11  12
ENDBRANCH   1  11
BRANCH   9  14
ATOM     14  C   LIG    1       25.106 -17.420   3.241  0.00  0.00    +0.186 C 
BRANCH  14  15
ATOM     15  O   LIG    1       26.488 -17.742   3.253  0.00  0.00    -0.391 OA
ATOM     16  H   LIG    1       26.883 -17.244   3.989  0.00  0.00    +0.210 HD
ENDBRANCH  14  15
ENDBRANCH   9  14
TORSDOF 4
ENDMDL
MODEL 6
REMARK VINA RESULT:      -3.8      4.732      6.854
REMARK  Name = *****
REMARK                            x       y       z     vdW  Elec       q    Type
REMARK                         _______ _______ _______ _____ _____    ______ ____
ROOT
ATOM      1  C   LIG    1       25.763 -19.640   4.052  0.00  0.00    +0.253 C 
ATOM      2  N   LIG    1       24.325 -19.785   4.253  0.00  0.00    -0.245 N 
ATOM      3  C   LIG    1       24.070 -20.038   5.684  0.00  0.00    +0.274 C 
ATOM      4  C   LIG    1       23.189 -21.226   5.269  0.00  0.00    +0.161 C 
ATOM      5  O   LIG    1       25.314 -20.308   6.367  0.00  0.00    -0.472 OA
ATOM      6  C   LIG    1       23.751 -20.968   3.866  0.00  0.00    +0.224 C 
ATOM      7  O   LIG    1       23.833 -21.572   2.825  0.00  0.00    -0.275 OA
ATOM      8  C   LIG    1       26.302 -20.070   5.403  0.00  0.00    +0.130 C 
ATOM      9  C   LIG    1       27.595 -20.308   5.672  0.00  0.00    +0.044 C 
ENDROOT
BRANCH   1  11
ATOM     10  O   LIG    1       25.315 -17.360   3.277  0.00  0.00    -0.248 OA
ATOM     11  C   LIG    1       26.108 -18.182   3.711  0.00  0.00    +0.333 C 
BRANCH  11  12
ATOM     12  O   LIG    1       27.396 -17.854   4.002  0.00  0.00    -0.479 OA
ATOM     13  H   LIG    1       27.917 -17.771   3.174  0.00  0.00    +0.295 HD
ENDBRANCH  11  12
ENDBRANCH   1  11
BRANCH   9  14
ATOM     14  C   LIG    1       28.140 -20.760   6.985  0.00  0.00    +0.186 C 
BRANCH  14  15
ATOM     15  O   LIG    1       29.475 -21.194   6.783  0.00  0.00    -0.391 OA
ATOM     16  H   LIG    1       30.038 -20.629   7.338  0.00  0.00    +0.210 HD
ENDBRANCH  14  15
ENDBRANCH   9  14
TORSDOF 4
ENDMDL
MODEL 7
REMARK VINA RESULT:      -3.2      5.010      6.775
REMARK  Name = *****
REMARK                            x       y       z     vdW  Elec       q    Type
REMARK                         _______ _______ _______ _____ _____    ______ ____
ROOT
ATOM      1  C   LIG    1       25.732 -20.297   5.816  0.00  0.00    +0.253 C 
ATOM      2  N   LIG    1       24.825 -21.416   5.588  0.00  0.00    -0.245 N 
ATOM      3  C   LIG    1       24.451 -21.441   4.160  0.00  0.00    +0.274 C 
ATOM      4  C   LIG    1       22.982 -21.549   4.594  0.00  0.00    +0.161 C 
ATOM      5  O   LIG    1       24.892 -20.226   3.514  0.00  0.00    -0.472 OA
ATOM      6  C   LIG    1       23.526 -21.269   6.000  0.00  0.00    +0.224 C 
ATOM      7  O   LIG    1       23.080 -20.909   7.062  0.00  0.00    -0.275 OA
ATOM      8  C   LIG    1       25.645 -19.562   4.492  0.00  0.00    +0.130 C 
ATOM      9  C   LIG    1       26.145 -18.338   4.259  0.00  0.00    +0.044 C 
ENDROOT
BRANCH   1  11
ATOM     10  O   LIG    1       27.442 -21.542   7.051  0.00  0.00    -0.248 OA
ATOM     11  C   LIG    1       27.148 -20.812   6.116  0.00  0.00    +0.333 C 
BRANCH  11  12
ATOM     12  O   LIG    1       28.067 -20.428   5.190  0.00  0.00    -0.479 OA
ATOM     13  H   LIG    1       28.861 -20.061   5.635  0.00  0.00    +0.295 HD
ENDBRANCH  11  12
ENDBRANCH   1  11
BRANCH   9  14
ATOM     14  C   LIG    1       26.042 -17.588   2.974  0.00  0.00    +0.186 C 
BRANCH  14  15
ATOM     15  O   LIG    1       26.421 -16.243   3.217  0.00  0.00    -0.391 OA
ATOM     16  H   LIG    1       27.175 -16.056   2.632  0.00  0.00    +0.210 HD
ENDBRANCH  14  15
ENDBRANCH   9  14
TORSDOF 4
ENDMDL
MODEL 8
REMARK VINA RESULT:      -3.1      2.105      4.309
REMARK  Name = *****
REMARK                            x       y       z     vdW  Elec       q    Type
REMARK                         _______ _______ _______ _____ _____    ______ ____
ROOT
ATOM      1  C   LIG    1       25.145 -14.397   3.278  0.00  0.00    +0.253 C 
ATOM      2  N   LIG    1       25.250 -13.008   3.713  0.00  0.00    -0.245 N 
ATOM      3  C   LIG    1       24.421 -12.825   4.920  0.00  0.00    +0.274 C 
ATOM      4  C   LIG    1       23.798 -11.592   4.248  0.00  0.00    +0.161 C 
ATOM      5  O   LIG    1       23.590 -13.989   5.129  0.00  0.00    -0.472 OA
ATOM      6  C   LIG    1       24.549 -12.070   3.000  0.00  0.00    +0.224 C 
ATOM      7  O   LIG    1       24.503 -11.867   1.812  0.00  0.00    -0.275 OA
ATOM      8  C   LIG    1       24.023 -14.907   4.163  0.00  0.00    +0.130 C 
ATOM      9  C   LIG    1       23.403 -16.087   4.011  0.00  0.00    +0.044 C 
ENDROOT
BRANCH   1  11
ATOM     10  O   LIG    1       26.670 -16.313   3.278  0.00  0.00    -0.248 OA
ATOM     11  C   LIG    1       26.472 -15.131   3.518  0.00  0.00    +0.333 C 
BRANCH  11  12
ATOM     12  O   LIG    1       27.461 -14.318   3.978  0.00  0.00    -0.479 OA
ATOM     13  H   LIG    1       28.040 -14.809   4.600  0.00  0.00    +0.295 HD
ENDBRANCH  11  12
ENDBRANCH   1  11
BRANCH   9  14
ATOM     14  C   LIG    1       22.280 -16.592   4.852  0.00  0.00    +0.186 C 
BRANCH  14  15
ATOM     15  O   LIG    1       22.283 -18.009   4.788  0.00  0.00    -0.391 OA
ATOM     16  H   LIG    1       21.833 -18.325   5.590  0.00  0.00    +0.210 HD
ENDBRANCH  14  15
ENDBRANCH   9  14
TORSDOF 4
ENDMDL
MODEL 9
REMARK VINA RESULT:      -2.9      6.319      7.837
REMARK  Name = *****
REMARK                            x       y       z     vdW  Elec       q    Type
REMARK                         _______ _______ _______ _____ _____    ______ ____
ROOT
ATOM      1  C   LIG    1       24.386 -19.913   4.423  0.00  0.00    +0.253 C 
ATOM      2  N   LIG    1       24.373 -21.113   5.253  0.00  0.00    -0.245 N 
ATOM      3  C   LIG    1       22.974 -21.442   5.589  0.00  0.00    +0.274 C 
ATOM      4  C   LIG    1       23.404 -21.558   7.060  0.00  0.00    +0.161 C 
ATOM      5  O   LIG    1       22.106 -20.352   5.209  0.00  0.00    -0.472 OA
ATOM      6  C   LIG    1       24.732 -20.972   6.569  0.00  0.00    +0.224 C 
ATOM      7  O   LIG    1       25.697 -20.440   7.062  0.00  0.00    -0.275 OA
ATOM      8  C   LIG    1       22.941 -19.461   4.523  0.00  0.00    +0.130 C 
ATOM      9  C   LIG    1       22.477 -18.277   4.094  0.00  0.00    +0.044 C 
ENDROOT
BRANCH   1  11
ATOM     10  O   LIG    1       24.228 -21.077   2.274  0.00  0.00    -0.248 OA
ATOM     11  C   LIG    1       24.799 -20.266   2.986  0.00  0.00    +0.333 C 
BRANCH  11  12
ATOM     12  O   LIG    1       25.851 -19.530   2.534  0.00  0.00    -0.479 OA
ATOM     13  H   LIG    1       26.615 -19.626   3.143  0.00  0.00    +0.295 HD
ENDBRANCH  11  12
ENDBRANCH   1  11
BRANCH   9  14
ATOM     14  C   LIG    1       21.068 -17.803   4.211  0.00  0.00    +0.186 C 
BRANCH  14  15
ATOM     15  O   LIG    1       20.253 -18.638   3.403  0.00  0.00    -0.391 OA
ATOM     16  H   LIG    1       20.492 -19.555   3.620  0.00  0.00    +0.210 HD
ENDBRANCH  14  15
ENDBRANCH   9  14
TORSDOF 4
ENDMDL
