MODEL 1
REMARK VINA RESULT:      -1.5      0.000      0.000
REMARK  Name = *****
REMARK                            x       y       z     vdW  Elec       q    Type
REMARK                         _______ _______ _______ _____ _____    ______ ____
ROOT
ATOM      1  N   LIG    1       22.926 -18.601   4.011  0.00  0.00    -0.298 NA
ATOM      2  C   LIG    1       23.701 -17.358   4.345  0.00  0.00    +0.069 C 
ATOM      3  C   LIG    1       24.888 -17.156   3.322  0.00  0.00    +0.037 C 
ATOM      4  C   LIG    1       25.479 -15.760   3.305  0.00  0.00    -0.033 C 
ATOM      5  C   LIG    1       24.792 -14.747   3.976  0.00  0.00    +0.006 C 
ATOM      6  C   LIG    1       25.193 -13.419   3.932  0.00  0.00    +0.047 C 
ATOM      7  N   LIG    1       24.281 -12.725   4.693  0.00  0.00    -0.360 NA
ATOM      8  H   LIG    1       24.305 -11.721   4.844  0.00  0.00    +0.165 HD
ATOM      9  C   LIG    1       23.299 -13.568   5.160  0.00  0.00    +0.087 C 
ATOM     10  C   LIG    1       26.301 -13.018   3.190  0.00  0.00    +0.026 C 
ATOM     11  C   LIG    1       26.993 -14.022   2.497  0.00  0.00    +0.002 C 
ATOM     12  C   LIG    1       23.590 -14.835   4.698  0.00  0.00    -0.021 C 
ATOM     13  C   LIG    1       26.597 -15.368   2.554  0.00  0.00    +0.005 C 
ATOM     14  C   LIG    1       25.936 -18.260   3.601  0.00  0.00    +0.015 C 
ATOM     15  C   LIG    1       25.301 -19.622   3.985  0.00  0.00    +0.013 C 
ATOM     16  C   LIG    1       22.835 -16.114   4.761  0.00  0.00    +0.056 C 
ATOM     17  C   LIG    1       23.816 -19.697   3.564  0.00  0.00    +0.089 C 
ENDROOT
BRANCH   1  18
ATOM     18  C   LIG    1       21.859 -18.375   2.998  0.00  0.00    +0.084 C 
BRANCH  18  20
ATOM     19  C   LIG    1       19.360 -18.183   2.559  0.00  0.00    +0.005 C 
ATOM     20  C   LIG    1       20.444 -18.763   3.467  0.00  0.00    +0.012 C 
ENDBRANCH  18  20
ENDBRANCH   1  18
BRANCH  15  21
ATOM     21  C   LIG    1       25.485 -20.034   5.462  0.00  0.00    +0.073 C 
BRANCH  21  22
ATOM     22  S   LIG    1       24.613 -21.571   5.939  0.00  0.00    -0.164 S 
ATOM     23  C   LIG    1       23.378 -20.875   7.062  0.00  0.00    +0.084 C 
ENDBRANCH  21  22
ENDBRANCH  15  21
TORSDOF 4
ENDMDL
MODEL 2
REMARK VINA RESULT:      -1.3      0.790      1.055
REMARK  Name = *****
REMARK                            x       y       z     vdW  Elec       q    Type
REMARK                         _______ _______ _______ _____ _____    ______ ____
ROOT
ATOM      1  N   LIG    1       22.606 -18.800   4.103  0.00  0.00    -0.298 NA
ATOM      2  C   LIG    1       23.423 -17.587   4.446  0.00  0.00    +0.069 C 
ATOM      3  C   LIG    1       24.741 -17.544   3.576  0.00  0.00    +0.037 C 
ATOM      4  C   LIG    1       25.431 -16.196   3.537  0.00  0.00    -0.033 C 
ATOM      5  C   LIG    1       24.742 -15.089   4.038  0.00  0.00    +0.006 C 
ATOM      6  C   LIG    1       25.242 -13.798   3.952  0.00  0.00    +0.047 C 
ATOM      7  N   LIG    1       24.296 -12.988   4.535  0.00  0.00    -0.360 NA
ATOM      8  H   LIG    1       24.375 -11.978   4.615  0.00  0.00    +0.165 HD
ATOM      9  C   LIG    1       23.203 -13.725   4.927  0.00  0.00    +0.087 C 
ATOM     10  C   LIG    1       26.462 -13.530   3.335  0.00  0.00    +0.026 C 
ATOM     11  C   LIG    1       27.160 -14.629   2.813  0.00  0.00    +0.002 C 
ATOM     12  C   LIG    1       23.455 -15.041   4.599  0.00  0.00    -0.021 C 
ATOM     13  C   LIG    1       26.661 -15.937   2.914  0.00  0.00    +0.005 C 
ATOM     14  C   LIG    1       25.660 -18.687   4.069  0.00  0.00    +0.015 C 
ATOM     15  C   LIG    1       24.883 -19.970   4.463  0.00  0.00    +0.013 C 
ATOM     16  C   LIG    1       22.605 -16.260   4.654  0.00  0.00    +0.056 C 
ATOM     17  C   LIG    1       23.462 -19.984   3.857  0.00  0.00    +0.089 C 
ENDROOT
BRANCH   1  18
ATOM     18  C   LIG    1       21.695 -18.588   2.945  0.00  0.00    +0.084 C 
BRANCH  18  20
ATOM     19  C   LIG    1       19.350 -17.895   2.242  0.00  0.00    +0.005 C 
ATOM     20  C   LIG    1       20.198 -18.596   3.303  0.00  0.00    +0.012 C 
ENDBRANCH  18  20
ENDBRANCH   1  18
BRANCH  15  21
ATOM     21  C   LIG    1       24.847 -20.272   5.977  0.00  0.00    +0.073 C 
BRANCH  21  22
ATOM     22  S   LIG    1       26.089 -21.493   6.540  0.00  0.00    -0.164 S 
ATOM     23  C   LIG    1       27.456 -20.371   6.922  0.00  0.00    +0.084 C 
ENDBRANCH  21  22
ENDBRANCH  15  21
TORSDOF 4
ENDMDL
