MODEL 1
REMARK VINA RESULT:       1.7      0.000      0.000
REMARK  Name = *****
REMARK                            x       y       z     vdW  Elec       q    Type
REMARK                         _______ _______ _______ _____ _____    ______ ____
ROOT
ATOM      1  C   LIG    1       25.861 -14.500   6.147  0.00  0.00    +0.025 C 
ATOM      2  C   LIG    1       26.155 -13.757   4.831  0.00  0.00    +0.042 C 
ATOM      3  CA  LIG    1       27.487 -14.233   4.198  0.00  0.00    +0.201 C 
ATOM      4  N   LIG    1       27.175 -15.355   3.298  0.00  0.00    -0.271 N 
ATOM      5  C   LIG    1       25.836 -15.373   2.667  0.00  0.00    +0.165 C 
ATOM      6  CA  LIG    1       25.757 -16.880   3.011  0.00  0.00    +0.190 C 
ATOM      7  C   LIG    1       27.021 -16.606   3.837  0.00  0.00    +0.240 C 
ATOM      8  O   LIG    1       27.618 -17.144   4.752  0.00  0.00    -0.273 OA
ATOM      9  S   LIG    1       24.813 -14.207   3.636  0.00  0.00    -0.127 S 
ATOM     10  C   LIG    1       26.060 -12.252   5.106  0.00  0.00    +0.025 C 
ENDROOT
BRANCH   6  11
ATOM     11  N   LIG    1       24.554 -17.339   3.734  0.00  0.00    -0.300 N 
ATOM     12  H   LIG    1       23.946 -16.715   4.260  0.00  0.00    +0.150 HD
ATOM     13  C   LIG    1       24.265 -18.680   3.856  0.00  0.00    +0.234 C 
ATOM     14  O   LIG    1       24.974 -19.538   3.338  0.00  0.00    -0.274 OA
BRANCH  13  15
ATOM     15  C   LIG    1       22.938 -18.967   4.625  0.00  0.00    +0.094 C 
ATOM     16  C   LIG    1       22.312 -20.270   4.094  0.00  0.00    +0.031 C 
ATOM     17  C   LIG    1       23.098 -21.510   4.522  0.00  0.00    +0.002 C 
ATOM     18  C   LIG    1       23.285 -21.571   6.035  0.00  0.00    +0.000 C 
ATOM     19  C   LIG    1       23.911 -20.300   6.596  0.00  0.00    +0.002 C 
ATOM     20  C   LIG    1       23.170 -19.039   6.144  0.00  0.00    +0.031 C 
BRANCH  15  21
ATOM     21  N   LIG    1       21.996 -17.848   4.324  0.00  0.00    -0.317 NA
ATOM     22  H   LIG    1       22.532 -17.051   3.979  0.00  0.00    +0.119 HD
ATOM     23  H   LIG    1       21.402 -18.128   3.538  0.00  0.00    +0.119 HD
ENDBRANCH  15  21
ENDBRANCH  13  15
ENDBRANCH   6  11
BRANCH   3  24
ATOM     24  C   LIG    1       28.272 -13.160   3.427  0.00  0.00    +0.327 C 
ATOM     25  O   LIG    1       29.475 -12.971   3.540  0.00  0.00    -0.249 OA
BRANCH  24  26
ATOM     26  OXT LIG    1       27.521 -12.444   2.554  0.00  0.00    -0.479 OA
ATOM     27  HXT LIG    1       27.377 -12.953   1.731  0.00  0.00    +0.295 HD
ENDBRANCH  24  26
ENDBRANCH   3  24
TORSDOF 5
ENDMDL
MODEL 2
REMARK VINA RESULT:       2.0      1.449      2.123
REMARK  Name = *****
REMARK                            x       y       z     vdW  Elec       q    Type
REMARK                         _______ _______ _______ _____ _____    ______ ____
ROOT
ATOM      1  C   LIG    1       25.543 -14.461   6.004  0.00  0.00    +0.025 C 
ATOM      2  C   LIG    1       25.098 -13.982   4.610  0.00  0.00    +0.042 C 
ATOM      3  CA  LIG    1       26.307 -13.832   3.651  0.00  0.00    +0.201 C 
ATOM      4  N   LIG    1       26.491 -15.120   2.964  0.00  0.00    -0.271 N 
ATOM      5  C   LIG    1       25.290 -15.960   2.753  0.00  0.00    +0.165 C 
ATOM      6  CA  LIG    1       26.130 -17.176   3.211  0.00  0.00    +0.190 C 
ATOM      7  C   LIG    1       27.169 -16.120   3.611  0.00  0.00    +0.240 C 
ATOM      8  O   LIG    1       28.137 -16.061   4.348  0.00  0.00    -0.273 OA
ATOM      9  S   LIG    1       24.018 -15.304   3.893  0.00  0.00    -0.127 S 
ATOM     10  C   LIG    1       24.246 -12.721   4.793  0.00  0.00    +0.025 C 
ENDROOT
BRANCH   6  11
ATOM     11  N   LIG    1       25.561 -18.016   4.284  0.00  0.00    -0.300 N 
ATOM     12  H   LIG    1       25.449 -17.697   5.245  0.00  0.00    +0.150 HD
ATOM     13  C   LIG    1       25.277 -19.347   4.072  0.00  0.00    +0.234 C 
ATOM     14  O   LIG    1       25.451 -19.872   2.977  0.00  0.00    -0.274 OA
BRANCH  13  15
ATOM     15  C   LIG    1       24.652 -20.059   5.311  0.00  0.00    +0.094 C 
ATOM     16  C   LIG    1       23.469 -19.225   5.838  0.00  0.00    +0.031 C 
ATOM     17  C   LIG    1       22.258 -19.280   4.906  0.00  0.00    +0.002 C 
ATOM     18  C   LIG    1       21.827 -20.716   4.617  0.00  0.00    +0.000 C 
ATOM     19  C   LIG    1       22.972 -21.570   4.084  0.00  0.00    +0.002 C 
ATOM     20  C   LIG    1       24.215 -21.496   4.975  0.00  0.00    +0.031 C 
BRANCH  15  21
ATOM     21  N   LIG    1       25.697 -20.101   6.378  0.00  0.00    -0.317 NA
ATOM     22  H   LIG    1       26.437 -20.742   6.088  0.00  0.00    +0.119 HD
ATOM     23  H   LIG    1       26.147 -19.182   6.425  0.00  0.00    +0.119 HD
ENDBRANCH  15  21
ENDBRANCH  13  15
ENDBRANCH   6  11
BRANCH   3  24
ATOM     24  C   LIG    1       26.189 -12.707   2.611  0.00  0.00    +0.327 C 
ATOM     25  O   LIG    1       25.194 -12.497   1.932  0.00  0.00    -0.249 OA
BRANCH  24  26
ATOM     26  OXT LIG    1       27.285 -11.913   2.528  0.00  0.00    -0.479 OA
ATOM     27  HXT LIG    1       27.908 -12.113   3.255  0.00  0.00    +0.295 HD
ENDBRANCH  24  26
ENDBRANCH   3  24
TORSDOF 5
ENDMDL
MODEL 3
REMARK VINA RESULT:       3.8      1.081      1.158
REMARK  Name = *****
REMARK                            x       y       z     vdW  Elec       q    Type
REMARK                         _______ _______ _______ _____ _____    ______ ____
ROOT
ATOM      1  C   LIG    1       24.950 -14.613   5.745  0.00  0.00    +0.025 C 
ATOM      2  C   LIG    1       25.654 -13.805   4.639  0.00  0.00    +0.042 C 
ATOM      3  CA  LIG    1       27.190 -14.005   4.684  0.00  0.00    +0.201 C 
ATOM      4  N   LIG    1       27.515 -15.151   3.820  0.00  0.00    -0.271 N 
ATOM      5  C   LIG    1       26.618 -15.415   2.672  0.00  0.00    +0.165 C 
ATOM      6  CA  LIG    1       26.669 -16.915   3.051  0.00  0.00    +0.190 C 
ATOM      7  C   LIG    1       27.367 -16.417   4.324  0.00  0.00    +0.240 C 
ATOM      8  O   LIG    1       27.586 -16.846   5.442  0.00  0.00    -0.273 OA
ATOM      9  S   LIG    1       25.082 -14.484   3.014  0.00  0.00    -0.127 S 
ATOM     10  C   LIG    1       25.179 -12.352   4.740  0.00  0.00    +0.025 C 
ENDROOT
BRANCH   6  11
ATOM     11  N   LIG    1       25.375 -17.609   3.208  0.00  0.00    -0.300 N 
ATOM     12  H   LIG    1       24.476 -17.165   3.031  0.00  0.00    +0.150 HD
ATOM     13  C   LIG    1       25.306 -18.873   3.751  0.00  0.00    +0.234 C 
ATOM     14  O   LIG    1       26.318 -19.482   4.087  0.00  0.00    -0.274 OA
BRANCH  13  15
ATOM     15  C   LIG    1       23.859 -19.454   3.806  0.00  0.00    +0.094 C 
ATOM     16  C   LIG    1       23.925 -20.992   3.786  0.00  0.00    +0.031 C 
ATOM     17  C   LIG    1       24.454 -21.569   5.100  0.00  0.00    +0.002 C 
ATOM     18  C   LIG    1       23.656 -21.073   6.302  0.00  0.00    +0.000 C 
ATOM     19  C   LIG    1       23.577 -19.551   6.359  0.00  0.00    +0.002 C 
ATOM     20  C   LIG    1       23.094 -18.944   5.040  0.00  0.00    +0.031 C 
BRANCH  15  21
ATOM     21  N   LIG    1       23.150 -19.007   2.569  0.00  0.00    -0.317 NA
ATOM     22  H   LIG    1       23.120 -19.785   1.909  0.00  0.00    +0.119 HD
ATOM     23  H   LIG    1       22.171 -18.823   2.807  0.00  0.00    +0.119 HD
ENDBRANCH  15  21
ENDBRANCH  13  15
ENDBRANCH   6  11
BRANCH   3  24
ATOM     24  C   LIG    1       28.027 -12.789   4.260  0.00  0.00    +0.327 C 
ATOM     25  O   LIG    1       28.648 -12.074   5.034  0.00  0.00    -0.249 OA
BRANCH  24  26
ATOM     26  OXT LIG    1       28.065 -12.583   2.920  0.00  0.00    -0.479 OA
ATOM     27  HXT LIG    1       28.557 -13.303   2.478  0.00  0.00    +0.295 HD
ENDBRANCH  24  26
ENDBRANCH   3  24
TORSDOF 5
ENDMDL
MODEL 4
REMARK VINA RESULT:       4.5      0.915      1.152
REMARK  Name = *****
REMARK                            x       y       z     vdW  Elec       q    Type
REMARK                         _______ _______ _______ _____ _____    ______ ____
ROOT
ATOM      1  C   LIG    1       25.257 -14.265   5.973  0.00  0.00    +0.025 C 
ATOM      2  C   LIG    1       25.292 -13.648   4.562  0.00  0.00    +0.042 C 
ATOM      3  CA  LIG    1       26.704 -13.760   3.932  0.00  0.00    +0.201 C 
ATOM      4  N   LIG    1       26.761 -15.032   3.194  0.00  0.00    -0.271 N 
ATOM      5  C   LIG    1       25.494 -15.554   2.633  0.00  0.00    +0.165 C 
ATOM      6  CA  LIG    1       25.900 -16.950   3.164  0.00  0.00    +0.190 C 
ATOM      7  C   LIG    1       27.015 -16.185   3.890  0.00  0.00    +0.240 C 
ATOM      8  O   LIG    1       27.757 -16.383   4.836  0.00  0.00    -0.273 OA
ATOM      9  S   LIG    1       24.158 -14.651   3.496  0.00  0.00    -0.127 S 
ATOM     10  C   LIG    1       24.725 -12.228   4.653  0.00  0.00    +0.025 C 
ENDROOT
BRANCH   6  11
ATOM     11  N   LIG    1       24.909 -17.664   3.993  0.00  0.00    -0.300 N 
ATOM     12  H   LIG    1       24.805 -17.514   4.995  0.00  0.00    +0.150 HD
ATOM     13  C   LIG    1       24.154 -18.692   3.473  0.00  0.00    +0.234 C 
ATOM     14  O   LIG    1       24.250 -19.026   2.296  0.00  0.00    -0.274 OA
BRANCH  13  15
ATOM     15  C   LIG    1       23.139 -19.301   4.491  0.00  0.00    +0.094 C 
ATOM     16  C   LIG    1       23.056 -20.824   4.279  0.00  0.00    +0.031 C 
ATOM     17  C   LIG    1       24.318 -21.547   4.752  0.00  0.00    +0.002 C 
ATOM     18  C   LIG    1       24.654 -21.216   6.203  0.00  0.00    +0.000 C 
ATOM     19  C   LIG    1       24.754 -19.714   6.448  0.00  0.00    +0.002 C 
ATOM     20  C   LIG    1       23.522 -18.959   5.942  0.00  0.00    +0.031 C 
BRANCH  15  21
ATOM     21  N   LIG    1       21.797 -18.719   4.187  0.00  0.00    -0.317 NA
ATOM     22  H   LIG    1       21.503 -19.038   3.263  0.00  0.00    +0.119 HD
ATOM     23  H   LIG    1       21.116 -19.124   4.836  0.00  0.00    +0.119 HD
ENDBRANCH  15  21
ENDBRANCH  13  15
ENDBRANCH   6  11
BRANCH   3  24
ATOM     24  C   LIG    1       27.103 -12.607   2.999  0.00  0.00    +0.327 C 
ATOM     25  O   LIG    1       26.365 -12.111   2.160  0.00  0.00    -0.249 OA
BRANCH  24  26
ATOM     26  OXT LIG    1       28.357 -12.134   3.209  0.00  0.00    -0.479 OA
ATOM     27  HXT LIG    1       28.458 -11.247   2.810  0.00  0.00    +0.295 HD
ENDBRANCH  24  26
ENDBRANCH   3  24
TORSDOF 5
ENDMDL
