MODEL 1
REMARK VINA RESULT:      -6.3      0.000      0.000
REMARK  Name = *****
REMARK                            x       y       z     vdW  Elec       q    Type
REMARK                         _______ _______ _______ _____ _____    ______ ____
ROOT
ATOM      1  C   LIG    1       25.167 -29.034   6.723  0.00  0.00    +0.162 A 
ATOM      2  C   LIG    1       25.753 -27.914   7.340  0.00  0.00    +0.175 A 
ATOM      3  C   LIG    1       25.419 -26.605   6.906  0.00  0.00    +0.091 A 
ATOM      4  C   LIG    1       24.478 -26.428   5.878  0.00  0.00    -0.002 A 
ATOM      5  C   LIG    1       24.109 -25.135   5.503  0.00  0.00    +0.087 A 
ATOM      6  C   LIG    1       24.683 -24.019   6.123  0.00  0.00    +0.216 A 
ATOM      7  C   LIG    1       24.339 -22.621   5.804  0.00  0.00    +0.053 A 
ATOM      8  C   LIG    1       25.297 -21.594   6.029  0.00  0.00    -0.024 A 
ATOM      9  C   LIG    1       25.037 -20.258   5.689  0.00  0.00    +0.054 A 
ATOM     10  C   LIG    1       23.795 -19.960   5.178  0.00  0.00    +0.167 A 
ATOM     11  O   LIG    1       23.355 -18.726   4.822  0.00  0.00    -0.453 OA
ATOM     12  C   LIG    1       22.004 -19.022   4.409  0.00  0.00    +0.466 C 
ATOM     13  O   LIG    1       21.680 -20.428   4.499  0.00  0.00    -0.453 OA
ATOM     14  C   LIG    1       22.843 -20.930   4.990  0.00  0.00    +0.167 A 
ATOM     15  C   LIG    1       26.613 -21.984   6.647  0.00  0.00    +0.108 C 
ATOM     16  C   LIG    1       26.342 -23.054   7.693  0.00  0.00    +0.362 C 
ATOM     17  C   LIG    1       23.081 -22.258   5.285  0.00  0.00    +0.064 A 
ATOM     18  N   LIG    1       25.652 -24.211   7.062  0.00  0.00    -0.196 N 
ATOM     19  C   LIG    1       23.932 -27.550   5.248  0.00  0.00    +0.013 A 
ATOM     20  C   LIG    1       25.990 -25.457   7.466  0.00  0.00    +0.322 A 
ATOM     21  C   LIG    1       24.284 -28.837   5.656  0.00  0.00    +0.050 A 
ENDROOT
BRANCH   1  23
ATOM     22  C   LIG    1       25.614 -31.296   6.135  0.00  0.00    +0.277 C 
ATOM     23  O   LIG    1       25.539 -30.284   7.136  0.00  0.00    -0.491 OA
ENDBRANCH   1  23
BRANCH   2  24
ATOM     24  O   LIG    1       26.690 -27.940   8.352  0.00  0.00    -0.491 OA
ATOM     25  C   LIG    1       26.343 -28.601   9.566  0.00  0.00    +0.277 C 
ENDBRANCH   2  24
TORSDOF 2
ENDMDL
MODEL 2
REMARK VINA RESULT:      -6.2      4.435      8.288
REMARK  Name = *****
REMARK                            x       y       z     vdW  Elec       q    Type
REMARK                         _______ _______ _______ _____ _____    ______ ____
ROOT
ATOM      1  C   LIG    1       31.168 -18.325   8.050  0.00  0.00    +0.162 A 
ATOM      2  C   LIG    1       29.898 -18.426   8.649  0.00  0.00    +0.175 A 
ATOM      3  C   LIG    1       28.987 -19.425   8.220  0.00  0.00    +0.091 A 
ATOM      4  C   LIG    1       29.364 -20.333   7.217  0.00  0.00    -0.002 A 
ATOM      5  C   LIG    1       28.483 -21.352   6.848  0.00  0.00    +0.087 A 
ATOM      6  C   LIG    1       27.225 -21.461   7.450  0.00  0.00    +0.216 A 
ATOM      7  C   LIG    1       26.241 -22.514   7.136  0.00  0.00    +0.053 A 
ATOM      8  C   LIG    1       24.855 -22.261   7.333  0.00  0.00    -0.024 A 
ATOM      9  C   LIG    1       23.879 -23.211   6.996  0.00  0.00    +0.054 A 
ATOM     10  C   LIG    1       24.309 -24.425   6.516  0.00  0.00    +0.167 A 
ATOM     11  O   LIG    1       23.516 -25.471   6.169  0.00  0.00    -0.453 OA
ATOM     12  C   LIG    1       24.503 -26.455   5.793  0.00  0.00    +0.466 C 
ATOM     13  O   LIG    1       25.859 -25.963   5.895  0.00  0.00    -0.453 OA
ATOM     14  C   LIG    1       25.643 -24.704   6.357  0.00  0.00    +0.167 A 
ATOM     15  C   LIG    1       24.460 -20.931   7.917  0.00  0.00    +0.108 C 
ATOM     16  C   LIG    1       25.489 -20.557   8.973  0.00  0.00    +0.362 C 
ATOM     17  C   LIG    1       26.626 -23.779   6.649  0.00  0.00    +0.064 A 
ATOM     18  N   LIG    1       26.845 -20.524   8.364  0.00  0.00    -0.196 N 
ATOM     19  C   LIG    1       30.613 -20.197   6.605  0.00  0.00    +0.013 A 
ATOM     20  C   LIG    1       27.703 -19.556   8.762  0.00  0.00    +0.322 A 
ATOM     21  C   LIG    1       31.498 -19.196   7.006  0.00  0.00    +0.050 A 
ENDROOT
BRANCH   1  23
ATOM     22  C   LIG    1       32.621 -17.482   9.735  0.00  0.00    +0.277 C 
ATOM     23  O   LIG    1       32.010 -17.327   8.457  0.00  0.00    -0.491 OA
ENDBRANCH   1  23
BRANCH   2  24
ATOM     24  O   LIG    1       29.396 -17.604   9.635  0.00  0.00    -0.491 OA
ATOM     25  C   LIG    1       29.984 -17.680  10.931  0.00  0.00    +0.277 C 
ENDBRANCH   2  24
TORSDOF 2
ENDMDL
MODEL 3
REMARK VINA RESULT:      -6.2      7.807      9.559
REMARK  Name = *****
REMARK                            x       y       z     vdW  Elec       q    Type
REMARK                         _______ _______ _______ _____ _____    ______ ____
ROOT
ATOM      1  C   LIG    1       27.178 -28.631  11.813  0.00  0.00    +0.162 A 
ATOM      2  C   LIG    1       26.158 -29.599  11.788  0.00  0.00    +0.175 A 
ATOM      3  C   LIG    1       24.862 -29.281  12.270  0.00  0.00    +0.091 A 
ATOM      4  C   LIG    1       24.590 -27.987  12.746  0.00  0.00    -0.002 A 
ATOM      5  C   LIG    1       23.295 -27.667  13.158  0.00  0.00    +0.087 A 
ATOM      6  C   LIG    1       22.276 -28.626  13.124  0.00  0.00    +0.216 A 
ATOM      7  C   LIG    1       20.880 -28.370  13.521  0.00  0.00    +0.053 A 
ATOM      8  C   LIG    1       20.075 -29.446  13.989  0.00  0.00    -0.024 A 
ATOM      9  C   LIG    1       18.759 -29.242  14.432  0.00  0.00    +0.054 A 
ATOM     10  C   LIG    1       18.248 -27.968  14.347  0.00  0.00    +0.167 A 
ATOM     11  O   LIG    1       16.993 -27.588  14.698  0.00  0.00    -0.453 OA
ATOM     12  C   LIG    1       17.021 -26.186  14.356  0.00  0.00    +0.466 C 
ATOM     13  O   LIG    1       18.301 -25.756  13.839  0.00  0.00    -0.453 OA
ATOM     14  C   LIG    1       18.995 -26.924  13.862  0.00  0.00    +0.167 A 
ATOM     15  C   LIG    1       20.680 -30.823  13.999  0.00  0.00    +0.108 C 
ATOM     16  C   LIG    1       21.544 -30.966  12.755  0.00  0.00    +0.362 C 
ATOM     17  C   LIG    1       20.302 -27.087  13.449  0.00  0.00    +0.064 A 
ATOM     18  N   LIG    1       22.578 -29.897  12.735  0.00  0.00    -0.196 N 
ATOM     19  C   LIG    1       25.623 -27.047  12.800  0.00  0.00    +0.013 A 
ATOM     20  C   LIG    1       23.817 -30.212  12.293  0.00  0.00    +0.322 A 
ATOM     21  C   LIG    1       26.904 -27.369  12.353  0.00  0.00    +0.050 A 
ENDROOT
BRANCH   1  23
ATOM     22  C   LIG    1       29.326 -29.499  12.354  0.00  0.00    +0.277 C 
ATOM     23  O   LIG    1       28.427 -28.978  11.378  0.00  0.00    -0.491 OA
ENDBRANCH   1  23
BRANCH   2  24
ATOM     24  O   LIG    1       26.283 -30.902  11.355  0.00  0.00    -0.491 OA
ATOM     25  C   LIG    1       26.287 -31.141   9.950  0.00  0.00    +0.277 C 
ENDBRANCH   2  24
TORSDOF 2
ENDMDL
MODEL 4
REMARK VINA RESULT:      -6.1      5.242      7.518
REMARK  Name = *****
REMARK                            x       y       z     vdW  Elec       q    Type
REMARK                         _______ _______ _______ _____ _____    ______ ____
ROOT
ATOM      1  C   LIG    1       24.457 -22.678   7.226  0.00  0.00    +0.162 A 
ATOM      2  C   LIG    1       25.832 -22.836   6.977  0.00  0.00    +0.175 A 
ATOM      3  C   LIG    1       26.752 -21.845   7.408  0.00  0.00    +0.091 A 
ATOM      4  C   LIG    1       26.290 -20.718   8.109  0.00  0.00    -0.002 A 
ATOM      5  C   LIG    1       27.210 -19.782   8.584  0.00  0.00    +0.087 A 
ATOM      6  C   LIG    1       28.580 -19.942   8.347  0.00  0.00    +0.216 A 
ATOM      7  C   LIG    1       29.621 -19.014   8.826  0.00  0.00    +0.053 A 
ATOM      8  C   LIG    1       30.850 -18.912   8.117  0.00  0.00    -0.024 A 
ATOM      9  C   LIG    1       31.847 -18.003   8.501  0.00  0.00    +0.054 A 
ATOM     10  C   LIG    1       31.621 -17.246   9.627  0.00  0.00    +0.167 A 
ATOM     11  O   LIG    1       32.479 -16.342  10.164  0.00  0.00    -0.453 OA
ATOM     12  C   LIG    1       31.737 -15.910  11.325  0.00  0.00    +0.466 C 
ATOM     13  O   LIG    1       30.442 -16.544  11.435  0.00  0.00    -0.453 OA
ATOM     14  C   LIG    1       30.459 -17.358  10.348  0.00  0.00    +0.167 A 
ATOM     15  C   LIG    1       31.053 -19.813   6.929  0.00  0.00    +0.108 C 
ATOM     16  C   LIG    1       30.440 -21.167   7.256  0.00  0.00    +0.362 C 
ATOM     17  C   LIG    1       29.446 -18.220   9.977  0.00  0.00    +0.064 A 
ATOM     18  N   LIG    1       29.001 -20.998   7.596  0.00  0.00    -0.196 N 
ATOM     19  C   LIG    1       24.917 -20.557   8.316  0.00  0.00    +0.013 A 
ATOM     20  C   LIG    1       28.127 -21.936   7.165  0.00  0.00    +0.322 A 
ATOM     21  C   LIG    1       24.011 -21.517   7.867  0.00  0.00    +0.050 A 
ENDROOT
BRANCH   1  23
ATOM     22  C   LIG    1       22.231 -23.238   6.598  0.00  0.00    +0.277 C 
ATOM     23  O   LIG    1       23.591 -23.631   6.765  0.00  0.00    -0.491 OA
ENDBRANCH   1  23
BRANCH   2  24
ATOM     24  O   LIG    1       26.422 -23.882   6.300  0.00  0.00    -0.491 OA
ATOM     25  C   LIG    1       25.979 -25.203   6.596  0.00  0.00    +0.277 C 
ENDBRANCH   2  24
TORSDOF 2
ENDMDL
MODEL 5
REMARK VINA RESULT:      -6.0      4.802      7.814
REMARK  Name = *****
REMARK                            x       y       z     vdW  Elec       q    Type
REMARK                         _______ _______ _______ _____ _____    ______ ____
ROOT
ATOM      1  C   LIG    1       24.398 -21.170   4.553  0.00  0.00    +0.162 A 
ATOM      2  C   LIG    1       25.085 -21.787   5.615  0.00  0.00    +0.175 A 
ATOM      3  C   LIG    1       26.252 -21.185   6.153  0.00  0.00    +0.091 A 
ATOM      4  C   LIG    1       26.704 -19.956   5.644  0.00  0.00    -0.002 A 
ATOM      5  C   LIG    1       27.816 -19.342   6.224  0.00  0.00    +0.087 A 
ATOM      6  C   LIG    1       28.494 -19.949   7.287  0.00  0.00    +0.216 A 
ATOM      7  C   LIG    1       29.663 -19.364   7.970  0.00  0.00    +0.053 A 
ATOM      8  C   LIG    1       30.604 -20.220   8.608  0.00  0.00    -0.024 A 
ATOM      9  C   LIG    1       31.760 -19.714   9.221  0.00  0.00    +0.054 A 
ATOM     10  C   LIG    1       31.930 -18.350   9.235  0.00  0.00    +0.167 A 
ATOM     11  O   LIG    1       32.965 -17.682   9.806  0.00  0.00    -0.453 OA
ATOM     12  C   LIG    1       32.587 -16.312   9.548  0.00  0.00    +0.466 C 
ATOM     13  O   LIG    1       31.353 -16.197   8.803  0.00  0.00    -0.453 OA
ATOM     14  C   LIG    1       31.014 -17.505   8.661  0.00  0.00    +0.167 A 
ATOM     15  C   LIG    1       30.324 -21.699   8.605  0.00  0.00    +0.108 C 
ATOM     16  C   LIG    1       28.826 -21.894   8.790  0.00  0.00    +0.362 C 
ATOM     17  C   LIG    1       29.883 -17.974   8.022  0.00  0.00    +0.064 A 
ATOM     18  N   LIG    1       28.089 -21.178   7.714  0.00  0.00    -0.196 N 
ATOM     19  C   LIG    1       26.033 -19.374   4.565  0.00  0.00    +0.013 A 
ATOM     20  C   LIG    1       26.989 -21.767   7.190  0.00  0.00    +0.322 A 
ATOM     21  C   LIG    1       24.903 -19.981   4.017  0.00  0.00    +0.050 A 
ENDROOT
BRANCH   1  23
ATOM     22  C   LIG    1       22.036 -21.456   4.596  0.00  0.00    +0.277 C 
ATOM     23  O   LIG    1       23.299 -21.793   4.029  0.00  0.00    -0.491 OA
ENDBRANCH   1  23
BRANCH   2  24
ATOM     24  O   LIG    1       24.758 -22.989   6.205  0.00  0.00    -0.491 OA
ATOM     25  C   LIG    1       25.113 -24.187   5.521  0.00  0.00    +0.277 C 
ENDBRANCH   2  24
TORSDOF 2
ENDMDL
MODEL 6
REMARK VINA RESULT:      -5.9      8.268     10.862
REMARK  Name = *****
REMARK                            x       y       z     vdW  Elec       q    Type
REMARK                         _______ _______ _______ _____ _____    ______ ____
ROOT
ATOM      1  C   LIG    1       18.018 -27.369  14.410  0.00  0.00    +0.162 A 
ATOM      2  C   LIG    1       18.508 -28.676  14.234  0.00  0.00    +0.175 A 
ATOM      3  C   LIG    1       19.800 -28.885  13.686  0.00  0.00    +0.091 A 
ATOM      4  C   LIG    1       20.602 -27.782  13.346  0.00  0.00    -0.002 A 
ATOM      5  C   LIG    1       21.896 -27.998  12.868  0.00  0.00    +0.087 A 
ATOM      6  C   LIG    1       22.389 -29.298  12.702  0.00  0.00    +0.216 A 
ATOM      7  C   LIG    1       23.746 -29.617  12.222  0.00  0.00    +0.053 A 
ATOM      8  C   LIG    1       23.984 -30.856  11.563  0.00  0.00    -0.024 A 
ATOM      9  C   LIG    1       25.244 -31.180  11.039  0.00  0.00    +0.054 A 
ATOM     10  C   LIG    1       26.266 -30.279  11.231  0.00  0.00    +0.167 A 
ATOM     11  O   LIG    1       27.551 -30.435  10.824  0.00  0.00    -0.453 OA
ATOM     12  C   LIG    1       28.152 -29.224  11.332  0.00  0.00    +0.466 C 
ATOM     13  O   LIG    1       27.204 -28.361  12.002  0.00  0.00    -0.453 OA
ATOM     14  C   LIG    1       26.067 -29.097  11.898  0.00  0.00    +0.167 A 
ATOM     15  C   LIG    1       22.834 -31.818  11.440  0.00  0.00    +0.108 C 
ATOM     16  C   LIG    1       22.025 -31.750  12.727  0.00  0.00    +0.362 C 
ATOM     17  C   LIG    1       24.831 -28.736  12.397  0.00  0.00    +0.064 A 
ATOM     18  N   LIG    1       21.568 -30.354  12.961  0.00  0.00    -0.196 N 
ATOM     19  C   LIG    1       20.088 -26.491  13.491  0.00  0.00    +0.013 A 
ATOM     20  C   LIG    1       20.327 -30.162  13.465  0.00  0.00    +0.322 A 
ATOM     21  C   LIG    1       18.806 -26.287  14.003  0.00  0.00    +0.050 A 
ENDROOT
BRANCH   1  23
ATOM     22  C   LIG    1       15.775 -26.686  14.005  0.00  0.00    +0.277 C 
ATOM     23  O   LIG    1       16.754 -27.201  14.904  0.00  0.00    -0.491 OA
ENDBRANCH   1  23
BRANCH   2  24
ATOM     24  O   LIG    1       17.831 -29.844  14.518  0.00  0.00    -0.491 OA
ATOM     25  C   LIG    1       16.792 -30.246  13.630  0.00  0.00    +0.277 C 
ENDBRANCH   2  24
TORSDOF 2
ENDMDL
MODEL 7
REMARK VINA RESULT:      -5.8      7.825      8.551
REMARK  Name = *****
REMARK                            x       y       z     vdW  Elec       q    Type
REMARK                         _______ _______ _______ _____ _____    ______ ____
ROOT
ATOM      1  C   LIG    1       21.072 -31.968  11.469  0.00  0.00    +0.162 A 
ATOM      2  C   LIG    1       22.474 -31.855  11.500  0.00  0.00    +0.175 A 
ATOM      3  C   LIG    1       23.081 -30.636  11.900  0.00  0.00    +0.091 A 
ATOM      4  C   LIG    1       22.280 -29.551  12.294  0.00  0.00    -0.002 A 
ATOM      5  C   LIG    1       22.889 -28.379  12.747  0.00  0.00    +0.087 A 
ATOM      6  C   LIG    1       24.283 -28.268  12.788  0.00  0.00    +0.216 A 
ATOM      7  C   LIG    1       25.009 -27.077  13.268  0.00  0.00    +0.053 A 
ATOM      8  C   LIG    1       26.318 -26.809  12.780  0.00  0.00    -0.024 A 
ATOM      9  C   LIG    1       27.025 -25.659  13.164  0.00  0.00    +0.054 A 
ATOM     10  C   LIG    1       26.431 -24.820  14.077  0.00  0.00    +0.167 A 
ATOM     11  O   LIG    1       26.972 -23.684  14.585  0.00  0.00    -0.453 OA
ATOM     12  C   LIG    1       25.936 -23.267  15.500  0.00  0.00    +0.466 C 
ATOM     13  O   LIG    1       24.788 -24.147  15.492  0.00  0.00    -0.453 OA
ATOM     14  C   LIG    1       25.185 -25.082  14.590  0.00  0.00    +0.167 A 
ATOM     15  C   LIG    1       26.930 -27.801  11.829  0.00  0.00    +0.108 C 
ATOM     16  C   LIG    1       26.526 -29.197  12.280  0.00  0.00    +0.362 C 
ATOM     17  C   LIG    1       24.452 -26.187  14.207  0.00  0.00    +0.064 A 
ATOM     18  N   LIG    1       25.043 -29.301  12.326  0.00  0.00    -0.196 N 
ATOM     19  C   LIG    1       20.889 -29.666  12.223  0.00  0.00    +0.013 A 
ATOM     20  C   LIG    1       24.469 -30.458  11.924  0.00  0.00    +0.322 A 
ATOM     21  C   LIG    1       20.293 -30.855  11.802  0.00  0.00    +0.050 A 
ENDROOT
BRANCH   1  23
ATOM     22  C   LIG    1       19.633 -33.067   9.925  0.00  0.00    +0.277 C 
ATOM     23  O   LIG    1       20.516 -33.142  11.042  0.00  0.00    -0.491 OA
ENDBRANCH   1  23
BRANCH   2  24
ATOM     24  O   LIG    1       23.378 -32.831  11.137  0.00  0.00    -0.491 OA
ATOM     25  C   LIG    1       23.612 -33.041   9.747  0.00  0.00    +0.277 C 
ENDBRANCH   2  24
TORSDOF 2
ENDMDL
MODEL 8
REMARK VINA RESULT:      -5.7      7.929     10.367
REMARK  Name = *****
REMARK                            x       y       z     vdW  Elec       q    Type
REMARK                         _______ _______ _______ _____ _____    ______ ____
ROOT
ATOM      1  C   LIG    1       26.468 -25.868  14.083  0.00  0.00    +0.162 A 
ATOM      2  C   LIG    1       25.825 -27.003  13.556  0.00  0.00    +0.175 A 
ATOM      3  C   LIG    1       24.431 -27.184  13.746  0.00  0.00    +0.091 A 
ATOM      4  C   LIG    1       23.687 -26.213  14.437  0.00  0.00    -0.002 A 
ATOM      5  C   LIG    1       22.305 -26.369  14.562  0.00  0.00    +0.087 A 
ATOM      6  C   LIG    1       21.662 -27.492  14.029  0.00  0.00    +0.216 A 
ATOM      7  C   LIG    1       20.208 -27.728  14.098  0.00  0.00    +0.053 A 
ATOM      8  C   LIG    1       19.711 -29.062  14.061  0.00  0.00    -0.024 A 
ATOM      9  C   LIG    1       18.341 -29.339  14.180  0.00  0.00    +0.054 A 
ATOM     10  C   LIG    1       17.480 -28.272  14.280  0.00  0.00    +0.167 A 
ATOM     11  O   LIG    1       16.128 -28.345  14.373  0.00  0.00    -0.453 OA
ATOM     12  C   LIG    1       15.775 -26.946  14.404  0.00  0.00    +0.466 C 
ATOM     13  O   LIG    1       16.926 -26.072  14.362  0.00  0.00    -0.453 OA
ATOM     14  C   LIG    1       17.935 -26.978  14.278  0.00  0.00    +0.167 A 
ATOM     15  C   LIG    1       20.706 -30.177  13.890  0.00  0.00    +0.108 C 
ATOM     16  C   LIG    1       21.778 -29.706  12.919  0.00  0.00    +0.362 C 
ATOM     17  C   LIG    1       19.280 -26.673  14.194  0.00  0.00    +0.064 A 
ATOM     18  N   LIG    1       22.411 -28.462  13.432  0.00  0.00    -0.196 N 
ATOM     19  C   LIG    1       24.345 -25.109  14.988  0.00  0.00    +0.013 A 
ATOM     20  C   LIG    1       23.744 -28.305  13.266  0.00  0.00    +0.322 A 
ATOM     21  C   LIG    1       25.721 -24.947  14.826  0.00  0.00    +0.050 A 
ENDROOT
BRANCH   1  23
ATOM     22  C   LIG    1       28.592 -25.505  15.093  0.00  0.00    +0.277 C 
ATOM     23  O   LIG    1       27.820 -25.741  13.918  0.00  0.00    -0.491 OA
ENDBRANCH   1  23
BRANCH   2  24
ATOM     24  O   LIG    1       26.428 -28.032  12.865  0.00  0.00    -0.491 OA
ATOM     25  C   LIG    1       26.805 -27.797  11.511  0.00  0.00    +0.277 C 
ENDBRANCH   2  24
TORSDOF 2
ENDMDL
MODEL 9
REMARK VINA RESULT:      -5.7      7.895      8.949
REMARK  Name = *****
REMARK                            x       y       z     vdW  Elec       q    Type
REMARK                         _______ _______ _______ _____ _____    ______ ____
ROOT
ATOM      1  C   LIG    1       26.299 -31.537   8.232  0.00  0.00    +0.162 A 
ATOM      2  C   LIG    1       24.899 -31.672   8.284  0.00  0.00    +0.175 A 
ATOM      3  C   LIG    1       24.166 -31.079   9.345  0.00  0.00    +0.091 A 
ATOM      4  C   LIG    1       24.837 -30.333  10.328  0.00  0.00    -0.002 A 
ATOM      5  C   LIG    1       24.099 -29.701  11.331  0.00  0.00    +0.087 A 
ATOM      6  C   LIG    1       22.705 -29.825  11.378  0.00  0.00    +0.216 A 
ATOM      7  C   LIG    1       21.847 -29.178  12.388  0.00  0.00    +0.053 A 
ATOM      8  C   LIG    1       20.592 -29.762  12.720  0.00  0.00    -0.024 A 
ATOM      9  C   LIG    1       19.767 -29.215  13.714  0.00  0.00    +0.054 A 
ATOM     10  C   LIG    1       20.186 -28.056  14.325  0.00  0.00    +0.167 A 
ATOM     11  O   LIG    1       19.509 -27.371  15.281  0.00  0.00    -0.453 OA
ATOM     12  C   LIG    1       20.395 -26.251  15.499  0.00  0.00    +0.466 C 
ATOM     13  O   LIG    1       21.592 -26.312  14.690  0.00  0.00    -0.453 OA
ATOM     14  C   LIG    1       21.374 -27.456  13.991  0.00  0.00    +0.167 A 
ATOM     15  C   LIG    1       20.171 -30.996  11.969  0.00  0.00    +0.108 C 
ATOM     16  C   LIG    1       20.611 -30.839  10.521  0.00  0.00    +0.362 C 
ATOM     17  C   LIG    1       22.222 -27.987  13.040  0.00  0.00    +0.064 A 
ATOM     18  N   LIG    1       22.081 -30.618  10.463  0.00  0.00    -0.196 N 
ATOM     19  C   LIG    1       26.231 -30.239  10.285  0.00  0.00    +0.013 A 
ATOM     20  C   LIG    1       22.777 -31.203   9.461  0.00  0.00    +0.322 A 
ATOM     21  C   LIG    1       26.954 -30.846   9.258  0.00  0.00    +0.050 A 
ENDROOT
BRANCH   1  23
ATOM     22  C   LIG    1       27.486 -33.459   7.485  0.00  0.00    +0.277 C 
ATOM     23  O   LIG    1       26.982 -32.152   7.220  0.00  0.00    -0.491 OA
ENDBRANCH   1  23
BRANCH   2  24
ATOM     24  O   LIG    1       24.116 -32.376   7.394  0.00  0.00    -0.491 OA
ATOM     25  C   LIG    1       23.869 -31.795   6.117  0.00  0.00    +0.277 C 
ENDBRANCH   2  24
TORSDOF 2
ENDMDL
