MODEL 1
REMARK VINA RESULT:      -3.7      0.000      0.000
REMARK  Name = *****
REMARK                            x       y       z     vdW  Elec       q    Type
REMARK                         _______ _______ _______ _____ _____    ______ ____
ROOT
ATOM      1  C   LIG    1       25.695 -19.151   4.036  0.00  0.00    +0.170 C 
ENDROOT
BRANCH   1   2
ATOM      2  C   LIG    1       24.161 -19.306   4.042  0.00  0.00    +0.001 A 
ATOM      3  C   LIG    1       23.489 -20.343   4.726  0.00  0.00    +0.048 A 
ATOM      4 CL   LIG    1       24.346 -21.572   5.586  0.00  0.00    -0.083 Cl
ATOM      5  C   LIG    1       22.085 -20.426   4.732  0.00  0.00    +0.040 A 
ATOM      6  C   LIG    1       21.331 -19.491   4.031  0.00  0.00    +0.042 A 
ATOM      7 CL   LIG    1       19.615 -19.621   3.986  0.00  0.00    -0.084 Cl
ATOM      8  C   LIG    1       21.964 -18.455   3.354  0.00  0.00    +0.020 A 
ATOM      9  C   LIG    1       23.361 -18.356   3.377  0.00  0.00    +0.009 A 
ENDBRANCH   1   2
BRANCH   1  10
ATOM     10  O   LIG    1       26.012 -17.784   4.381  0.00  0.00    -0.366 OA
BRANCH  10  11
ATOM     11  C   LIG    1       26.533 -16.999   3.301  0.00  0.00    +0.196 C 
BRANCH  11  16
ATOM     12 CL   LIG    1       23.904 -11.560   2.948  0.00  0.00    -0.084 Cl
ATOM     13  C   LIG    1       24.693 -13.079   3.130  0.00  0.00    +0.041 A 
ATOM     14  C   LIG    1       25.910 -13.309   2.493  0.00  0.00    +0.020 A 
ATOM     15  C   LIG    1       26.509 -14.572   2.575  0.00  0.00    +0.007 A 
ATOM     16  C   LIG    1       25.895 -15.620   3.282  0.00  0.00    -0.022 A 
ATOM     17  C   LIG    1       24.713 -15.339   3.987  0.00  0.00    +0.007 A 
ATOM     18  C   LIG    1       24.108 -14.080   3.901  0.00  0.00    +0.020 A 
ENDBRANCH  11  16
ENDBRANCH  10  11
ENDBRANCH   1  10
BRANCH   1  19
ATOM     19  C   LIG    1       26.309 -20.095   5.097  0.00  0.00    +0.159 C 
BRANCH  19  20
ATOM     20  N   LIG    1       27.622 -19.707   5.594  0.00  0.00    -0.334 N 
ATOM     21  C   LIG    1       28.234 -20.206   6.708  0.00  0.00    +0.199 A 
ATOM     22  N   LIG    1       29.362 -19.602   6.960  0.00  0.00    -0.244 NA
ATOM     23  C   LIG    1       29.475 -18.631   5.997  0.00  0.00    +0.130 A 
ATOM     24  C   LIG    1       28.395 -18.668   5.149  0.00  0.00    +0.107 A 
ENDBRANCH  19  20
ENDBRANCH   1  19
TORSDOF 6
ENDMDL
MODEL 2
REMARK VINA RESULT:      -2.9      1.458      5.637
REMARK  Name = *****
REMARK                            x       y       z     vdW  Elec       q    Type
REMARK                         _______ _______ _______ _____ _____    ______ ____
ROOT
ATOM      1  C   LIG    1       26.434 -17.011   3.985  0.00  0.00    +0.170 C 
ENDROOT
BRANCH   1   2
ATOM      2  C   LIG    1       25.975 -15.614   3.523  0.00  0.00    +0.001 A 
ATOM      3  C   LIG    1       24.655 -15.138   3.686  0.00  0.00    +0.048 A 
ATOM      4 CL   LIG    1       23.414 -16.117   4.383  0.00  0.00    -0.083 Cl
ATOM      5  C   LIG    1       24.289 -13.842   3.279  0.00  0.00    +0.040 A 
ATOM      6  C   LIG    1       25.228 -13.012   2.678  0.00  0.00    +0.042 A 
ATOM      7 CL   LIG    1       24.771 -11.447   2.125  0.00  0.00    -0.084 Cl
ATOM      8  C   LIG    1       26.536 -13.449   2.511  0.00  0.00    +0.020 A 
ATOM      9  C   LIG    1       26.907 -14.729   2.946  0.00  0.00    +0.009 A 
ENDBRANCH   1   2
BRANCH   1  10
ATOM     10  O   LIG    1       26.154 -17.953   2.925  0.00  0.00    -0.366 OA
BRANCH  10  11
ATOM     11  C   LIG    1       26.187 -19.329   3.323  0.00  0.00    +0.196 C 
BRANCH  11  16
ATOM     12 CL   LIG    1       20.744 -21.217   5.175  0.00  0.00    -0.084 Cl
ATOM     13  C   LIG    1       22.268 -20.705   4.559  0.00  0.00    +0.041 A 
ATOM     14  C   LIG    1       23.357 -21.571   4.596  0.00  0.00    +0.020 A 
ATOM     15  C   LIG    1       24.615 -21.125   4.171  0.00  0.00    +0.007 A 
ATOM     16  C   LIG    1       24.800 -19.808   3.716  0.00  0.00    -0.022 A 
ATOM     17  C   LIG    1       23.670 -18.981   3.607  0.00  0.00    +0.007 A 
ATOM     18  C   LIG    1       22.413 -19.422   4.038  0.00  0.00    +0.020 A 
ENDBRANCH  11  16
ENDBRANCH  10  11
ENDBRANCH   1  10
BRANCH   1  19
ATOM     19  C   LIG    1       27.960 -16.987   4.248  0.00  0.00    +0.159 C 
BRANCH  19  20
ATOM     20  N   LIG    1       28.468 -18.070   5.078  0.00  0.00    -0.334 N 
ATOM     21  C   LIG    1       27.956 -19.334   5.143  0.00  0.00    +0.199 A 
ATOM     22  N   LIG    1       28.557 -20.062   6.044  0.00  0.00    -0.244 NA
ATOM     23  C   LIG    1       29.474 -19.225   6.629  0.00  0.00    +0.130 A 
ATOM     24  C   LIG    1       29.423 -17.978   6.055  0.00  0.00    +0.107 A 
ENDBRANCH  19  20
ENDBRANCH   1  19
TORSDOF 6
ENDMDL
MODEL 3
REMARK VINA RESULT:      -2.4      2.380      5.059
REMARK  Name = *****
REMARK                            x       y       z     vdW  Elec       q    Type
REMARK                         _______ _______ _______ _____ _____    ______ ____
ROOT
ATOM      1  C   LIG    1       24.774 -18.724   4.378  0.00  0.00    +0.170 C 
ENDROOT
BRANCH   1   2
ATOM      2  C   LIG    1       25.936 -19.450   5.084  0.00  0.00    +0.001 A 
ATOM      3  C   LIG    1       25.749 -20.389   6.122  0.00  0.00    +0.048 A 
ATOM      4 CL   LIG    1       24.177 -20.771   6.731  0.00  0.00    -0.083 Cl
ATOM      5  C   LIG    1       26.838 -21.052   6.715  0.00  0.00    +0.040 A 
ATOM      6  C   LIG    1       28.134 -20.768   6.300  0.00  0.00    +0.042 A 
ATOM      7 CL   LIG    1       29.475 -21.534   7.061  0.00  0.00    -0.084 Cl
ATOM      8  C   LIG    1       28.350 -19.855   5.275  0.00  0.00    +0.020 A 
ATOM      9  C   LIG    1       27.261 -19.218   4.664  0.00  0.00    +0.009 A 
ENDBRANCH   1   2
BRANCH   1  10
ATOM     10  O   LIG    1       25.309 -18.020   3.235  0.00  0.00    -0.366 OA
BRANCH  10  11
ATOM     11  C   LIG    1       26.252 -16.989   3.553  0.00  0.00    +0.196 C 
BRANCH  11  16
ATOM     12 CL   LIG    1       23.855 -11.453   3.083  0.00  0.00    -0.084 Cl
ATOM     13  C   LIG    1       24.494 -13.050   3.134  0.00  0.00    +0.041 A 
ATOM     14  C   LIG    1       23.827 -14.042   3.849  0.00  0.00    +0.020 A 
ATOM     15  C   LIG    1       24.390 -15.319   3.957  0.00  0.00    +0.007 A 
ATOM     16  C   LIG    1       25.631 -15.615   3.365  0.00  0.00    -0.022 A 
ATOM     17  C   LIG    1       26.242 -14.625   2.579  0.00  0.00    +0.007 A 
ATOM     18  C   LIG    1       25.684 -13.346   2.475  0.00  0.00    +0.020 A 
ENDBRANCH  11  16
ENDBRANCH  10  11
ENDBRANCH   1  10
BRANCH   1  19
ATOM     19  C   LIG    1       23.740 -19.767   3.891  0.00  0.00    +0.159 C 
BRANCH  19  20
ATOM     20  N   LIG    1       22.351 -19.330   3.917  0.00  0.00    -0.334 N 
ATOM     21  C   LIG    1       21.261 -20.139   4.063  0.00  0.00    +0.199 A 
ATOM     22  N   LIG    1       20.142 -19.480   3.953  0.00  0.00    -0.244 NA
ATOM     23  C   LIG    1       20.510 -18.187   3.676  0.00  0.00    +0.130 A 
ATOM     24  C   LIG    1       21.879 -18.076   3.632  0.00  0.00    +0.107 A 
ENDBRANCH  19  20
ENDBRANCH   1  19
TORSDOF 6
ENDMDL
MODEL 4
REMARK VINA RESULT:      -1.6      2.854      7.121
REMARK  Name = *****
REMARK                            x       y       z     vdW  Elec       q    Type
REMARK                         _______ _______ _______ _____ _____    ______ ____
ROOT
ATOM      1  C   LIG    1       24.630 -16.691   3.299  0.00  0.00    +0.170 C 
ENDROOT
BRANCH   1   2
ATOM      2  C   LIG    1       25.596 -15.547   3.665  0.00  0.00    +0.001 A 
ATOM      3  C   LIG    1       25.164 -14.263   4.064  0.00  0.00    +0.048 A 
ATOM      4 CL   LIG    1       23.488 -13.846   4.127  0.00  0.00    -0.083 Cl
ATOM      5  C   LIG    1       26.082 -13.259   4.421  0.00  0.00    +0.040 A 
ATOM      6  C   LIG    1       27.447 -13.513   4.359  0.00  0.00    +0.042 A 
ATOM      7 CL   LIG    1       28.577 -12.271   4.738  0.00  0.00    -0.084 Cl
ATOM      8  C   LIG    1       27.904 -14.769   3.978  0.00  0.00    +0.020 A 
ATOM      9  C   LIG    1       26.986 -15.777   3.653  0.00  0.00    +0.009 A 
ENDBRANCH   1   2
BRANCH   1  10
ATOM     10  O   LIG    1       25.404 -17.900   3.130  0.00  0.00    -0.366 OA
BRANCH  10  11
ATOM     11  C   LIG    1       24.948 -19.016   3.904  0.00  0.00    +0.196 C 
BRANCH  11  16
ATOM     12 CL   LIG    1       29.473 -21.502   7.062  0.00  0.00    -0.084 Cl
ATOM     13  C   LIG    1       28.170 -20.735   6.237  0.00  0.00    +0.041 A 
ATOM     14  C   LIG    1       26.892 -21.283   6.299  0.00  0.00    +0.020 A 
ATOM     15  C   LIG    1       25.851 -20.706   5.562  0.00  0.00    +0.007 A 
ATOM     16  C   LIG    1       26.079 -19.584   4.745  0.00  0.00    -0.022 A 
ATOM     17  C   LIG    1       27.355 -18.999   4.766  0.00  0.00    +0.007 A 
ATOM     18  C   LIG    1       28.399 -19.578   5.497  0.00  0.00    +0.020 A 
ENDBRANCH  11  16
ENDBRANCH  10  11
ENDBRANCH   1  10
BRANCH   1  19
ATOM     19  C   LIG    1       23.620 -16.897   4.454  0.00  0.00    +0.159 C 
BRANCH  19  20
ATOM     20  N   LIG    1       22.664 -17.978   4.263  0.00  0.00    -0.334 N 
ATOM     21  C   LIG    1       21.534 -17.919   3.499  0.00  0.00    +0.199 A 
ATOM     22  N   LIG    1       20.820 -19.007   3.593  0.00  0.00    -0.244 NA
ATOM     23  C   LIG    1       21.486 -19.798   4.496  0.00  0.00    +0.130 A 
ATOM     24  C   LIG    1       22.625 -19.170   4.937  0.00  0.00    +0.107 A 
ENDBRANCH  19  20
ENDBRANCH   1  19
TORSDOF 6
ENDMDL
MODEL 5
REMARK VINA RESULT:      -0.8      1.368      1.672
REMARK  Name = *****
REMARK                            x       y       z     vdW  Elec       q    Type
REMARK                         _______ _______ _______ _____ _____    ______ ____
ROOT
ATOM      1  C   LIG    1       25.766 -19.215   3.666  0.00  0.00    +0.170 C 
ENDROOT
BRANCH   1   2
ATOM      2  C   LIG    1       24.257 -19.456   3.864  0.00  0.00    +0.001 A 
ATOM      3  C   LIG    1       23.736 -20.469   4.700  0.00  0.00    +0.048 A 
ATOM      4 CL   LIG    1       24.765 -21.571   5.544  0.00  0.00    -0.083 Cl
ATOM      5  C   LIG    1       22.350 -20.632   4.877  0.00  0.00    +0.040 A 
ATOM      6  C   LIG    1       21.462 -19.803   4.201  0.00  0.00    +0.042 A 
ATOM      7 CL   LIG    1       19.764 -20.034   4.368  0.00  0.00    -0.084 Cl
ATOM      8  C   LIG    1       21.944 -18.793   3.377  0.00  0.00    +0.020 A 
ATOM      9  C   LIG    1       23.326 -18.612   3.228  0.00  0.00    +0.009 A 
ENDBRANCH   1   2
BRANCH   1  10
ATOM     10  O   LIG    1       26.078 -17.886   4.140  0.00  0.00    -0.366 OA
BRANCH  10  11
ATOM     11  C   LIG    1       25.520 -16.824   3.356  0.00  0.00    +0.196 C 
BRANCH  11  16
ATOM     12 CL   LIG    1       28.784 -11.753   3.855  0.00  0.00    -0.084 Cl
ATOM     13  C   LIG    1       27.914 -13.223   3.642  0.00  0.00    +0.041 A 
ATOM     14  C   LIG    1       26.781 -13.248   2.832  0.00  0.00    +0.020 A 
ATOM     15  C   LIG    1       26.028 -14.423   2.726  0.00  0.00    +0.007 A 
ATOM     16  C   LIG    1       26.390 -15.581   3.436  0.00  0.00    -0.022 A 
ATOM     17  C   LIG    1       27.583 -15.557   4.178  0.00  0.00    +0.007 A 
ATOM     18  C   LIG    1       28.333 -14.381   4.291  0.00  0.00    +0.020 A 
ENDBRANCH  11  16
ENDBRANCH  10  11
ENDBRANCH   1  10
BRANCH   1  19
ATOM     19  C   LIG    1       26.564 -20.247   4.499  0.00  0.00    +0.159 C 
BRANCH  19  20
ATOM     20  N   LIG    1       27.668 -19.704   5.277  0.00  0.00    -0.334 N 
ATOM     21  C   LIG    1       27.830 -19.828   6.627  0.00  0.00    +0.199 A 
ATOM     22  N   LIG    1       28.861 -19.156   7.062  0.00  0.00    -0.244 NA
ATOM     23  C   LIG    1       29.371 -18.525   5.955  0.00  0.00    +0.130 A 
ATOM     24  C   LIG    1       28.634 -18.838   4.839  0.00  0.00    +0.107 A 
ENDBRANCH  19  20
ENDBRANCH   1  19
TORSDOF 6
ENDMDL
