MODEL 1
REMARK VINA RESULT:      -4.9      0.000      0.000
REMARK  Name = *****
REMARK                            x       y       z     vdW  Elec       q    Type
REMARK                         _______ _______ _______ _____ _____    ______ ____
ROOT
ATOM      1  C   LIG    1       24.217 -12.230   4.803  0.00  0.00    +0.129 C 
ATOM      2  N   LIG    1       24.933 -13.257   4.065  0.00  0.00    -0.330 N 
ATOM      3  C   LIG    1       24.574 -14.592   4.008  0.00  0.00    +0.039 C 
ATOM      4  C   LIG    1       25.708 -15.360   3.531  0.00  0.00    +0.006 C 
ATOM      5  C   LIG    1       25.721 -16.689   3.404  0.00  0.00    +0.041 C 
ATOM      6  C   LIG    1       24.493 -17.453   3.735  0.00  0.00    +0.129 C 
ATOM      7  C   LIG    1       23.282 -16.643   4.217  0.00  0.00    +0.207 C 
ATOM      8  O   LIG    1       22.229 -17.194   4.512  0.00  0.00    -0.285 OA
ATOM      9  N   LIG    1       24.516 -18.750   3.595  0.00  0.00    -0.175 NA
ATOM     10  C   LIG    1       26.829 -14.401   3.223  0.00  0.00    +0.164 C 
ATOM     11  C   LIG    1       23.415 -15.175   4.328  0.00  0.00    +0.076 C 
ATOM     12  C   LIG    1       26.396 -13.106   3.950  0.00  0.00    +0.140 C 
ENDROOT
BRANCH   9  13
ATOM     13  N   LIG    1       23.380 -19.448   3.912  0.00  0.00    -0.190 N 
ATOM     14  H   LIG    1       22.511 -19.282   3.397  0.00  0.00    +0.179 HD
ATOM     15  C   LIG    1       23.354 -20.398   4.900  0.00  0.00    +0.317 C 
ATOM     16  O   LIG    1       22.359 -21.051   5.188  0.00  0.00    -0.251 OA
ATOM     17  N   LIG    1       24.535 -20.561   5.550  0.00  0.00    -0.312 N 
ATOM     18  H   LIG    1       24.625 -21.351   6.167  0.00  0.00    +0.146 HD
ATOM     19  H   LIG    1       25.342 -20.185   5.073  0.00  0.00    +0.146 HD
ENDBRANCH   9  13
BRANCH  10  20
ATOM     20  O   LIG    1       26.867 -14.194   1.812  0.00  0.00    -0.386 OA
ATOM     21  H   LIG    1       27.540 -13.503   1.660  0.00  0.00    +0.210 HD
ENDBRANCH  10  20
TORSDOF 2
ENDMDL
MODEL 2
REMARK VINA RESULT:      -3.9      1.729      6.129
REMARK  Name = *****
REMARK                            x       y       z     vdW  Elec       q    Type
REMARK                         _______ _______ _______ _____ _____    ______ ____
ROOT
ATOM      1  C   LIG    1       24.379 -21.172   4.065  0.00  0.00    +0.129 C 
ATOM      2  N   LIG    1       23.623 -19.933   4.002  0.00  0.00    -0.330 N 
ATOM      3  C   LIG    1       24.173 -18.673   3.845  0.00  0.00    +0.039 C 
ATOM      4  C   LIG    1       23.184 -17.682   4.222  0.00  0.00    +0.006 C 
ATOM      5  C   LIG    1       23.401 -16.365   4.238  0.00  0.00    +0.041 C 
ATOM      6  C   LIG    1       24.727 -15.852   3.812  0.00  0.00    +0.129 C 
ATOM      7  C   LIG    1       25.769 -16.895   3.389  0.00  0.00    +0.207 C 
ATOM      8  O   LIG    1       26.890 -16.558   3.025  0.00  0.00    -0.285 OA
ATOM      9  N   LIG    1       24.922 -14.562   3.820  0.00  0.00    -0.175 NA
ATOM     10  C   LIG    1       21.911 -18.403   4.585  0.00  0.00    +0.164 C 
ATOM     11  C   LIG    1       25.397 -18.324   3.439  0.00  0.00    +0.076 C 
ATOM     12  C   LIG    1       22.378 -19.863   4.790  0.00  0.00    +0.140 C 
ENDROOT
BRANCH   9  13
ATOM     13  N   LIG    1       26.152 -14.098   3.435  0.00  0.00    -0.190 N 
ATOM     14  H   LIG    1       26.456 -14.185   2.462  0.00  0.00    +0.179 HD
ATOM     15  C   LIG    1       27.014 -13.488   4.310  0.00  0.00    +0.317 C 
ATOM     16  O   LIG    1       28.109 -13.046   3.986  0.00  0.00    -0.251 OA
ATOM     17  N   LIG    1       26.556 -13.415   5.585  0.00  0.00    -0.312 N 
ATOM     18  H   LIG    1       27.065 -12.837   6.234  0.00  0.00    +0.146 HD
ATOM     19  H   LIG    1       25.561 -13.556   5.693  0.00  0.00    +0.146 HD
ENDBRANCH   9  13
BRANCH  10  20
ATOM     20  O   LIG    1       21.015 -18.315   3.478  0.00  0.00    -0.386 OA
ATOM     21  H   LIG    1       20.574 -19.184   3.419  0.00  0.00    +0.210 HD
ENDBRANCH  10  20
TORSDOF 2
ENDMDL
MODEL 3
REMARK VINA RESULT:      -3.9      2.081      5.935
REMARK  Name = *****
REMARK                            x       y       z     vdW  Elec       q    Type
REMARK                         _______ _______ _______ _____ _____    ______ ____
ROOT
ATOM      1  C   LIG    1       21.852 -21.041   4.753  0.00  0.00    +0.129 C 
ATOM      2  N   LIG    1       23.154 -20.439   4.523  0.00  0.00    -0.330 N 
ATOM      3  C   LIG    1       23.392 -19.083   4.391  0.00  0.00    +0.039 C 
ATOM      4  C   LIG    1       24.697 -18.894   3.787  0.00  0.00    +0.006 C 
ATOM      5  C   LIG    1       25.220 -17.707   3.471  0.00  0.00    +0.041 C 
ATOM      6  C   LIG    1       24.446 -16.479   3.779  0.00  0.00    +0.129 C 
ATOM      7  C   LIG    1       23.075 -16.671   4.440  0.00  0.00    +0.207 C 
ATOM      8  O   LIG    1       22.371 -15.711   4.728  0.00  0.00    -0.285 OA
ATOM      9  N   LIG    1       24.974 -15.324   3.477  0.00  0.00    -0.175 NA
ATOM     10  C   LIG    1       25.323 -20.251   3.588  0.00  0.00    +0.164 C 
ATOM     11  C   LIG    1       22.613 -18.047   4.717  0.00  0.00    +0.076 C 
ATOM     12  C   LIG    1       24.124 -21.218   3.728  0.00  0.00    +0.140 C 
ENDROOT
BRANCH   9  13
ATOM     13  N   LIG    1       24.249 -14.196   3.756  0.00  0.00    -0.190 N 
ATOM     14  H   LIG    1       23.495 -14.224   4.448  0.00  0.00    +0.179 HD
ATOM     15  C   LIG    1       24.502 -12.991   3.152  0.00  0.00    +0.317 C 
ATOM     16  O   LIG    1       23.884 -11.965   3.400  0.00  0.00    -0.251 OA
ATOM     17  N   LIG    1       25.505 -13.025   2.238  0.00  0.00    -0.312 N 
ATOM     18  H   LIG    1       25.846 -12.146   1.884  0.00  0.00    +0.146 HD
ATOM     19  H   LIG    1       26.116 -13.827   2.301  0.00  0.00    +0.146 HD
ENDBRANCH   9  13
BRANCH  10  20
ATOM     20  O   LIG    1       26.266 -20.467   4.637  0.00  0.00    -0.386 OA
ATOM     21  H   LIG    1       26.271 -19.648   5.167  0.00  0.00    +0.210 HD
ENDBRANCH  10  20
TORSDOF 2
ENDMDL
MODEL 4
REMARK VINA RESULT:      -3.2      2.231      2.971
REMARK  Name = *****
REMARK                            x       y       z     vdW  Elec       q    Type
REMARK                         _______ _______ _______ _____ _____    ______ ____
ROOT
ATOM      1  C   LIG    1       28.956 -12.923   3.769  0.00  0.00    +0.129 C 
ATOM      2  N   LIG    1       27.589 -13.406   3.688  0.00  0.00    -0.330 N 
ATOM      3  C   LIG    1       27.208 -14.734   3.760  0.00  0.00    +0.039 C 
ATOM      4  C   LIG    1       25.856 -14.860   3.252  0.00  0.00    +0.006 C 
ATOM      5  C   LIG    1       25.198 -16.016   3.132  0.00  0.00    +0.041 C 
ATOM      6  C   LIG    1       25.862 -17.267   3.573  0.00  0.00    +0.129 C 
ATOM      7  C   LIG    1       27.284 -17.137   4.134  0.00  0.00    +0.207 C 
ATOM      8  O   LIG    1       27.905 -18.120   4.519  0.00  0.00    -0.285 OA
ATOM      9  N   LIG    1       25.203 -18.388   3.461  0.00  0.00    -0.175 NA
ATOM     10  C   LIG    1       25.358 -13.483   2.894  0.00  0.00    +0.164 C 
ATOM     11  C   LIG    1       27.898 -15.794   4.191  0.00  0.00    +0.076 C 
ATOM     12  C   LIG    1       26.654 -12.642   2.839  0.00  0.00    +0.140 C 
ENDROOT
BRANCH   9  13
ATOM     13  N   LIG    1       25.827 -19.540   3.862  0.00  0.00    -0.190 N 
ATOM     14  H   LIG    1       26.776 -19.752   3.542  0.00  0.00    +0.179 HD
ATOM     15  C   LIG    1       25.235 -20.440   4.711  0.00  0.00    +0.317 C 
ATOM     16  O   LIG    1       25.780 -21.464   5.102  0.00  0.00    -0.251 OA
ATOM     17  N   LIG    1       23.975 -20.104   5.089  0.00  0.00    -0.312 N 
ATOM     18  H   LIG    1       23.553 -20.634   5.835  0.00  0.00    +0.146 HD
ATOM     19  H   LIG    1       23.725 -19.137   4.939  0.00  0.00    +0.146 HD
ENDBRANCH   9  13
BRANCH  10  20
ATOM     20  O   LIG    1       24.509 -13.026   3.946  0.00  0.00    -0.386 OA
ATOM     21  H   LIG    1       24.628 -13.657   4.681  0.00  0.00    +0.210 HD
ENDBRANCH  10  20
TORSDOF 2
ENDMDL
MODEL 5
REMARK VINA RESULT:      -3.2      2.569      6.502
REMARK  Name = *****
REMARK                            x       y       z     vdW  Elec       q    Type
REMARK                         _______ _______ _______ _____ _____    ______ ____
ROOT
ATOM      1  C   LIG    1       26.364 -21.572   6.429  0.00  0.00    +0.129 C 
ATOM      2  N   LIG    1       25.785 -20.888   5.285  0.00  0.00    -0.330 N 
ATOM      3  C   LIG    1       26.194 -19.657   4.803  0.00  0.00    +0.039 C 
ATOM      4  C   LIG    1       25.157 -19.127   3.938  0.00  0.00    +0.006 C 
ATOM      5  C   LIG    1       25.205 -17.932   3.345  0.00  0.00    +0.041 C 
ATOM      6  C   LIG    1       26.405 -17.082   3.542  0.00  0.00    +0.129 C 
ATOM      7  C   LIG    1       27.515 -17.648   4.437  0.00  0.00    +0.207 C 
ATOM      8  O   LIG    1       28.540 -17.012   4.653  0.00  0.00    -0.285 OA
ATOM      9  N   LIG    1       26.444 -15.922   2.946  0.00  0.00    -0.175 NA
ATOM     10  C   LIG    1       24.054 -20.150   3.847  0.00  0.00    +0.164 C 
ATOM     11  C   LIG    1       27.320 -18.981   5.045  0.00  0.00    +0.076 C 
ATOM     12  C   LIG    1       24.345 -21.092   5.038  0.00  0.00    +0.140 C 
ENDROOT
BRANCH   9  13
ATOM     13  N   LIG    1       27.552 -15.140   3.141  0.00  0.00    -0.190 N 
ATOM     14  H   LIG    1       28.467 -15.446   2.802  0.00  0.00    +0.179 HD
ATOM     15  C   LIG    1       27.490 -13.922   3.770  0.00  0.00    +0.317 C 
ATOM     16  O   LIG    1       28.461 -13.195   3.937  0.00  0.00    -0.251 OA
ATOM     17  N   LIG    1       26.251 -13.581   4.205  0.00  0.00    -0.312 N 
ATOM     18  H   LIG    1       26.110 -12.636   4.524  0.00  0.00    +0.146 HD
ATOM     19  H   LIG    1       25.492 -14.103   3.791  0.00  0.00    +0.146 HD
ENDBRANCH   9  13
BRANCH  10  20
ATOM     20  O   LIG    1       24.192 -20.849   2.610  0.00  0.00    -0.386 OA
ATOM     21  H   LIG    1       23.283 -21.024   2.298  0.00  0.00    +0.210 HD
ENDBRANCH  10  20
TORSDOF 2
ENDMDL
MODEL 6
REMARK VINA RESULT:      -3.1      1.826      2.488
REMARK  Name = *****
REMARK                            x       y       z     vdW  Elec       q    Type
REMARK                         _______ _______ _______ _____ _____    ______ ____
ROOT
ATOM      1  C   LIG    1       27.340 -13.404   2.605  0.00  0.00    +0.129 C 
ATOM      2  N   LIG    1       26.111 -13.694   3.323  0.00  0.00    -0.330 N 
ATOM      3  C   LIG    1       25.569 -14.955   3.498  0.00  0.00    +0.039 C 
ATOM      4  C   LIG    1       24.182 -14.816   3.897  0.00  0.00    +0.006 C 
ATOM      5  C   LIG    1       23.348 -15.838   4.101  0.00  0.00    +0.041 C 
ATOM      6  C   LIG    1       23.859 -17.222   3.947  0.00  0.00    +0.129 C 
ATOM      7  C   LIG    1       25.332 -17.375   3.547  0.00  0.00    +0.207 C 
ATOM      8  O   LIG    1       25.836 -18.483   3.397  0.00  0.00    -0.285 OA
ATOM      9  N   LIG    1       23.036 -18.212   4.161  0.00  0.00    -0.175 NA
ATOM     10  C   LIG    1       23.876 -13.346   4.028  0.00  0.00    +0.164 C 
ATOM     11  C   LIG    1       26.137 -16.154   3.336  0.00  0.00    +0.076 C 
ATOM     12  C   LIG    1       25.047 -12.672   3.276  0.00  0.00    +0.140 C 
ENDROOT
BRANCH   9  13
ATOM     13  N   LIG    1       23.515 -19.486   4.006  0.00  0.00    -0.190 N 
ATOM     14  H   LIG    1       23.982 -19.761   3.139  0.00  0.00    +0.179 HD
ATOM     15  C   LIG    1       23.413 -20.434   4.993  0.00  0.00    +0.317 C 
ATOM     16  O   LIG    1       23.851 -21.572   4.888  0.00  0.00    -0.251 OA
ATOM     17  N   LIG    1       22.773 -20.008   6.111  0.00  0.00    -0.312 N 
ATOM     18  H   LIG    1       22.811 -20.598   6.926  0.00  0.00    +0.146 HD
ATOM     19  H   LIG    1       22.693 -19.006   6.205  0.00  0.00    +0.146 HD
ENDBRANCH   9  13
BRANCH  10  20
ATOM     20  O   LIG    1       23.909 -13.003   5.413  0.00  0.00    -0.386 OA
ATOM     21  H   LIG    1       23.008 -13.167   5.752  0.00  0.00    +0.210 HD
ENDBRANCH  10  20
TORSDOF 2
ENDMDL
MODEL 7
REMARK VINA RESULT:      -2.5      2.657      3.407
REMARK  Name = *****
REMARK                            x       y       z     vdW  Elec       q    Type
REMARK                         _______ _______ _______ _____ _____    ______ ____
ROOT
ATOM      1  C   LIG    1       28.718 -13.146   3.672  0.00  0.00    +0.129 C 
ATOM      2  N   LIG    1       27.476 -13.894   3.582  0.00  0.00    -0.330 N 
ATOM      3  C   LIG    1       27.344 -15.249   3.832  0.00  0.00    +0.039 C 
ATOM      4  C   LIG    1       26.089 -15.707   3.267  0.00  0.00    +0.006 C 
ATOM      5  C   LIG    1       25.671 -16.975   3.284  0.00  0.00    +0.041 C 
ATOM      6  C   LIG    1       26.513 -17.998   3.950  0.00  0.00    +0.129 C 
ATOM      7  C   LIG    1       27.830 -17.515   4.570  0.00  0.00    +0.207 C 
ATOM      8  O   LIG    1       28.586 -18.294   5.139  0.00  0.00    -0.285 OA
ATOM      9  N   LIG    1       26.086 -19.231   3.970  0.00  0.00    -0.175 NA
ATOM     10  C   LIG    1       25.379 -14.517   2.674  0.00  0.00    +0.164 C 
ATOM     11  C   LIG    1       28.177 -16.083   4.461  0.00  0.00    +0.076 C 
ATOM     12  C   LIG    1       26.496 -13.453   2.571  0.00  0.00    +0.140 C 
ENDROOT
BRANCH   9  13
ATOM     13  N   LIG    1       26.874 -20.172   4.579  0.00  0.00    -0.190 N 
ATOM     14  H   LIG    1       27.753 -20.467   4.146  0.00  0.00    +0.179 HD
ATOM     15  C   LIG    1       26.545 -20.739   5.783  0.00  0.00    +0.317 C 
ATOM     16  O   LIG    1       27.243 -21.564   6.358  0.00  0.00    -0.251 OA
ATOM     17  N   LIG    1       25.363 -20.312   6.296  0.00  0.00    -0.312 N 
ATOM     18  H   LIG    1       25.147 -20.563   7.247  0.00  0.00    +0.146 HD
ATOM     19  H   LIG    1       25.006 -19.456   5.896  0.00  0.00    +0.146 HD
ENDBRANCH   9  13
BRANCH  10  20
ATOM     20  O   LIG    1       24.369 -14.096   3.590  0.00  0.00    -0.386 OA
ATOM     21  H   LIG    1       24.130 -13.187   3.326  0.00  0.00    +0.210 HD
ENDBRANCH  10  20
TORSDOF 2
ENDMDL
MODEL 8
REMARK VINA RESULT:      -2.0      2.256      2.510
REMARK  Name = *****
REMARK                            x       y       z     vdW  Elec       q    Type
REMARK                         _______ _______ _______ _____ _____    ______ ____
ROOT
ATOM      1  C   LIG    1       24.459 -13.006   2.999  0.00  0.00    +0.129 C 
ATOM      2  N   LIG    1       25.768 -13.605   3.194  0.00  0.00    -0.330 N 
ATOM      3  C   LIG    1       26.001 -14.945   3.448  0.00  0.00    +0.039 C 
ATOM      4  C   LIG    1       27.345 -15.094   3.972  0.00  0.00    +0.006 C 
ATOM      5  C   LIG    1       27.877 -16.253   4.370  0.00  0.00    +0.041 C 
ATOM      6  C   LIG    1       27.070 -17.491   4.247  0.00  0.00    +0.129 C 
ATOM      7  C   LIG    1       25.656 -17.343   3.671  0.00  0.00    +0.207 C 
ATOM      8  O   LIG    1       24.922 -18.314   3.536  0.00  0.00    -0.285 OA
ATOM      9  N   LIG    1       27.607 -18.618   4.628  0.00  0.00    -0.175 NA
ATOM     10  C   LIG    1       27.998 -13.736   3.983  0.00  0.00    +0.164 C 
ATOM     11  C   LIG    1       25.189 -15.994   3.288  0.00  0.00    +0.076 C 
ATOM     12  C   LIG    1       26.803 -12.767   3.832  0.00  0.00    +0.140 C 
ENDROOT
BRANCH   9  13
ATOM     13  N   LIG    1       26.851 -19.756   4.519  0.00  0.00    -0.190 N 
ATOM     14  H   LIG    1       26.502 -20.060   3.607  0.00  0.00    +0.179 HD
ATOM     15  C   LIG    1       26.544 -20.540   5.602  0.00  0.00    +0.317 C 
ATOM     16  O   LIG    1       25.890 -21.572   5.529  0.00  0.00    -0.251 OA
ATOM     17  N   LIG    1       27.027 -20.075   6.782  0.00  0.00    -0.312 N 
ATOM     18  H   LIG    1       26.978 -20.685   7.582  0.00  0.00    +0.146 HD
ATOM     19  H   LIG    1       27.762 -19.387   6.704  0.00  0.00    +0.146 HD
ENDBRANCH   9  13
BRANCH  10  20
ATOM     20  O   LIG    1       28.863 -13.645   2.852  0.00  0.00    -0.386 OA
ATOM     21  H   LIG    1       28.426 -13.033   2.228  0.00  0.00    +0.210 HD
ENDBRANCH  10  20
TORSDOF 2
ENDMDL
