MODEL 1
REMARK VINA RESULT:      -9.6      0.000      0.000
REMARK  Name = *****
REMARK                            x       y       z     vdW  Elec       q    Type
REMARK                         _______ _______ _______ _____ _____    ______ ____
ROOT
ATOM      1  C   LIG    1       24.774 -21.800   6.639  0.00  0.00    +0.166 C 
ENDROOT
BRANCH   1   2
ATOM      2  C   LIG    1       24.362 -20.811   5.494  0.00  0.00    -0.007 A 
ATOM      3  C   LIG    1       25.306 -20.342   4.551  0.00  0.00    +0.007 A 
ATOM      4  C   LIG    1       25.000 -19.353   3.613  0.00  0.00    +0.000 A 
ATOM      5  C   LIG    1       23.718 -18.829   3.548  0.00  0.00    +0.000 A 
ATOM      6  C   LIG    1       22.748 -19.300   4.424  0.00  0.00    +0.000 A 
ATOM      7  C   LIG    1       23.076 -20.251   5.399  0.00  0.00    +0.007 A 
ENDBRANCH   1   2
BRANCH   1   8
ATOM      8  C   LIG    1       25.079 -23.272   6.200  0.00  0.00    -0.007 A 
ATOM      9  C   LIG    1       25.673 -24.226   7.051  0.00  0.00    +0.007 A 
ATOM     10  C   LIG    1       25.886 -25.551   6.650  0.00  0.00    +0.000 A 
ATOM     11  C   LIG    1       25.552 -25.959   5.367  0.00  0.00    +0.000 A 
ATOM     12  C   LIG    1       24.989 -25.040   4.489  0.00  0.00    +0.000 A 
ATOM     13  C   LIG    1       24.752 -23.719   4.900  0.00  0.00    +0.007 A 
ENDBRANCH   1   8
BRANCH   1  15
ATOM     14  C   LIG    1       22.555 -22.553   7.529  0.00  0.00    +0.195 C 
ATOM     15  O   LIG    1       23.770 -21.839   7.710  0.00  0.00    -0.363 OA
ENDBRANCH   1  15
BRANCH   1  16
ATOM     16  C   LIG    1       26.042 -21.187   7.404  0.00  0.00    +0.325 C 
BRANCH  16  17
ATOM     17  C   LIG    1       25.850 -21.129   8.922  0.00  0.00    +0.350 C 
ATOM     18  O   LIG    1       25.901 -20.118   9.591  0.00  0.00    -0.247 OA
BRANCH  17  19
ATOM     19  O   LIG    1       25.565 -22.339   9.483  0.00  0.00    -0.478 OA
ATOM     20  H   LIG    1       25.855 -22.379  10.421  0.00  0.00    +0.295 HD
ENDBRANCH  17  19
ENDBRANCH  16  17
BRANCH  16  21
ATOM     21  O   LIG    1       27.243 -21.941   7.107  0.00  0.00    -0.444 OA
BRANCH  21  22
ATOM     22  C   LIG    1       28.400 -21.192   7.245  0.00  0.00    +0.319 A 
ATOM     23  N   LIG    1       29.329 -21.573   8.136  0.00  0.00    -0.200 NA
ATOM     24  C   LIG    1       30.453 -20.821   8.193  0.00  0.00    +0.045 A 
ATOM     25  C   LIG    1       31.516 -21.209   9.179  0.00  0.00    +0.066 C 
ATOM     26  C   LIG    1       30.643 -19.713   7.391  0.00  0.00    +0.046 A 
ATOM     27  C   LIG    1       29.652 -19.437   6.471  0.00  0.00    +0.045 A 
ATOM     28  C   LIG    1       29.802 -18.265   5.546  0.00  0.00    +0.066 C 
ATOM     29  N   LIG    1       28.522 -20.172   6.382  0.00  0.00    -0.200 NA
ENDBRANCH  21  22
ENDBRANCH  16  21
ENDBRANCH   1  16
TORSDOF 8
ENDMDL
MODEL 2
REMARK VINA RESULT:      -9.6      0.040      1.604
REMARK  Name = *****
REMARK                            x       y       z     vdW  Elec       q    Type
REMARK                         _______ _______ _______ _____ _____    ______ ____
ROOT
ATOM      1  C   LIG    1       24.776 -21.817   6.642  0.00  0.00    +0.166 C 
ENDROOT
BRANCH   1   2
ATOM      2  C   LIG    1       24.365 -20.826   5.498  0.00  0.00    -0.007 A 
ATOM      3  C   LIG    1       25.308 -20.362   4.553  0.00  0.00    +0.007 A 
ATOM      4  C   LIG    1       25.004 -19.370   3.615  0.00  0.00    +0.000 A 
ATOM      5  C   LIG    1       23.723 -18.841   3.555  0.00  0.00    +0.000 A 
ATOM      6  C   LIG    1       22.754 -19.307   4.433  0.00  0.00    +0.000 A 
ATOM      7  C   LIG    1       23.080 -20.260   5.408  0.00  0.00    +0.007 A 
ENDBRANCH   1   2
BRANCH   1   8
ATOM      8  C   LIG    1       25.080 -23.289   6.201  0.00  0.00    -0.007 A 
ATOM      9  C   LIG    1       25.675 -24.243   7.050  0.00  0.00    +0.007 A 
ATOM     10  C   LIG    1       25.888 -25.569   6.647  0.00  0.00    +0.000 A 
ATOM     11  C   LIG    1       25.552 -25.974   5.363  0.00  0.00    +0.000 A 
ATOM     12  C   LIG    1       24.988 -25.055   4.487  0.00  0.00    +0.000 A 
ATOM     13  C   LIG    1       24.752 -23.734   4.900  0.00  0.00    +0.007 A 
ENDBRANCH   1   8
BRANCH   1  15
ATOM     14  C   LIG    1       22.552 -22.565   7.526  0.00  0.00    +0.195 C 
ATOM     15  O   LIG    1       23.771 -21.858   7.712  0.00  0.00    -0.363 OA
ENDBRANCH   1  15
BRANCH   1  16
ATOM     16  C   LIG    1       26.043 -21.206   7.409  0.00  0.00    +0.325 C 
BRANCH  16  17
ATOM     17  C   LIG    1       25.844 -21.136   8.925  0.00  0.00    +0.350 C 
ATOM     18  O   LIG    1       25.897 -20.121   9.587  0.00  0.00    -0.247 OA
BRANCH  17  19
ATOM     19  O   LIG    1       25.550 -22.340   9.494  0.00  0.00    -0.478 OA
ATOM     20  H   LIG    1       26.063 -23.069   9.081  0.00  0.00    +0.295 HD
ENDBRANCH  17  19
ENDBRANCH  16  17
BRANCH  16  21
ATOM     21  O   LIG    1       27.241 -21.969   7.123  0.00  0.00    -0.444 OA
BRANCH  21  22
ATOM     22  C   LIG    1       28.392 -21.199   7.150  0.00  0.00    +0.319 A 
ATOM     23  N   LIG    1       28.499 -20.145   6.326  0.00  0.00    -0.200 NA
ATOM     24  C   LIG    1       29.631 -19.411   6.430  0.00  0.00    +0.045 A 
ATOM     25  C   LIG    1       29.794 -18.226   5.523  0.00  0.00    +0.066 C 
ATOM     26  C   LIG    1       30.636 -19.724   7.324  0.00  0.00    +0.046 A 
ATOM     27  C   LIG    1       30.405 -20.795   8.164  0.00  0.00    +0.045 A 
ATOM     28  C   LIG    1       31.440 -21.177   9.181  0.00  0.00    +0.066 C 
ATOM     29  N   LIG    1       29.283 -21.542   8.092  0.00  0.00    -0.200 NA
ENDBRANCH  21  22
ENDBRANCH  16  21
ENDBRANCH   1  16
TORSDOF 8
ENDMDL
