MODEL 1
REMARK VINA RESULT:      -7.2      0.000      0.000
REMARK  Name = *****
REMARK                            x       y       z     vdW  Elec       q    Type
REMARK                         _______ _______ _______ _____ _____    ______ ____
ROOT
ATOM      1  O   LIG    1       32.401 -17.582  10.172  0.00  0.00    -0.265 OA
ATOM      2  C   LIG    1       31.654 -18.340   9.565  0.00  0.00    +0.289 C 
ATOM      3  C   LIG    1       30.361 -17.911   9.005  0.00  0.00    +0.204 C 
ATOM      4  F   LIG    1       30.012 -16.620   9.153  0.00  0.00    -0.198 F 
ATOM      5  C   LIG    1       29.590 -18.793   8.372  0.00  0.00    +0.137 C 
ATOM      6  N   LIG    1       29.955 -20.124   8.227  0.00  0.00    -0.271 N 
ATOM      7  C   LIG    1       31.184 -20.586   8.693  0.00  0.00    +0.332 C 
ATOM      8  O   LIG    1       31.607 -21.732   8.577  0.00  0.00    -0.246 OA
ATOM      9  N   LIG    1       31.956 -19.659   9.354  0.00  0.00    -0.273 N 
ATOM     10  H   LIG    1       32.843 -19.986   9.705  0.00  0.00    +0.173 HD
ENDROOT
BRANCH   6  11
ATOM     11  C   LIG    1       29.078 -20.996   7.444  0.00  0.00    +0.223 C 
ATOM     12  O   LIG    1       28.132 -21.609   8.329  0.00  0.00    -0.356 OA
ATOM     13  C   LIG    1       26.856 -21.601   7.684  0.00  0.00    +0.162 C 
ATOM     14  C   LIG    1       26.862 -20.433   6.726  0.00  0.00    +0.033 C 
ATOM     15  C   LIG    1       28.307 -20.363   6.288  0.00  0.00    +0.057 C 
ENDBRANCH   6  11
TORSDOF 1
ENDMDL
MODEL 2
REMARK VINA RESULT:      -6.8      7.206      7.788
REMARK  Name = *****
REMARK                            x       y       z     vdW  Elec       q    Type
REMARK                         _______ _______ _______ _____ _____    ______ ____
ROOT
ATOM      1  O   LIG    1       22.990 -18.920   4.359  0.00  0.00    -0.265 OA
ATOM      2  C   LIG    1       23.303 -19.979   4.891  0.00  0.00    +0.289 C 
ATOM      3  C   LIG    1       23.998 -21.060   4.173  0.00  0.00    +0.204 C 
ATOM      4  F   LIG    1       24.318 -20.850   2.883  0.00  0.00    -0.198 F 
ATOM      5  C   LIG    1       24.292 -22.193   4.809  0.00  0.00    +0.137 C 
ATOM      6  N   LIG    1       23.955 -22.404   6.138  0.00  0.00    -0.271 N 
ATOM      7  C   LIG    1       23.337 -21.405   6.888  0.00  0.00    +0.332 C 
ATOM      8  O   LIG    1       23.036 -21.487   8.075  0.00  0.00    -0.246 OA
ATOM      9  N   LIG    1       23.032 -20.250   6.206  0.00  0.00    -0.273 N 
ATOM     10  H   LIG    1       22.575 -19.525   6.738  0.00  0.00    +0.173 HD
ENDROOT
BRANCH   6  11
ATOM     11  C   LIG    1       24.395 -23.649   6.770  0.00  0.00    +0.223 C 
ATOM     12  O   LIG    1       23.457 -24.682   6.447  0.00  0.00    -0.356 OA
ATOM     13  C   LIG    1       24.196 -25.871   6.152  0.00  0.00    +0.162 C 
ATOM     14  C   LIG    1       25.550 -25.425   5.653  0.00  0.00    +0.033 C 
ATOM     15  C   LIG    1       25.795 -24.153   6.430  0.00  0.00    +0.057 C 
ENDBRANCH   6  11
TORSDOF 1
ENDMDL
MODEL 3
REMARK VINA RESULT:      -6.8      1.753      4.583
REMARK  Name = *****
REMARK                            x       y       z     vdW  Elec       q    Type
REMARK                         _______ _______ _______ _____ _____    ______ ____
ROOT
ATOM      1  O   LIG    1       28.500 -21.925   6.856  0.00  0.00    -0.265 OA
ATOM      2  C   LIG    1       29.241 -21.136   7.429  0.00  0.00    +0.289 C 
ATOM      3  C   LIG    1       29.049 -19.677   7.380  0.00  0.00    +0.204 C 
ATOM      4  F   LIG    1       27.993 -19.207   6.691  0.00  0.00    -0.198 F 
ATOM      5  C   LIG    1       29.905 -18.876   8.012  0.00  0.00    +0.137 C 
ATOM      6  N   LIG    1       30.994 -19.367   8.718  0.00  0.00    -0.271 N 
ATOM      7  C   LIG    1       31.208 -20.738   8.843  0.00  0.00    +0.332 C 
ATOM      8  O   LIG    1       32.119 -21.264   9.476  0.00  0.00    -0.246 OA
ATOM      9  N   LIG    1       30.318 -21.543   8.170  0.00  0.00    -0.273 N 
ATOM     10  H   LIG    1       30.472 -22.537   8.246  0.00  0.00    +0.173 HD
ENDROOT
BRANCH   6  11
ATOM     11  C   LIG    1       31.828 -18.411   9.447  0.00  0.00    +0.223 C 
ATOM     12  O   LIG    1       32.158 -17.328   8.569  0.00  0.00    -0.356 OA
ATOM     13  C   LIG    1       32.053 -16.110   9.313  0.00  0.00    +0.162 C 
ATOM     14  C   LIG    1       31.050 -16.361  10.414  0.00  0.00    +0.033 C 
ATOM     15  C   LIG    1       31.261 -17.822  10.737  0.00  0.00    +0.057 C 
ENDBRANCH   6  11
TORSDOF 1
ENDMDL
MODEL 4
REMARK VINA RESULT:      -6.8      4.331      6.110
REMARK  Name = *****
REMARK                            x       y       z     vdW  Elec       q    Type
REMARK                         _______ _______ _______ _____ _____    ______ ____
ROOT
ATOM      1  O   LIG    1       27.568 -21.560   8.801  0.00  0.00    -0.265 OA
ATOM      2  C   LIG    1       26.662 -21.343   8.006  0.00  0.00    +0.289 C 
ATOM      3  C   LIG    1       26.891 -20.781   6.665  0.00  0.00    +0.204 C 
ATOM      4  F   LIG    1       28.161 -20.522   6.303  0.00  0.00    -0.198 F 
ATOM      5  C   LIG    1       25.857 -20.554   5.857  0.00  0.00    +0.137 C 
ATOM      6  N   LIG    1       24.549 -20.820   6.238  0.00  0.00    -0.271 N 
ATOM      7  C   LIG    1       24.266 -21.395   7.476  0.00  0.00    +0.332 C 
ATOM      8  O   LIG    1       23.149 -21.699   7.883  0.00  0.00    -0.246 OA
ATOM      9  N   LIG    1       25.350 -21.607   8.296  0.00  0.00    -0.273 N 
ATOM     10  H   LIG    1       25.153 -22.013   9.198  0.00  0.00    +0.173 HD
ENDROOT
BRANCH   6  11
ATOM     11  C   LIG    1       23.489 -20.615   5.250  0.00  0.00    +0.223 C 
ATOM     12  O   LIG    1       22.620 -19.578   5.720  0.00  0.00    -0.356 OA
ATOM     13  C   LIG    1       22.292 -18.740   4.608  0.00  0.00    +0.162 C 
ATOM     14  C   LIG    1       23.440 -18.848   3.632  0.00  0.00    +0.033 C 
ATOM     15  C   LIG    1       23.915 -20.270   3.824  0.00  0.00    +0.057 C 
ENDBRANCH   6  11
TORSDOF 1
ENDMDL
MODEL 5
REMARK VINA RESULT:      -6.8      5.382      7.883
REMARK  Name = *****
REMARK                            x       y       z     vdW  Elec       q    Type
REMARK                         _______ _______ _______ _____ _____    ______ ____
ROOT
ATOM      1  O   LIG    1       24.361 -26.914   5.435  0.00  0.00    -0.265 OA
ATOM      2  C   LIG    1       24.504 -25.806   5.940  0.00  0.00    +0.289 C 
ATOM      3  C   LIG    1       25.814 -25.279   6.355  0.00  0.00    +0.204 C 
ATOM      4  F   LIG    1       26.896 -26.050   6.141  0.00  0.00    -0.198 F 
ATOM      5  C   LIG    1       25.894 -24.073   6.914  0.00  0.00    +0.137 C 
ATOM      6  N   LIG    1       24.774 -23.284   7.135  0.00  0.00    -0.271 N 
ATOM      7  C   LIG    1       23.510 -23.704   6.725  0.00  0.00    +0.332 C 
ATOM      8  O   LIG    1       22.471 -23.061   6.844  0.00  0.00    -0.246 OA
ATOM      9  N   LIG    1       23.452 -24.958   6.163  0.00  0.00    -0.273 N 
ATOM     10  H   LIG    1       22.539 -25.274   5.872  0.00  0.00    +0.173 HD
ENDROOT
BRANCH   6  11
ATOM     11  C   LIG    1       24.975 -21.940   7.679  0.00  0.00    +0.223 C 
ATOM     12  O   LIG    1       26.044 -21.988   8.633  0.00  0.00    -0.356 OA
ATOM     13  C   LIG    1       26.857 -20.827   8.440  0.00  0.00    +0.162 C 
ATOM     14  C   LIG    1       26.695 -20.421   6.994  0.00  0.00    +0.033 C 
ATOM     15  C   LIG    1       25.270 -20.817   6.688  0.00  0.00    +0.057 C 
ENDBRANCH   6  11
TORSDOF 1
ENDMDL
MODEL 6
REMARK VINA RESULT:      -6.7      6.106      7.302
REMARK  Name = *****
REMARK                            x       y       z     vdW  Elec       q    Type
REMARK                         _______ _______ _______ _____ _____    ______ ____
ROOT
ATOM      1  O   LIG    1       26.057 -25.960   6.759  0.00  0.00    -0.265 OA
ATOM      2  C   LIG    1       25.730 -24.792   6.586  0.00  0.00    +0.289 C 
ATOM      3  C   LIG    1       25.110 -24.311   5.340  0.00  0.00    +0.204 C 
ATOM      4  F   LIG    1       24.877 -25.211   4.368  0.00  0.00    -0.198 F 
ATOM      5  C   LIG    1       24.796 -23.023   5.212  0.00  0.00    +0.137 C 
ATOM      6  N   LIG    1       25.043 -22.098   6.218  0.00  0.00    -0.271 N 
ATOM      7  C   LIG    1       25.586 -22.495   7.438  0.00  0.00    +0.332 C 
ATOM      8  O   LIG    1       25.804 -21.758   8.395  0.00  0.00    -0.246 OA
ATOM      9  N   LIG    1       25.913 -23.827   7.540  0.00  0.00    -0.273 N 
ATOM     10  H   LIG    1       26.316 -24.121   8.417  0.00  0.00    +0.173 HD
ENDROOT
BRANCH   6  11
ATOM     11  C   LIG    1       24.587 -20.723   6.014  0.00  0.00    +0.223 C 
ATOM     12  O   LIG    1       24.822 -20.359   4.648  0.00  0.00    -0.356 OA
ATOM     13  C   LIG    1       23.683 -19.630   4.184  0.00  0.00    +0.162 C 
ATOM     14  C   LIG    1       22.505 -20.099   5.006  0.00  0.00    +0.033 C 
ATOM     15  C   LIG    1       23.130 -20.409   6.346  0.00  0.00    +0.057 C 
ENDBRANCH   6  11
TORSDOF 1
ENDMDL
MODEL 7
REMARK VINA RESULT:      -6.7      4.637      7.302
REMARK  Name = *****
REMARK                            x       y       z     vdW  Elec       q    Type
REMARK                         _______ _______ _______ _____ _____    ______ ____
ROOT
ATOM      1  O   LIG    1       23.649 -25.839   6.195  0.00  0.00    -0.265 OA
ATOM      2  C   LIG    1       24.195 -24.787   6.506  0.00  0.00    +0.289 C 
ATOM      3  C   LIG    1       25.657 -24.612   6.498  0.00  0.00    +0.204 C 
ATOM      4  F   LIG    1       26.411 -25.655   6.107  0.00  0.00    -0.198 F 
ATOM      5  C   LIG    1       26.185 -23.445   6.865  0.00  0.00    +0.137 C 
ATOM      6  N   LIG    1       25.401 -22.374   7.271  0.00  0.00    -0.271 N 
ATOM      7  C   LIG    1       24.011 -22.458   7.258  0.00  0.00    +0.332 C 
ATOM      8  O   LIG    1       23.238 -21.554   7.563  0.00  0.00    -0.246 OA
ATOM      9  N   LIG    1       23.491 -23.677   6.888  0.00  0.00    -0.273 N 
ATOM     10  H   LIG    1       22.485 -23.750   6.885  0.00  0.00    +0.173 HD
ENDROOT
BRANCH   6  11
ATOM     11  C   LIG    1       26.071 -21.108   7.576  0.00  0.00    +0.223 C 
ATOM     12  O   LIG    1       27.231 -21.384   8.370  0.00  0.00    -0.356 OA
ATOM     13  C   LIG    1       28.296 -20.555   7.897  0.00  0.00    +0.162 C 
ATOM     14  C   LIG    1       28.007 -20.268   6.442  0.00  0.00    +0.033 C 
ATOM     15  C   LIG    1       26.497 -20.237   6.397  0.00  0.00    +0.057 C 
ENDBRANCH   6  11
TORSDOF 1
ENDMDL
MODEL 8
REMARK VINA RESULT:      -6.7      3.437      5.786
REMARK  Name = *****
REMARK                            x       y       z     vdW  Elec       q    Type
REMARK                         _______ _______ _______ _____ _____    ______ ____
ROOT
ATOM      1  O   LIG    1       23.349 -21.358   5.821  0.00  0.00    -0.265 OA
ATOM      2  C   LIG    1       24.428 -21.035   6.304  0.00  0.00    +0.289 C 
ATOM      3  C   LIG    1       25.591 -20.659   5.483  0.00  0.00    +0.204 C 
ATOM      4  F   LIG    1       25.438 -20.651   4.146  0.00  0.00    -0.198 F 
ATOM      5  C   LIG    1       26.740 -20.335   6.074  0.00  0.00    +0.137 C 
ATOM      6  N   LIG    1       26.892 -20.349   7.453  0.00  0.00    -0.271 N 
ATOM      7  C   LIG    1       25.819 -20.652   8.289  0.00  0.00    +0.332 C 
ATOM      8  O   LIG    1       25.848 -20.653   9.516  0.00  0.00    -0.246 OA
ATOM      9  N   LIG    1       24.647 -20.995   7.655  0.00  0.00    -0.273 N 
ATOM     10  H   LIG    1       23.868 -21.225   8.252  0.00  0.00    +0.173 HD
ENDROOT
BRANCH   6  11
ATOM     11  C   LIG    1       28.168 -19.898   8.009  0.00  0.00    +0.223 C 
ATOM     12  O   LIG    1       28.899 -21.043   8.466  0.00  0.00    -0.356 OA
ATOM     13  C   LIG    1       30.269 -20.869   8.091  0.00  0.00    +0.162 C 
ATOM     14  C   LIG    1       30.273 -19.983   6.868  0.00  0.00    +0.033 C 
ATOM     15  C   LIG    1       29.083 -19.082   7.099  0.00  0.00    +0.057 C 
ENDBRANCH   6  11
TORSDOF 1
ENDMDL
MODEL 9
REMARK VINA RESULT:      -6.5      1.961      2.163
REMARK  Name = *****
REMARK                            x       y       z     vdW  Elec       q    Type
REMARK                         _______ _______ _______ _____ _____    ______ ____
ROOT
ATOM      1  O   LIG    1       32.195 -18.617   7.219  0.00  0.00    -0.265 OA
ATOM      2  C   LIG    1       31.171 -19.285   7.304  0.00  0.00    +0.289 C 
ATOM      3  C   LIG    1       29.963 -19.002   6.512  0.00  0.00    +0.204 C 
ATOM      4  F   LIG    1       30.010 -17.976   5.643  0.00  0.00    -0.198 F 
ATOM      5  C   LIG    1       28.879 -19.759   6.668  0.00  0.00    +0.137 C 
ATOM      6  N   LIG    1       28.836 -20.813   7.569  0.00  0.00    -0.271 N 
ATOM      7  C   LIG    1       29.958 -21.163   8.317  0.00  0.00    +0.332 C 
ATOM      8  O   LIG    1       30.026 -22.099   9.108  0.00  0.00    -0.246 OA
ATOM      9  N   LIG    1       31.061 -20.358   8.147  0.00  0.00    -0.273 N 
ATOM     10  H   LIG    1       31.875 -20.598   8.692  0.00  0.00    +0.173 HD
ENDROOT
BRANCH   6  11
ATOM     11  C   LIG    1       27.626 -21.637   7.607  0.00  0.00    +0.223 C 
ATOM     12  O   LIG    1       27.008 -21.483   8.891  0.00  0.00    -0.356 OA
ATOM     13  C   LIG    1       25.595 -21.382   8.690  0.00  0.00    +0.162 C 
ATOM     14  C   LIG    1       25.395 -20.819   7.303  0.00  0.00    +0.033 C 
ATOM     15  C   LIG    1       26.568 -21.383   6.536  0.00  0.00    +0.057 C 
ENDBRANCH   6  11
TORSDOF 1
ENDMDL
