MODEL 1
REMARK VINA RESULT:      -7.8      0.000      0.000
REMARK  Name = *****
REMARK                            x       y       z     vdW  Elec       q    Type
REMARK                         _______ _______ _______ _____ _____    ______ ____
ROOT
ATOM      1  C   LIG    1       24.531 -20.239   4.566  0.00  0.00    +0.065 C 
ATOM      2  C   LIG    1       25.429 -21.311   5.232  0.00  0.00    +0.096 C 
ATOM      3  C   LIG    1       24.619 -22.382   5.972  0.00  0.00    +0.065 C 
ATOM      4  C   LIG    1       23.294 -22.209   6.207  0.00  0.00    +0.016 C 
ATOM      5  C   LIG    1       22.383 -23.202   6.883  0.00  0.00    +0.061 C 
ATOM      6  N   LIG    1       22.663 -21.065   5.759  0.00  0.00    -0.321 N 
ATOM      7  H   LIG    1       21.651 -21.037   5.859  0.00  0.00    +0.152 HD
ATOM      8  C   LIG    1       23.205 -20.166   4.860  0.00  0.00    +0.016 C 
ATOM      9  C   LIG    1       22.169 -19.219   4.293  0.00  0.00    +0.061 C 
ENDROOT
BRANCH   2  10
ATOM     10  C   LIG    1       26.525 -20.709   6.149  0.00  0.00    -0.029 A 
ATOM     11  C   LIG    1       27.715 -20.159   5.641  0.00  0.00    +0.088 A 
ATOM     12  C   LIG    1       28.673 -19.615   6.517  0.00  0.00    +0.273 A 
ATOM     13  C   LIG    1       28.463 -19.594   7.902  0.00  0.00    +0.084 A 
ATOM     14  C   LIG    1       27.279 -20.111   8.413  0.00  0.00    +0.007 A 
ATOM     15  C   LIG    1       26.328 -20.667   7.547  0.00  0.00    +0.005 A 
BRANCH  12  16
ATOM     16  N   LIG    1       29.917 -19.052   5.978  0.00  0.00    +0.080 N 
ATOM     17  O   LIG    1       30.989 -19.510   6.399  0.00  0.00    -0.576 OA
ATOM     18  O   LIG    1       29.825 -18.151   5.131  0.00  0.00    +0.041 OA
ENDBRANCH  12  16
ENDBRANCH   2  10
BRANCH   1  19
ATOM     19  C   LIG    1       25.255 -19.370   3.618  0.00  0.00    +0.338 C 
ATOM     20  O   LIG    1       25.842 -19.822   2.633  0.00  0.00    -0.245 OA
BRANCH  19  21
ATOM     21  O   LIG    1       25.300 -18.098   4.043  0.00  0.00    -0.459 OA
BRANCH  21  22
ATOM     22  C   LIG    1       26.197 -17.181   3.394  0.00  0.00    +0.260 C 
BRANCH  22  23
ATOM     23  C   LIG    1       25.747 -15.723   3.407  0.00  0.00    +0.200 C 
BRANCH  23  25
ATOM     24  C   LIG    1       27.374 -14.026   3.365  0.00  0.00    +0.194 C 
ATOM     25  O   LIG    1       26.626 -14.951   2.587  0.00  0.00    -0.380 OA
ENDBRANCH  23  25
ENDBRANCH  22  23
ENDBRANCH  21  22
ENDBRANCH  19  21
ENDBRANCH   1  19
BRANCH   3  26
ATOM     26  C   LIG    1       25.373 -23.619   6.319  0.00  0.00    +0.338 C 
ATOM     27  O   LIG    1       25.921 -23.802   7.397  0.00  0.00    -0.245 OA
BRANCH  26  28
ATOM     28  O   LIG    1       25.307 -24.517   5.315  0.00  0.00    -0.459 OA
BRANCH  28  29
ATOM     29  C   LIG    1       25.477 -25.899   5.657  0.00  0.00    +0.171 C 
ATOM     30  C   LIG    1       25.968 -26.613   4.405  0.00  0.00    +0.051 C 
ATOM     31  C   LIG    1       24.125 -26.424   6.120  0.00  0.00    +0.051 C 
ENDBRANCH  28  29
ENDBRANCH  26  28
ENDBRANCH   3  26
TORSDOF 10
ENDMDL
MODEL 2
REMARK VINA RESULT:      -6.5      2.351      5.266
REMARK  Name = *****
REMARK                            x       y       z     vdW  Elec       q    Type
REMARK                         _______ _______ _______ _____ _____    ______ ____
ROOT
ATOM      1  C   LIG    1       24.395 -20.104   5.110  0.00  0.00    +0.065 C 
ATOM      2  C   LIG    1       24.945 -20.876   6.335  0.00  0.00    +0.096 C 
ATOM      3  C   LIG    1       26.454 -20.687   6.523  0.00  0.00    +0.065 C 
ATOM      4  C   LIG    1       27.208 -20.121   5.547  0.00  0.00    +0.016 C 
ATOM      5  C   LIG    1       28.688 -19.843   5.627  0.00  0.00    +0.061 C 
ATOM      6  N   LIG    1       26.607 -19.693   4.380  0.00  0.00    -0.321 N 
ATOM      7  H   LIG    1       27.194 -19.174   3.731  0.00  0.00    +0.152 HD
ATOM      8  C   LIG    1       25.244 -19.558   4.197  0.00  0.00    +0.016 C 
ATOM      9  C   LIG    1       24.902 -18.748   2.965  0.00  0.00    +0.061 C 
ENDROOT
BRANCH   2  10
ATOM     10  C   LIG    1       24.567 -22.380   6.333  0.00  0.00    -0.029 A 
ATOM     11  C   LIG    1       25.432 -23.374   5.842  0.00  0.00    +0.088 A 
ATOM     12  C   LIG    1       25.045 -24.727   5.874  0.00  0.00    +0.273 A 
ATOM     13  C   LIG    1       23.809 -25.117   6.404  0.00  0.00    +0.084 A 
ATOM     14  C   LIG    1       22.958 -24.146   6.917  0.00  0.00    +0.007 A 
ATOM     15  C   LIG    1       23.331 -22.796   6.875  0.00  0.00    +0.005 A 
BRANCH  12  16
ATOM     16  N   LIG    1       25.950 -25.756   5.347  0.00  0.00    +0.080 N 
ATOM     17  O   LIG    1       25.734 -26.187   4.206  0.00  0.00    -0.576 OA
ATOM     18  O   LIG    1       26.880 -26.136   6.076  0.00  0.00    +0.041 OA
ENDBRANCH  12  16
ENDBRANCH   2  10
BRANCH   1  19
ATOM     19  C   LIG    1       22.922 -20.032   5.071  0.00  0.00    +0.338 C 
ATOM     20  O   LIG    1       22.236 -20.927   4.572  0.00  0.00    -0.245 OA
BRANCH  19  21
ATOM     21  O   LIG    1       22.468 -18.846   5.505  0.00  0.00    -0.459 OA
BRANCH  21  22
ATOM     22  C   LIG    1       22.032 -17.874   4.540  0.00  0.00    +0.260 C 
BRANCH  22  23
ATOM     23  C   LIG    1       22.322 -16.423   4.913  0.00  0.00    +0.200 C 
BRANCH  23  25
ATOM     24  C   LIG    1       23.621 -14.570   4.271  0.00  0.00    +0.194 C 
ATOM     25  O   LIG    1       23.494 -15.985   4.224  0.00  0.00    -0.380 OA
ENDBRANCH  23  25
ENDBRANCH  22  23
ENDBRANCH  21  22
ENDBRANCH  19  21
ENDBRANCH   1  19
BRANCH   3  26
ATOM     26  C   LIG    1       26.981 -21.088   7.857  0.00  0.00    +0.338 C 
ATOM     27  O   LIG    1       26.307 -21.110   8.877  0.00  0.00    -0.245 OA
BRANCH  26  28
ATOM     28  O   LIG    1       28.268 -21.480   7.764  0.00  0.00    -0.459 OA
BRANCH  28  29
ATOM     29  C   LIG    1       29.176 -21.000   8.765  0.00  0.00    +0.171 C 
ATOM     30  C   LIG    1       29.412 -19.523   8.484  0.00  0.00    +0.051 C 
ATOM     31  C   LIG    1       30.457 -21.815   8.649  0.00  0.00    +0.051 C 
ENDBRANCH  28  29
ENDBRANCH  26  28
ENDBRANCH   3  26
TORSDOF 10
ENDMDL
MODEL 3
REMARK VINA RESULT:      -6.2      6.856     11.591
REMARK  Name = *****
REMARK                            x       y       z     vdW  Elec       q    Type
REMARK                         _______ _______ _______ _____ _____    ______ ____
ROOT
ATOM      1  C   LIG    1       25.188 -31.020   6.500  0.00  0.00    +0.065 C 
ATOM      2  C   LIG    1       25.286 -31.072   8.045  0.00  0.00    +0.096 C 
ATOM      3  C   LIG    1       26.389 -32.016   8.536  0.00  0.00    +0.065 C 
ATOM      4  C   LIG    1       26.993 -32.879   7.681  0.00  0.00    +0.016 C 
ATOM      5  C   LIG    1       28.114 -33.825   8.029  0.00  0.00    +0.061 C 
ATOM      6  N   LIG    1       26.623 -32.894   6.350  0.00  0.00    -0.321 N 
ATOM      7  H   LIG    1       27.183 -33.476   5.730  0.00  0.00    +0.152 HD
ATOM      8  C   LIG    1       25.852 -31.927   5.734  0.00  0.00    +0.016 C 
ATOM      9  C   LIG    1       25.906 -32.019   4.224  0.00  0.00    +0.061 C 
ENDROOT
BRANCH   2  10
ATOM     10  C   LIG    1       23.934 -31.388   8.736  0.00  0.00    -0.029 A 
ATOM     11  C   LIG    1       23.361 -30.538   9.698  0.00  0.00    +0.088 A 
ATOM     12  C   LIG    1       22.125 -30.867  10.286  0.00  0.00    +0.273 A 
ATOM     13  C   LIG    1       21.432 -32.029   9.921  0.00  0.00    +0.084 A 
ATOM     14  C   LIG    1       21.977 -32.862   8.951  0.00  0.00    +0.007 A 
ATOM     15  C   LIG    1       23.213 -32.548   8.373  0.00  0.00    +0.005 A 
BRANCH  12  16
ATOM     16  N   LIG    1       21.541 -29.979  11.299  0.00  0.00    +0.080 N 
ATOM     17  O   LIG    1       20.329 -30.088  11.533  0.00  0.00    -0.576 OA
ATOM     18  O   LIG    1       22.294 -29.170  11.862  0.00  0.00    +0.041 OA
ENDBRANCH  12  16
ENDBRANCH   2  10
BRANCH   1  19
ATOM     19  C   LIG    1       24.344 -29.919   5.999  0.00  0.00    +0.338 C 
ATOM     20  O   LIG    1       23.148 -30.075   5.745  0.00  0.00    -0.245 OA
BRANCH  19  21
ATOM     21  O   LIG    1       25.064 -28.817   5.738  0.00  0.00    -0.459 OA
BRANCH  21  22
ATOM     22  C   LIG    1       24.720 -27.590   6.400  0.00  0.00    +0.260 C 
BRANCH  22  23
ATOM     23  C   LIG    1       25.883 -26.624   6.609  0.00  0.00    +0.200 C 
BRANCH  23  25
ATOM     24  C   LIG    1       25.125 -25.131   4.958  0.00  0.00    +0.194 C 
ATOM     25  O   LIG    1       26.188 -25.978   5.372  0.00  0.00    -0.380 OA
ENDBRANCH  23  25
ENDBRANCH  22  23
ENDBRANCH  21  22
ENDBRANCH  19  21
ENDBRANCH   1  19
BRANCH   3  26
ATOM     26  C   LIG    1       26.781 -31.845   9.963  0.00  0.00    +0.338 C 
ATOM     27  O   LIG    1       26.392 -32.571  10.867  0.00  0.00    -0.245 OA
BRANCH  26  28
ATOM     28  O   LIG    1       27.664 -30.834  10.098  0.00  0.00    -0.459 OA
BRANCH  28  29
ATOM     29  C   LIG    1       27.289 -29.744  10.951  0.00  0.00    +0.171 C 
ATOM     30  C   LIG    1       26.851 -28.599  10.049  0.00  0.00    +0.051 C 
ATOM     31  C   LIG    1       28.507 -29.379  11.787  0.00  0.00    +0.051 C 
ENDBRANCH  28  29
ENDBRANCH  26  28
ENDBRANCH   3  26
TORSDOF 10
ENDMDL
MODEL 4
REMARK VINA RESULT:      -5.9      7.651     12.704
REMARK  Name = *****
REMARK                            x       y       z     vdW  Elec       q    Type
REMARK                         _______ _______ _______ _____ _____    ______ ____
ROOT
ATOM      1  C   LIG    1       24.266 -30.743   9.434  0.00  0.00    +0.065 C 
ATOM      2  C   LIG    1       23.174 -30.367  10.466  0.00  0.00    +0.096 C 
ATOM      3  C   LIG    1       23.734 -30.197  11.883  0.00  0.00    +0.065 C 
ATOM      4  C   LIG    1       24.993 -30.603  12.183  0.00  0.00    +0.016 C 
ATOM      5  C   LIG    1       25.671 -30.453  13.521  0.00  0.00    +0.061 C 
ATOM      6  N   LIG    1       25.786 -31.158  11.198  0.00  0.00    -0.321 N 
ATOM      7  H   LIG    1       26.756 -31.339  11.446  0.00  0.00    +0.152 HD
ATOM      8  C   LIG    1       25.507 -31.120   9.845  0.00  0.00    +0.016 C 
ATOM      9  C   LIG    1       26.705 -31.488   8.997  0.00  0.00    +0.061 C 
ENDROOT
BRANCH   2  10
ATOM     10  C   LIG    1       21.963 -31.337  10.458  0.00  0.00    -0.029 A 
ATOM     11  C   LIG    1       20.634 -30.883  10.419  0.00  0.00    +0.088 A 
ATOM     12  C   LIG    1       19.570 -31.806  10.402  0.00  0.00    +0.273 A 
ATOM     13  C   LIG    1       19.807 -33.186  10.408  0.00  0.00    +0.084 A 
ATOM     14  C   LIG    1       21.118 -33.647  10.418  0.00  0.00    +0.007 A 
ATOM     15  C   LIG    1       22.179 -32.733  10.451  0.00  0.00    +0.005 A 
BRANCH  12  16
ATOM     16  N   LIG    1       18.185 -31.321  10.374  0.00  0.00    +0.080 N 
ATOM     17  O   LIG    1       17.749 -30.881   9.301  0.00  0.00    -0.576 OA
ATOM     18  O   LIG    1       17.530 -31.380  11.426  0.00  0.00    +0.041 OA
ENDBRANCH  12  16
ENDBRANCH   2  10
BRANCH   1  19
ATOM     19  C   LIG    1       23.817 -30.632   8.033  0.00  0.00    +0.338 C 
ATOM     20  O   LIG    1       23.619 -31.624   7.329  0.00  0.00    -0.245 OA
BRANCH  19  21
ATOM     21  O   LIG    1       23.795 -29.357   7.615  0.00  0.00    -0.459 OA
BRANCH  21  22
ATOM     22  C   LIG    1       24.885 -28.869   6.816  0.00  0.00    +0.260 C 
BRANCH  22  23
ATOM     23  C   LIG    1       24.477 -28.241   5.486  0.00  0.00    +0.200 C 
BRANCH  23  25
ATOM     24  C   LIG    1       25.367 -26.119   5.001  0.00  0.00    +0.194 C 
ATOM     25  O   LIG    1       24.327 -26.831   5.658  0.00  0.00    -0.380 OA
ENDBRANCH  23  25
ENDBRANCH  22  23
ENDBRANCH  21  22
ENDBRANCH  19  21
ENDBRANCH   1  19
BRANCH   3  26
ATOM     26  C   LIG    1       22.833 -29.495  12.839  0.00  0.00    +0.338 C 
ATOM     27  O   LIG    1       22.338 -30.026  13.823  0.00  0.00    -0.245 OA
BRANCH  26  28
ATOM     28  O   LIG    1       22.701 -28.194  12.504  0.00  0.00    -0.459 OA
BRANCH  28  29
ATOM     29  C   LIG    1       22.222 -27.300  13.518  0.00  0.00    +0.171 C 
ATOM     30  C   LIG    1       20.836 -26.840  13.089  0.00  0.00    +0.051 C 
ATOM     31  C   LIG    1       23.206 -26.142  13.607  0.00  0.00    +0.051 C 
ENDBRANCH  28  29
ENDBRANCH  26  28
ENDBRANCH   3  26
TORSDOF 10
ENDMDL
MODEL 5
REMARK VINA RESULT:      -5.7      7.081     11.579
REMARK  Name = *****
REMARK                            x       y       z     vdW  Elec       q    Type
REMARK                         _______ _______ _______ _____ _____    ______ ____
ROOT
ATOM      1  C   LIG    1       23.753 -30.916   8.811  0.00  0.00    +0.065 C 
ATOM      2  C   LIG    1       24.505 -29.561   8.809  0.00  0.00    +0.096 C 
ATOM      3  C   LIG    1       25.040 -29.185   7.422  0.00  0.00    +0.065 C 
ATOM      4  C   LIG    1       25.056 -30.095   6.416  0.00  0.00    +0.016 C 
ATOM      5  C   LIG    1       25.516 -29.838   5.003  0.00  0.00    +0.061 C 
ATOM      6  N   LIG    1       24.569 -31.368   6.637  0.00  0.00    -0.321 N 
ATOM      7  H   LIG    1       24.498 -31.974   5.823  0.00  0.00    +0.152 HD
ATOM      8  C   LIG    1       23.823 -31.748   7.737  0.00  0.00    +0.016 C 
ATOM      9  C   LIG    1       23.140 -33.084   7.540  0.00  0.00    +0.061 C 
ENDROOT
BRANCH   2  10
ATOM     10  C   LIG    1       25.624 -29.479   9.879  0.00  0.00    -0.029 A 
ATOM     11  C   LIG    1       25.501 -28.696  11.040  0.00  0.00    +0.088 A 
ATOM     12  C   LIG    1       26.544 -28.665  11.986  0.00  0.00    +0.273 A 
ATOM     13  C   LIG    1       27.711 -29.417  11.806  0.00  0.00    +0.084 A 
ATOM     14  C   LIG    1       27.832 -30.216  10.675  0.00  0.00    +0.007 A 
ATOM     15  C   LIG    1       26.805 -30.239   9.723  0.00  0.00    +0.005 A 
BRANCH  12  16
ATOM     16  N   LIG    1       26.410 -27.835  13.190  0.00  0.00    +0.080 N 
ATOM     17  O   LIG    1       26.060 -28.392  14.240  0.00  0.00    -0.576 OA
ATOM     18  O   LIG    1       26.656 -26.623  13.087  0.00  0.00    +0.041 OA
ENDBRANCH  12  16
ENDBRANCH   2  10
BRANCH   1  19
ATOM     19  C   LIG    1       22.989 -31.164  10.048  0.00  0.00    +0.338 C 
ATOM     20  O   LIG    1       23.446 -31.831  10.978  0.00  0.00    -0.245 OA
BRANCH  19  21
ATOM     21  O   LIG    1       21.732 -30.702   9.959  0.00  0.00    -0.459 OA
BRANCH  21  22
ATOM     22  C   LIG    1       20.994 -30.460  11.168  0.00  0.00    +0.260 C 
BRANCH  22  23
ATOM     23  C   LIG    1       19.808 -31.394  11.396  0.00  0.00    +0.200 C 
BRANCH  23  25
ATOM     24  C   LIG    1       18.084 -31.248   9.802  0.00  0.00    +0.194 C 
ATOM     25  O   LIG    1       19.325 -31.857  10.134  0.00  0.00    -0.380 OA
ENDBRANCH  23  25
ENDBRANCH  22  23
ENDBRANCH  21  22
ENDBRANCH  19  21
ENDBRANCH   1  19
BRANCH   3  26
ATOM     26  C   LIG    1       25.444 -27.760   7.265  0.00  0.00    +0.338 C 
ATOM     27  O   LIG    1       26.491 -27.298   7.696  0.00  0.00    -0.245 OA
BRANCH  26  28
ATOM     28  O   LIG    1       24.535 -27.084   6.533  0.00  0.00    -0.459 OA
BRANCH  28  29
ATOM     29  C   LIG    1       24.873 -25.747   6.137  0.00  0.00    +0.171 C 
ATOM     30  C   LIG    1       23.660 -24.874   6.429  0.00  0.00    +0.051 C 
ATOM     31  C   LIG    1       25.207 -25.781   4.652  0.00  0.00    +0.051 C 
ENDBRANCH  28  29
ENDBRANCH  26  28
ENDBRANCH   3  26
TORSDOF 10
ENDMDL
MODEL 6
REMARK VINA RESULT:      -5.6      6.866     11.387
REMARK  Name = *****
REMARK                            x       y       z     vdW  Elec       q    Type
REMARK                         _______ _______ _______ _____ _____    ______ ____
ROOT
ATOM      1  C   LIG    1       25.429 -29.431   8.886  0.00  0.00    +0.065 C 
ATOM      2  C   LIG    1       24.675 -30.717   8.464  0.00  0.00    +0.096 C 
ATOM      3  C   LIG    1       24.272 -31.584   9.662  0.00  0.00    +0.065 C 
ATOM      4  C   LIG    1       24.778 -31.339  10.896  0.00  0.00    +0.016 C 
ATOM      5  C   LIG    1       24.430 -32.089  12.157  0.00  0.00    +0.061 C 
ATOM      6  N   LIG    1       25.652 -30.284  11.080  0.00  0.00    -0.321 N 
ATOM      7  H   LIG    1       25.912 -30.074  12.041  0.00  0.00    +0.152 HD
ATOM      8  C   LIG    1       25.880 -29.279  10.160  0.00  0.00    +0.016 C 
ATOM      9  C   LIG    1       26.602 -28.094  10.765  0.00  0.00    +0.061 C 
ENDROOT
BRANCH   2  10
ATOM     10  C   LIG    1       25.434 -31.553   7.401  0.00  0.00    -0.029 A 
ATOM     11  C   LIG    1       24.880 -31.858   6.146  0.00  0.00    +0.088 A 
ATOM     12  C   LIG    1       25.616 -32.612   5.212  0.00  0.00    +0.273 A 
ATOM     13  C   LIG    1       26.912 -33.060   5.499  0.00  0.00    +0.084 A 
ATOM     14  C   LIG    1       27.479 -32.740   6.727  0.00  0.00    +0.007 A 
ATOM     15  C   LIG    1       26.746 -32.004   7.665  0.00  0.00    +0.005 A 
BRANCH  12  16
ATOM     16  N   LIG    1       25.024 -32.935   3.908  0.00  0.00    +0.080 N 
ATOM     17  O   LIG    1       23.983 -33.607   3.897  0.00  0.00    -0.576 OA
ATOM     18  O   LIG    1       25.600 -32.518   2.892  0.00  0.00    +0.041 OA
ENDBRANCH  12  16
ENDBRANCH   2  10
BRANCH   1  19
ATOM     19  C   LIG    1       25.574 -28.448   7.795  0.00  0.00    +0.338 C 
ATOM     20  O   LIG    1       26.572 -27.733   7.687  0.00  0.00    -0.245 OA
BRANCH  19  21
ATOM     21  O   LIG    1       24.456 -28.350   7.059  0.00  0.00    -0.459 OA
BRANCH  21  22
ATOM     22  C   LIG    1       24.572 -28.103   5.649  0.00  0.00    +0.260 C 
BRANCH  22  23
ATOM     23  C   LIG    1       24.413 -26.642   5.237  0.00  0.00    +0.200 C 
BRANCH  23  25
ATOM     24  C   LIG    1       24.382 -24.666   6.513  0.00  0.00    +0.194 C 
ATOM     25  O   LIG    1       23.761 -25.925   6.287  0.00  0.00    -0.380 OA
ENDBRANCH  23  25
ENDBRANCH  22  23
ENDBRANCH  21  22
ENDBRANCH  19  21
ENDBRANCH   1  19
BRANCH   3  26
ATOM     26  C   LIG    1       23.247 -32.626   9.373  0.00  0.00    +0.338 C 
ATOM     27  O   LIG    1       23.491 -33.823   9.320  0.00  0.00    -0.245 OA
BRANCH  26  28
ATOM     28  O   LIG    1       22.024 -32.072   9.249  0.00  0.00    -0.459 OA
BRANCH  28  29
ATOM     29  C   LIG    1       21.153 -32.139  10.386  0.00  0.00    +0.171 C 
ATOM     30  C   LIG    1       20.036 -33.113  10.037  0.00  0.00    +0.051 C 
ATOM     31  C   LIG    1       20.625 -30.734  10.641  0.00  0.00    +0.051 C 
ENDBRANCH  28  29
ENDBRANCH  26  28
ENDBRANCH   3  26
TORSDOF 10
ENDMDL
MODEL 7
REMARK VINA RESULT:      -5.6      2.708      5.629
REMARK  Name = *****
REMARK                            x       y       z     vdW  Elec       q    Type
REMARK                         _______ _______ _______ _____ _____    ______ ____
ROOT
ATOM      1  C   LIG    1       24.382 -20.247   5.099  0.00  0.00    +0.065 C 
ATOM      2  C   LIG    1       24.940 -21.009   6.327  0.00  0.00    +0.096 C 
ATOM      3  C   LIG    1       26.444 -20.791   6.524  0.00  0.00    +0.065 C 
ATOM      4  C   LIG    1       27.192 -20.208   5.554  0.00  0.00    +0.016 C 
ATOM      5  C   LIG    1       28.665 -19.900   5.643  0.00  0.00    +0.061 C 
ATOM      6  N   LIG    1       26.590 -19.790   4.384  0.00  0.00    -0.321 N 
ATOM      7  H   LIG    1       27.171 -19.258   3.740  0.00  0.00    +0.152 HD
ATOM      8  C   LIG    1       25.226 -19.682   4.193  0.00  0.00    +0.016 C 
ATOM      9  C   LIG    1       24.875 -18.876   2.960  0.00  0.00    +0.061 C 
ENDROOT
BRANCH   2  10
ATOM     10  C   LIG    1       24.593 -22.521   6.319  0.00  0.00    -0.029 A 
ATOM     11  C   LIG    1       25.480 -23.496   5.832  0.00  0.00    +0.088 A 
ATOM     12  C   LIG    1       25.120 -24.857   5.859  0.00  0.00    +0.273 A 
ATOM     13  C   LIG    1       23.889 -25.273   6.380  0.00  0.00    +0.084 A 
ATOM     14  C   LIG    1       23.015 -24.320   6.890  0.00  0.00    +0.007 A 
ATOM     15  C   LIG    1       23.361 -22.963   6.852  0.00  0.00    +0.005 A 
BRANCH  12  16
ATOM     16  N   LIG    1       26.049 -25.867   5.337  0.00  0.00    +0.080 N 
ATOM     17  O   LIG    1       27.004 -26.199   6.054  0.00  0.00    -0.576 OA
ATOM     18  O   LIG    1       25.826 -26.330   4.208  0.00  0.00    +0.041 OA
ENDBRANCH  12  16
ENDBRANCH   2  10
BRANCH   1  19
ATOM     19  C   LIG    1       22.908 -20.204   5.051  0.00  0.00    +0.338 C 
ATOM     20  O   LIG    1       22.248 -21.059   4.457  0.00  0.00    -0.245 OA
BRANCH  19  21
ATOM     21  O   LIG    1       22.423 -19.079   5.599  0.00  0.00    -0.459 OA
BRANCH  21  22
ATOM     22  C   LIG    1       22.161 -17.951   4.749  0.00  0.00    +0.260 C 
BRANCH  22  23
ATOM     23  C   LIG    1       21.452 -18.283   3.439  0.00  0.00    +0.200 C 
BRANCH  23  25
ATOM     24  C   LIG    1       19.230 -18.257   2.667  0.00  0.00    +0.194 C 
ATOM     25  O   LIG    1       20.101 -18.658   3.716  0.00  0.00    -0.380 OA
ENDBRANCH  23  25
ENDBRANCH  22  23
ENDBRANCH  21  22
ENDBRANCH  19  21
ENDBRANCH   1  19
BRANCH   3  26
ATOM     26  C   LIG    1       26.971 -21.184   7.861  0.00  0.00    +0.338 C 
ATOM     27  O   LIG    1       26.292 -21.216   8.878  0.00  0.00    -0.245 OA
BRANCH  26  28
ATOM     28  O   LIG    1       28.264 -21.557   7.774  0.00  0.00    -0.459 OA
BRANCH  28  29
ATOM     29  C   LIG    1       29.164 -21.047   8.767  0.00  0.00    +0.171 C 
ATOM     30  C   LIG    1       29.319 -19.555   8.508  0.00  0.00    +0.051 C 
ATOM     31  C   LIG    1       30.482 -21.793   8.615  0.00  0.00    +0.051 C 
ENDBRANCH  28  29
ENDBRANCH  26  28
ENDBRANCH   3  26
TORSDOF 10
ENDMDL
MODEL 8
REMARK VINA RESULT:      -5.4      7.082     11.696
REMARK  Name = *****
REMARK                            x       y       z     vdW  Elec       q    Type
REMARK                         _______ _______ _______ _____ _____    ______ ____
ROOT
ATOM      1  C   LIG    1       23.758 -30.934   8.752  0.00  0.00    +0.065 C 
ATOM      2  C   LIG    1       24.496 -29.573   8.766  0.00  0.00    +0.096 C 
ATOM      3  C   LIG    1       25.034 -29.179   7.385  0.00  0.00    +0.065 C 
ATOM      4  C   LIG    1       25.065 -30.080   6.372  0.00  0.00    +0.016 C 
ATOM      5  C   LIG    1       25.530 -29.807   4.964  0.00  0.00    +0.061 C 
ATOM      6  N   LIG    1       24.589 -31.360   6.579  0.00  0.00    -0.321 N 
ATOM      7  H   LIG    1       24.529 -31.960   5.759  0.00  0.00    +0.152 HD
ATOM      8  C   LIG    1       23.842 -31.757   7.672  0.00  0.00    +0.016 C 
ATOM      9  C   LIG    1       23.173 -33.098   7.459  0.00  0.00    +0.061 C 
ENDROOT
BRANCH   2  10
ATOM     10  C   LIG    1       25.609 -29.488   9.843  0.00  0.00    -0.029 A 
ATOM     11  C   LIG    1       25.458 -28.746  11.027  0.00  0.00    +0.088 A 
ATOM     12  C   LIG    1       26.496 -28.711  11.978  0.00  0.00    +0.273 A 
ATOM     13  C   LIG    1       27.687 -29.421  11.779  0.00  0.00    +0.084 A 
ATOM     14  C   LIG    1       27.836 -30.180  10.624  0.00  0.00    +0.007 A 
ATOM     15  C   LIG    1       26.813 -30.206   9.668  0.00  0.00    +0.005 A 
BRANCH  12  16
ATOM     16  N   LIG    1       26.333 -27.924  13.205  0.00  0.00    +0.080 N 
ATOM     17  O   LIG    1       25.260 -27.327  13.371  0.00  0.00    -0.576 OA
ATOM     18  O   LIG    1       27.280 -27.900  14.007  0.00  0.00    +0.041 OA
ENDBRANCH  12  16
ENDBRANCH   2  10
BRANCH   1  19
ATOM     19  C   LIG    1       22.990 -31.201   9.983  0.00  0.00    +0.338 C 
ATOM     20  O   LIG    1       22.103 -30.442  10.378  0.00  0.00    -0.245 OA
BRANCH  19  21
ATOM     21  O   LIG    1       23.471 -32.260  10.653  0.00  0.00    -0.459 OA
BRANCH  21  22
ATOM     22  C   LIG    1       23.634 -32.165  12.077  0.00  0.00    +0.260 C 
BRANCH  22  23
ATOM     23  C   LIG    1       25.082 -32.118  12.557  0.00  0.00    +0.200 C 
BRANCH  23  25
ATOM     24  C   LIG    1       26.383 -31.596  14.445  0.00  0.00    +0.194 C 
ATOM     25  O   LIG    1       25.152 -31.369  13.771  0.00  0.00    -0.380 OA
ENDBRANCH  23  25
ENDBRANCH  22  23
ENDBRANCH  21  22
ENDBRANCH  19  21
ENDBRANCH   1  19
BRANCH   3  26
ATOM     26  C   LIG    1       25.425 -27.749   7.242  0.00  0.00    +0.338 C 
ATOM     27  O   LIG    1       26.484 -27.289   7.646  0.00  0.00    -0.245 OA
BRANCH  26  28
ATOM     28  O   LIG    1       24.488 -27.064   6.555  0.00  0.00    -0.459 OA
BRANCH  28  29
ATOM     29  C   LIG    1       24.822 -25.734   6.136  0.00  0.00    +0.171 C 
ATOM     30  C   LIG    1       23.638 -24.844   6.488  0.00  0.00    +0.051 C 
ATOM     31  C   LIG    1       25.077 -25.778   4.636  0.00  0.00    +0.051 C 
ENDBRANCH  28  29
ENDBRANCH  26  28
ENDBRANCH   3  26
TORSDOF 10
ENDMDL
MODEL 9
REMARK VINA RESULT:      -5.3      9.658     12.033
REMARK  Name = *****
REMARK                            x       y       z     vdW  Elec       q    Type
REMARK                         _______ _______ _______ _____ _____    ______ ____
ROOT
ATOM      1  C   LIG    1       26.270 -29.584  12.144  0.00  0.00    +0.065 C 
ATOM      2  C   LIG    1       24.930 -29.723  11.381  0.00  0.00    +0.096 C 
ATOM      3  C   LIG    1       23.850 -30.429  12.208  0.00  0.00    +0.065 C 
ATOM      4  C   LIG    1       24.169 -31.072  13.359  0.00  0.00    +0.016 C 
ATOM      5  C   LIG    1       23.197 -31.766  14.279  0.00  0.00    +0.061 C 
ATOM      6  N   LIG    1       25.477 -31.074  13.801  0.00  0.00    -0.321 N 
ATOM      7  H   LIG    1       25.643 -31.470  14.724  0.00  0.00    +0.152 HD
ATOM      8  C   LIG    1       26.480 -30.263  13.305  0.00  0.00    +0.016 C 
ATOM      9  C   LIG    1       27.697 -30.232  14.204  0.00  0.00    +0.061 C 
ENDROOT
BRANCH   2  10
ATOM     10  C   LIG    1       25.084 -30.383   9.985  0.00  0.00    -0.029 A 
ATOM     11  C   LIG    1       24.693 -29.738   8.799  0.00  0.00    +0.088 A 
ATOM     12  C   LIG    1       24.865 -30.377   7.556  0.00  0.00    +0.273 A 
ATOM     13  C   LIG    1       25.439 -31.652   7.468  0.00  0.00    +0.084 A 
ATOM     14  C   LIG    1       25.854 -32.287   8.633  0.00  0.00    +0.007 A 
ATOM     15  C   LIG    1       25.671 -31.662   9.873  0.00  0.00    +0.005 A 
BRANCH  12  16
ATOM     16  N   LIG    1       24.443 -29.700   6.324  0.00  0.00    +0.080 N 
ATOM     17  O   LIG    1       23.309 -29.946   5.889  0.00  0.00    -0.576 OA
ATOM     18  O   LIG    1       25.245 -28.921   5.788  0.00  0.00    +0.041 OA
ENDBRANCH  12  16
ENDBRANCH   2  10
BRANCH   1  19
ATOM     19  C   LIG    1       27.227 -28.667  11.495  0.00  0.00    +0.338 C 
ATOM     20  O   LIG    1       28.285 -29.065  11.005  0.00  0.00    -0.245 OA
BRANCH  19  21
ATOM     21  O   LIG    1       26.862 -27.383  11.637  0.00  0.00    -0.459 OA
BRANCH  21  22
ATOM     22  C   LIG    1       27.026 -26.752  12.917  0.00  0.00    +0.260 C 
BRANCH  22  23
ATOM     23  C   LIG    1       26.103 -25.564  13.172  0.00  0.00    +0.200 C 
BRANCH  23  25
ATOM     24  C   LIG    1       25.054 -27.065  14.647  0.00  0.00    +0.194 C 
ATOM     25  O   LIG    1       24.857 -26.037  13.686  0.00  0.00    -0.380 OA
ENDBRANCH  23  25
ENDBRANCH  22  23
ENDBRANCH  21  22
ENDBRANCH  19  21
ENDBRANCH   1  19
BRANCH   3  26
ATOM     26  C   LIG    1       22.460 -30.278  11.695  0.00  0.00    +0.338 C 
ATOM     27  O   LIG    1       21.787 -31.206  11.268  0.00  0.00    -0.245 OA
BRANCH  26  28
ATOM     28  O   LIG    1       22.036 -29.004  11.830  0.00  0.00    -0.459 OA
BRANCH  28  29
ATOM     29  C   LIG    1       21.713 -28.556  13.154  0.00  0.00    +0.171 C 
ATOM     30  C   LIG    1       20.387 -29.201  13.533  0.00  0.00    +0.051 C 
ATOM     31  C   LIG    1       21.617 -27.038  13.111  0.00  0.00    +0.051 C 
ENDBRANCH  28  29
ENDBRANCH  26  28
ENDBRANCH   3  26
TORSDOF 10
ENDMDL
