MODEL 1
REMARK VINA RESULT:      -4.5      0.000      0.000
REMARK  Name = *****
REMARK                            x       y       z     vdW  Elec       q    Type
REMARK                         _______ _______ _______ _____ _____    ______ ____
ROOT
ATOM      1  O   LIG    1       24.278 -16.615   3.622  0.00  0.00    -0.461 OA
ENDROOT
BRANCH   1   9
ATOM      2  C   LIG    1       25.287 -11.459   2.231  0.00  0.00    +0.193 C 
ATOM      3  N   LIG    1       25.052 -12.911   2.684  0.00  0.00    +0.247 N 
ATOM      4  C   LIG    1       26.382 -13.712   2.649  0.00  0.00    +0.102 C 
ATOM      5  C   LIG    1       27.192 -13.174   3.818  0.00  0.00    +0.201 C 
ATOM      6  C   LIG    1       26.182 -12.693   4.830  0.00  0.00    +0.201 C 
ATOM      7  O   LIG    1       27.053 -13.789   5.096  0.00  0.00    -0.357 OA
ATOM      8  C   LIG    1       26.060 -15.203   2.823  0.00  0.00    +0.102 C 
ATOM      9  C   LIG    1       25.158 -15.538   4.033  0.00  0.00    +0.187 C 
ATOM     10  C   LIG    1       24.301 -14.366   4.586  0.00  0.00    +0.102 C 
ATOM     11  C   LIG    1       24.817 -12.965   4.218  0.00  0.00    +0.102 C 
ATOM     12  C   LIG    1       23.923 -13.440   1.812  0.00  0.00    +0.193 C 
ENDBRANCH   1   9
BRANCH   1  13
ATOM     13  C   LIG    1       24.845 -17.847   3.478  0.00  0.00    +0.317 C 
ATOM     14  O   LIG    1       26.047 -18.042   3.312  0.00  0.00    -0.250 OA
BRANCH  13  15
ATOM     15  C   LIG    1       23.788 -18.948   3.656  0.00  0.00    +0.153 C 
BRANCH  15  16
ATOM     16  C   LIG    1       24.052 -19.837   4.869  0.00  0.00    -0.032 A 
ATOM     17  C   LIG    1       25.339 -20.355   5.098  0.00  0.00    +0.004 A 
ATOM     18  C   LIG    1       25.593 -21.198   6.185  0.00  0.00    +0.000 A 
ATOM     19  C   LIG    1       24.566 -21.531   7.062  0.00  0.00    +0.000 A 
ATOM     20  C   LIG    1       23.284 -21.027   6.849  0.00  0.00    +0.000 A 
ATOM     21  C   LIG    1       23.027 -20.189   5.759  0.00  0.00    +0.004 A 
ENDBRANCH  15  16
BRANCH  15  22
ATOM     22  C   LIG    1       22.424 -18.257   3.694  0.00  0.00    +0.175 C 
BRANCH  22  23
ATOM     23  O   LIG    1       22.212 -17.612   4.946  0.00  0.00    -0.394 OA
ATOM     24  H   LIG    1       21.730 -16.785   4.766  0.00  0.00    +0.209 HD
ENDBRANCH  22  23
ENDBRANCH  15  22
ENDBRANCH  13  15
ENDBRANCH   1  13
TORSDOF 6
ENDMDL
MODEL 2
REMARK VINA RESULT:      -4.1      1.715      3.061
REMARK  Name = *****
REMARK                            x       y       z     vdW  Elec       q    Type
REMARK                         _______ _______ _______ _____ _____    ______ ____
ROOT
ATOM      1  O   LIG    1       26.579 -16.822   3.524  0.00  0.00    -0.461 OA
ENDROOT
BRANCH   1   9
ATOM      2  C   LIG    1       25.418 -11.807   5.266  0.00  0.00    +0.193 C 
ATOM      3  N   LIG    1       25.712 -13.210   4.705  0.00  0.00    +0.247 N 
ATOM      4  C   LIG    1       24.388 -13.935   4.339  0.00  0.00    +0.102 C 
ATOM      5  C   LIG    1       23.888 -13.226   3.090  0.00  0.00    +0.201 C 
ATOM      6  C   LIG    1       25.118 -12.690   2.401  0.00  0.00    +0.201 C 
ATOM      7  O   LIG    1       24.302 -13.700   1.812  0.00  0.00    -0.357 OA
ATOM      8  C   LIG    1       24.700 -15.412   4.062  0.00  0.00    +0.102 C 
ATOM      9  C   LIG    1       25.849 -15.658   3.057  0.00  0.00    +0.187 C 
ATOM     10  C   LIG    1       26.843 -14.481   2.861  0.00  0.00    +0.102 C 
ATOM     11  C   LIG    1       26.295 -13.104   3.269  0.00  0.00    +0.102 C 
ATOM     12  C   LIG    1       26.591 -13.894   5.740  0.00  0.00    +0.193 C 
ENDBRANCH   1   9
BRANCH   1  13
ATOM     13  C   LIG    1       25.992 -18.035   3.318  0.00  0.00    +0.317 C 
ATOM     14  O   LIG    1       25.720 -18.495   2.211  0.00  0.00    -0.250 OA
BRANCH  13  15
ATOM     15  C   LIG    1       25.819 -18.780   4.651  0.00  0.00    +0.153 C 
BRANCH  15  16
ATOM     16  C   LIG    1       24.487 -19.519   4.753  0.00  0.00    -0.032 A 
ATOM     17  C   LIG    1       23.300 -18.899   4.324  0.00  0.00    +0.004 A 
ATOM     18  C   LIG    1       22.066 -19.548   4.439  0.00  0.00    +0.000 A 
ATOM     19  C   LIG    1       22.001 -20.828   4.981  0.00  0.00    +0.000 A 
ATOM     20  C   LIG    1       23.167 -21.457   5.412  0.00  0.00    +0.000 A 
ATOM     21  C   LIG    1       24.402 -20.807   5.302  0.00  0.00    +0.004 A 
ENDBRANCH  15  16
BRANCH  15  22
ATOM     22  C   LIG    1       27.036 -19.692   4.815  0.00  0.00    +0.175 C 
BRANCH  22  23
ATOM     23  O   LIG    1       28.243 -18.938   4.822  0.00  0.00    -0.394 OA
ATOM     24  H   LIG    1       28.004 -18.011   4.641  0.00  0.00    +0.209 HD
ENDBRANCH  22  23
ENDBRANCH  15  22
ENDBRANCH  13  15
ENDBRANCH   1  13
TORSDOF 6
ENDMDL
MODEL 3
REMARK VINA RESULT:      -3.9      1.786      2.806
REMARK  Name = *****
REMARK                            x       y       z     vdW  Elec       q    Type
REMARK                         _______ _______ _______ _____ _____    ______ ____
ROOT
ATOM      1  O   LIG    1       25.655 -17.193   3.335  0.00  0.00    -0.461 OA
ENDROOT
BRANCH   1   9
ATOM      2  C   LIG    1       27.698 -12.351   4.719  0.00  0.00    +0.193 C 
ATOM      3  N   LIG    1       27.065 -13.685   4.285  0.00  0.00    +0.247 N 
ATOM      4  C   LIG    1       25.584 -13.757   4.745  0.00  0.00    +0.102 C 
ATOM      5  C   LIG    1       24.847 -12.782   3.841  0.00  0.00    +0.201 C 
ATOM      6  C   LIG    1       25.636 -12.736   2.556  0.00  0.00    +0.201 C 
ATOM      7  O   LIG    1       24.309 -13.253   2.608  0.00  0.00    -0.357 OA
ATOM      8  C   LIG    1       25.082 -15.195   4.554  0.00  0.00    +0.102 C 
ATOM      9  C   LIG    1       25.331 -15.791   3.150  0.00  0.00    +0.187 C 
ATOM     10  C   LIG    1       26.455 -15.117   2.317  0.00  0.00    +0.102 C 
ATOM     11  C   LIG    1       26.807 -13.685   2.753  0.00  0.00    +0.102 C 
ATOM     12  C   LIG    1       27.988 -14.773   4.812  0.00  0.00    +0.193 C 
ENDBRANCH   1   9
BRANCH   1  13
ATOM     13  C   LIG    1       24.627 -18.017   3.688  0.00  0.00    +0.317 C 
ATOM     14  O   LIG    1       23.478 -17.637   3.907  0.00  0.00    -0.250 OA
BRANCH  13  15
ATOM     15  C   LIG    1       25.084 -19.483   3.669  0.00  0.00    +0.153 C 
BRANCH  15  16
ATOM     16  C   LIG    1       25.940 -19.857   4.876  0.00  0.00    -0.032 A 
ATOM     17  C   LIG    1       27.312 -19.550   4.891  0.00  0.00    +0.004 A 
ATOM     18  C   LIG    1       28.120 -19.913   5.975  0.00  0.00    +0.000 A 
ATOM     19  C   LIG    1       27.566 -20.585   7.061  0.00  0.00    +0.000 A 
ATOM     20  C   LIG    1       26.208 -20.897   7.062  0.00  0.00    +0.000 A 
ATOM     21  C   LIG    1       25.400 -20.539   5.977  0.00  0.00    +0.004 A 
ENDBRANCH  15  16
BRANCH  15  22
ATOM     22  C   LIG    1       23.827 -20.342   3.525  0.00  0.00    +0.175 C 
BRANCH  22  23
ATOM     23  O   LIG    1       24.071 -21.471   2.693  0.00  0.00    -0.394 OA
ATOM     24  H   LIG    1       23.209 -21.769   2.351  0.00  0.00    +0.209 HD
ENDBRANCH  22  23
ENDBRANCH  15  22
ENDBRANCH  13  15
ENDBRANCH   1  13
TORSDOF 6
ENDMDL
MODEL 4
REMARK VINA RESULT:      -3.6      1.421      2.587
REMARK  Name = *****
REMARK                            x       y       z     vdW  Elec       q    Type
REMARK                         _______ _______ _______ _____ _____    ______ ____
ROOT
ATOM      1  O   LIG    1       24.199 -16.592   4.046  0.00  0.00    -0.461 OA
ENDROOT
BRANCH   1   9
ATOM      2  C   LIG    1       28.137 -12.853   3.855  0.00  0.00    +0.193 C 
ATOM      3  N   LIG    1       26.974 -13.860   3.875  0.00  0.00    +0.247 N 
ATOM      4  C   LIG    1       25.784 -13.296   4.698  0.00  0.00    +0.102 C 
ATOM      5  C   LIG    1       25.195 -12.196   3.828  0.00  0.00    +0.201 C 
ATOM      6  C   LIG    1       25.510 -12.585   2.405  0.00  0.00    +0.201 C 
ATOM      7  O   LIG    1       24.171 -12.527   2.893  0.00  0.00    -0.357 OA
ATOM      8  C   LIG    1       24.774 -14.428   4.936  0.00  0.00    +0.102 C 
ATOM      9  C   LIG    1       24.349 -15.200   3.666  0.00  0.00    +0.187 C 
ATOM     10  C   LIG    1       25.320 -15.107   2.458  0.00  0.00    +0.102 C 
ATOM     11  C   LIG    1       26.271 -13.898   2.491  0.00  0.00    +0.102 C 
ATOM     12  C   LIG    1       27.569 -15.172   4.364  0.00  0.00    +0.193 C 
ENDBRANCH   1   9
BRANCH   1  13
ATOM     13  C   LIG    1       22.941 -17.003   4.380  0.00  0.00    +0.317 C 
ATOM     14  O   LIG    1       22.084 -16.276   4.877  0.00  0.00    -0.250 OA
BRANCH  13  15
ATOM     15  C   LIG    1       22.722 -18.462   3.951  0.00  0.00    +0.153 C 
BRANCH  15  16
ATOM     16  C   LIG    1       23.554 -19.453   4.761  0.00  0.00    -0.032 A 
ATOM     17  C   LIG    1       23.010 -20.060   5.908  0.00  0.00    +0.004 A 
ATOM     18  C   LIG    1       23.768 -20.946   6.681  0.00  0.00    +0.000 A 
ATOM     19  C   LIG    1       25.078 -21.242   6.317  0.00  0.00    +0.000 A 
ATOM     20  C   LIG    1       25.632 -20.650   5.184  0.00  0.00    +0.000 A 
ATOM     21  C   LIG    1       24.877 -19.759   4.413  0.00  0.00    +0.004 A 
ENDBRANCH  15  16
BRANCH  15  22
ATOM     22  C   LIG    1       21.218 -18.728   4.023  0.00  0.00    +0.175 C 
BRANCH  22  23
ATOM     23  O   LIG    1       20.538 -18.113   2.933  0.00  0.00    -0.394 OA
ATOM     24  H   LIG    1       20.228 -18.828   2.347  0.00  0.00    +0.209 HD
ENDBRANCH  22  23
ENDBRANCH  15  22
ENDBRANCH  13  15
ENDBRANCH   1  13
TORSDOF 6
ENDMDL
MODEL 5
REMARK VINA RESULT:      -3.6      1.360      1.913
REMARK  Name = *****
REMARK                            x       y       z     vdW  Elec       q    Type
REMARK                         _______ _______ _______ _____ _____    ______ ____
ROOT
ATOM      1  O   LIG    1       25.866 -16.890   2.874  0.00  0.00    -0.461 OA
ENDROOT
BRANCH   1   9
ATOM      2  C   LIG    1       24.796 -11.563   2.761  0.00  0.00    +0.193 C 
ATOM      3  N   LIG    1       25.144 -13.059   2.856  0.00  0.00    +0.247 N 
ATOM      4  C   LIG    1       26.677 -13.267   2.730  0.00  0.00    +0.102 C 
ATOM      5  C   LIG    1       27.249 -12.756   4.043  0.00  0.00    +0.201 C 
ATOM      6  C   LIG    1       26.158 -12.943   5.067  0.00  0.00    +0.201 C 
ATOM      7  O   LIG    1       27.388 -13.660   5.136  0.00  0.00    -0.357 OA
ATOM      8  C   LIG    1       26.953 -14.765   2.539  0.00  0.00    +0.102 C 
ATOM      9  C   LIG    1       26.278 -15.690   3.578  0.00  0.00    +0.187 C 
ATOM     10  C   LIG    1       25.053 -15.093   4.322  0.00  0.00    +0.102 C 
ATOM     11  C   LIG    1       24.986 -13.557   4.319  0.00  0.00    +0.102 C 
ATOM     12  C   LIG    1       24.282 -13.752   1.812  0.00  0.00    +0.193 C 
ENDBRANCH   1   9
BRANCH   1  13
ATOM     13  C   LIG    1       24.888 -17.637   3.461  0.00  0.00    +0.317 C 
ATOM     14  O   LIG    1       23.833 -17.180   3.896  0.00  0.00    -0.250 OA
BRANCH  13  15
ATOM     15  C   LIG    1       25.246 -19.130   3.403  0.00  0.00    +0.153 C 
BRANCH  15  16
ATOM     16  C   LIG    1       25.991 -19.613   4.645  0.00  0.00    -0.032 A 
ATOM     17  C   LIG    1       27.374 -19.392   4.769  0.00  0.00    +0.004 A 
ATOM     18  C   LIG    1       28.080 -19.856   5.885  0.00  0.00    +0.000 A 
ATOM     19  C   LIG    1       27.413 -20.542   6.894  0.00  0.00    +0.000 A 
ATOM     20  C   LIG    1       26.043 -20.770   6.787  0.00  0.00    +0.000 A 
ATOM     21  C   LIG    1       25.336 -20.312   5.669  0.00  0.00    +0.004 A 
ENDBRANCH  15  16
BRANCH  15  22
ATOM     22  C   LIG    1       23.947 -19.892   3.138  0.00  0.00    +0.175 C 
BRANCH  22  23
ATOM     23  O   LIG    1       24.179 -21.026   2.308  0.00  0.00    -0.394 OA
ATOM     24  H   LIG    1       23.938 -20.771   1.399  0.00  0.00    +0.209 HD
ENDBRANCH  22  23
ENDBRANCH  15  22
ENDBRANCH  13  15
ENDBRANCH   1  13
TORSDOF 6
ENDMDL
MODEL 6
REMARK VINA RESULT:      -3.1      1.064      2.009
REMARK  Name = *****
REMARK                            x       y       z     vdW  Elec       q    Type
REMARK                         _______ _______ _______ _____ _____    ______ ____
ROOT
ATOM      1  O   LIG    1       24.859 -16.975   3.360  0.00  0.00    -0.461 OA
ENDROOT
BRANCH   1   9
ATOM      2  C   LIG    1       25.394 -11.630   2.539  0.00  0.00    +0.193 C 
ATOM      3  N   LIG    1       25.287 -13.136   2.835  0.00  0.00    +0.247 N 
ATOM      4  C   LIG    1       26.696 -13.789   2.835  0.00  0.00    +0.102 C 
ATOM      5  C   LIG    1       27.356 -13.292   4.111  0.00  0.00    +0.201 C 
ATOM      6  C   LIG    1       26.230 -13.020   5.077  0.00  0.00    +0.201 C 
ATOM      7  O   LIG    1       27.195 -14.043   5.311  0.00  0.00    -0.357 OA
ATOM      8  C   LIG    1       26.527 -15.315   2.844  0.00  0.00    +0.102 C 
ATOM      9  C   LIG    1       25.584 -15.860   3.940  0.00  0.00    +0.187 C 
ATOM     10  C   LIG    1       24.567 -14.844   4.526  0.00  0.00    +0.102 C 
ATOM     11  C   LIG    1       24.951 -13.368   4.334  0.00  0.00    +0.102 C 
ATOM     12  C   LIG    1       24.289 -13.687   1.828  0.00  0.00    +0.193 C 
ENDBRANCH   1   9
BRANCH   1  13
ATOM     13  C   LIG    1       25.527 -18.161   3.274  0.00  0.00    +0.317 C 
ATOM     14  O   LIG    1       26.077 -18.574   2.255  0.00  0.00    -0.250 OA
BRANCH  13  15
ATOM     15  C   LIG    1       25.582 -18.847   4.647  0.00  0.00    +0.153 C 
BRANCH  15  16
ATOM     16  C   LIG    1       24.349 -19.698   4.939  0.00  0.00    -0.032 A 
ATOM     17  C   LIG    1       24.403 -20.709   5.915  0.00  0.00    +0.004 A 
ATOM     18  C   LIG    1       23.292 -21.520   6.173  0.00  0.00    +0.000 A 
ATOM     19  C   LIG    1       22.111 -21.329   5.464  0.00  0.00    +0.000 A 
ATOM     20  C   LIG    1       22.040 -20.331   4.494  0.00  0.00    +0.000 A 
ATOM     21  C   LIG    1       23.151 -19.523   4.230  0.00  0.00    +0.004 A 
ENDBRANCH  15  16
BRANCH  15  22
ATOM     22  C   LIG    1       26.892 -19.635   4.702  0.00  0.00    +0.175 C 
BRANCH  22  23
ATOM     23  O   LIG    1       28.013 -18.759   4.753  0.00  0.00    -0.394 OA
ATOM     24  H   LIG    1       27.971 -18.287   5.603  0.00  0.00    +0.209 HD
ENDBRANCH  22  23
ENDBRANCH  15  22
ENDBRANCH  13  15
ENDBRANCH   1  13
TORSDOF 6
ENDMDL
MODEL 7
REMARK VINA RESULT:      -3.0      1.526      1.914
REMARK  Name = *****
REMARK                            x       y       z     vdW  Elec       q    Type
REMARK                         _______ _______ _______ _____ _____    ______ ____
ROOT
ATOM      1  O   LIG    1       25.893 -17.105   3.226  0.00  0.00    -0.461 OA
ENDROOT
BRANCH   1   9
ATOM      2  C   LIG    1       24.287 -12.040   4.365  0.00  0.00    +0.193 C 
ATOM      3  N   LIG    1       24.815 -13.448   4.040  0.00  0.00    +0.247 N 
ATOM      4  C   LIG    1       25.559 -13.446   2.677  0.00  0.00    +0.102 C 
ATOM      5  C   LIG    1       26.860 -12.706   2.943  0.00  0.00    +0.201 C 
ATOM      6  C   LIG    1       27.166 -12.926   4.404  0.00  0.00    +0.201 C 
ATOM      7  O   LIG    1       28.001 -13.445   3.371  0.00  0.00    -0.357 OA
ATOM      8  C   LIG    1       25.813 -14.900   2.256  0.00  0.00    +0.102 C 
ATOM      9  C   LIG    1       26.482 -15.783   3.334  0.00  0.00    +0.187 C 
ATOM     10  C   LIG    1       26.346 -15.286   4.799  0.00  0.00    +0.102 C 
ATOM     11  C   LIG    1       26.034 -13.787   4.941  0.00  0.00    +0.102 C 
ATOM     12  C   LIG    1       23.616 -14.377   4.152  0.00  0.00    +0.193 C 
ENDBRANCH   1   9
BRANCH   1  13
ATOM     13  C   LIG    1       26.597 -18.135   3.778  0.00  0.00    +0.317 C 
ATOM     14  O   LIG    1       27.639 -17.999   4.416  0.00  0.00    -0.250 OA
BRANCH  13  15
ATOM     15  C   LIG    1       25.850 -19.463   3.576  0.00  0.00    +0.153 C 
BRANCH  15  16
ATOM     16  C   LIG    1       25.049 -19.889   4.804  0.00  0.00    -0.032 A 
ATOM     17  C   LIG    1       25.696 -20.496   5.894  0.00  0.00    +0.004 A 
ATOM     18  C   LIG    1       24.974 -20.922   7.014  0.00  0.00    +0.000 A 
ATOM     19  C   LIG    1       23.595 -20.743   7.062  0.00  0.00    +0.000 A 
ATOM     20  C   LIG    1       22.938 -20.143   5.990  0.00  0.00    +0.000 A 
ATOM     21  C   LIG    1       23.658 -19.721   4.867  0.00  0.00    +0.004 A 
ENDBRANCH  15  16
BRANCH  15  22
ATOM     22  C   LIG    1       24.998 -19.310   2.315  0.00  0.00    +0.175 C 
BRANCH  22  23
ATOM     23  O   LIG    1       24.217 -20.477   2.082  0.00  0.00    -0.394 OA
ATOM     24  H   LIG    1       24.378 -20.752   1.161  0.00  0.00    +0.209 HD
ENDBRANCH  22  23
ENDBRANCH  15  22
ENDBRANCH  13  15
ENDBRANCH   1  13
TORSDOF 6
ENDMDL
MODEL 8
REMARK VINA RESULT:      -2.6      2.150      3.342
REMARK  Name = *****
REMARK                            x       y       z     vdW  Elec       q    Type
REMARK                         _______ _______ _______ _____ _____    ______ ____
ROOT
ATOM      1  O   LIG    1       27.243 -17.269   4.173  0.00  0.00    -0.461 OA
ENDROOT
BRANCH   1   9
ATOM      2  C   LIG    1       24.583 -12.534   3.993  0.00  0.00    +0.193 C 
ATOM      3  N   LIG    1       25.403 -13.835   4.039  0.00  0.00    +0.247 N 
ATOM      4  C   LIG    1       26.255 -13.983   2.749  0.00  0.00    +0.102 C 
ATOM      5  C   LIG    1       27.357 -12.945   2.888  0.00  0.00    +0.201 C 
ATOM      6  C   LIG    1       27.563 -12.760   4.371  0.00  0.00    +0.201 C 
ATOM      7  O   LIG    1       28.575 -13.310   3.530  0.00  0.00    -0.357 OA
ATOM      8  C   LIG    1       26.825 -15.408   2.701  0.00  0.00    +0.102 C 
ATOM      9  C   LIG    1       27.550 -15.863   3.987  0.00  0.00    +0.187 C 
ATOM     10  C   LIG    1       27.185 -15.089   5.282  0.00  0.00    +0.102 C 
ATOM     11  C   LIG    1       26.576 -13.697   5.048  0.00  0.00    +0.102 C 
ATOM     12  C   LIG    1       24.403 -14.946   4.317  0.00  0.00    +0.193 C 
ENDBRANCH   1   9
BRANCH   1  13
ATOM     13  C   LIG    1       28.183 -18.021   4.814  0.00  0.00    +0.317 C 
ATOM     14  O   LIG    1       29.389 -17.785   4.797  0.00  0.00    -0.250 OA
BRANCH  13  15
ATOM     15  C   LIG    1       27.512 -19.131   5.638  0.00  0.00    +0.153 C 
BRANCH  15  16
ATOM     16  C   LIG    1       26.290 -19.731   4.947  0.00  0.00    -0.032 A 
ATOM     17  C   LIG    1       25.666 -20.872   5.482  0.00  0.00    +0.004 A 
ATOM     18  C   LIG    1       24.565 -21.455   4.845  0.00  0.00    +0.000 A 
ATOM     19  C   LIG    1       24.070 -20.904   3.667  0.00  0.00    +0.000 A 
ATOM     20  C   LIG    1       24.677 -19.775   3.123  0.00  0.00    +0.000 A 
ATOM     21  C   LIG    1       25.782 -19.193   3.756  0.00  0.00    +0.004 A 
ENDBRANCH  15  16
BRANCH  15  22
ATOM     22  C   LIG    1       28.593 -20.161   5.966  0.00  0.00    +0.175 C 
BRANCH  22  23
ATOM     23  O   LIG    1       29.474 -19.675   6.973  0.00  0.00    -0.394 OA
ATOM     24  H   LIG    1       29.149 -20.013   7.827  0.00  0.00    +0.209 HD
ENDBRANCH  22  23
ENDBRANCH  15  22
ENDBRANCH  13  15
ENDBRANCH   1  13
TORSDOF 6
ENDMDL
MODEL 9
REMARK VINA RESULT:      -2.2      2.217      6.788
REMARK  Name = *****
REMARK                            x       y       z     vdW  Elec       q    Type
REMARK                         _______ _______ _______ _____ _____    ______ ____
ROOT
ATOM      1  O   LIG    1       25.940 -17.394   3.268  0.00  0.00    -0.461 OA
ENDROOT
BRANCH   1   9
ATOM      2  C   LIG    1       21.678 -20.414   4.768  0.00  0.00    +0.193 C 
ATOM      3  N   LIG    1       22.929 -19.623   4.345  0.00  0.00    +0.247 N 
ATOM      4  C   LIG    1       24.036 -19.742   5.428  0.00  0.00    +0.102 C 
ATOM      5  C   LIG    1       24.545 -21.169   5.309  0.00  0.00    +0.201 C 
ATOM      6  C   LIG    1       24.312 -21.572   3.874  0.00  0.00    +0.201 C 
ATOM      7  O   LIG    1       25.623 -21.448   4.420  0.00  0.00    -0.357 OA
ATOM      8  C   LIG    1       25.138 -18.721   5.113  0.00  0.00    +0.102 C 
ATOM      9  C   LIG    1       25.672 -18.764   3.663  0.00  0.00    +0.187 C 
ATOM     10  C   LIG    1       24.734 -19.420   2.614  0.00  0.00    +0.102 C 
ATOM     11  C   LIG    1       23.674 -20.366   3.203  0.00  0.00    +0.102 C 
ATOM     12  C   LIG    1       22.444 -18.217   4.029  0.00  0.00    +0.193 C 
ENDBRANCH   1   9
BRANCH   1  13
ATOM     13  C   LIG    1       27.075 -16.825   3.766  0.00  0.00    +0.317 C 
ATOM     14  O   LIG    1       27.907 -17.419   4.448  0.00  0.00    -0.250 OA
BRANCH  13  15
ATOM     15  C   LIG    1       27.212 -15.378   3.267  0.00  0.00    +0.153 C 
BRANCH  15  16
ATOM     16  C   LIG    1       25.884 -14.624   3.249  0.00  0.00    -0.032 A 
ATOM     17  C   LIG    1       25.623 -13.678   2.243  0.00  0.00    +0.004 A 
ATOM     18  C   LIG    1       24.425 -12.955   2.228  0.00  0.00    +0.000 A 
ATOM     19  C   LIG    1       23.470 -13.170   3.217  0.00  0.00    +0.000 A 
ATOM     20  C   LIG    1       23.714 -14.103   4.222  0.00  0.00    +0.000 A 
ATOM     21  C   LIG    1       24.913 -14.824   4.241  0.00  0.00    +0.004 A 
ENDBRANCH  15  16
BRANCH  15  22
ATOM     22  C   LIG    1       28.281 -14.707   4.131  0.00  0.00    +0.175 C 
BRANCH  22  23
ATOM     23  O   LIG    1       28.772 -13.524   3.508  0.00  0.00    -0.394 OA
ATOM     24  H   LIG    1       28.640 -12.792   4.138  0.00  0.00    +0.209 HD
ENDBRANCH  22  23
ENDBRANCH  15  22
ENDBRANCH  13  15
ENDBRANCH   1  13
TORSDOF 6
ENDMDL
