MODEL 1
REMARK VINA RESULT:      -2.7      0.000      0.000
REMARK  Name = *****
REMARK                            x       y       z     vdW  Elec       q    Type
REMARK                         _______ _______ _______ _____ _____    ______ ____
ROOT
ATOM      1  C   LIG    1       22.915 -18.185   4.419  0.00  0.00    +0.122 A 
ATOM      2  C   LIG    1       24.111 -18.056   3.710  0.00  0.00    +0.046 A 
ATOM      3  C   LIG    1       24.622 -16.800   3.357  0.00  0.00    +0.015 A 
ATOM      4  C   LIG    1       23.955 -15.642   3.748  0.00  0.00    +0.022 A 
ATOM      5  C   LIG    1       22.776 -15.761   4.496  0.00  0.00    +0.015 A 
ATOM      6  C   LIG    1       22.276 -17.023   4.852  0.00  0.00    +0.046 A 
ENDROOT
BRANCH   4   7
ATOM      7  C   LIG    1       24.493 -14.311   3.338  0.00  0.00    +0.193 C 
ATOM      8  O   LIG    1       23.910 -13.662   2.468  0.00  0.00    -0.287 OA
BRANCH   7   9
ATOM      9  C   LIG    1       25.736 -13.761   3.946  0.00  0.00    +0.022 A 
ATOM     10  C   LIG    1       26.811 -13.378   3.132  0.00  0.00    +0.013 A 
ATOM     11  C   LIG    1       27.974 -12.855   3.696  0.00  0.00    +0.021 A 
ATOM     12  C   LIG    1       28.053 -12.672   5.074  0.00  0.00    +0.041 A 
ATOM     13 CL   LIG    1       29.473 -11.985   5.755  0.00  0.00    -0.084 Cl
ATOM     14  C   LIG    1       26.985 -13.036   5.896  0.00  0.00    +0.021 A 
ATOM     15  C   LIG    1       25.825 -13.587   5.334  0.00  0.00    +0.013 A 
ENDBRANCH   7   9
ENDBRANCH   4   7
BRANCH   1  16
ATOM     16  O   LIG    1       22.294 -19.367   4.733  0.00  0.00    -0.475 OA
BRANCH  16  17
ATOM     17  C   LIG    1       22.965 -20.301   5.588  0.00  0.00    +0.201 C 
ATOM     18  C   LIG    1       23.095 -19.745   7.014  0.00  0.00    +0.067 C 
ATOM     19  C   LIG    1       22.066 -21.572   5.697  0.00  0.00    +0.067 C 
BRANCH  17  20
ATOM     20  C   LIG    1       24.362 -20.821   5.138  0.00  0.00    +0.351 C 
ATOM     21  O   LIG    1       24.599 -21.427   4.124  0.00  0.00    -0.246 OA
BRANCH  20  22
ATOM     22  O   LIG    1       25.300 -20.409   6.026  0.00  0.00    -0.459 OA
BRANCH  22  24
ATOM     23  C   LIG    1       27.364 -19.439   5.273  0.00  0.00    +0.051 C 
ATOM     24  C   LIG    1       26.656 -20.718   5.721  0.00  0.00    +0.170 C 
ATOM     25  C   LIG    1       27.207 -21.263   7.025  0.00  0.00    +0.051 C 
ENDBRANCH  22  24
ENDBRANCH  20  22
ENDBRANCH  17  20
ENDBRANCH  16  17
ENDBRANCH   1  16
TORSDOF 7
ENDMDL
MODEL 2
REMARK VINA RESULT:      -2.2      3.320      8.008
REMARK  Name = *****
REMARK                            x       y       z     vdW  Elec       q    Type
REMARK                         _______ _______ _______ _____ _____    ______ ____
ROOT
ATOM      1  C   LIG    1       28.100 -16.186   4.065  0.00  0.00    +0.122 A 
ATOM      2  C   LIG    1       28.881 -17.005   4.883  0.00  0.00    +0.046 A 
ATOM      3  C   LIG    1       28.435 -18.265   5.300  0.00  0.00    +0.015 A 
ATOM      4  C   LIG    1       27.202 -18.746   4.866  0.00  0.00    +0.022 A 
ATOM      5  C   LIG    1       26.430 -17.949   4.010  0.00  0.00    +0.015 A 
ATOM      6  C   LIG    1       26.889 -16.691   3.591  0.00  0.00    +0.046 A 
ENDROOT
BRANCH   4   7
ATOM      7  C   LIG    1       26.724 -20.077   5.343  0.00  0.00    +0.193 C 
ATOM      8  O   LIG    1       27.526 -20.869   5.839  0.00  0.00    -0.287 OA
BRANCH   7   9
ATOM      9  C   LIG    1       25.295 -20.475   5.210  0.00  0.00    +0.022 A 
ATOM     10  C   LIG    1       24.465 -20.519   6.339  0.00  0.00    +0.013 A 
ATOM     11  C   LIG    1       23.125 -20.884   6.219  0.00  0.00    +0.021 A 
ATOM     12  C   LIG    1       22.595 -21.166   4.963  0.00  0.00    +0.041 A 
ATOM     13 CL   LIG    1       20.931 -21.571   4.821  0.00  0.00    -0.084 Cl
ATOM     14  C   LIG    1       23.405 -21.113   3.828  0.00  0.00    +0.021 A 
ATOM     15  C   LIG    1       24.759 -20.773   3.950  0.00  0.00    +0.013 A 
ENDBRANCH   7   9
ENDBRANCH   4   7
BRANCH   1  16
ATOM     16  O   LIG    1       28.413 -14.908   3.677  0.00  0.00    -0.475 OA
BRANCH  16  17
ATOM     17  C   LIG    1       27.490 -13.848   3.959  0.00  0.00    +0.201 C 
ATOM     18  C   LIG    1       26.777 -14.084   5.300  0.00  0.00    +0.067 C 
ATOM     19  C   LIG    1       28.316 -12.536   4.129  0.00  0.00    +0.067 C 
BRANCH  17  20
ATOM     20  C   LIG    1       26.412 -13.521   2.884  0.00  0.00    +0.351 C 
ATOM     21  O   LIG    1       26.264 -14.093   1.834  0.00  0.00    -0.246 OA
BRANCH  20  22
ATOM     22  O   LIG    1       25.597 -12.543   3.350  0.00  0.00    -0.459 OA
BRANCH  22  24
ATOM     23  C   LIG    1       23.696 -13.978   3.658  0.00  0.00    +0.051 C 
ATOM     24  C   LIG    1       24.210 -12.667   3.060  0.00  0.00    +0.170 C 
ATOM     25  C   LIG    1       23.590 -11.447   3.713  0.00  0.00    +0.051 C 
ENDBRANCH  22  24
ENDBRANCH  20  22
ENDBRANCH  17  20
ENDBRANCH  16  17
ENDBRANCH   1  16
TORSDOF 7
ENDMDL
MODEL 3
REMARK VINA RESULT:      -1.7      1.218      1.860
REMARK  Name = *****
REMARK                            x       y       z     vdW  Elec       q    Type
REMARK                         _______ _______ _______ _____ _____    ______ ____
ROOT
ATOM      1  C   LIG    1       22.085 -17.979   4.470  0.00  0.00    +0.122 A 
ATOM      2  C   LIG    1       21.549 -17.035   5.348  0.00  0.00    +0.046 A 
ATOM      3  C   LIG    1       22.089 -15.748   5.459  0.00  0.00    +0.015 A 
ATOM      4  C   LIG    1       23.161 -15.370   4.655  0.00  0.00    +0.022 A 
ATOM      5  C   LIG    1       23.678 -16.298   3.740  0.00  0.00    +0.015 A 
ATOM      6  C   LIG    1       23.126 -17.582   3.631  0.00  0.00    +0.046 A 
ENDROOT
BRANCH   4   7
ATOM      7  C   LIG    1       23.748 -14.006   4.806  0.00  0.00    +0.193 C 
ATOM      8  O   LIG    1       23.049 -13.087   5.236  0.00  0.00    -0.287 OA
BRANCH   7   9
ATOM      9  C   LIG    1       25.160 -13.728   4.425  0.00  0.00    +0.022 A 
ATOM     10  C   LIG    1       26.104 -13.390   5.405  0.00  0.00    +0.013 A 
ATOM     11  C   LIG    1       27.429 -13.136   5.054  0.00  0.00    +0.021 A 
ATOM     12  C   LIG    1       27.829 -13.262   3.726  0.00  0.00    +0.041 A 
ATOM     13 CL   LIG    1       29.475 -12.991   3.312  0.00  0.00    -0.084 Cl
ATOM     14  C   LIG    1       26.905 -13.612   2.741  0.00  0.00    +0.021 A 
ATOM     15  C   LIG    1       25.566 -13.840   3.088  0.00  0.00    +0.013 A 
ENDBRANCH   7   9
ENDBRANCH   4   7
BRANCH   1  16
ATOM     16  O   LIG    1       21.681 -19.285   4.354  0.00  0.00    -0.475 OA
BRANCH  16  17
ATOM     17  C   LIG    1       22.463 -20.314   4.974  0.00  0.00    +0.201 C 
ATOM     18  C   LIG    1       22.876 -19.908   6.397  0.00  0.00    +0.067 C 
ATOM     19  C   LIG    1       21.553 -21.572   5.125  0.00  0.00    +0.067 C 
BRANCH  17  20
ATOM     20  C   LIG    1       23.733 -20.812   4.221  0.00  0.00    +0.351 C 
ATOM     21  O   LIG    1       23.971 -20.649   3.051  0.00  0.00    -0.246 OA
BRANCH  20  22
ATOM     22  O   LIG    1       24.583 -21.385   5.107  0.00  0.00    -0.459 OA
BRANCH  22  24
ATOM     23  C   LIG    1       25.959 -19.560   4.372  0.00  0.00    +0.051 C 
ATOM     24  C   LIG    1       25.911 -20.877   5.147  0.00  0.00    +0.170 C 
ATOM     25  C   LIG    1       26.187 -20.693   6.627  0.00  0.00    +0.051 C 
ENDBRANCH  22  24
ENDBRANCH  20  22
ENDBRANCH  17  20
ENDBRANCH  16  17
ENDBRANCH   1  16
TORSDOF 7
ENDMDL
