MODEL 1
REMARK VINA RESULT:      -4.9      0.000      0.000
REMARK  Name = *****
REMARK                            x       y       z     vdW  Elec       q    Type
REMARK                         _______ _______ _______ _____ _____    ______ ____
ROOT
ATOM      1  C   LIG    1       25.812 -30.392  13.187  0.00  0.00    +0.066 A 
ATOM      2  C   LIG    1       24.501 -30.354  13.734  0.00  0.00    +0.040 A 
ATOM      3  I   LIG    1       23.503 -31.916  15.436  0.00  0.00    -0.042 I 
ATOM      4  C   LIG    1       23.387 -30.366  12.892  0.00  0.00    +0.066 A 
ATOM      5  C   LIG    1       23.571 -31.046  11.668  0.00  0.00    +0.049 A 
ATOM      6  I   LIG    1       22.625 -33.144  11.771  0.00  0.00    -0.041 I 
ATOM      7  C   LIG    1       24.825 -31.118  11.042  0.00  0.00    +0.061 A 
ATOM      8  C   LIG    1       25.883 -30.499  11.731  0.00  0.00    +0.049 A 
ATOM      9  I   LIG    1       26.917 -28.981  10.461  0.00  0.00    -0.041 I 
ENDROOT
BRANCH   4  10
ATOM     10  C   LIG    1       22.628 -29.054  12.834  0.00  0.00    +0.248 C 
ATOM     11  N   LIG    1       21.248 -28.999  13.129  0.00  0.00    -0.298 N 
ATOM     12  C   LIG    1       20.450 -30.018  13.745  0.00  0.00    +0.132 C 
ATOM     13  O   LIG    1       23.264 -28.073  12.520  0.00  0.00    -0.270 OA
BRANCH  11  14
ATOM     14  C   LIG    1       20.473 -27.823  12.741  0.00  0.00    +0.141 C 
BRANCH  14  15
ATOM     15  C   LIG    1       20.423 -26.725  13.842  0.00  0.00    +0.157 C 
BRANCH  15  16
ATOM     16  O   LIG    1       21.418 -26.904  14.862  0.00  0.00    -0.388 OA
ATOM     17  H   LIG    1       22.307 -26.714  14.520  0.00  0.00    +0.210 HD
ENDBRANCH  15  16
BRANCH  15  18
ATOM     18  C   LIG    1       19.050 -26.703  14.507  0.00  0.00    +0.188 C 
BRANCH  18  19
ATOM     19  O   LIG    1       18.244 -25.631  14.060  0.00  0.00    -0.392 OA
ATOM     20  H   LIG    1       17.319 -25.934  13.997  0.00  0.00    +0.209 HD
ENDBRANCH  18  19
ENDBRANCH  15  18
ENDBRANCH  14  15
ENDBRANCH  11  14
ENDBRANCH   4  10
BRANCH   1  23
ATOM     21  C   LIG    1       28.620 -28.354  15.036  0.00  0.00    +0.132 C 
ATOM     22  N   LIG    1       27.336 -28.683  14.383  0.00  0.00    -0.298 N 
ATOM     23  C   LIG    1       27.200 -29.979  13.820  0.00  0.00    +0.248 C 
ATOM     24  O   LIG    1       28.150 -30.739  13.843  0.00  0.00    -0.270 OA
BRANCH  22  25
ATOM     25  C   LIG    1       26.315 -27.681  14.528  0.00  0.00    +0.141 C 
BRANCH  25  26
ATOM     26  C   LIG    1       26.192 -26.572  13.444  0.00  0.00    +0.157 C 
BRANCH  26  27
ATOM     27  O   LIG    1       27.493 -26.069  13.118  0.00  0.00    -0.388 OA
ATOM     28  H   LIG    1       27.610 -25.262  13.651  0.00  0.00    +0.210 HD
ENDBRANCH  26  27
BRANCH  26  29
ATOM     29  C   LIG    1       25.268 -25.345  13.680  0.00  0.00    +0.188 C 
BRANCH  29  30
ATOM     30  O   LIG    1       23.905 -25.679  13.810  0.00  0.00    -0.392 OA
ATOM     31  H   LIG    1       23.782 -26.531  13.362  0.00  0.00    +0.209 HD
ENDBRANCH  29  30
ENDBRANCH  26  29
ENDBRANCH  25  26
ENDBRANCH  22  25
ENDBRANCH   1  23
BRANCH   7  32
ATOM     32  N   LIG    1       24.906 -31.498   9.671  0.00  0.00    -0.283 N 
ATOM     33  H   LIG    1       25.749 -31.990   9.410  0.00  0.00    +0.155 HD
ATOM     34  C   LIG    1       24.154 -30.878   8.666  0.00  0.00    +0.225 C 
ATOM     35  O   LIG    1       23.255 -30.083   8.891  0.00  0.00    -0.275 OA
BRANCH  34  36
ATOM     36  C   LIG    1       24.566 -31.180   7.211  0.00  0.00    +0.126 C 
BRANCH  36  37
ATOM     37  C   LIG    1       24.506 -29.932   6.332  0.00  0.00    +0.170 C 
BRANCH  37  38
ATOM     38  O   LIG    1       23.220 -29.808   5.735  0.00  0.00    -0.394 OA
ATOM     39  H   LIG    1       23.278 -29.124   5.044  0.00  0.00    +0.209 HD
ENDBRANCH  37  38
ENDBRANCH  36  37
BRANCH  36  40
ATOM     40  C   LIG    1       23.766 -32.345   6.619  0.00  0.00    +0.170 C 
BRANCH  40  41
ATOM     41  O   LIG    1       22.934 -32.923   7.628  0.00  0.00    -0.394 OA
ATOM     42  H   LIG    1       22.039 -32.546   7.536  0.00  0.00    +0.209 HD
ENDBRANCH  40  41
ENDBRANCH  36  40
ENDBRANCH  34  36
ENDBRANCH   7  32
TORSDOF 18
ENDMDL
MODEL 2
REMARK VINA RESULT:      -4.8      1.071      1.749
REMARK  Name = *****
REMARK                            x       y       z     vdW  Elec       q    Type
REMARK                         _______ _______ _______ _____ _____    ______ ____
ROOT
ATOM      1  C   LIG    1       25.948 -30.458  12.899  0.00  0.00    +0.066 A 
ATOM      2  C   LIG    1       24.696 -30.639  13.547  0.00  0.00    +0.040 A 
ATOM      3  I   LIG    1       24.109 -32.346  15.301  0.00  0.00    -0.042 I 
ATOM      4  C   LIG    1       23.537 -30.837  12.793  0.00  0.00    +0.066 A 
ATOM      5  C   LIG    1       23.735 -31.477  11.550  0.00  0.00    +0.049 A 
ATOM      6  I   LIG    1       23.163 -33.704  11.700  0.00  0.00    -0.041 I 
ATOM      7  C   LIG    1       24.930 -31.339  10.828  0.00  0.00    +0.061 A 
ATOM      8  C   LIG    1       25.922 -30.552  11.441  0.00  0.00    +0.049 A 
ATOM      9  I   LIG    1       26.585 -28.883  10.114  0.00  0.00    -0.041 I 
ENDROOT
BRANCH   4  10
ATOM     10  C   LIG    1       22.568 -29.670  12.811  0.00  0.00    +0.248 C 
ATOM     11  N   LIG    1       21.228 -29.844  13.222  0.00  0.00    -0.298 N 
ATOM     12  C   LIG    1       20.666 -30.978  13.895  0.00  0.00    +0.132 C 
ATOM     13  O   LIG    1       23.003 -28.599  12.453  0.00  0.00    -0.270 OA
BRANCH  11  14
ATOM     14  C   LIG    1       20.238 -28.816  12.912  0.00  0.00    +0.141 C 
BRANCH  14  15
ATOM     15  C   LIG    1       19.763 -28.019  14.160  0.00  0.00    +0.157 C 
BRANCH  15  16
ATOM     16  O   LIG    1       18.419 -27.528  14.037  0.00  0.00    -0.388 OA
ATOM     17  H   LIG    1       18.407 -26.562  13.945  0.00  0.00    +0.210 HD
ENDBRANCH  15  16
BRANCH  15  18
ATOM     18  C   LIG    1       20.687 -26.832  14.414  0.00  0.00    +0.188 C 
BRANCH  18  19
ATOM     19  O   LIG    1       21.377 -26.418  13.251  0.00  0.00    -0.392 OA
ATOM     20  H   LIG    1       21.182 -27.040  12.527  0.00  0.00    +0.209 HD
ENDBRANCH  18  19
ENDBRANCH  15  18
ENDBRANCH  14  15
ENDBRANCH  11  14
ENDBRANCH   4  10
BRANCH   1  23
ATOM     21  C   LIG    1       28.496 -28.084  14.723  0.00  0.00    +0.132 C 
ATOM     22  N   LIG    1       27.230 -28.615  14.177  0.00  0.00    -0.298 N 
ATOM     23  C   LIG    1       27.294 -29.819  13.428  0.00  0.00    +0.248 C 
ATOM     24  O   LIG    1       28.377 -30.330  13.216  0.00  0.00    -0.270 OA
BRANCH  22  25
ATOM     25  C   LIG    1       26.051 -27.909  14.601  0.00  0.00    +0.141 C 
BRANCH  25  26
ATOM     26  C   LIG    1       25.770 -26.496  14.013  0.00  0.00    +0.157 C 
BRANCH  26  27
ATOM     27  O   LIG    1       24.401 -26.407  13.603  0.00  0.00    -0.388 OA
ATOM     28  H   LIG    1       24.419 -26.191  12.653  0.00  0.00    +0.210 HD
ENDBRANCH  26  27
BRANCH  26  29
ATOM     29  C   LIG    1       26.638 -25.946  12.848  0.00  0.00    +0.188 C 
BRANCH  29  30
ATOM     30  O   LIG    1       27.626 -25.030  13.261  0.00  0.00    -0.392 OA
ATOM     31  H   LIG    1       28.377 -25.555  13.582  0.00  0.00    +0.209 HD
ENDBRANCH  29  30
ENDBRANCH  26  29
ENDBRANCH  25  26
ENDBRANCH  22  25
ENDBRANCH   1  23
BRANCH   7  32
ATOM     32  N   LIG    1       24.965 -31.700   9.450  0.00  0.00    -0.283 N 
ATOM     33  H   LIG    1       25.824 -32.134   9.141  0.00  0.00    +0.155 HD
ATOM     34  C   LIG    1       24.124 -31.121   8.492  0.00  0.00    +0.225 C 
ATOM     35  O   LIG    1       23.189 -30.389   8.772  0.00  0.00    -0.275 OA
BRANCH  34  36
ATOM     36  C   LIG    1       24.480 -31.383   7.014  0.00  0.00    +0.126 C 
BRANCH  36  37
ATOM     37  C   LIG    1       25.748 -32.223   6.875  0.00  0.00    +0.170 C 
BRANCH  37  38
ATOM     38  O   LIG    1       26.881 -31.487   7.323  0.00  0.00    -0.394 OA
ATOM     39  H   LIG    1       27.161 -31.864   8.177  0.00  0.00    +0.209 HD
ENDBRANCH  37  38
ENDBRANCH  36  37
BRANCH  36  40
ATOM     40  C   LIG    1       24.554 -30.083   6.204  0.00  0.00    +0.170 C 
BRANCH  40  41
ATOM     41  O   LIG    1       23.260 -29.760   5.690  0.00  0.00    -0.394 OA
ATOM     42  H   LIG    1       23.057 -30.381   4.966  0.00  0.00    +0.209 HD
ENDBRANCH  40  41
ENDBRANCH  36  40
ENDBRANCH  34  36
ENDBRANCH   7  32
TORSDOF 18
ENDMDL
MODEL 3
REMARK VINA RESULT:      -4.7      2.483      7.446
REMARK  Name = *****
REMARK                            x       y       z     vdW  Elec       q    Type
REMARK                         _______ _______ _______ _____ _____    ______ ____
ROOT
ATOM      1  C   LIG    1       22.712 -30.294  13.749  0.00  0.00    +0.066 A 
ATOM      2  C   LIG    1       23.468 -30.973  12.756  0.00  0.00    +0.040 A 
ATOM      3  I   LIG    1       24.404 -33.306  12.870  0.00  0.00    -0.042 I 
ATOM      4  C   LIG    1       24.635 -30.401  12.246  0.00  0.00    +0.066 A 
ATOM      5  C   LIG    1       25.331 -29.561  13.144  0.00  0.00    +0.049 A 
ATOM      6  I   LIG    1       27.127 -30.681  14.053  0.00  0.00    -0.041 I 
ATOM      7  C   LIG    1       24.666 -28.834  14.144  0.00  0.00    +0.061 A 
ATOM      8  C   LIG    1       23.274 -29.025  14.209  0.00  0.00    +0.049 A 
ATOM      9  I   LIG    1       22.169 -27.091  14.050  0.00  0.00    -0.041 I 
ENDROOT
BRANCH   4  10
ATOM     10  C   LIG    1       24.525 -29.919  10.812  0.00  0.00    +0.248 C 
ATOM     11  N   LIG    1       25.611 -30.045   9.917  0.00  0.00    -0.298 N 
ATOM     12  C   LIG    1       26.801 -30.823  10.099  0.00  0.00    +0.132 C 
ATOM     13  O   LIG    1       23.470 -29.423  10.486  0.00  0.00    -0.270 OA
BRANCH  11  14
ATOM     14  C   LIG    1       25.612 -29.281   8.672  0.00  0.00    +0.141 C 
BRANCH  14  15
ATOM     15  C   LIG    1       25.023 -30.066   7.465  0.00  0.00    +0.157 C 
BRANCH  15  16
ATOM     16  O   LIG    1       26.021 -30.767   6.707  0.00  0.00    -0.388 OA
ATOM     17  H   LIG    1       25.683 -31.015   5.831  0.00  0.00    +0.210 HD
ENDBRANCH  15  16
BRANCH  15  18
ATOM     18  C   LIG    1       24.283 -29.117   6.527  0.00  0.00    +0.188 C 
BRANCH  18  19
ATOM     19  O   LIG    1       23.287 -29.769   5.764  0.00  0.00    -0.392 OA
ATOM     20  H   LIG    1       22.951 -30.534   6.267  0.00  0.00    +0.209 HD
ENDBRANCH  18  19
ENDBRANCH  15  18
ENDBRANCH  14  15
ENDBRANCH  11  14
ENDBRANCH   4  10
BRANCH   1  23
ATOM     21  C   LIG    1       18.793 -30.577  13.634  0.00  0.00    +0.132 C 
ATOM     22  N   LIG    1       20.186 -30.331  13.209  0.00  0.00    -0.298 N 
ATOM     23  C   LIG    1       21.204 -30.468  14.189  0.00  0.00    +0.248 C 
ATOM     24  O   LIG    1       20.893 -30.721  15.337  0.00  0.00    -0.270 OA
BRANCH  22  25
ATOM     25  C   LIG    1       20.354 -30.120  11.796  0.00  0.00    +0.141 C 
BRANCH  25  26
ATOM     26  C   LIG    1       20.292 -31.347  10.841  0.00  0.00    +0.157 C 
BRANCH  26  27
ATOM     27  O   LIG    1       21.341 -31.258   9.871  0.00  0.00    -0.388 OA
ATOM     28  H   LIG    1       21.613 -32.175   9.685  0.00  0.00    +0.210 HD
ENDBRANCH  26  27
BRANCH  26  29
ATOM     29  C   LIG    1       18.980 -31.677  10.076  0.00  0.00    +0.188 C 
BRANCH  29  30
ATOM     30  O   LIG    1       18.290 -30.537   9.617  0.00  0.00    -0.392 OA
ATOM     31  H   LIG    1       17.509 -30.436  10.184  0.00  0.00    +0.209 HD
ENDBRANCH  29  30
ENDBRANCH  26  29
ENDBRANCH  25  26
ENDBRANCH  22  25
ENDBRANCH   1  23
BRANCH   7  32
ATOM     32  N   LIG    1       25.334 -27.754  14.790  0.00  0.00    -0.283 N 
ATOM     33  H   LIG    1       25.092 -27.618  15.761  0.00  0.00    +0.155 HD
ATOM     34  C   LIG    1       25.910 -26.689  14.087  0.00  0.00    +0.225 C 
ATOM     35  O   LIG    1       26.035 -26.673  12.873  0.00  0.00    -0.275 OA
BRANCH  34  36
ATOM     36  C   LIG    1       26.322 -25.457  14.919  0.00  0.00    +0.126 C 
BRANCH  36  37
ATOM     37  C   LIG    1       25.375 -24.280  14.700  0.00  0.00    +0.170 C 
BRANCH  37  38
ATOM     38  O   LIG    1       25.173 -24.058  13.309  0.00  0.00    -0.394 OA
ATOM     39  H   LIG    1       24.335 -23.574  13.204  0.00  0.00    +0.209 HD
ENDBRANCH  37  38
ENDBRANCH  36  37
BRANCH  36  40
ATOM     40  C   LIG    1       27.788 -25.073  14.686  0.00  0.00    +0.170 C 
BRANCH  40  41
ATOM     41  O   LIG    1       27.990 -24.748  13.308  0.00  0.00    -0.394 OA
ATOM     42  H   LIG    1       28.655 -24.038  13.258  0.00  0.00    +0.209 HD
ENDBRANCH  40  41
ENDBRANCH  36  40
ENDBRANCH  34  36
ENDBRANCH   7  32
TORSDOF 18
ENDMDL
MODEL 4
REMARK VINA RESULT:      -3.9      3.646      7.368
REMARK  Name = *****
REMARK                            x       y       z     vdW  Elec       q    Type
REMARK                         _______ _______ _______ _____ _____    ______ ____
ROOT
ATOM      1  C   LIG    1       23.050 -31.630   9.696  0.00  0.00    +0.066 A 
ATOM      2  C   LIG    1       23.388 -31.718   8.319  0.00  0.00    +0.040 A 
ATOM      3  I   LIG    1       23.582 -33.799   6.917  0.00  0.00    -0.042 I 
ATOM      4  C   LIG    1       24.571 -31.145   7.847  0.00  0.00    +0.066 A 
ATOM      5  C   LIG    1       25.628 -31.099   8.783  0.00  0.00    +0.049 A 
ATOM      6  I   LIG    1       27.128 -32.800   8.377  0.00  0.00    -0.041 I 
ATOM      7  C   LIG    1       25.390 -30.991  10.162  0.00  0.00    +0.061 A 
ATOM      8  C   LIG    1       24.037 -30.965  10.545  0.00  0.00    +0.049 A 
ATOM      9  I   LIG    1       23.558 -29.153  11.758  0.00  0.00    -0.041 I 
ENDROOT
BRANCH   4  10
ATOM     10  C   LIG    1       24.373 -29.914   6.984  0.00  0.00    +0.248 C 
ATOM     11  N   LIG    1       25.031 -29.784   5.740  0.00  0.00    -0.298 N 
ATOM     12  C   LIG    1       25.718 -30.808   5.010  0.00  0.00    +0.132 C 
ATOM     13  O   LIG    1       23.634 -29.059   7.419  0.00  0.00    -0.270 OA
BRANCH  11  14
ATOM     14  C   LIG    1       25.104 -28.475   5.096  0.00  0.00    +0.141 C 
BRANCH  14  15
ATOM     15  C   LIG    1       26.048 -27.478   5.827  0.00  0.00    +0.157 C 
BRANCH  15  16
ATOM     16  O   LIG    1       26.225 -27.786   7.218  0.00  0.00    -0.388 OA
ATOM     17  H   LIG    1       25.626 -27.258   7.771  0.00  0.00    +0.210 HD
ENDBRANCH  15  16
BRANCH  15  18
ATOM     18  C   LIG    1       25.507 -26.056   5.713  0.00  0.00    +0.188 C 
BRANCH  18  19
ATOM     19  O   LIG    1       26.013 -25.197   6.716  0.00  0.00    -0.392 OA
ATOM     20  H   LIG    1       25.751 -25.540   7.590  0.00  0.00    +0.209 HD
ENDBRANCH  18  19
ENDBRANCH  15  18
ENDBRANCH  14  15
ENDBRANCH  11  14
ENDBRANCH   4  10
BRANCH   1  23
ATOM     21  C   LIG    1       20.191 -32.943  12.054  0.00  0.00    +0.132 C 
ATOM     22  N   LIG    1       21.478 -32.866  11.332  0.00  0.00    -0.298 N 
ATOM     23  C   LIG    1       21.656 -31.790  10.423  0.00  0.00    +0.248 C 
ATOM     24  O   LIG    1       20.736 -31.018  10.229  0.00  0.00    -0.270 OA
BRANCH  22  25
ATOM     25  C   LIG    1       22.463 -33.825  11.756  0.00  0.00    +0.141 C 
BRANCH  25  26
ATOM     26  C   LIG    1       23.304 -33.525  13.029  0.00  0.00    +0.157 C 
BRANCH  26  27
ATOM     27  O   LIG    1       22.877 -32.288  13.610  0.00  0.00    -0.388 OA
ATOM     28  H   LIG    1       22.104 -32.504  14.162  0.00  0.00    +0.210 HD
ENDBRANCH  26  27
BRANCH  26  29
ATOM     29  C   LIG    1       24.856 -33.487  12.951  0.00  0.00    +0.188 C 
BRANCH  29  30
ATOM     30  O   LIG    1       25.474 -33.079  14.150  0.00  0.00    -0.392 OA
ATOM     31  H   LIG    1       25.211 -32.157  14.300  0.00  0.00    +0.209 HD
ENDBRANCH  29  30
ENDBRANCH  26  29
ENDBRANCH  25  26
ENDBRANCH  22  25
ENDBRANCH   1  23
BRANCH   7  32
ATOM     32  N   LIG    1       26.452 -30.602  11.030  0.00  0.00    -0.283 N 
ATOM     33  H   LIG    1       26.463 -31.063  11.929  0.00  0.00    +0.155 HD
ATOM     34  C   LIG    1       27.144 -29.393  10.888  0.00  0.00    +0.225 C 
ATOM     35  O   LIG    1       27.015 -28.653   9.926  0.00  0.00    -0.275 OA
BRANCH  34  36
ATOM     36  C   LIG    1       28.046 -28.973  12.066  0.00  0.00    +0.126 C 
BRANCH  36  37
ATOM     37  C   LIG    1       29.456 -29.544  11.935  0.00  0.00    +0.170 C 
BRANCH  37  38
ATOM     38  O   LIG    1       30.114 -29.536  13.196  0.00  0.00    -0.394 OA
ATOM     39  H   LIG    1       30.317 -28.610  13.420  0.00  0.00    +0.209 HD
ENDBRANCH  37  38
ENDBRANCH  36  37
BRANCH  36  40
ATOM     40  C   LIG    1       27.410 -29.305  13.421  0.00  0.00    +0.170 C 
BRANCH  40  41
ATOM     41  O   LIG    1       27.495 -30.711  13.664  0.00  0.00    -0.394 OA
ATOM     42  H   LIG    1       28.365 -30.898  14.063  0.00  0.00    +0.209 HD
ENDBRANCH  40  41
ENDBRANCH  36  40
ENDBRANCH  34  36
ENDBRANCH   7  32
TORSDOF 18
ENDMDL
MODEL 5
REMARK VINA RESULT:      -3.7      5.031      7.994
REMARK  Name = *****
REMARK                            x       y       z     vdW  Elec       q    Type
REMARK                         _______ _______ _______ _____ _____    ______ ____
ROOT
ATOM      1  C   LIG    1       25.789 -31.882   8.105  0.00  0.00    +0.066 A 
ATOM      2  C   LIG    1       25.848 -30.467   8.217  0.00  0.00    +0.040 A 
ATOM      3  I   LIG    1       27.178 -29.113   9.871  0.00  0.00    -0.042 I 
ATOM      4  C   LIG    1       24.676 -29.723   8.368  0.00  0.00    +0.066 A 
ATOM      5  C   LIG    1       23.625 -30.392   9.032  0.00  0.00    +0.049 A 
ATOM      6  I   LIG    1       23.500 -29.700  11.226  0.00  0.00    -0.041 I 
ATOM      7  C   LIG    1       23.473 -31.786   8.962  0.00  0.00    +0.061 A 
ATOM      8  C   LIG    1       24.453 -32.466   8.216  0.00  0.00    +0.049 A 
ATOM      9  I   LIG    1       23.543 -33.707   6.599  0.00  0.00    -0.041 I 
ENDROOT
BRANCH   4  10
ATOM     10  C   LIG    1       24.296 -28.895   7.155  0.00  0.00    +0.248 C 
ATOM     11  N   LIG    1       24.920 -27.654   6.897  0.00  0.00    -0.298 N 
ATOM     12  C   LIG    1       26.102 -27.131   7.515  0.00  0.00    +0.132 C 
ATOM     13  O   LIG    1       23.436 -29.351   6.435  0.00  0.00    -0.270 OA
BRANCH  11  14
ATOM     14  C   LIG    1       24.316 -26.727   5.943  0.00  0.00    +0.141 C 
BRANCH  14  15
ATOM     15  C   LIG    1       24.282 -25.256   6.448  0.00  0.00    +0.157 C 
BRANCH  15  16
ATOM     16  O   LIG    1       22.953 -24.717   6.524  0.00  0.00    -0.388 OA
ATOM     17  H   LIG    1       22.699 -24.297   5.686  0.00  0.00    +0.210 HD
ENDBRANCH  15  16
BRANCH  15  18
ATOM     18  C   LIG    1       25.112 -24.362   5.532  0.00  0.00    +0.188 C 
BRANCH  18  19
ATOM     19  O   LIG    1       24.704 -24.435   4.180  0.00  0.00    -0.392 OA
ATOM     20  H   LIG    1       24.467 -23.542   3.872  0.00  0.00    +0.209 HD
ENDBRANCH  18  19
ENDBRANCH  15  18
ENDBRANCH  14  15
ENDBRANCH  11  14
ENDBRANCH   4  10
BRANCH   1  23
ATOM     21  C   LIG    1       28.146 -33.825   5.631  0.00  0.00    +0.132 C 
ATOM     22  N   LIG    1       27.103 -32.905   6.131  0.00  0.00    -0.298 N 
ATOM     23  C   LIG    1       26.839 -32.911   7.526  0.00  0.00    +0.248 C 
ATOM     24  O   LIG    1       27.429 -33.700   8.239  0.00  0.00    -0.270 OA
BRANCH  22  25
ATOM     25  C   LIG    1       26.576 -32.001   5.144  0.00  0.00    +0.141 C 
BRANCH  25  26
ATOM     26  C   LIG    1       26.041 -32.582   3.804  0.00  0.00    +0.157 C 
BRANCH  26  27
ATOM     27  O   LIG    1       25.372 -33.825   4.049  0.00  0.00    -0.388 OA
ATOM     28  H   LIG    1       24.517 -33.594   4.455  0.00  0.00    +0.210 HD
ENDBRANCH  26  27
BRANCH  26  29
ATOM     29  C   LIG    1       27.005 -32.804   2.606  0.00  0.00    +0.188 C 
BRANCH  29  30
ATOM     30  O   LIG    1       26.346 -32.983   1.374  0.00  0.00    -0.392 OA
ATOM     31  H   LIG    1       25.948 -32.129   1.143  0.00  0.00    +0.209 HD
ENDBRANCH  29  30
ENDBRANCH  26  29
ENDBRANCH  25  26
ENDBRANCH  22  25
ENDBRANCH   1  23
BRANCH   7  32
ATOM     32  N   LIG    1       22.234 -32.378   9.341  0.00  0.00    -0.283 N 
ATOM     33  H   LIG    1       21.422 -32.027   8.853  0.00  0.00    +0.155 HD
ATOM     34  C   LIG    1       22.050 -33.033  10.565  0.00  0.00    +0.225 C 
ATOM     35  O   LIG    1       22.963 -33.295  11.332  0.00  0.00    -0.275 OA
BRANCH  34  36
ATOM     36  C   LIG    1       20.594 -33.351  10.964  0.00  0.00    +0.126 C 
BRANCH  36  37
ATOM     37  C   LIG    1       19.644 -33.255   9.773  0.00  0.00    +0.170 C 
BRANCH  37  38
ATOM     38  O   LIG    1       18.417 -32.651  10.165  0.00  0.00    -0.394 OA
ATOM     39  H   LIG    1       18.449 -32.513  11.129  0.00  0.00    +0.209 HD
ENDBRANCH  37  38
ENDBRANCH  36  37
BRANCH  36  40
ATOM     40  C   LIG    1       20.127 -32.499  12.150  0.00  0.00    +0.170 C 
BRANCH  40  41
ATOM     41  O   LIG    1       19.293 -33.280  13.009  0.00  0.00    -0.394 OA
ATOM     42  H   LIG    1       19.856 -33.928  13.471  0.00  0.00    +0.209 HD
ENDBRANCH  40  41
ENDBRANCH  36  40
ENDBRANCH  34  36
ENDBRANCH   7  32
TORSDOF 18
ENDMDL
MODEL 6
REMARK VINA RESULT:      -3.4      2.008      2.254
REMARK  Name = *****
REMARK                            x       y       z     vdW  Elec       q    Type
REMARK                         _______ _______ _______ _____ _____    ______ ____
ROOT
ATOM      1  C   LIG    1       26.148 -30.557  11.828  0.00  0.00    +0.066 A 
ATOM      2  C   LIG    1       24.972 -31.137  12.375  0.00  0.00    +0.040 A 
ATOM      3  I   LIG    1       24.766 -33.331  13.591  0.00  0.00    -0.042 I 
ATOM      4  C   LIG    1       23.848 -31.340  11.571  0.00  0.00    +0.066 A 
ATOM      5  C   LIG    1       24.124 -31.573  10.206  0.00  0.00    +0.049 A 
ATOM      6  I   LIG    1       23.983 -33.824   9.738  0.00  0.00    -0.041 I 
ATOM      7  C   LIG    1       25.251 -31.024   9.574  0.00  0.00    +0.061 A 
ATOM      8  C   LIG    1       26.096 -30.258  10.398  0.00  0.00    +0.049 A 
ATOM      9  I   LIG    1       26.396 -28.201   9.585  0.00  0.00    -0.041 I 
ENDROOT
BRANCH   4  10
ATOM     10  C   LIG    1       22.679 -30.424  11.882  0.00  0.00    +0.248 C 
ATOM     11  N   LIG    1       21.389 -30.947  12.119  0.00  0.00    -0.298 N 
ATOM     12  C   LIG    1       21.037 -32.315  12.360  0.00  0.00    +0.132 C 
ATOM     13  O   LIG    1       22.913 -29.236  11.909  0.00  0.00    -0.270 OA
BRANCH  11  14
ATOM     14  C   LIG    1       20.230 -30.059  12.073  0.00  0.00    +0.141 C 
BRANCH  14  15
ATOM     15  C   LIG    1       19.359 -30.113  13.360  0.00  0.00    +0.157 C 
BRANCH  15  16
ATOM     16  O   LIG    1       17.957 -30.264  13.086  0.00  0.00    -0.388 OA
ATOM     17  H   LIG    1       17.642 -29.565  12.490  0.00  0.00    +0.210 HD
ENDBRANCH  15  16
BRANCH  15  18
ATOM     18  C   LIG    1       19.554 -28.845  14.186  0.00  0.00    +0.188 C 
BRANCH  18  19
ATOM     19  O   LIG    1       18.649 -27.818  13.834  0.00  0.00    -0.392 OA
ATOM     20  H   LIG    1       17.988 -27.720  14.542  0.00  0.00    +0.209 HD
ENDBRANCH  18  19
ENDBRANCH  15  18
ENDBRANCH  14  15
ENDBRANCH  11  14
ENDBRANCH   4  10
BRANCH   1  23
ATOM     21  C   LIG    1       28.267 -28.370  14.315  0.00  0.00    +0.132 C 
ATOM     22  N   LIG    1       27.105 -28.962  13.621  0.00  0.00    -0.298 N 
ATOM     23  C   LIG    1       27.366 -29.842  12.539  0.00  0.00    +0.248 C 
ATOM     24  O   LIG    1       28.516 -30.028  12.189  0.00  0.00    -0.270 OA
BRANCH  22  25
ATOM     25  C   LIG    1       25.834 -28.679  14.232  0.00  0.00    +0.141 C 
BRANCH  25  26
ATOM     26  C   LIG    1       25.102 -27.356  13.865  0.00  0.00    +0.157 C 
BRANCH  26  27
ATOM     27  O   LIG    1       25.880 -26.237  14.303  0.00  0.00    -0.388 OA
ATOM     28  H   LIG    1       26.614 -26.156  13.667  0.00  0.00    +0.210 HD
ENDBRANCH  26  27
BRANCH  26  29
ATOM     29  C   LIG    1       23.640 -27.115  14.333  0.00  0.00    +0.188 C 
BRANCH  29  30
ATOM     30  O   LIG    1       22.988 -26.075  13.642  0.00  0.00    -0.392 OA
ATOM     31  H   LIG    1       23.682 -25.501  13.281  0.00  0.00    +0.209 HD
ENDBRANCH  29  30
ENDBRANCH  26  29
ENDBRANCH  25  26
ENDBRANCH  22  25
ENDBRANCH   1  23
BRANCH   7  32
ATOM     32  N   LIG    1       25.312 -30.988   8.151  0.00  0.00    -0.283 N 
ATOM     33  H   LIG    1       24.482 -30.637   7.694  0.00  0.00    +0.155 HD
ATOM     34  C   LIG    1       26.205 -31.771   7.410  0.00  0.00    +0.225 C 
ATOM     35  O   LIG    1       27.108 -32.420   7.913  0.00  0.00    -0.275 OA
BRANCH  34  36
ATOM     36  C   LIG    1       25.951 -31.856   5.891  0.00  0.00    +0.126 C 
BRANCH  36  37
ATOM     37  C   LIG    1       25.282 -30.591   5.355  0.00  0.00    +0.170 C 
BRANCH  37  38
ATOM     38  O   LIG    1       23.899 -30.582   5.689  0.00  0.00    -0.394 OA
ATOM     39  H   LIG    1       23.507 -31.408   5.352  0.00  0.00    +0.209 HD
ENDBRANCH  37  38
ENDBRANCH  36  37
BRANCH  36  40
ATOM     40  C   LIG    1       25.180 -33.125   5.509  0.00  0.00    +0.170 C 
BRANCH  40  41
ATOM     41  O   LIG    1       24.528 -32.936   4.252  0.00  0.00    -0.394 OA
ATOM     42  H   LIG    1       23.769 -32.340   4.390  0.00  0.00    +0.209 HD
ENDBRANCH  40  41
ENDBRANCH  36  40
ENDBRANCH  34  36
ENDBRANCH   7  32
TORSDOF 18
ENDMDL
MODEL 7
REMARK VINA RESULT:      -3.4      2.912      6.662
REMARK  Name = *****
REMARK                            x       y       z     vdW  Elec       q    Type
REMARK                         _______ _______ _______ _____ _____    ______ ____
ROOT
ATOM      1  C   LIG    1       22.054 -32.597  10.753  0.00  0.00    +0.066 A 
ATOM      2  C   LIG    1       23.095 -31.990  11.505  0.00  0.00    +0.040 A 
ATOM      3  I   LIG    1       25.180 -33.082  12.399  0.00  0.00    -0.042 I 
ATOM      4  C   LIG    1       22.803 -31.305  12.686  0.00  0.00    +0.066 A 
ATOM      5  C   LIG    1       21.674 -31.780  13.390  0.00  0.00    +0.049 A 
ATOM      6  I   LIG    1       22.335 -33.100  15.158  0.00  0.00    -0.041 I 
ATOM      7  C   LIG    1       20.588 -32.375  12.730  0.00  0.00    +0.061 A 
ATOM      8  C   LIG    1       20.716 -32.493  11.334  0.00  0.00    +0.049 A 
ATOM      9  I   LIG    1       19.011 -31.525  10.265  0.00  0.00    -0.041 I 
ENDROOT
BRANCH   4  10
ATOM     10  C   LIG    1       22.963 -29.799  12.596  0.00  0.00    +0.248 C 
ATOM     11  N   LIG    1       23.499 -29.059  13.673  0.00  0.00    -0.298 N 
ATOM     12  C   LIG    1       24.179 -29.572  14.826  0.00  0.00    +0.132 C 
ATOM     13  O   LIG    1       22.606 -29.276  11.564  0.00  0.00    -0.270 OA
BRANCH  11  14
ATOM     14  C   LIG    1       23.330 -27.609  13.708  0.00  0.00    +0.141 C 
BRANCH  14  15
ATOM     15  C   LIG    1       21.956 -27.161  14.284  0.00  0.00    +0.157 C 
BRANCH  15  16
ATOM     16  O   LIG    1       21.275 -28.205  14.996  0.00  0.00    -0.388 OA
ATOM     17  H   LIG    1       21.188 -27.985  15.938  0.00  0.00    +0.210 HD
ENDBRANCH  15  16
BRANCH  15  18
ATOM     18  C   LIG    1       21.046 -26.671  13.162  0.00  0.00    +0.188 C 
BRANCH  18  19
ATOM     19  O   LIG    1       20.248 -27.702  12.615  0.00  0.00    -0.392 OA
ATOM     20  H   LIG    1       19.321 -27.562  12.882  0.00  0.00    +0.209 HD
ENDBRANCH  18  19
ENDBRANCH  15  18
ENDBRANCH  14  15
ENDBRANCH  11  14
ENDBRANCH   4  10
BRANCH   1  23
ATOM     21  C   LIG    1       22.962 -33.031   6.953  0.00  0.00    +0.132 C 
ATOM     22  N   LIG    1       22.982 -32.531   8.344  0.00  0.00    -0.298 N 
ATOM     23  C   LIG    1       22.009 -33.047   9.239  0.00  0.00    +0.248 C 
ATOM     24  O   LIG    1       21.171 -33.825   8.822  0.00  0.00    -0.270 OA
BRANCH  22  25
ATOM     25  C   LIG    1       24.095 -31.676   8.658  0.00  0.00    +0.141 C 
BRANCH  25  26
ATOM     26  C   LIG    1       24.748 -30.844   7.518  0.00  0.00    +0.157 C 
BRANCH  26  27
ATOM     27  O   LIG    1       26.084 -30.485   7.886  0.00  0.00    -0.388 OA
ATOM     28  H   LIG    1       26.243 -30.897   8.754  0.00  0.00    +0.210 HD
ENDBRANCH  26  27
BRANCH  26  29
ATOM     29  C   LIG    1       24.052 -29.557   6.991  0.00  0.00    +0.188 C 
BRANCH  29  30
ATOM     30  O   LIG    1       23.394 -29.734   5.758  0.00  0.00    -0.392 OA
ATOM     31  H   LIG    1       23.916 -29.258   5.092  0.00  0.00    +0.209 HD
ENDBRANCH  29  30
ENDBRANCH  26  29
ENDBRANCH  25  26
ENDBRANCH  22  25
ENDBRANCH   1  23
BRANCH   7  32
ATOM     32  N   LIG    1       19.345 -32.521  13.412  0.00  0.00    -0.283 N 
ATOM     33  H   LIG    1       18.827 -33.359  13.188  0.00  0.00    +0.155 HD
ATOM     34  C   LIG    1       18.658 -31.439  13.977  0.00  0.00    +0.225 C 
ATOM     35  O   LIG    1       19.134 -30.320  14.079  0.00  0.00    -0.275 OA
BRANCH  34  36
ATOM     36  C   LIG    1       17.200 -31.698  14.407  0.00  0.00    +0.126 C 
BRANCH  36  37
ATOM     37  C   LIG    1       16.701 -33.062  13.933  0.00  0.00    +0.170 C 
BRANCH  37  38
ATOM     38  O   LIG    1       16.383 -33.019  12.547  0.00  0.00    -0.394 OA
ATOM     39  H   LIG    1       17.010 -32.410  12.117  0.00  0.00    +0.209 HD
ENDBRANCH  37  38
ENDBRANCH  36  37
BRANCH  36  40
ATOM     40  C   LIG    1       16.267 -30.559  13.981  0.00  0.00    +0.170 C 
BRANCH  40  41
ATOM     41  O   LIG    1       16.578 -30.152  12.647  0.00  0.00    -0.394 OA
ATOM     42  H   LIG    1       15.848 -30.433  12.065  0.00  0.00    +0.209 HD
ENDBRANCH  40  41
ENDBRANCH  36  40
ENDBRANCH  34  36
ENDBRANCH   7  32
TORSDOF 18
ENDMDL
MODEL 8
REMARK VINA RESULT:      -3.0      2.941      4.117
REMARK  Name = *****
REMARK                            x       y       z     vdW  Elec       q    Type
REMARK                         _______ _______ _______ _____ _____    ______ ____
ROOT
ATOM      1  C   LIG    1       26.233 -30.502  11.166  0.00  0.00    +0.066 A 
ATOM      2  C   LIG    1       25.074 -31.321  11.093  0.00  0.00    +0.040 A 
ATOM      3  I   LIG    1       24.977 -33.824  10.849  0.00  0.00    -0.042 I 
ATOM      4  C   LIG    1       24.094 -31.069  10.131  0.00  0.00    +0.066 A 
ATOM      5  C   LIG    1       24.567 -30.489   8.933  0.00  0.00    +0.049 A 
ATOM      6  I   LIG    1       24.754 -32.093   7.291  0.00  0.00    -0.041 I 
ATOM      7  C   LIG    1       25.691 -29.649   8.911  0.00  0.00    +0.061 A 
ATOM      8  C   LIG    1       26.328 -29.455  10.150  0.00  0.00    +0.049 A 
ATOM      9  I   LIG    1       26.483 -27.288  10.666  0.00  0.00    -0.041 I 
ENDROOT
BRANCH   4  10
ATOM     10  C   LIG    1       22.795 -30.517  10.687  0.00  0.00    +0.248 C 
ATOM     11  N   LIG    1       21.564 -31.163  10.436  0.00  0.00    -0.298 N 
ATOM     12  C   LIG    1       21.366 -32.477   9.899  0.00  0.00    +0.132 C 
ATOM     13  O   LIG    1       22.873 -29.503  11.344  0.00  0.00    -0.270 OA
BRANCH  11  14
ATOM     14  C   LIG    1       20.312 -30.450  10.676  0.00  0.00    +0.141 C 
BRANCH  14  15
ATOM     15  C   LIG    1       19.047 -31.299  10.362  0.00  0.00    +0.157 C 
BRANCH  15  16
ATOM     16  O   LIG    1       18.129 -30.636   9.478  0.00  0.00    -0.388 OA
ATOM     17  H   LIG    1       18.582 -30.316   8.681  0.00  0.00    +0.210 HD
ENDBRANCH  15  16
BRANCH  15  18
ATOM     18  C   LIG    1       18.308 -31.647  11.651  0.00  0.00    +0.188 C 
BRANCH  18  19
ATOM     19  O   LIG    1       18.183 -30.542  12.524  0.00  0.00    -0.392 OA
ATOM     20  H   LIG    1       17.296 -30.152  12.418  0.00  0.00    +0.209 HD
ENDBRANCH  18  19
ENDBRANCH  15  18
ENDBRANCH  14  15
ENDBRANCH  11  14
ENDBRANCH   4  10
BRANCH   1  23
ATOM     21  C   LIG    1       27.766 -30.153  14.769  0.00  0.00    +0.132 C 
ATOM     22  N   LIG    1       26.774 -30.289  13.683  0.00  0.00    -0.298 N 
ATOM     23  C   LIG    1       27.257 -30.276  12.348  0.00  0.00    +0.248 C 
ATOM     24  O   LIG    1       28.444 -30.097  12.148  0.00  0.00    -0.270 OA
BRANCH  22  25
ATOM     25  C   LIG    1       25.434 -30.567  14.125  0.00  0.00    +0.141 C 
BRANCH  25  26
ATOM     26  C   LIG    1       24.415 -29.394  14.214  0.00  0.00    +0.157 C 
BRANCH  26  27
ATOM     27  O   LIG    1       25.047 -28.248  14.793  0.00  0.00    -0.388 OA
ATOM     28  H   LIG    1       25.527 -27.811  14.067  0.00  0.00    +0.210 HD
ENDBRANCH  26  27
BRANCH  26  29
ATOM     29  C   LIG    1       23.057 -29.592  14.944  0.00  0.00    +0.188 C 
BRANCH  29  30
ATOM     30  O   LIG    1       22.058 -30.171  14.136  0.00  0.00    -0.392 OA
ATOM     31  H   LIG    1       21.403 -30.561  14.737  0.00  0.00    +0.209 HD
ENDBRANCH  29  30
ENDBRANCH  26  29
ENDBRANCH  25  26
ENDBRANCH  22  25
ENDBRANCH   1  23
BRANCH   7  32
ATOM     32  N   LIG    1       25.928 -28.820   7.777  0.00  0.00    -0.283 N 
ATOM     33  H   LIG    1       26.815 -28.337   7.774  0.00  0.00    +0.155 HD
ATOM     34  C   LIG    1       24.896 -28.331   6.966  0.00  0.00    +0.225 C 
ATOM     35  O   LIG    1       23.736 -28.698   7.059  0.00  0.00    -0.275 OA
BRANCH  34  36
ATOM     36  C   LIG    1       25.272 -27.212   5.973  0.00  0.00    +0.126 C 
BRANCH  36  37
ATOM     37  C   LIG    1       26.603 -26.555   6.334  0.00  0.00    +0.170 C 
BRANCH  37  38
ATOM     38  O   LIG    1       27.631 -27.005   5.460  0.00  0.00    -0.394 OA
ATOM     39  H   LIG    1       28.388 -27.280   6.008  0.00  0.00    +0.209 HD
ENDBRANCH  37  38
ENDBRANCH  36  37
BRANCH  36  40
ATOM     40  C   LIG    1       24.144 -26.187   5.811  0.00  0.00    +0.170 C 
BRANCH  40  41
ATOM     41  O   LIG    1       24.535 -25.181   4.873  0.00  0.00    -0.394 OA
ATOM     42  H   LIG    1       24.480 -24.315   5.317  0.00  0.00    +0.209 HD
ENDBRANCH  40  41
ENDBRANCH  36  40
ENDBRANCH  34  36
ENDBRANCH   7  32
TORSDOF 18
ENDMDL
MODEL 9
REMARK VINA RESULT:      -2.9      2.414      6.989
REMARK  Name = *****
REMARK                            x       y       z     vdW  Elec       q    Type
REMARK                         _______ _______ _______ _____ _____    ______ ____
ROOT
ATOM      1  C   LIG    1       22.234 -32.707  10.941  0.00  0.00    +0.066 A 
ATOM      2  C   LIG    1       23.484 -32.321  11.497  0.00  0.00    +0.040 A 
ATOM      3  I   LIG    1       25.351 -33.825  12.265  0.00  0.00    -0.042 I 
ATOM      4  C   LIG    1       23.529 -31.492  12.619  0.00  0.00    +0.066 A 
ATOM      5  C   LIG    1       22.427 -31.611  13.495  0.00  0.00    +0.049 A 
ATOM      6  I   LIG    1       22.991 -32.907  15.314  0.00  0.00    -0.041 I 
ATOM      7  C   LIG    1       21.150 -31.966  13.034  0.00  0.00    +0.061 A 
ATOM      8  C   LIG    1       21.053 -32.224  11.655  0.00  0.00    +0.049 A 
ATOM      9  I   LIG    1       19.497 -30.950  10.685  0.00  0.00    -0.041 I 
ENDROOT
BRANCH   4  10
ATOM     10  C   LIG    1       24.029 -30.087  12.343  0.00  0.00    +0.248 C 
ATOM     11  N   LIG    1       24.996 -29.482  13.177  0.00  0.00    -0.298 N 
ATOM     12  C   LIG    1       25.806 -30.121  14.173  0.00  0.00    +0.132 C 
ATOM     13  O   LIG    1       23.554 -29.520  11.385  0.00  0.00    -0.270 OA
BRANCH  11  14
ATOM     14  C   LIG    1       25.208 -28.039  13.108  0.00  0.00    +0.141 C 
BRANCH  14  15
ATOM     15  C   LIG    1       24.260 -27.230  14.039  0.00  0.00    +0.157 C 
BRANCH  15  16
ATOM     16  O   LIG    1       23.298 -26.444  13.319  0.00  0.00    -0.388 OA
ATOM     17  H   LIG    1       23.408 -25.498  13.509  0.00  0.00    +0.210 HD
ENDBRANCH  15  16
BRANCH  15  18
ATOM     18  C   LIG    1       25.069 -26.297  14.936  0.00  0.00    +0.188 C 
BRANCH  18  19
ATOM     19  O   LIG    1       26.436 -26.650  15.001  0.00  0.00    -0.392 OA
ATOM     20  H   LIG    1       26.646 -26.944  15.906  0.00  0.00    +0.209 HD
ENDBRANCH  18  19
ENDBRANCH  15  18
ENDBRANCH  14  15
ENDBRANCH  11  14
ENDBRANCH   4  10
BRANCH   1  23
ATOM     21  C   LIG    1       22.482 -33.660   7.135  0.00  0.00    +0.132 C 
ATOM     22  N   LIG    1       22.811 -33.071   8.450  0.00  0.00    -0.298 N 
ATOM     23  C   LIG    1       21.876 -33.252   9.502  0.00  0.00    +0.248 C 
ATOM     24  O   LIG    1       20.827 -33.825   9.272  0.00  0.00    -0.270 OA
BRANCH  22  25
ATOM     25  C   LIG    1       24.129 -32.501   8.539  0.00  0.00    +0.141 C 
BRANCH  25  26
ATOM     26  C   LIG    1       24.342 -31.029   8.085  0.00  0.00    +0.157 C 
BRANCH  26  27
ATOM     27  O   LIG    1       23.280 -30.210   8.586  0.00  0.00    -0.388 OA
ATOM     28  H   LIG    1       22.555 -30.820   8.813  0.00  0.00    +0.210 HD
ENDBRANCH  26  27
BRANCH  26  29
ATOM     29  C   LIG    1       24.513 -30.692   6.577  0.00  0.00    +0.188 C 
BRANCH  29  30
ATOM     30  O   LIG    1       23.295 -30.465   5.906  0.00  0.00    -0.392 OA
ATOM     31  H   LIG    1       22.598 -30.865   6.449  0.00  0.00    +0.209 HD
ENDBRANCH  29  30
ENDBRANCH  26  29
ENDBRANCH  25  26
ENDBRANCH  22  25
ENDBRANCH   1  23
BRANCH   7  32
ATOM     32  N   LIG    1       20.014 -31.740  13.865  0.00  0.00    -0.283 N 
ATOM     33  H   LIG    1       19.200 -32.294  13.639  0.00  0.00    +0.155 HD
ATOM     34  C   LIG    1       19.843 -30.570  14.615  0.00  0.00    +0.225 C 
ATOM     35  O   LIG    1       20.714 -29.725  14.751  0.00  0.00    -0.275 OA
BRANCH  34  36
ATOM     36  C   LIG    1       18.443 -30.336  15.216  0.00  0.00    +0.126 C 
BRANCH  36  37
ATOM     37  C   LIG    1       17.524 -31.537  15.001  0.00  0.00    +0.170 C 
BRANCH  37  38
ATOM     38  O   LIG    1       17.022 -31.545  13.670  0.00  0.00    -0.394 OA
ATOM     39  H   LIG    1       16.056 -31.663  13.717  0.00  0.00    +0.209 HD
ENDBRANCH  37  38
ENDBRANCH  36  37
BRANCH  36  40
ATOM     40  C   LIG    1       17.816 -29.029  14.717  0.00  0.00    +0.170 C 
BRANCH  40  41
ATOM     41  O   LIG    1       18.565 -28.526  13.608  0.00  0.00    -0.394 OA
ATOM     42  H   LIG    1       18.724 -29.262  12.990  0.00  0.00    +0.209 HD
ENDBRANCH  40  41
ENDBRANCH  36  40
ENDBRANCH  34  36
ENDBRANCH   7  32
TORSDOF 18
ENDMDL
