MODEL 1
REMARK VINA RESULT:      -7.3      0.000      0.000
REMARK  Name = *****
REMARK                            x       y       z     vdW  Elec       q    Type
REMARK                         _______ _______ _______ _____ _____    ______ ____
ROOT
ATOM      1  C   LIG    1       26.108 -20.578   7.810  0.00  0.00    +0.027 C 
ATOM      2  C   LIG    1       25.806 -21.823   6.970  0.00  0.00    +0.084 C 
ATOM      3  C   LIG    1       24.319 -21.861   6.488  0.00  0.00    +0.165 C 
ATOM      4  O   LIG    1       24.043 -23.088   5.781  0.00  0.00    -0.369 OA
ATOM      5  C   LIG    1       24.341 -24.229   6.590  0.00  0.00    +0.176 C 
ATOM      6  C   LIG    1       25.810 -24.228   7.028  0.00  0.00    +0.109 C 
ATOM      7  N   LIG    1       26.162 -23.016   7.785  0.00  0.00    -0.309 NA
ATOM      8  H   LIG    1       25.617 -22.997   8.647  0.00  0.00    +0.122 HD
ENDROOT
BRANCH   3   9
ATOM      9  C   LIG    1       23.965 -20.718   5.555  0.00  0.00    -0.017 A 
ATOM     10  C   LIG    1       22.749 -20.029   5.685  0.00  0.00    +0.006 A 
ATOM     11  C   LIG    1       22.421 -18.992   4.810  0.00  0.00    +0.000 A 
ATOM     12  C   LIG    1       23.305 -18.629   3.797  0.00  0.00    +0.000 A 
ATOM     13  C   LIG    1       24.519 -19.300   3.659  0.00  0.00    +0.000 A 
ATOM     14  C   LIG    1       24.848 -20.338   4.533  0.00  0.00    +0.006 A 
ENDBRANCH   3   9
TORSDOF 1
ENDMDL
MODEL 2
REMARK VINA RESULT:      -6.9      2.783      3.962
REMARK  Name = *****
REMARK                            x       y       z     vdW  Elec       q    Type
REMARK                         _______ _______ _______ _____ _____    ______ ____
ROOT
ATOM      1  C   LIG    1       22.646 -23.534   6.618  0.00  0.00    +0.027 C 
ATOM      2  C   LIG    1       23.834 -24.500   6.604  0.00  0.00    +0.084 C 
ATOM      3  C   LIG    1       25.081 -23.888   5.884  0.00  0.00    +0.165 C 
ATOM      4  O   LIG    1       26.149 -24.854   5.806  0.00  0.00    -0.369 OA
ATOM      5  C   LIG    1       25.720 -26.048   5.145  0.00  0.00    +0.176 C 
ATOM      6  C   LIG    1       24.529 -26.684   5.871  0.00  0.00    +0.109 C 
ATOM      7  N   LIG    1       23.383 -25.765   5.965  0.00  0.00    -0.309 NA
ATOM      8  H   LIG    1       23.053 -25.556   5.023  0.00  0.00    +0.122 HD
ENDROOT
BRANCH   3   9
ATOM      9  C   LIG    1       25.635 -22.664   6.588  0.00  0.00    -0.017 A 
ATOM     10  C   LIG    1       25.820 -21.455   5.899  0.00  0.00    +0.006 A 
ATOM     11  C   LIG    1       26.350 -20.339   6.548  0.00  0.00    +0.000 A 
ATOM     12  C   LIG    1       26.698 -20.415   7.894  0.00  0.00    +0.000 A 
ATOM     13  C   LIG    1       26.514 -21.607   8.594  0.00  0.00    +0.000 A 
ATOM     14  C   LIG    1       25.986 -22.725   7.945  0.00  0.00    +0.006 A 
ENDBRANCH   3   9
TORSDOF 1
ENDMDL
MODEL 3
REMARK VINA RESULT:      -6.7      2.273      3.130
REMARK  Name = *****
REMARK                            x       y       z     vdW  Elec       q    Type
REMARK                         _______ _______ _______ _____ _____    ______ ____
ROOT
ATOM      1  C   LIG    1       25.873 -21.207   8.707  0.00  0.00    +0.027 C 
ATOM      2  C   LIG    1       26.805 -20.348   7.850  0.00  0.00    +0.084 C 
ATOM      3  C   LIG    1       26.694 -20.696   6.329  0.00  0.00    +0.165 C 
ATOM      4  O   LIG    1       27.650 -19.937   5.560  0.00  0.00    -0.369 OA
ATOM      5  C   LIG    1       28.983 -20.155   6.031  0.00  0.00    +0.176 C 
ATOM      6  C   LIG    1       29.116 -19.771   7.509  0.00  0.00    +0.109 C 
ATOM      7  N   LIG    1       28.189 -20.528   8.365  0.00  0.00    -0.309 NA
ATOM      8  H   LIG    1       28.431 -21.517   8.315  0.00  0.00    +0.122 HD
ENDROOT
BRANCH   3   9
ATOM      9  C   LIG    1       25.322 -20.405   5.750  0.00  0.00    -0.017 A 
ATOM     10  C   LIG    1       24.156 -20.663   6.488  0.00  0.00    +0.006 A 
ATOM     11  C   LIG    1       22.897 -20.413   5.940  0.00  0.00    +0.000 A 
ATOM     12  C   LIG    1       22.787 -19.898   4.651  0.00  0.00    +0.000 A 
ATOM     13  C   LIG    1       23.935 -19.631   3.908  0.00  0.00    +0.000 A 
ATOM     14  C   LIG    1       25.196 -19.883   4.454  0.00  0.00    +0.006 A 
ENDBRANCH   3   9
TORSDOF 1
ENDMDL
MODEL 4
REMARK VINA RESULT:      -6.6      2.339      4.432
REMARK  Name = *****
REMARK                            x       y       z     vdW  Elec       q    Type
REMARK                         _______ _______ _______ _____ _____    ______ ____
ROOT
ATOM      1  C   LIG    1       25.531 -19.956   4.390  0.00  0.00    +0.027 C 
ATOM      2  C   LIG    1       26.664 -20.464   5.285  0.00  0.00    +0.084 C 
ATOM      3  C   LIG    1       26.163 -20.819   6.724  0.00  0.00    +0.165 C 
ATOM      4  O   LIG    1       27.268 -21.204   7.568  0.00  0.00    -0.369 OA
ATOM      5  C   LIG    1       28.262 -20.177   7.619  0.00  0.00    +0.176 C 
ATOM      6  C   LIG    1       28.797 -19.855   6.219  0.00  0.00    +0.109 C 
ATOM      7  N   LIG    1       27.728 -19.424   5.303  0.00  0.00    -0.309 NA
ATOM      8  H   LIG    1       27.328 -18.553   5.653  0.00  0.00    +0.122 HD
ENDROOT
BRANCH   3   9
ATOM      9  C   LIG    1       25.166 -21.962   6.743  0.00  0.00    -0.017 A 
ATOM     10  C   LIG    1       25.581 -23.287   6.542  0.00  0.00    +0.006 A 
ATOM     11  C   LIG    1       24.655 -24.331   6.540  0.00  0.00    +0.000 A 
ATOM     12  C   LIG    1       23.303 -24.065   6.742  0.00  0.00    +0.000 A 
ATOM     13  C   LIG    1       22.876 -22.754   6.948  0.00  0.00    +0.000 A 
ATOM     14  C   LIG    1       23.801 -21.708   6.949  0.00  0.00    +0.006 A 
ENDBRANCH   3   9
TORSDOF 1
ENDMDL
MODEL 5
REMARK VINA RESULT:      -6.6      3.980      5.719
REMARK  Name = *****
REMARK                            x       y       z     vdW  Elec       q    Type
REMARK                         _______ _______ _______ _____ _____    ______ ____
ROOT
ATOM      1  C   LIG    1       28.381 -18.938   5.376  0.00  0.00    +0.027 C 
ATOM      2  C   LIG    1       29.335 -19.616   6.363  0.00  0.00    +0.084 C 
ATOM      3  C   LIG    1       28.685 -19.806   7.773  0.00  0.00    +0.165 C 
ATOM      4  O   LIG    1       29.638 -20.361   8.703  0.00  0.00    -0.369 OA
ATOM      5  C   LIG    1       30.809 -19.545   8.793  0.00  0.00    +0.176 C 
ATOM      6  C   LIG    1       31.482 -19.392   7.425  0.00  0.00    +0.109 C 
ATOM      7  N   LIG    1       30.578 -18.802   6.424  0.00  0.00    -0.309 NA
ATOM      8  H   LIG    1       30.335 -17.856   6.720  0.00  0.00    +0.122 HD
ENDROOT
BRANCH   3   9
ATOM      9  C   LIG    1       27.484 -20.734   7.755  0.00  0.00    -0.017 A 
ATOM     10  C   LIG    1       27.566 -22.012   7.181  0.00  0.00    +0.006 A 
ATOM     11  C   LIG    1       26.451 -22.851   7.151  0.00  0.00    +0.000 A 
ATOM     12  C   LIG    1       25.243 -22.426   7.696  0.00  0.00    +0.000 A 
ATOM     13  C   LIG    1       25.147 -21.161   8.274  0.00  0.00    +0.000 A 
ATOM     14  C   LIG    1       26.261 -20.320   8.304  0.00  0.00    +0.006 A 
ENDBRANCH   3   9
TORSDOF 1
ENDMDL
MODEL 6
REMARK VINA RESULT:      -6.5      1.385      2.497
REMARK  Name = *****
REMARK                            x       y       z     vdW  Elec       q    Type
REMARK                         _______ _______ _______ _____ _____    ______ ____
ROOT
ATOM      1  C   LIG    1       24.762 -23.503   5.317  0.00  0.00    +0.027 C 
ATOM      2  C   LIG    1       25.076 -22.631   6.535  0.00  0.00    +0.084 C 
ATOM      3  C   LIG    1       25.617 -21.221   6.127  0.00  0.00    +0.165 C 
ATOM      4  O   LIG    1       25.991 -20.460   7.294  0.00  0.00    -0.369 OA
ATOM      5  C   LIG    1       26.957 -21.162   8.081  0.00  0.00    +0.176 C 
ATOM      6  C   LIG    1       26.419 -22.526   8.529  0.00  0.00    +0.109 C 
ATOM      7  N   LIG    1       26.041 -23.375   7.388  0.00  0.00    -0.309 NA
ATOM      8  H   LIG    1       26.877 -23.575   6.838  0.00  0.00    +0.122 HD
ENDROOT
BRANCH   3   9
ATOM      9  C   LIG    1       24.603 -20.394   5.359  0.00  0.00    -0.017 A 
ATOM     10  C   LIG    1       24.954 -19.749   4.162  0.00  0.00    +0.006 A 
ATOM     11  C   LIG    1       24.022 -18.972   3.472  0.00  0.00    +0.000 A 
ATOM     12  C   LIG    1       22.727 -18.833   3.967  0.00  0.00    +0.000 A 
ATOM     13  C   LIG    1       22.363 -19.471   5.151  0.00  0.00    +0.000 A 
ATOM     14  C   LIG    1       23.294 -20.248   5.843  0.00  0.00    +0.006 A 
ENDBRANCH   3   9
TORSDOF 1
ENDMDL
MODEL 7
REMARK VINA RESULT:      -6.4      2.221      3.784
REMARK  Name = *****
REMARK                            x       y       z     vdW  Elec       q    Type
REMARK                         _______ _______ _______ _____ _____    ______ ____
ROOT
ATOM      1  C   LIG    1       23.393 -20.704   6.807  0.00  0.00    +0.027 C 
ATOM      2  C   LIG    1       23.957 -22.120   6.950  0.00  0.00    +0.084 C 
ATOM      3  C   LIG    1       25.237 -22.335   6.077  0.00  0.00    +0.165 C 
ATOM      4  O   LIG    1       25.688 -23.703   6.161  0.00  0.00    -0.369 OA
ATOM      5  C   LIG    1       24.655 -24.613   5.775  0.00  0.00    +0.176 C 
ATOM      6  C   LIG    1       23.412 -24.446   6.657  0.00  0.00    +0.109 C 
ATOM      7  N   LIG    1       22.873 -23.077   6.601  0.00  0.00    -0.309 NA
ATOM      8  H   LIG    1       22.563 -22.886   5.648  0.00  0.00    +0.122 HD
ENDROOT
BRANCH   3   9
ATOM      9  C   LIG    1       26.399 -21.454   6.494  0.00  0.00    -0.017 A 
ATOM     10  C   LIG    1       26.909 -20.472   5.630  0.00  0.00    +0.006 A 
ATOM     11  C   LIG    1       27.992 -19.679   6.014  0.00  0.00    +0.000 A 
ATOM     12  C   LIG    1       28.576 -19.854   7.266  0.00  0.00    +0.000 A 
ATOM     13  C   LIG    1       28.077 -20.821   8.137  0.00  0.00    +0.000 A 
ATOM     14  C   LIG    1       26.994 -21.616   7.755  0.00  0.00    +0.006 A 
ENDBRANCH   3   9
TORSDOF 1
ENDMDL
MODEL 8
REMARK VINA RESULT:      -6.3      2.353      4.317
REMARK  Name = *****
REMARK                            x       y       z     vdW  Elec       q    Type
REMARK                         _______ _______ _______ _____ _____    ______ ____
ROOT
ATOM      1  C   LIG    1       25.902 -24.041   6.537  0.00  0.00    +0.027 C 
ATOM      2  C   LIG    1       25.080 -22.797   6.187  0.00  0.00    +0.084 C 
ATOM      3  C   LIG    1       25.421 -21.587   7.117  0.00  0.00    +0.165 C 
ATOM      4  O   LIG    1       24.566 -20.462   6.824  0.00  0.00    -0.369 OA
ATOM      5  C   LIG    1       23.186 -20.817   6.942  0.00  0.00    +0.176 C 
ATOM      6  C   LIG    1       22.829 -21.970   5.999  0.00  0.00    +0.109 C 
ATOM      7  N   LIG    1       23.642 -23.170   6.256  0.00  0.00    -0.309 NA
ATOM      8  H   LIG    1       23.437 -23.509   7.197  0.00  0.00    +0.122 HD
ENDROOT
BRANCH   3   9
ATOM      9  C   LIG    1       26.854 -21.110   6.973  0.00  0.00    -0.017 A 
ATOM     10  C   LIG    1       27.852 -21.540   7.862  0.00  0.00    +0.006 A 
ATOM     11  C   LIG    1       29.164 -21.080   7.736  0.00  0.00    +0.000 A 
ATOM     12  C   LIG    1       29.496 -20.188   6.720  0.00  0.00    +0.000 A 
ATOM     13  C   LIG    1       28.517 -19.756   5.826  0.00  0.00    +0.000 A 
ATOM     14  C   LIG    1       27.204 -20.214   5.951  0.00  0.00    +0.006 A 
ENDBRANCH   3   9
TORSDOF 1
ENDMDL
MODEL 9
REMARK VINA RESULT:      -6.3      2.859      5.244
REMARK  Name = *****
REMARK                            x       y       z     vdW  Elec       q    Type
REMARK                         _______ _______ _______ _____ _____    ______ ____
ROOT
ATOM      1  C   LIG    1       22.808 -23.129   6.935  0.00  0.00    +0.027 C 
ATOM      2  C   LIG    1       24.197 -22.491   6.836  0.00  0.00    +0.084 C 
ATOM      3  C   LIG    1       25.323 -23.453   7.338  0.00  0.00    +0.165 C 
ATOM      4  O   LIG    1       26.604 -22.792   7.320  0.00  0.00    -0.369 OA
ATOM      5  C   LIG    1       26.579 -21.594   8.101  0.00  0.00    +0.176 C 
ATOM      6  C   LIG    1       25.512 -20.621   7.587  0.00  0.00    +0.109 C 
ATOM      7  N   LIG    1       24.166 -21.217   7.603  0.00  0.00    -0.309 NA
ATOM      8  H   LIG    1       23.910 -21.422   8.569  0.00  0.00    +0.122 HD
ENDROOT
BRANCH   3   9
ATOM      9  C   LIG    1       25.455 -24.708   6.495  0.00  0.00    -0.017 A 
ATOM     10  C   LIG    1       25.132 -24.698   5.129  0.00  0.00    +0.006 A 
ATOM     11  C   LIG    1       25.236 -25.861   4.364  0.00  0.00    +0.000 A 
ATOM     12  C   LIG    1       25.666 -27.047   4.954  0.00  0.00    +0.000 A 
ATOM     13  C   LIG    1       25.996 -27.071   6.308  0.00  0.00    +0.000 A 
ATOM     14  C   LIG    1       25.891 -25.909   7.075  0.00  0.00    +0.006 A 
ENDBRANCH   3   9
TORSDOF 1
ENDMDL
