MODEL 1
REMARK VINA RESULT:      -7.7      0.000      0.000
REMARK  Name = *****
REMARK                            x       y       z     vdW  Elec       q    Type
REMARK                         _______ _______ _______ _____ _____    ______ ____
ROOT
ATOM      1  O   LIG    1       23.163 -21.053   7.862  0.00  0.00    -0.265 OA
ATOM      2  C   LIG    1       24.085 -20.828   7.088  0.00  0.00    +0.279 C 
ATOM      3  C   LIG    1       25.488 -20.726   7.438  0.00  0.00    +0.172 A 
ATOM      4  N   LIG    1       26.110 -20.844   8.653  0.00  0.00    -0.229 NA
ATOM      5  C   LIG    1       27.390 -20.688   8.380  0.00  0.00    +0.203 A 
ATOM      6  N   LIG    1       27.615 -20.448   7.046  0.00  0.00    -0.288 N 
ATOM      7  C   LIG    1       26.393 -20.483   6.427  0.00  0.00    +0.169 A 
ATOM      8  N   LIG    1       26.150 -20.318   5.103  0.00  0.00    -0.218 NA
ATOM      9  C   LIG    1       24.885 -20.404   4.818  0.00  0.00    +0.201 C 
ATOM     10  N   LIG    1       23.872 -20.644   5.729  0.00  0.00    -0.312 N 
ATOM     11  H   LIG    1       22.911 -20.707   5.430  0.00  0.00    +0.170 HD
ENDROOT
BRANCH   6  12
ATOM     12  C   LIG    1       28.901 -20.295   6.383  0.00  0.00    +0.222 C 
ATOM     13  O   LIG    1       29.944 -20.792   7.252  0.00  0.00    -0.351 OA
ATOM     14  C   LIG    1       30.835 -19.709   7.573  0.00  0.00    +0.146 C 
ATOM     15  C   LIG    1       30.108 -18.425   7.214  0.00  0.00    +0.038 C 
ATOM     16  C   LIG    1       29.269 -18.857   6.037  0.00  0.00    +0.057 C 
BRANCH  14  17
ATOM     17  C   LIG    1       31.251 -19.778   9.041  0.00  0.00    +0.187 C 
BRANCH  17  18
ATOM     18  O   LIG    1       32.166 -20.845   9.252  0.00  0.00    -0.393 OA
ATOM     19  H   LIG    1       32.082 -21.108  10.186  0.00  0.00    +0.209 HD
ENDBRANCH  17  18
ENDBRANCH  14  17
ENDBRANCH   6  12
TORSDOF 3
ENDMDL
MODEL 2
REMARK VINA RESULT:      -7.4      2.222      6.065
REMARK  Name = *****
REMARK                            x       y       z     vdW  Elec       q    Type
REMARK                         _______ _______ _______ _____ _____    ______ ____
ROOT
ATOM      1  O   LIG    1       32.006 -18.781   7.128  0.00  0.00    -0.265 OA
ATOM      2  C   LIG    1       31.263 -19.646   7.578  0.00  0.00    +0.279 C 
ATOM      3  C   LIG    1       29.903 -19.909   7.153  0.00  0.00    +0.172 A 
ATOM      4  N   LIG    1       29.139 -19.296   6.197  0.00  0.00    -0.229 NA
ATOM      5  C   LIG    1       27.999 -19.960   6.216  0.00  0.00    +0.203 A 
ATOM      6  N   LIG    1       27.990 -20.955   7.163  0.00  0.00    -0.288 N 
ATOM      7  C   LIG    1       29.220 -20.939   7.764  0.00  0.00    +0.169 A 
ATOM      8  N   LIG    1       29.654 -21.771   8.744  0.00  0.00    -0.218 NA
ATOM      9  C   LIG    1       30.872 -21.507   9.114  0.00  0.00    +0.201 C 
ATOM     10  N   LIG    1       31.671 -20.508   8.588  0.00  0.00    -0.312 N 
ATOM     11  H   LIG    1       32.613 -20.368   8.920  0.00  0.00    +0.170 HD
ENDROOT
BRANCH   6  12
ATOM     12  C   LIG    1       26.931 -21.921   7.415  0.00  0.00    +0.222 C 
ATOM     13  O   LIG    1       26.153 -22.097   6.209  0.00  0.00    -0.351 OA
ATOM     14  C   LIG    1       24.800 -21.684   6.466  0.00  0.00    +0.146 C 
ATOM     15  C   LIG    1       24.829 -20.864   7.744  0.00  0.00    +0.038 C 
ATOM     16  C   LIG    1       25.952 -21.517   8.510  0.00  0.00    +0.057 C 
BRANCH  14  17
ATOM     17  C   LIG    1       24.240 -20.917   5.269  0.00  0.00    +0.187 C 
BRANCH  17  18
ATOM     18  O   LIG    1       24.030 -21.793   4.169  0.00  0.00    -0.393 OA
ATOM     19  H   LIG    1       24.898 -21.931   3.749  0.00  0.00    +0.209 HD
ENDBRANCH  17  18
ENDBRANCH  14  17
ENDBRANCH   6  12
TORSDOF 3
ENDMDL
MODEL 3
REMARK VINA RESULT:      -7.4      2.366      5.917
REMARK  Name = *****
REMARK                            x       y       z     vdW  Elec       q    Type
REMARK                         _______ _______ _______ _____ _____    ______ ____
ROOT
ATOM      1  O   LIG    1       31.070 -18.788   5.994  0.00  0.00    -0.265 OA
ATOM      2  C   LIG    1       30.550 -19.583   6.769  0.00  0.00    +0.279 C 
ATOM      3  C   LIG    1       29.172 -20.032   6.734  0.00  0.00    +0.172 A 
ATOM      4  N   LIG    1       28.154 -19.703   5.879  0.00  0.00    -0.229 NA
ATOM      5  C   LIG    1       27.133 -20.426   6.296  0.00  0.00    +0.203 A 
ATOM      6  N   LIG    1       27.444 -21.185   7.398  0.00  0.00    -0.288 N 
ATOM      7  C   LIG    1       28.763 -20.947   7.681  0.00  0.00    +0.169 A 
ATOM      8  N   LIG    1       29.493 -21.506   8.679  0.00  0.00    -0.218 NA
ATOM      9  C   LIG    1       30.721 -21.080   8.693  0.00  0.00    +0.201 C 
ATOM     10  N   LIG    1       31.263 -20.167   7.807  0.00  0.00    -0.312 N 
ATOM     11  H   LIG    1       32.230 -19.890   7.875  0.00  0.00    +0.170 HD
ENDROOT
BRANCH   6  12
ATOM     12  C   LIG    1       26.588 -22.144   8.078  0.00  0.00    +0.222 C 
ATOM     13  O   LIG    1       26.420 -23.308   7.238  0.00  0.00    -0.351 OA
ATOM     14  C   LIG    1       25.027 -23.444   6.907  0.00  0.00    +0.146 C 
ATOM     15  C   LIG    1       24.371 -22.112   7.225  0.00  0.00    +0.038 C 
ATOM     16  C   LIG    1       25.189 -21.631   8.397  0.00  0.00    +0.057 C 
BRANCH  14  17
ATOM     17  C   LIG    1       24.864 -23.865   5.448  0.00  0.00    +0.187 C 
BRANCH  17  18
ATOM     18  O   LIG    1       24.688 -22.727   4.616  0.00  0.00    -0.393 OA
ATOM     19  H   LIG    1       25.236 -22.869   3.823  0.00  0.00    +0.209 HD
ENDBRANCH  17  18
ENDBRANCH  14  17
ENDBRANCH   6  12
TORSDOF 3
ENDMDL
MODEL 4
REMARK VINA RESULT:      -7.0      1.706      5.737
REMARK  Name = *****
REMARK                            x       y       z     vdW  Elec       q    Type
REMARK                         _______ _______ _______ _____ _____    ______ ____
ROOT
ATOM      1  O   LIG    1       31.207 -20.521   8.156  0.00  0.00    -0.265 OA
ATOM      2  C   LIG    1       30.288 -20.149   7.437  0.00  0.00    +0.279 C 
ATOM      3  C   LIG    1       28.915 -20.612   7.498  0.00  0.00    +0.172 A 
ATOM      4  N   LIG    1       28.325 -21.530   8.324  0.00  0.00    -0.229 NA
ATOM      5  C   LIG    1       27.059 -21.535   7.955  0.00  0.00    +0.203 A 
ATOM      6  N   LIG    1       26.817 -20.678   6.909  0.00  0.00    -0.288 N 
ATOM      7  C   LIG    1       28.007 -20.068   6.615  0.00  0.00    +0.169 A 
ATOM      8  N   LIG    1       28.223 -19.128   5.660  0.00  0.00    -0.218 NA
ATOM      9  C   LIG    1       29.462 -18.738   5.620  0.00  0.00    +0.201 C 
ATOM     10  N   LIG    1       30.474 -19.197   6.444  0.00  0.00    -0.312 N 
ATOM     11  H   LIG    1       31.413 -18.840   6.359  0.00  0.00    +0.170 HD
ENDROOT
BRANCH   6  12
ATOM     12  C   LIG    1       25.533 -20.381   6.294  0.00  0.00    +0.222 C 
ATOM     13  O   LIG    1       24.485 -21.040   7.041  0.00  0.00    -0.351 OA
ATOM     14  C   LIG    1       23.824 -21.983   6.179  0.00  0.00    +0.146 C 
ATOM     15  C   LIG    1       24.737 -22.196   4.984  0.00  0.00    +0.038 C 
ATOM     16  C   LIG    1       25.398 -20.846   4.849  0.00  0.00    +0.057 C 
BRANCH  14  17
ATOM     17  C   LIG    1       23.512 -23.271   6.938  0.00  0.00    +0.187 C 
BRANCH  17  18
ATOM     18  O   LIG    1       22.204 -23.732   6.623  0.00  0.00    -0.393 OA
ATOM     19  H   LIG    1       21.852 -23.135   5.938  0.00  0.00    +0.209 HD
ENDBRANCH  17  18
ENDBRANCH  14  17
ENDBRANCH   6  12
TORSDOF 3
ENDMDL
MODEL 5
REMARK VINA RESULT:      -7.0      2.115      5.396
REMARK  Name = *****
REMARK                            x       y       z     vdW  Elec       q    Type
REMARK                         _______ _______ _______ _____ _____    ______ ____
ROOT
ATOM      1  O   LIG    1       29.208 -19.268   8.873  0.00  0.00    -0.265 OA
ATOM      2  C   LIG    1       28.569 -19.594   7.879  0.00  0.00    +0.279 C 
ATOM      3  C   LIG    1       27.311 -20.315   7.872  0.00  0.00    +0.172 A 
ATOM      4  N   LIG    1       26.557 -20.793   8.910  0.00  0.00    -0.229 NA
ATOM      5  C   LIG    1       25.507 -21.337   8.325  0.00  0.00    +0.203 A 
ATOM      6  N   LIG    1       25.569 -21.252   6.956  0.00  0.00    -0.288 N 
ATOM      7  C   LIG    1       26.725 -20.582   6.653  0.00  0.00    +0.169 A 
ATOM      8  N   LIG    1       27.173 -20.257   5.415  0.00  0.00    -0.218 NA
ATOM      9  C   LIG    1       28.306 -19.620   5.450  0.00  0.00    +0.201 C 
ATOM     10  N   LIG    1       29.003 -19.286   6.597  0.00  0.00    -0.312 N 
ATOM     11  H   LIG    1       29.874 -18.782   6.546  0.00  0.00    +0.170 HD
ENDROOT
BRANCH   6  12
ATOM     12  C   LIG    1       24.561 -21.684   6.000  0.00  0.00    +0.222 C 
ATOM     13  O   LIG    1       24.821 -21.061   4.722  0.00  0.00    -0.351 OA
ATOM     14  C   LIG    1       23.703 -20.226   4.375  0.00  0.00    +0.146 C 
ATOM     15  C   LIG    1       22.902 -20.019   5.649  0.00  0.00    +0.038 C 
ATOM     16  C   LIG    1       23.130 -21.320   6.379  0.00  0.00    +0.057 C 
BRANCH  14  17
ATOM     17  C   LIG    1       24.186 -18.921   3.746  0.00  0.00    +0.187 C 
BRANCH  17  18
ATOM     18  O   LIG    1       25.551 -19.025   3.366  0.00  0.00    -0.393 OA
ATOM     19  H   LIG    1       25.973 -19.636   3.995  0.00  0.00    +0.209 HD
ENDBRANCH  17  18
ENDBRANCH  14  17
ENDBRANCH   6  12
TORSDOF 3
ENDMDL
MODEL 6
REMARK VINA RESULT:      -7.0      2.001      6.055
REMARK  Name = *****
REMARK                            x       y       z     vdW  Elec       q    Type
REMARK                         _______ _______ _______ _____ _____    ______ ____
ROOT
ATOM      1  O   LIG    1       30.824 -18.797   6.176  0.00  0.00    -0.265 OA
ATOM      2  C   LIG    1       30.087 -19.624   6.701  0.00  0.00    +0.279 C 
ATOM      3  C   LIG    1       28.724 -19.924   6.308  0.00  0.00    +0.172 A 
ATOM      4  N   LIG    1       27.952 -19.394   5.309  0.00  0.00    -0.229 NA
ATOM      5  C   LIG    1       26.815 -20.056   5.390  0.00  0.00    +0.203 A 
ATOM      6  N   LIG    1       26.814 -20.970   6.416  0.00  0.00    -0.288 N 
ATOM      7  C   LIG    1       28.048 -20.902   7.006  0.00  0.00    +0.169 A 
ATOM      8  N   LIG    1       28.491 -21.649   8.048  0.00  0.00    -0.218 NA
ATOM      9  C   LIG    1       29.711 -21.353   8.387  0.00  0.00    +0.201 C 
ATOM     10  N   LIG    1       30.504 -20.398   7.775  0.00  0.00    -0.312 N 
ATOM     11  H   LIG    1       31.447 -20.230   8.088  0.00  0.00    +0.170 HD
ENDROOT
BRANCH   6  12
ATOM     12  C   LIG    1       25.760 -21.914   6.754  0.00  0.00    +0.222 C 
ATOM     13  O   LIG    1       24.843 -22.019   5.640  0.00  0.00    -0.351 OA
ATOM     14  C   LIG    1       23.543 -21.577   6.067  0.00  0.00    +0.146 C 
ATOM     15  C   LIG    1       23.746 -20.811   7.362  0.00  0.00    +0.038 C 
ATOM     16  C   LIG    1       24.927 -21.527   7.969  0.00  0.00    +0.057 C 
BRANCH  14  17
ATOM     17  C   LIG    1       22.875 -20.748   4.972  0.00  0.00    +0.187 C 
BRANCH  17  18
ATOM     18  O   LIG    1       22.509 -19.468   5.468  0.00  0.00    -0.393 OA
ATOM     19  H   LIG    1       23.127 -18.826   5.075  0.00  0.00    +0.209 HD
ENDBRANCH  17  18
ENDBRANCH  14  17
ENDBRANCH   6  12
TORSDOF 3
ENDMDL
MODEL 7
REMARK VINA RESULT:      -7.0      2.064      2.958
REMARK  Name = *****
REMARK                            x       y       z     vdW  Elec       q    Type
REMARK                         _______ _______ _______ _____ _____    ______ ____
ROOT
ATOM      1  O   LIG    1       25.008 -20.457   5.306  0.00  0.00    -0.265 OA
ATOM      2  C   LIG    1       25.753 -20.703   6.248  0.00  0.00    +0.279 C 
ATOM      3  C   LIG    1       27.139 -20.298   6.369  0.00  0.00    +0.172 A 
ATOM      4  N   LIG    1       27.931 -19.579   5.513  0.00  0.00    -0.229 NA
ATOM      5  C   LIG    1       29.087 -19.485   6.141  0.00  0.00    +0.203 A 
ATOM      6  N   LIG    1       29.079 -20.135   7.351  0.00  0.00    -0.288 N 
ATOM      7  C   LIG    1       27.821 -20.653   7.513  0.00  0.00    +0.169 A 
ATOM      8  N   LIG    1       27.365 -21.355   8.580  0.00  0.00    -0.218 NA
ATOM      9  C   LIG    1       26.123 -21.715   8.441  0.00  0.00    +0.201 C 
ATOM     10  N   LIG    1       25.322 -21.428   7.351  0.00  0.00    -0.312 N 
ATOM     11  H   LIG    1       24.362 -21.733   7.318  0.00  0.00    +0.170 HD
ENDROOT
BRANCH   6  12
ATOM     12  C   LIG    1       30.152 -20.182   8.332  0.00  0.00    +0.222 C 
ATOM     13  O   LIG    1       29.897 -19.198   9.360  0.00  0.00    -0.351 OA
ATOM     14  C   LIG    1       30.966 -18.236   9.357  0.00  0.00    +0.146 C 
ATOM     15  C   LIG    1       31.700 -18.404   8.038  0.00  0.00    +0.038 C 
ATOM     16  C   LIG    1       31.537 -19.880   7.774  0.00  0.00    +0.057 C 
BRANCH  14  17
ATOM     17  C   LIG    1       30.416 -16.826   9.567  0.00  0.00    +0.187 C 
BRANCH  17  18
ATOM     18  O   LIG    1       30.159 -16.591  10.945  0.00  0.00    -0.393 OA
ATOM     19  H   LIG    1       30.079 -17.464  11.370  0.00  0.00    +0.209 HD
ENDBRANCH  17  18
ENDBRANCH  14  17
ENDBRANCH   6  12
TORSDOF 3
ENDMDL
MODEL 8
REMARK VINA RESULT:      -6.7      4.988      6.952
REMARK  Name = *****
REMARK                            x       y       z     vdW  Elec       q    Type
REMARK                         _______ _______ _______ _____ _____    ______ ____
ROOT
ATOM      1  O   LIG    1       23.259 -20.709   7.580  0.00  0.00    -0.265 OA
ATOM      2  C   LIG    1       24.238 -21.435   7.453  0.00  0.00    +0.279 C 
ATOM      3  C   LIG    1       24.219 -22.830   7.059  0.00  0.00    +0.172 A 
ATOM      4  N   LIG    1       23.168 -23.650   6.746  0.00  0.00    -0.229 NA
ATOM      5  C   LIG    1       23.733 -24.800   6.436  0.00  0.00    +0.203 A 
ATOM      6  N   LIG    1       25.100 -24.762   6.563  0.00  0.00    -0.288 N 
ATOM      7  C   LIG    1       25.425 -23.490   6.952  0.00  0.00    +0.169 A 
ATOM      8  N   LIG    1       26.672 -23.003   7.174  0.00  0.00    -0.218 NA
ATOM      9  C   LIG    1       26.659 -21.755   7.535  0.00  0.00    +0.201 C 
ATOM     10  N   LIG    1       25.527 -20.974   7.681  0.00  0.00    -0.312 N 
ATOM     11  H   LIG    1       25.596 -20.007   7.957  0.00  0.00    +0.170 HD
ENDROOT
BRANCH   6  12
ATOM     12  C   LIG    1       26.044 -25.822   6.243  0.00  0.00    +0.222 C 
ATOM     13  O   LIG    1       25.571 -26.543   5.082  0.00  0.00    -0.351 OA
ATOM     14  C   LIG    1       25.326 -27.910   5.454  0.00  0.00    +0.146 C 
ATOM     15  C   LIG    1       25.270 -27.947   6.971  0.00  0.00    +0.038 C 
ATOM     16  C   LIG    1       26.239 -26.853   7.347  0.00  0.00    +0.057 C 
BRANCH  14  17
ATOM     17  C   LIG    1       24.050 -28.423   4.790  0.00  0.00    +0.187 C 
BRANCH  17  18
ATOM     18  O   LIG    1       23.404 -29.380   5.619  0.00  0.00    -0.393 OA
ATOM     19  H   LIG    1       23.429 -30.229   5.143  0.00  0.00    +0.209 HD
ENDBRANCH  17  18
ENDBRANCH  14  17
ENDBRANCH   6  12
TORSDOF 3
ENDMDL
MODEL 9
REMARK VINA RESULT:      -6.5      4.642      6.292
REMARK  Name = *****
REMARK                            x       y       z     vdW  Elec       q    Type
REMARK                         _______ _______ _______ _____ _____    ______ ____
ROOT
ATOM      1  O   LIG    1       26.211 -20.198   7.552  0.00  0.00    -0.265 OA
ATOM      2  C   LIG    1       25.710 -20.921   6.699  0.00  0.00    +0.279 C 
ATOM      3  C   LIG    1       25.630 -22.368   6.748  0.00  0.00    +0.172 A 
ATOM      4  N   LIG    1       26.067 -23.249   7.700  0.00  0.00    -0.229 NA
ATOM      5  C   LIG    1       25.705 -24.431   7.241  0.00  0.00    +0.203 A 
ATOM      6  N   LIG    1       25.078 -24.349   6.021  0.00  0.00    -0.288 N 
ATOM      7  C   LIG    1       25.013 -23.019   5.700  0.00  0.00    +0.169 A 
ATOM      8  N   LIG    1       24.452 -22.480   4.589  0.00  0.00    -0.218 NA
ATOM      9  C   LIG    1       24.547 -21.183   4.566  0.00  0.00    +0.201 C 
ATOM     10  N   LIG    1       25.137 -20.404   5.545  0.00  0.00    -0.312 N 
ATOM     11  H   LIG    1       25.165 -19.400   5.462  0.00  0.00    +0.170 HD
ENDROOT
BRANCH   6  12
ATOM     12  C   LIG    1       24.492 -25.439   5.257  0.00  0.00    +0.222 C 
ATOM     13  O   LIG    1       24.025 -26.459   6.169  0.00  0.00    -0.351 OA
ATOM     14  C   LIG    1       24.747 -27.676   5.913  0.00  0.00    +0.146 C 
ATOM     15  C   LIG    1       25.964 -27.295   5.089  0.00  0.00    +0.038 C 
ATOM     16  C   LIG    1       25.449 -26.124   4.290  0.00  0.00    +0.057 C 
BRANCH  14  17
ATOM     17  C   LIG    1       25.100 -28.374   7.225  0.00  0.00    +0.187 C 
BRANCH  17  18
ATOM     18  O   LIG    1       26.306 -27.848   7.762  0.00  0.00    -0.393 OA
ATOM     19  H   LIG    1       26.223 -27.885   8.732  0.00  0.00    +0.209 HD
ENDBRANCH  17  18
ENDBRANCH  14  17
ENDBRANCH   6  12
TORSDOF 3
ENDMDL
