MODEL 1
REMARK VINA RESULT:       6.1      0.000      0.000
REMARK  Name = *****
REMARK                            x       y       z     vdW  Elec       q    Type
REMARK                         _______ _______ _______ _____ _____    ______ ____
ROOT
ATOM      1  C   LIG    1       26.407 -16.935   3.918  0.00  0.00    +0.162 C 
ENDROOT
BRANCH   1   7
ATOM      2  C   LIG    1       23.705 -11.451   5.644  0.00  0.00    +0.007 C 
ATOM      3  C   LIG    1       24.096 -12.691   4.852  0.00  0.00    -0.010 C 
ATOM      4  C   LIG    1       23.300 -13.958   5.156  0.00  0.00    +0.037 C 
ATOM      5  C   LIG    1       23.536 -15.069   4.079  0.00  0.00    +0.185 C 
ATOM      6  N   LIG    1       24.817 -14.830   3.358  0.00  0.00    -0.287 N 
ATOM      7  C   LIG    1       25.981 -15.578   3.209  0.00  0.00    +0.235 C 
ATOM      8  O   LIG    1       26.781 -15.169   2.341  0.00  0.00    -0.274 OA
ATOM      9  C   LIG    1       24.656 -13.554   2.586  0.00  0.00    +0.109 C 
ATOM     10  C   LIG    1       23.841 -12.485   3.367  0.00  0.00    +0.022 C 
BRANCH   5  11
ATOM     11  C   LIG    1       22.830 -16.326   4.720  0.00  0.00    +0.326 C 
ATOM     12  O   LIG    1       22.989 -17.425   4.446  0.00  0.00    -0.249 OA
BRANCH  11  13
ATOM     13  O   LIG    1       21.927 -15.838   5.670  0.00  0.00    -0.479 OA
ATOM     14  H   LIG    1       21.083 -16.023   5.185  0.00  0.00    +0.295 HD
ENDBRANCH  11  13
ENDBRANCH   5  11
ENDBRANCH   1   7
BRANCH   1  15
ATOM     15  N   LIG    1       25.740 -18.204   3.531  0.00  0.00    -0.178 NA
ATOM     16  H   LIG    1       25.253 -18.225   2.636  0.00  0.00    +0.149 HD
BRANCH  15  17
ATOM     17  S   LIG    1       26.266 -19.763   3.852  0.00  0.00    +0.061 S 
ATOM     18  O   LIG    1       27.549 -19.682   4.514  0.00  0.00    -0.153 OA
ATOM     19  O   LIG    1       26.146 -20.436   2.571  0.00  0.00    -0.153 OA
BRANCH  17  20
ATOM     20  C   LIG    1       24.993 -20.407   4.893  0.00  0.00    +0.126 A 
ATOM     21  C   LIG    1       23.679 -20.548   4.428  0.00  0.00    +0.057 A 
ATOM     22  N   LIG    1       23.296 -20.073   3.161  0.00  0.00    -0.342 N 
ATOM     23  H   LIG    1       24.071 -20.129   2.487  0.00  0.00    +0.146 HD
ATOM     24  C   LIG    1       22.074 -20.630   2.620  0.00  0.00    +0.105 C 
ATOM     25  C   LIG    1       20.949 -20.407   3.625  0.00  0.00    +0.007 C 
ATOM     26  C   LIG    1       20.771 -18.924   3.990  0.00  0.00    +0.009 C 
ATOM     27  C   LIG    1       21.280 -21.257   4.856  0.00  0.00    +0.041 C 
ATOM     28  C   LIG    1       22.707 -21.057   5.320  0.00  0.00    -0.024 A 
ATOM     29  C   LIG    1       23.069 -21.455   6.615  0.00  0.00    +0.005 A 
ATOM     30  C   LIG    1       24.385 -21.321   7.052  0.00  0.00    +0.002 A 
ATOM     31  C   LIG    1       25.347 -20.793   6.196  0.00  0.00    +0.030 A 
ENDBRANCH  17  20
ENDBRANCH  15  17
ENDBRANCH   1  15
BRANCH   1  32
ATOM     32  C   LIG    1       27.883 -17.356   4.170  0.00  0.00    +0.033 C 
BRANCH  32  33
ATOM     33  C   LIG    1       28.776 -16.531   5.204  0.00  0.00    +0.039 C 
BRANCH  33  34
ATOM     34  C   LIG    1       28.519 -14.963   5.361  0.00  0.00    +0.196 C 
BRANCH  34  35
ATOM     35  N   LIG    1       28.863 -13.991   4.352  0.00  0.00    -0.276 N 
ATOM     36  H   LIG    1       29.471 -14.346   3.614  0.00  0.00    +0.258 HD
BRANCH  35  37
ATOM     37  C   LIG    1       28.543 -12.715   4.135  0.00  0.00    +0.376 C 
ATOM     38  N   LIG    1       27.866 -12.418   3.090  0.00  0.00    -0.130 NA
ATOM     39  H   LIG    1       27.724 -11.412   3.038  0.00  0.00    +0.306 HD
BRANCH  37  40
ATOM     40  N   LIG    1       28.995 -11.887   5.072  0.00  0.00    -0.289 N 
ATOM     41  H   LIG    1       29.243 -12.144   6.012  0.00  0.00    +0.255 HD
ATOM     42  H   LIG    1       29.521 -11.134   4.689  0.00  0.00    +0.255 HD
ENDBRANCH  37  40
ENDBRANCH  35  37
ENDBRANCH  34  35
ENDBRANCH  33  34
ENDBRANCH  32  33
ENDBRANCH   1  32
TORSDOF 12
ENDMDL
MODEL 2
REMARK VINA RESULT:       8.7      2.193      6.763
REMARK  Name = *****
REMARK                            x       y       z     vdW  Elec       q    Type
REMARK                         _______ _______ _______ _____ _____    ______ ____
ROOT
ATOM      1  C   LIG    1       25.289 -19.906   3.647  0.00  0.00    +0.162 C 
ENDROOT
BRANCH   1   7
ATOM      2  C   LIG    1       19.352 -17.924   2.561  0.00  0.00    +0.007 C 
ATOM      3  C   LIG    1       20.547 -18.733   3.045  0.00  0.00    -0.010 C 
ATOM      4  C   LIG    1       21.181 -18.274   4.356  0.00  0.00    +0.037 C 
ATOM      5  C   LIG    1       22.164 -19.343   4.937  0.00  0.00    +0.185 C 
ATOM      6  N   LIG    1       22.626 -20.265   3.862  0.00  0.00    -0.287 N 
ATOM      7  C   LIG    1       23.880 -20.575   3.346  0.00  0.00    +0.235 C 
ATOM      8  O   LIG    1       23.925 -21.570   2.591  0.00  0.00    -0.274 OA
ATOM      9  C   LIG    1       21.425 -21.036   3.398  0.00  0.00    +0.109 C 
ATOM     10  C   LIG    1       20.138 -20.165   3.358  0.00  0.00    +0.022 C 
BRANCH   5  11
ATOM     11  C   LIG    1       22.861 -18.565   6.119  0.00  0.00    +0.326 C 
ATOM     12  O   LIG    1       22.935 -17.432   6.255  0.00  0.00    -0.249 OA
BRANCH  11  13
ATOM     13  O   LIG    1       23.418 -19.531   6.962  0.00  0.00    -0.479 OA
ATOM     14  H   LIG    1       22.733 -20.239   6.853  0.00  0.00    +0.295 HD
ENDBRANCH  11  13
ENDBRANCH   5  11
ENDBRANCH   1   7
BRANCH   1  15
ATOM     15  N   LIG    1       25.357 -18.459   3.974  0.00  0.00    -0.178 NA
ATOM     16  H   LIG    1       25.031 -18.170   4.895  0.00  0.00    +0.149 HD
BRANCH  15  17
ATOM     17  S   LIG    1       26.534 -17.367   3.494  0.00  0.00    +0.061 S 
ATOM     18  O   LIG    1       26.803 -17.577   2.089  0.00  0.00    -0.153 OA
ATOM     19  O   LIG    1       27.590 -17.545   4.475  0.00  0.00    -0.153 OA
BRANCH  17  20
ATOM     20  C   LIG    1       25.785 -15.801   3.825  0.00  0.00    +0.126 A 
ATOM     21  C   LIG    1       26.554 -14.634   3.910  0.00  0.00    +0.057 A 
ATOM     22  N   LIG    1       27.959 -14.677   3.855  0.00  0.00    -0.342 N 
ATOM     23  H   LIG    1       28.290 -15.449   3.261  0.00  0.00    +0.146 HD
ATOM     24  C   LIG    1       28.617 -13.430   3.530  0.00  0.00    +0.105 C 
ATOM     25  C   LIG    1       28.165 -12.365   4.522  0.00  0.00    +0.007 C 
ATOM     26  C   LIG    1       28.429 -12.769   5.981  0.00  0.00    +0.009 C 
ATOM     27  C   LIG    1       26.674 -12.124   4.264  0.00  0.00    +0.041 C 
ATOM     28  C   LIG    1       25.891 -13.418   4.192  0.00  0.00    -0.024 A 
ATOM     29  C   LIG    1       24.496 -13.383   4.330  0.00  0.00    +0.005 A 
ATOM     30  C   LIG    1       23.748 -14.554   4.226  0.00  0.00    +0.002 A 
ATOM     31  C   LIG    1       24.389 -15.764   3.979  0.00  0.00    +0.030 A 
ENDBRANCH  17  20
ENDBRANCH  15  17
ENDBRANCH   1  15
BRANCH   1  32
ATOM     32  C   LIG    1       26.374 -20.542   4.561  0.00  0.00    +0.033 C 
BRANCH  32  33
ATOM     33  C   LIG    1       25.934 -21.416   5.823  0.00  0.00    +0.039 C 
BRANCH  33  34
ATOM     34  C   LIG    1       26.937 -21.536   7.060  0.00  0.00    +0.196 C 
BRANCH  34  35
ATOM     35  N   LIG    1       28.282 -21.015   7.053  0.00  0.00    -0.276 N 
ATOM     36  H   LIG    1       28.933 -21.518   7.656  0.00  0.00    +0.258 HD
BRANCH  35  37
ATOM     37  C   LIG    1       28.897 -20.022   6.408  0.00  0.00    +0.376 C 
ATOM     38  N   LIG    1       29.013 -18.888   6.989  0.00  0.00    -0.130 NA
ATOM     39  H   LIG    1       29.472 -18.222   6.371  0.00  0.00    +0.306 HD
BRANCH  37  40
ATOM     40  N   LIG    1       29.320 -20.360   5.193  0.00  0.00    -0.289 N 
ATOM     41  H   LIG    1       29.584 -21.285   4.900  0.00  0.00    +0.255 HD
ATOM     42  H   LIG    1       28.917 -19.793   4.482  0.00  0.00    +0.255 HD
ENDBRANCH  37  40
ENDBRANCH  35  37
ENDBRANCH  34  35
ENDBRANCH  33  34
ENDBRANCH  32  33
ENDBRANCH   1  32
TORSDOF 12
ENDMDL
MODEL 3
REMARK VINA RESULT:       9.0      1.967      5.195
REMARK  Name = *****
REMARK                            x       y       z     vdW  Elec       q    Type
REMARK                         _______ _______ _______ _____ _____    ______ ____
ROOT
ATOM      1  C   LIG    1       24.806 -16.789   3.620  0.00  0.00    +0.162 C 
ENDROOT
BRANCH   1   7
ATOM      2  C   LIG    1       27.848 -21.181   7.057  0.00  0.00    +0.007 C 
ATOM      3  C   LIG    1       27.407 -20.285   5.908  0.00  0.00    -0.010 C 
ATOM      4  C   LIG    1       28.065 -18.909   5.840  0.00  0.00    +0.037 C 
ATOM      5  C   LIG    1       27.810 -18.206   4.466  0.00  0.00    +0.185 C 
ATOM      6  N   LIG    1       26.611 -18.785   3.800  0.00  0.00    -0.287 N 
ATOM      7  C   LIG    1       25.400 -18.244   3.380  0.00  0.00    +0.235 C 
ATOM      8  O   LIG    1       24.703 -18.978   2.646  0.00  0.00    -0.274 OA
ATOM      9  C   LIG    1       26.939 -20.210   3.464  0.00  0.00    +0.109 C 
ATOM     10  C   LIG    1       27.786 -20.901   4.569  0.00  0.00    +0.022 C 
BRANCH   5  11
ATOM     11  C   LIG    1       28.356 -16.747   4.719  0.00  0.00    +0.326 C 
ATOM     12  O   LIG    1       28.163 -15.815   4.084  0.00  0.00    -0.249 OA
BRANCH  11  13
ATOM     13  O   LIG    1       29.166 -16.813   5.857  0.00  0.00    -0.479 OA
ATOM     14  H   LIG    1       29.946 -16.306   5.515  0.00  0.00    +0.295 HD
ENDBRANCH  11  13
ENDBRANCH   5  11
ENDBRANCH   1   7
BRANCH   1  15
ATOM     15  N   LIG    1       23.833 -16.568   4.719  0.00  0.00    -0.178 NA
ATOM     16  H   LIG    1       24.179 -16.136   5.574  0.00  0.00    +0.149 HD
BRANCH  15  17
ATOM     17  S   LIG    1       22.214 -16.159   4.570  0.00  0.00    +0.061 S 
ATOM     18  O   LIG    1       22.084 -15.207   3.489  0.00  0.00    -0.153 OA
ATOM     19  O   LIG    1       21.828 -15.789   5.920  0.00  0.00    -0.153 OA
BRANCH  17  20
ATOM     20  C   LIG    1       21.440 -17.708   4.220  0.00  0.00    +0.126 A 
ATOM     21  C   LIG    1       21.897 -18.894   4.807  0.00  0.00    +0.057 A 
ATOM     22  N   LIG    1       23.059 -18.919   5.600  0.00  0.00    -0.342 N 
ATOM     23  H   LIG    1       23.190 -18.032   6.104  0.00  0.00    +0.146 HD
ATOM     24  C   LIG    1       23.200 -20.060   6.479  0.00  0.00    +0.105 C 
ATOM     25  C   LIG    1       23.109 -21.334   5.645  0.00  0.00    +0.007 C 
ATOM     26  C   LIG    1       24.148 -21.372   4.513  0.00  0.00    +0.009 C 
ATOM     27  C   LIG    1       21.678 -21.405   5.101  0.00  0.00    +0.041 C 
ATOM     28  C   LIG    1       21.241 -20.100   4.470  0.00  0.00    -0.024 A 
ATOM     29  C   LIG    1       20.131 -20.091   3.613  0.00  0.00    +0.005 A 
ATOM     30  C   LIG    1       19.684 -18.897   3.052  0.00  0.00    +0.002 A 
ATOM     31  C   LIG    1       20.338 -17.705   3.349  0.00  0.00    +0.030 A 
ENDBRANCH  17  20
ENDBRANCH  15  17
ENDBRANCH   1  15
BRANCH   1  32
ATOM     32  C   LIG    1       25.664 -15.492   3.621  0.00  0.00    +0.033 C 
BRANCH  32  33
ATOM     33  C   LIG    1       25.002 -14.104   4.050  0.00  0.00    +0.039 C 
BRANCH  33  34
ATOM     34  C   LIG    1       25.956 -12.900   4.485  0.00  0.00    +0.196 C 
BRANCH  34  35
ATOM     35  N   LIG    1       27.287 -13.084   5.011  0.00  0.00    -0.276 N 
ATOM     36  H   LIG    1       27.348 -13.748   5.783  0.00  0.00    +0.258 HD
BRANCH  35  37
ATOM     37  C   LIG    1       28.491 -12.600   4.700  0.00  0.00    +0.376 C 
ATOM     38  N   LIG    1       29.075 -11.821   5.530  0.00  0.00    -0.130 NA
ATOM     39  H   LIG    1       29.965 -11.506   5.149  0.00  0.00    +0.306 HD
BRANCH  37  40
ATOM     40  N   LIG    1       28.938 -13.007   3.515  0.00  0.00    -0.289 N 
ATOM     41  H   LIG    1       29.297 -12.413   2.788  0.00  0.00    +0.255 HD
ATOM     42  H   LIG    1       29.345 -13.914   3.557  0.00  0.00    +0.255 HD
ENDBRANCH  37  40
ENDBRANCH  35  37
ENDBRANCH  34  35
ENDBRANCH  33  34
ENDBRANCH  32  33
ENDBRANCH   1  32
TORSDOF 12
ENDMDL
