MODEL 1
REMARK VINA RESULT:      -3.9      0.000      0.000
REMARK  Name = *****
REMARK                            x       y       z     vdW  Elec       q    Type
REMARK                         _______ _______ _______ _____ _____    ______ ____
ROOT
ATOM      1  C   LIG    1       25.100 -13.316   4.329  0.00  0.00    +0.024 C 
ATOM      2  C   LIG    1       23.836 -14.180   4.584  0.00  0.00    +0.028 C 
ATOM      3  C   LIG    1       25.433 -13.045   2.787  0.00  0.00    -0.014 C 
ATOM      4  C   LIG    1       25.612 -11.561   2.402  0.00  0.00    +0.013 C 
ATOM      5  C   LIG    1       24.375 -13.613   1.813  0.00  0.00    +0.013 C 
ATOM      6  C   LIG    1       26.780 -13.836   2.593  0.00  0.00    -0.003 C 
ATOM      7  C   LIG    1       26.604 -15.045   3.514  0.00  0.00    +0.009 C 
ATOM      8  C   LIG    1       27.967 -13.144   3.286  0.00  0.00    +0.004 C 
ATOM      9  C   LIG    1       27.656 -13.342   4.772  0.00  0.00    +0.005 C 
ATOM     10  C   LIG    1       26.355 -14.176   4.750  0.00  0.00    +0.010 C 
ENDROOT
BRANCH   1  12
ATOM     11  C   LIG    1       23.749 -11.467   5.306  0.00  0.00    +0.101 C 
ATOM     12  N   LIG    1       25.049 -12.113   5.183  0.00  0.00    -0.313 NA
ATOM     13  H   LIG    1       25.382 -12.345   6.119  0.00  0.00    +0.122 HD
ENDBRANCH   1  12
TORSDOF 1
ENDMDL
MODEL 2
REMARK VINA RESULT:      -3.8      1.126      3.220
REMARK  Name = *****
REMARK                            x       y       z     vdW  Elec       q    Type
REMARK                         _______ _______ _______ _____ _____    ______ ____
ROOT
ATOM      1  C   LIG    1       26.029 -13.853   3.662  0.00  0.00    +0.024 C 
ATOM      2  C   LIG    1       26.372 -15.364   3.568  0.00  0.00    +0.028 C 
ATOM      3  C   LIG    1       24.570 -13.527   4.233  0.00  0.00    -0.014 C 
ATOM      4  C   LIG    1       24.532 -12.546   5.425  0.00  0.00    +0.013 C 
ATOM      5  C   LIG    1       23.785 -14.779   4.688  0.00  0.00    +0.013 C 
ATOM      6  C   LIG    1       23.852 -12.904   2.978  0.00  0.00    -0.003 C 
ATOM      7  C   LIG    1       24.458 -13.689   1.812  0.00  0.00    +0.009 C 
ATOM      8  C   LIG    1       24.371 -11.494   2.649  0.00  0.00    +0.004 C 
ATOM      9  C   LIG    1       25.791 -11.764   2.143  0.00  0.00    +0.005 C 
ATOM     10  C   LIG    1       25.892 -13.306   2.187  0.00  0.00    +0.010 C 
ENDROOT
BRANCH   1  12
ATOM     11  C   LIG    1       28.460 -13.323   3.740  0.00  0.00    +0.101 C 
ATOM     12  N   LIG    1       27.138 -13.141   4.325  0.00  0.00    -0.313 NA
ATOM     13  H   LIG    1       26.934 -12.142   4.352  0.00  0.00    +0.122 HD
ENDBRANCH   1  12
TORSDOF 1
ENDMDL
MODEL 3
REMARK VINA RESULT:      -3.7      6.119      7.365
REMARK  Name = *****
REMARK                            x       y       z     vdW  Elec       q    Type
REMARK                         _______ _______ _______ _____ _____    ______ ____
ROOT
ATOM      1  C   LIG    1       22.757 -20.399   4.997  0.00  0.00    +0.024 C 
ATOM      2  C   LIG    1       21.627 -21.442   4.784  0.00  0.00    +0.028 C 
ATOM      3  C   LIG    1       22.520 -18.990   4.276  0.00  0.00    -0.014 C 
ATOM      4  C   LIG    1       22.628 -17.753   5.193  0.00  0.00    +0.013 C 
ATOM      5  C   LIG    1       21.151 -18.876   3.568  0.00  0.00    +0.013 C 
ATOM      6  C   LIG    1       23.658 -18.976   3.188  0.00  0.00    -0.003 C 
ATOM      7  C   LIG    1       23.763 -20.449   2.782  0.00  0.00    +0.009 C 
ATOM      8  C   LIG    1       25.053 -18.770   3.806  0.00  0.00    +0.004 C 
ATOM      9  C   LIG    1       25.293 -20.088   4.549  0.00  0.00    +0.005 C 
ATOM     10  C   LIG    1       24.030 -20.914   4.217  0.00  0.00    +0.010 C 
ENDROOT
BRANCH   1  12
ATOM     11  C   LIG    1       23.511 -21.567   7.062  0.00  0.00    +0.101 C 
ATOM     12  N   LIG    1       23.087 -20.323   6.433  0.00  0.00    -0.313 NA
ATOM     13  H   LIG    1       23.817 -19.625   6.579  0.00  0.00    +0.122 HD
ENDBRANCH   1  12
TORSDOF 1
ENDMDL
MODEL 4
REMARK VINA RESULT:      -2.8      1.413      1.945
REMARK  Name = *****
REMARK                            x       y       z     vdW  Elec       q    Type
REMARK                         _______ _______ _______ _____ _____    ______ ____
ROOT
ATOM      1  C   LIG    1       25.306 -13.634   3.928  0.00  0.00    +0.024 C 
ATOM      2  C   LIG    1       24.038 -14.288   4.538  0.00  0.00    +0.028 C 
ATOM      3  C   LIG    1       26.358 -14.661   3.296  0.00  0.00    -0.014 C 
ATOM      4  C   LIG    1       26.773 -14.367   1.838  0.00  0.00    +0.013 C 
ATOM      5  C   LIG    1       25.881 -16.131   3.314  0.00  0.00    +0.013 C 
ATOM      6  C   LIG    1       27.591 -14.514   4.265  0.00  0.00    -0.003 C 
ATOM      7  C   LIG    1       26.931 -14.267   5.624  0.00  0.00    +0.009 C 
ATOM      8  C   LIG    1       28.324 -13.175   4.076  0.00  0.00    +0.004 C 
ATOM      9  C   LIG    1       27.321 -12.158   4.629  0.00  0.00    +0.005 C 
ATOM     10  C   LIG    1       26.156 -13.046   5.122  0.00  0.00    +0.010 C 
ENDROOT
BRANCH   1  12
ATOM     11  C   LIG    1       23.776 -11.719   3.496  0.00  0.00    +0.101 C 
ATOM     12  N   LIG    1       24.905 -12.521   3.046  0.00  0.00    -0.313 NA
ATOM     13  H   LIG    1       25.701 -11.900   2.897  0.00  0.00    +0.122 HD
ENDBRANCH   1  12
TORSDOF 1
ENDMDL
MODEL 5
REMARK VINA RESULT:      -2.4      1.435      2.403
REMARK  Name = *****
REMARK                            x       y       z     vdW  Elec       q    Type
REMARK                         _______ _______ _______ _____ _____    ______ ____
ROOT
ATOM      1  C   LIG    1       25.304 -12.815   3.676  0.00  0.00    +0.024 C 
ATOM      2  C   LIG    1       24.098 -12.123   4.365  0.00  0.00    +0.028 C 
ATOM      3  C   LIG    1       25.311 -14.413   3.771  0.00  0.00    -0.014 C 
ATOM      4  C   LIG    1       25.449 -15.154   2.424  0.00  0.00    +0.013 C 
ATOM      5  C   LIG    1       24.054 -15.001   4.453  0.00  0.00    +0.013 C 
ATOM      6  C   LIG    1       26.562 -14.688   4.687  0.00  0.00    -0.003 C 
ATOM      7  C   LIG    1       26.548 -13.500   5.652  0.00  0.00    +0.009 C 
ATOM      8  C   LIG    1       27.889 -14.422   3.956  0.00  0.00    +0.004 C 
ATOM      9  C   LIG    1       27.894 -12.899   3.803  0.00  0.00    +0.005 C 
ATOM     10  C   LIG    1       26.594 -12.469   4.520  0.00  0.00    +0.010 C 
ENDROOT
BRANCH   1  12
ATOM     11  C   LIG    1       24.377 -11.447   1.815  0.00  0.00    +0.101 C 
ATOM     12  N   LIG    1       25.473 -12.265   2.317  0.00  0.00    -0.313 NA
ATOM     13  H   LIG    1       26.330 -11.714   2.276  0.00  0.00    +0.122 HD
ENDBRANCH   1  12
TORSDOF 1
ENDMDL
MODEL 6
REMARK VINA RESULT:      -2.4      1.187      2.752
REMARK  Name = *****
REMARK                            x       y       z     vdW  Elec       q    Type
REMARK                         _______ _______ _______ _____ _____    ______ ____
ROOT
ATOM      1  C   LIG    1       25.645 -13.090   3.566  0.00  0.00    +0.024 C 
ATOM      2  C   LIG    1       25.574 -11.794   2.715  0.00  0.00    +0.028 C 
ATOM      3  C   LIG    1       27.067 -13.375   4.244  0.00  0.00    -0.014 C 
ATOM      4  C   LIG    1       27.034 -13.615   5.769  0.00  0.00    +0.013 C 
ATOM      5  C   LIG    1       28.103 -12.251   4.013  0.00  0.00    +0.013 C 
ATOM      6  C   LIG    1       27.544 -14.670   3.487  0.00  0.00    -0.003 C 
ATOM      7  C   LIG    1       26.986 -14.468   2.076  0.00  0.00    +0.009 C 
ATOM      8  C   LIG    1       26.750 -15.919   3.911  0.00  0.00    +0.004 C 
ATOM      9  C   LIG    1       25.363 -15.657   3.318  0.00  0.00    +0.005 C 
ATOM     10  C   LIG    1       25.546 -14.314   2.574  0.00  0.00    +0.010 C 
ENDROOT
BRANCH   1  12
ATOM     11  C   LIG    1       23.826 -11.866   4.745  0.00  0.00    +0.101 C 
ATOM     12  N   LIG    1       24.490 -13.136   4.483  0.00  0.00    -0.313 NA
ATOM     13  H   LIG    1       23.796 -13.793   4.125  0.00  0.00    +0.122 HD
ENDBRANCH   1  12
TORSDOF 1
ENDMDL
MODEL 7
REMARK VINA RESULT:      -2.2      6.593      8.235
REMARK  Name = *****
REMARK                            x       y       z     vdW  Elec       q    Type
REMARK                         _______ _______ _______ _____ _____    ______ ____
ROOT
ATOM      1  C   LIG    1       24.831 -20.307   5.080  0.00  0.00    +0.024 C 
ATOM      2  C   LIG    1       25.767 -19.074   5.181  0.00  0.00    +0.028 C 
ATOM      3  C   LIG    1       23.843 -20.304   3.821  0.00  0.00    -0.014 C 
ATOM      4  C   LIG    1       23.891 -21.572   2.942  0.00  0.00    +0.013 C 
ATOM      5  C   LIG    1       24.062 -19.112   2.861  0.00  0.00    +0.013 C 
ATOM      6  C   LIG    1       22.432 -20.154   4.504  0.00  0.00    -0.003 C 
ATOM      7  C   LIG    1       22.728 -19.258   5.709  0.00  0.00    +0.009 C 
ATOM      8  C   LIG    1       21.996 -21.440   5.229  0.00  0.00    +0.004 C 
ATOM      9  C   LIG    1       22.958 -21.502   6.419  0.00  0.00    +0.005 C 
ATOM     10  C   LIG    1       23.792 -20.210   6.265  0.00  0.00    +0.010 C 
ENDROOT
BRANCH   1  12
ATOM     11  C   LIG    1       26.516 -21.572   6.406  0.00  0.00    +0.101 C 
ATOM     12  N   LIG    1       25.625 -21.539   5.254  0.00  0.00    -0.313 NA
ATOM     13  H   LIG    1       25.000 -22.343   5.309  0.00  0.00    +0.122 HD
ENDBRANCH   1  12
TORSDOF 1
ENDMDL
MODEL 8
REMARK VINA RESULT:      -2.2      1.753      3.536
REMARK  Name = *****
REMARK                            x       y       z     vdW  Elec       q    Type
REMARK                         _______ _______ _______ _____ _____    ______ ____
ROOT
ATOM      1  C   LIG    1       26.362 -14.931   3.818  0.00  0.00    +0.024 C 
ATOM      2  C   LIG    1       27.668 -15.519   4.416  0.00  0.00    +0.028 C 
ATOM      3  C   LIG    1       26.485 -13.432   3.271  0.00  0.00    -0.014 C 
ATOM      4  C   LIG    1       26.016 -13.220   1.815  0.00  0.00    +0.013 C 
ATOM      5  C   LIG    1       27.919 -12.859   3.343  0.00  0.00    +0.013 C 
ATOM      6  C   LIG    1       25.567 -12.636   4.272  0.00  0.00    -0.003 C 
ATOM      7  C   LIG    1       25.779 -13.376   5.595  0.00  0.00    +0.009 C 
ATOM      8  C   LIG    1       24.072 -12.920   4.044  0.00  0.00    +0.004 C 
ATOM      9  C   LIG    1       23.927 -14.371   4.513  0.00  0.00    +0.005 C 
ATOM     10  C   LIG    1       25.348 -14.723   5.010  0.00  0.00    +0.010 C 
ENDROOT
BRANCH   1  12
ATOM     11  C   LIG    1       25.877 -17.305   3.246  0.00  0.00    +0.101 C 
ATOM     12  N   LIG    1       25.780 -15.901   2.870  0.00  0.00    -0.313 NA
ATOM     13  H   LIG    1       24.796 -15.678   2.716  0.00  0.00    +0.122 HD
ENDBRANCH   1  12
TORSDOF 1
ENDMDL
MODEL 9
REMARK VINA RESULT:      -2.1      5.878      7.163
REMARK  Name = *****
REMARK                            x       y       z     vdW  Elec       q    Type
REMARK                         _______ _______ _______ _____ _____    ______ ____
ROOT
ATOM      1  C   LIG    1       22.748 -19.217   4.624  0.00  0.00    +0.024 C 
ATOM      2  C   LIG    1       21.458 -19.231   3.761  0.00  0.00    +0.028 C 
ATOM      3  C   LIG    1       24.026 -19.894   3.939  0.00  0.00    -0.014 C 
ATOM      4  C   LIG    1       25.293 -19.014   3.893  0.00  0.00    +0.013 C 
ATOM      5  C   LIG    1       23.779 -20.361   2.486  0.00  0.00    +0.013 C 
ATOM      6  C   LIG    1       24.260 -21.159   4.847  0.00  0.00    -0.003 C 
ATOM      7  C   LIG    1       22.838 -21.570   5.237  0.00  0.00    +0.009 C 
ATOM      8  C   LIG    1       24.820 -20.787   6.232  0.00  0.00    +0.004 C 
ATOM      9  C   LIG    1       23.632 -20.090   6.901  0.00  0.00    +0.005 C 
ATOM     10  C   LIG    1       22.515 -20.199   5.839  0.00  0.00    +0.010 C 
ENDROOT
BRANCH   1  12
ATOM     11  C   LIG    1       22.187 -16.793   4.537  0.00  0.00    +0.101 C 
ATOM     12  N   LIG    1       22.965 -17.858   5.156  0.00  0.00    -0.313 NA
ATOM     13  H   LIG    1       22.778 -17.850   6.159  0.00  0.00    +0.122 HD
ENDBRANCH   1  12
TORSDOF 1
ENDMDL
