MODEL 1
REMARK VINA RESULT:      -7.5      0.000      0.000
REMARK  Name = *****
REMARK                            x       y       z     vdW  Elec       q    Type
REMARK                         _______ _______ _______ _____ _____    ______ ____
ROOT
ATOM      1  C   LIG    1       25.270 -22.236   7.277  0.00  0.00    +0.076 C 
ATOM      2  C   LIG    1       26.701 -21.695   7.464  0.00  0.00    +0.023 C 
ATOM      3  C   LIG    1       25.914 -22.070   8.677  0.00  0.00    +0.027 C 
ENDROOT
BRANCH   1   4
ATOM      4  C   LIG    1       25.112 -23.716   6.854  0.00  0.00    -0.032 A 
ATOM      5  C   LIG    1       23.850 -24.263   6.554  0.00  0.00    +0.005 A 
ATOM      6  C   LIG    1       23.680 -25.601   6.199  0.00  0.00    +0.000 A 
ATOM      7  C   LIG    1       24.790 -26.420   6.049  0.00  0.00    +0.000 A 
ATOM      8  C   LIG    1       26.062 -25.898   6.268  0.00  0.00    +0.000 A 
ATOM      9  C   LIG    1       26.219 -24.569   6.684  0.00  0.00    +0.005 A 
ENDBRANCH   1   4
BRANCH   1  11
ATOM     10  N   LIG    1       23.929 -20.747   5.681  0.00  0.00    -0.301 N 
ATOM     11  C   LIG    1       24.114 -21.267   6.977  0.00  0.00    +0.226 C 
ATOM     12  O   LIG    1       23.382 -20.953   7.906  0.00  0.00    -0.275 OA
BRANCH  10  14
ATOM     13  C   LIG    1       21.679 -20.388   4.630  0.00  0.00    +0.024 C 
ATOM     14  C   LIG    1       22.818 -19.807   5.463  0.00  0.00    +0.104 C 
ENDBRANCH  10  14
BRANCH  10  15
ATOM     15  C   LIG    1       24.806 -21.014   4.541  0.00  0.00    +0.104 C 
ATOM     16  C   LIG    1       25.257 -19.758   3.802  0.00  0.00    +0.024 C 
ENDBRANCH  10  15
ENDBRANCH   1  11
BRANCH   2  17
ATOM     17  C   LIG    1       27.094 -20.262   7.327  0.00  0.00    +0.082 C 
BRANCH  17  18
ATOM     18  N   LIG    1       28.207 -19.997   8.228  0.00  0.00    -0.330 NA
ATOM     19  H   LIG    1       28.853 -19.363   7.758  0.00  0.00    +0.118 HD
ATOM     20  H   LIG    1       27.861 -19.474   9.033  0.00  0.00    +0.118 HD
ENDBRANCH  17  18
ENDBRANCH   2  17
TORSDOF 6
ENDMDL
MODEL 2
REMARK VINA RESULT:      -6.8      1.510      2.417
REMARK  Name = *****
REMARK                            x       y       z     vdW  Elec       q    Type
REMARK                         _______ _______ _______ _____ _____    ______ ____
ROOT
ATOM      1  C   LIG    1       25.729 -21.447   6.814  0.00  0.00    +0.076 C 
ATOM      2  C   LIG    1       26.485 -21.124   8.118  0.00  0.00    +0.023 C 
ATOM      3  C   LIG    1       25.078 -20.643   7.969  0.00  0.00    +0.027 C 
ENDROOT
BRANCH   1   4
ATOM      4  C   LIG    1       25.140 -22.870   6.660  0.00  0.00    -0.032 A 
ATOM      5  C   LIG    1       25.972 -23.995   6.505  0.00  0.00    +0.005 A 
ATOM      6  C   LIG    1       25.463 -25.283   6.336  0.00  0.00    +0.000 A 
ATOM      7  C   LIG    1       24.094 -25.497   6.402  0.00  0.00    +0.000 A 
ATOM      8  C   LIG    1       23.241 -24.419   6.625  0.00  0.00    +0.000 A 
ATOM      9  C   LIG    1       23.757 -23.121   6.732  0.00  0.00    +0.005 A 
ENDBRANCH   1   4
BRANCH   1  11
ATOM     10  N   LIG    1       24.977 -20.344   4.627  0.00  0.00    -0.301 N 
ATOM     11  C   LIG    1       26.012 -20.635   5.539  0.00  0.00    +0.226 C 
ATOM     12  O   LIG    1       27.164 -20.275   5.340  0.00  0.00    -0.275 OA
BRANCH  10  14
ATOM     13  C   LIG    1       25.139 -18.074   3.570  0.00  0.00    +0.024 C 
ATOM     14  C   LIG    1       25.316 -19.582   3.415  0.00  0.00    +0.104 C 
ENDBRANCH  10  14
BRANCH  10  15
ATOM     15  C   LIG    1       23.595 -20.805   4.757  0.00  0.00    +0.104 C 
ATOM     16  C   LIG    1       22.654 -19.768   5.360  0.00  0.00    +0.024 C 
ENDBRANCH  10  15
ENDBRANCH   1  11
BRANCH   2  17
ATOM     17  C   LIG    1       27.547 -20.084   8.251  0.00  0.00    +0.082 C 
BRANCH  17  18
ATOM     18  N   LIG    1       28.839 -20.705   8.003  0.00  0.00    -0.330 NA
ATOM     19  H   LIG    1       29.552 -20.165   8.494  0.00  0.00    +0.118 HD
ATOM     20  H   LIG    1       28.853 -21.624   8.445  0.00  0.00    +0.118 HD
ENDBRANCH  17  18
ENDBRANCH   2  17
TORSDOF 6
ENDMDL
MODEL 3
REMARK VINA RESULT:      -6.8      1.980      4.081
REMARK  Name = *****
REMARK                            x       y       z     vdW  Elec       q    Type
REMARK                         _______ _______ _______ _____ _____    ______ ____
ROOT
ATOM      1  C   LIG    1       25.096 -21.768   6.311  0.00  0.00    +0.076 C 
ATOM      2  C   LIG    1       24.815 -23.270   6.512  0.00  0.00    +0.023 C 
ATOM      3  C   LIG    1       25.025 -22.760   5.123  0.00  0.00    +0.027 C 
ENDROOT
BRANCH   1   4
ATOM      4  C   LIG    1       26.532 -21.263   6.594  0.00  0.00    -0.032 A 
ATOM      5  C   LIG    1       27.084 -20.184   5.878  0.00  0.00    +0.005 A 
ATOM      6  C   LIG    1       28.386 -19.730   6.095  0.00  0.00    +0.000 A 
ATOM      7  C   LIG    1       29.152 -20.294   7.105  0.00  0.00    +0.000 A 
ATOM      8  C   LIG    1       28.615 -21.317   7.884  0.00  0.00    +0.000 A 
ATOM      9  C   LIG    1       27.330 -21.807   7.618  0.00  0.00    +0.005 A 
ENDBRANCH   1   4
BRANCH   1  11
ATOM     10  N   LIG    1       23.511 -20.078   5.218  0.00  0.00    -0.301 N 
ATOM     11  C   LIG    1       23.943 -20.753   6.377  0.00  0.00    +0.226 C 
ATOM     12  O   LIG    1       23.435 -20.541   7.470  0.00  0.00    -0.275 OA
BRANCH  10  14
ATOM     13  C   LIG    1       21.743 -18.755   4.026  0.00  0.00    +0.024 C 
ATOM     14  C   LIG    1       22.417 -19.103   5.350  0.00  0.00    +0.104 C 
ENDBRANCH  10  14
BRANCH  10  15
ATOM     15  C   LIG    1       24.117 -20.220   3.894  0.00  0.00    +0.104 C 
ATOM     16  C   LIG    1       25.050 -19.073   3.518  0.00  0.00    +0.024 C 
ENDBRANCH  10  15
ENDBRANCH   1  11
BRANCH   2  17
ATOM     17  C   LIG    1       23.477 -23.850   6.826  0.00  0.00    +0.082 C 
BRANCH  17  18
ATOM     18  N   LIG    1       23.381 -25.162   6.202  0.00  0.00    -0.330 NA
ATOM     19  H   LIG    1       23.846 -25.118   5.295  0.00  0.00    +0.118 HD
ATOM     20  H   LIG    1       23.931 -25.827   6.748  0.00  0.00    +0.118 HD
ENDBRANCH  17  18
ENDBRANCH   2  17
TORSDOF 6
ENDMDL
MODEL 4
REMARK VINA RESULT:      -6.7      1.999      5.359
REMARK  Name = *****
REMARK                            x       y       z     vdW  Elec       q    Type
REMARK                         _______ _______ _______ _____ _____    ______ ____
ROOT
ATOM      1  C   LIG    1       24.262 -22.292   6.253  0.00  0.00    +0.076 C 
ATOM      2  C   LIG    1       23.210 -23.417   6.329  0.00  0.00    +0.023 C 
ATOM      3  C   LIG    1       23.332 -22.472   7.480  0.00  0.00    +0.027 C 
ENDROOT
BRANCH   1   4
ATOM      4  C   LIG    1       23.915 -21.042   5.409  0.00  0.00    -0.032 A 
ATOM      5  C   LIG    1       24.689 -20.673   4.293  0.00  0.00    +0.005 A 
ATOM      6  C   LIG    1       24.413 -19.535   3.534  0.00  0.00    +0.000 A 
ATOM      7  C   LIG    1       23.292 -18.770   3.823  0.00  0.00    +0.000 A 
ATOM      8  C   LIG    1       22.460 -19.142   4.876  0.00  0.00    +0.000 A 
ATOM      9  C   LIG    1       22.780 -20.252   5.670  0.00  0.00    +0.005 A 
ENDBRANCH   1   4
BRANCH   1  11
ATOM     10  N   LIG    1       26.567 -21.684   7.191  0.00  0.00    -0.301 N 
ATOM     11  C   LIG    1       25.744 -22.606   6.513  0.00  0.00    +0.226 C 
ATOM     12  O   LIG    1       26.181 -23.668   6.093  0.00  0.00    -0.275 OA
BRANCH  10  14
ATOM     13  C   LIG    1       28.951 -20.950   6.923  0.00  0.00    +0.024 C 
ATOM     14  C   LIG    1       27.983 -22.033   7.389  0.00  0.00    +0.104 C 
ENDBRANCH  10  14
BRANCH  10  15
ATOM     15  C   LIG    1       26.137 -20.364   7.654  0.00  0.00    +0.104 C 
ATOM     16  C   LIG    1       25.831 -20.304   9.146  0.00  0.00    +0.024 C 
ENDBRANCH  10  15
ENDBRANCH   1  11
BRANCH   2  17
ATOM     17  C   LIG    1       23.517 -24.852   6.595  0.00  0.00    +0.082 C 
BRANCH  17  18
ATOM     18  N   LIG    1       23.972 -25.467   5.356  0.00  0.00    -0.330 NA
ATOM     19  H   LIG    1       23.861 -26.477   5.442  0.00  0.00    +0.118 HD
ATOM     20  H   LIG    1       23.341 -25.195   4.603  0.00  0.00    +0.118 HD
ENDBRANCH  17  18
ENDBRANCH   2  17
TORSDOF 6
ENDMDL
MODEL 5
REMARK VINA RESULT:      -6.7      1.865      5.078
REMARK  Name = *****
REMARK                            x       y       z     vdW  Elec       q    Type
REMARK                         _______ _______ _______ _____ _____    ______ ____
ROOT
ATOM      1  C   LIG    1       24.888 -21.472   6.639  0.00  0.00    +0.076 C 
ATOM      2  C   LIG    1       24.957 -22.954   6.221  0.00  0.00    +0.023 C 
ATOM      3  C   LIG    1       23.917 -22.537   7.209  0.00  0.00    +0.027 C 
ENDROOT
BRANCH   1   4
ATOM      4  C   LIG    1       24.200 -20.484   5.667  0.00  0.00    -0.032 A 
ATOM      5  C   LIG    1       24.795 -20.125   4.443  0.00  0.00    +0.005 A 
ATOM      6  C   LIG    1       24.208 -19.215   3.563  0.00  0.00    +0.000 A 
ATOM      7  C   LIG    1       22.953 -18.695   3.848  0.00  0.00    +0.000 A 
ATOM      8  C   LIG    1       22.299 -19.080   5.015  0.00  0.00    +0.000 A 
ATOM      9  C   LIG    1       22.924 -19.947   5.921  0.00  0.00    +0.005 A 
ENDBRANCH   1   4
BRANCH   1  11
ATOM     10  N   LIG    1       27.171 -20.473   7.232  0.00  0.00    -0.301 N 
ATOM     11  C   LIG    1       25.899 -20.910   7.652  0.00  0.00    +0.226 C 
ATOM     12  O   LIG    1       25.565 -20.877   8.828  0.00  0.00    -0.275 OA
BRANCH  10  14
ATOM     13  C   LIG    1       29.480 -20.621   8.204  0.00  0.00    +0.024 C 
ATOM     14  C   LIG    1       28.102 -19.966   8.252  0.00  0.00    +0.104 C 
ENDBRANCH  10  14
BRANCH  10  15
ATOM     15  C   LIG    1       27.670 -20.552   5.859  0.00  0.00    +0.104 C 
ATOM     16  C   LIG    1       28.232 -19.236   5.331  0.00  0.00    +0.024 C 
ENDBRANCH  10  15
ENDBRANCH   1  11
BRANCH   2  17
ATOM     17  C   LIG    1       25.989 -23.924   6.692  0.00  0.00    +0.082 C 
BRANCH  17  18
ATOM     18  N   LIG    1       26.082 -25.008   5.726  0.00  0.00    -0.330 NA
ATOM     19  H   LIG    1       25.767 -25.866   6.178  0.00  0.00    +0.118 HD
ATOM     20  H   LIG    1       25.408 -24.841   4.978  0.00  0.00    +0.118 HD
ENDBRANCH  17  18
ENDBRANCH   2  17
TORSDOF 6
ENDMDL
MODEL 6
REMARK VINA RESULT:      -6.6      1.513      2.026
REMARK  Name = *****
REMARK                            x       y       z     vdW  Elec       q    Type
REMARK                         _______ _______ _______ _____ _____    ______ ____
ROOT
ATOM      1  C   LIG    1       25.886 -22.371   6.784  0.00  0.00    +0.076 C 
ATOM      2  C   LIG    1       27.271 -22.014   7.360  0.00  0.00    +0.023 C 
ATOM      3  C   LIG    1       26.130 -22.208   8.306  0.00  0.00    +0.027 C 
ENDROOT
BRANCH   1   4
ATOM      4  C   LIG    1       25.640 -23.840   6.364  0.00  0.00    -0.032 A 
ATOM      5  C   LIG    1       25.145 -24.165   5.087  0.00  0.00    +0.005 A 
ATOM      6  C   LIG    1       24.889 -25.480   4.697  0.00  0.00    +0.000 A 
ATOM      7  C   LIG    1       25.204 -26.526   5.552  0.00  0.00    +0.000 A 
ATOM      8  C   LIG    1       25.762 -26.249   6.798  0.00  0.00    +0.000 A 
ATOM      9  C   LIG    1       25.958 -24.923   7.205  0.00  0.00    +0.005 A 
ENDBRANCH   1   4
BRANCH   1  11
ATOM     10  N   LIG    1       23.659 -21.132   6.517  0.00  0.00    -0.301 N 
ATOM     11  C   LIG    1       25.012 -21.277   6.148  0.00  0.00    +0.226 C 
ATOM     12  O   LIG    1       25.528 -20.560   5.302  0.00  0.00    -0.275 OA
BRANCH  10  14
ATOM     13  C   LIG    1       22.117 -20.565   4.621  0.00  0.00    +0.024 C 
ATOM     14  C   LIG    1       22.870 -20.080   5.856  0.00  0.00    +0.104 C 
ENDBRANCH  10  14
BRANCH  10  15
ATOM     15  C   LIG    1       22.953 -21.997   7.461  0.00  0.00    +0.104 C 
ATOM     16  C   LIG    1       22.337 -23.236   6.818  0.00  0.00    +0.024 C 
ENDBRANCH  10  15
ENDBRANCH   1  11
BRANCH   2  17
ATOM     17  C   LIG    1       27.889 -20.657   7.312  0.00  0.00    +0.082 C 
BRANCH  17  18
ATOM     18  N   LIG    1       28.511 -20.476   6.008  0.00  0.00    -0.330 NA
ATOM     19  H   LIG    1       28.894 -19.532   5.966  0.00  0.00    +0.118 HD
ATOM     20  H   LIG    1       29.321 -21.093   5.942  0.00  0.00    +0.118 HD
ENDBRANCH  17  18
ENDBRANCH   2  17
TORSDOF 6
ENDMDL
MODEL 7
REMARK VINA RESULT:      -6.0      2.209      5.047
REMARK  Name = *****
REMARK                            x       y       z     vdW  Elec       q    Type
REMARK                         _______ _______ _______ _____ _____    ______ ____
ROOT
ATOM      1  C   LIG    1       24.541 -21.025   5.965  0.00  0.00    +0.076 C 
ATOM      2  C   LIG    1       23.427 -19.964   5.875  0.00  0.00    +0.023 C 
ATOM      3  C   LIG    1       23.382 -20.956   6.991  0.00  0.00    +0.027 C 
ENDROOT
BRANCH   1   4
ATOM      4  C   LIG    1       25.902 -20.588   6.559  0.00  0.00    -0.032 A 
ATOM      5  C   LIG    1       26.127 -20.576   7.948  0.00  0.00    +0.005 A 
ATOM      6  C   LIG    1       27.335 -20.159   8.508  0.00  0.00    +0.000 A 
ATOM      7  C   LIG    1       28.395 -19.818   7.680  0.00  0.00    +0.000 A 
ATOM      8  C   LIG    1       28.236 -19.884   6.298  0.00  0.00    +0.000 A 
ATOM      9  C   LIG    1       26.999 -20.246   5.746  0.00  0.00    +0.005 A 
ENDBRANCH   1   4
BRANCH   1  11
ATOM     10  N   LIG    1       24.624 -23.554   5.564  0.00  0.00    -0.301 N 
ATOM     11  C   LIG    1       24.513 -22.251   5.038  0.00  0.00    +0.226 C 
ATOM     12  O   LIG    1       24.414 -22.050   3.835  0.00  0.00    -0.275 OA
BRANCH  10  14
ATOM     13  C   LIG    1       24.319 -26.029   5.283  0.00  0.00    +0.024 C 
ATOM     14  C   LIG    1       24.613 -24.685   4.622  0.00  0.00    +0.104 C 
ENDBRANCH  10  14
BRANCH  10  15
ATOM     15  C   LIG    1       24.823 -23.870   6.978  0.00  0.00    +0.104 C 
ATOM     16  C   LIG    1       26.286 -24.041   7.371  0.00  0.00    +0.024 C 
ENDBRANCH  10  15
ENDBRANCH   1  11
BRANCH   2  17
ATOM     17  C   LIG    1       22.301 -19.993   4.896  0.00  0.00    +0.082 C 
BRANCH  17  18
ATOM     18  N   LIG    1       22.095 -18.645   4.386  0.00  0.00    -0.330 NA
ATOM     19  H   LIG    1       22.196 -18.670   3.371  0.00  0.00    +0.118 HD
ATOM     20  H   LIG    1       21.124 -18.377   4.548  0.00  0.00    +0.118 HD
ENDBRANCH  17  18
ENDBRANCH   2  17
TORSDOF 6
ENDMDL
MODEL 8
REMARK VINA RESULT:      -5.9      1.829      4.111
REMARK  Name = *****
REMARK                            x       y       z     vdW  Elec       q    Type
REMARK                         _______ _______ _______ _____ _____    ______ ____
ROOT
ATOM      1  C   LIG    1       24.148 -21.440   5.147  0.00  0.00    +0.076 C 
ATOM      2  C   LIG    1       22.808 -20.704   5.344  0.00  0.00    +0.023 C 
ATOM      3  C   LIG    1       23.209 -21.102   3.961  0.00  0.00    +0.027 C 
ENDROOT
BRANCH   1   4
ATOM      4  C   LIG    1       24.191 -22.952   5.473  0.00  0.00    -0.032 A 
ATOM      5  C   LIG    1       25.083 -23.820   4.814  0.00  0.00    +0.005 A 
ATOM      6  C   LIG    1       25.120 -25.191   5.071  0.00  0.00    +0.000 A 
ATOM      7  C   LIG    1       24.315 -25.726   6.066  0.00  0.00    +0.000 A 
ATOM      8  C   LIG    1       23.470 -24.889   6.791  0.00  0.00    +0.000 A 
ATOM      9  C   LIG    1       23.395 -23.524   6.483  0.00  0.00    +0.005 A 
ENDBRANCH   1   4
BRANCH   1  11
ATOM     10  N   LIG    1       26.338 -20.740   6.277  0.00  0.00    -0.301 N 
ATOM     11  C   LIG    1       25.469 -20.653   5.171  0.00  0.00    +0.226 C 
ATOM     12  O   LIG    1       25.722 -19.940   4.210  0.00  0.00    -0.275 OA
BRANCH  10  14
ATOM     13  C   LIG    1       28.832 -20.759   6.554  0.00  0.00    +0.024 C 
ATOM     14  C   LIG    1       27.576 -19.946   6.250  0.00  0.00    +0.104 C 
ENDBRANCH  10  14
BRANCH  10  15
ATOM     15  C   LIG    1       26.069 -21.509   7.492  0.00  0.00    +0.104 C 
ATOM     16  C   LIG    1       25.843 -20.646   8.730  0.00  0.00    +0.024 C 
ENDBRANCH  10  15
ENDBRANCH   1  11
BRANCH   2  17
ATOM     17  C   LIG    1       22.671 -19.244   5.618  0.00  0.00    +0.082 C 
BRANCH  17  18
ATOM     18  N   LIG    1       22.687 -18.530   4.349  0.00  0.00    -0.330 NA
ATOM     19  H   LIG    1       21.739 -18.210   4.152  0.00  0.00    +0.118 HD
ATOM     20  H   LIG    1       23.237 -17.678   4.457  0.00  0.00    +0.118 HD
ENDBRANCH  17  18
ENDBRANCH   2  17
TORSDOF 6
ENDMDL
MODEL 9
REMARK VINA RESULT:      -5.7      1.683      2.100
REMARK  Name = *****
REMARK                            x       y       z     vdW  Elec       q    Type
REMARK                         _______ _______ _______ _____ _____    ______ ____
ROOT
ATOM      1  C   LIG    1       24.458 -22.581   6.512  0.00  0.00    +0.076 C 
ATOM      2  C   LIG    1       24.707 -21.994   7.916  0.00  0.00    +0.023 C 
ATOM      3  C   LIG    1       23.310 -22.353   7.528  0.00  0.00    +0.027 C 
ENDROOT
BRANCH   1   4
ATOM      4  C   LIG    1       24.785 -24.078   6.292  0.00  0.00    -0.032 A 
ATOM      5  C   LIG    1       23.816 -24.977   5.809  0.00  0.00    +0.005 A 
ATOM      6  C   LIG    1       24.079 -26.335   5.630  0.00  0.00    +0.000 A 
ATOM      7  C   LIG    1       25.358 -26.823   5.852  0.00  0.00    +0.000 A 
ATOM      8  C   LIG    1       26.364 -25.952   6.262  0.00  0.00    +0.000 A 
ATOM      9  C   LIG    1       26.075 -24.601   6.498  0.00  0.00    +0.005 A 
ENDBRANCH   1   4
BRANCH   1  11
ATOM     10  N   LIG    1       25.542 -20.851   4.964  0.00  0.00    -0.301 N 
ATOM     11  C   LIG    1       24.430 -21.655   5.285  0.00  0.00    +0.226 C 
ATOM     12  O   LIG    1       23.405 -21.629   4.618  0.00  0.00    -0.275 OA
BRANCH  10  14
ATOM     13  C   LIG    1       24.308 -18.956   3.877  0.00  0.00    +0.024 C 
ATOM     14  C   LIG    1       25.445 -19.970   3.789  0.00  0.00    +0.104 C 
ENDBRANCH  10  14
BRANCH  10  15
ATOM     15  C   LIG    1       26.770 -20.770   5.755  0.00  0.00    +0.104 C 
ATOM     16  C   LIG    1       27.664 -19.591   5.386  0.00  0.00    +0.024 C 
ENDBRANCH  10  15
ENDBRANCH   1  11
BRANCH   2  17
ATOM     17  C   LIG    1       24.983 -20.555   8.200  0.00  0.00    +0.082 C 
BRANCH  17  18
ATOM     18  N   LIG    1       25.945 -20.473   9.289  0.00  0.00    -0.330 NA
ATOM     19  H   LIG    1       25.923 -19.524   9.663  0.00  0.00    +0.118 HD
ATOM     20  H   LIG    1       25.625 -21.066  10.056  0.00  0.00    +0.118 HD
ENDBRANCH  17  18
ENDBRANCH   2  17
TORSDOF 6
ENDMDL
