MODEL 1
REMARK VINA RESULT:      -5.5      0.000      0.000
REMARK  Name = *****
REMARK                            x       y       z     vdW  Elec       q    Type
REMARK                         _______ _______ _______ _____ _____    ______ ____
ROOT
ATOM      1  C   LIG    1       25.281 -30.319  12.669  0.00  0.00    +0.061 A 
ATOM      2  C   LIG    1       24.946 -30.824  11.380  0.00  0.00    +0.049 A 
ATOM      3  I   LIG    1       25.491 -32.807  10.738  0.00  0.00    -0.041 I 
ATOM      4  C   LIG    1       23.875 -30.285  10.668  0.00  0.00    +0.066 A 
ATOM      5  C   LIG    1       22.952 -29.561  11.426  0.00  0.00    +0.040 A 
ATOM      6  I   LIG    1       21.123 -31.093  11.837  0.00  0.00    -0.042 I 
ATOM      7  C   LIG    1       23.227 -28.967  12.678  0.00  0.00    +0.065 A 
ATOM      8  C   LIG    1       24.416 -29.389  13.297  0.00  0.00    +0.049 A 
ATOM      9  I   LIG    1       24.603 -29.118  15.416  0.00  0.00    -0.041 I 
ENDROOT
BRANCH   1  11
ATOM     10  C   LIG    1       27.566 -29.455  13.037  0.00  0.00    +0.243 C 
ATOM     11  N   LIG    1       26.619 -30.464  13.137  0.00  0.00    -0.282 N 
ATOM     12  H   LIG    1       27.019 -31.401  13.082  0.00  0.00    +0.155 HD
ATOM     13  O   LIG    1       27.403 -28.411  12.412  0.00  0.00    -0.273 OA
BRANCH  10  14
ATOM     14  C   LIG    1       28.871 -29.766  13.772  0.00  0.00    +0.255 C 
BRANCH  14  16
ATOM     15  C   LIG    1       31.190 -29.787  13.434  0.00  0.00    +0.194 C 
ATOM     16  O   LIG    1       29.918 -30.079  12.865  0.00  0.00    -0.374 OA
ENDBRANCH  14  16
ENDBRANCH  10  14
ENDBRANCH   1  11
BRANCH   4  17
ATOM     17  C   LIG    1       24.026 -30.024   9.177  0.00  0.00    +0.248 C 
ATOM     18  N   LIG    1       25.124 -29.321   8.649  0.00  0.00    -0.298 N 
ATOM     19  C   LIG    1       26.191 -28.779   9.445  0.00  0.00    +0.132 C 
ATOM     20  O   LIG    1       23.180 -30.528   8.426  0.00  0.00    -0.270 OA
BRANCH  18  21
ATOM     21  C   LIG    1       25.183 -28.980   7.207  0.00  0.00    +0.141 C 
BRANCH  21  22
ATOM     22  C   LIG    1       25.343 -27.468   6.863  0.00  0.00    +0.157 C 
BRANCH  22  23
ATOM     23  O   LIG    1       26.660 -27.217   6.362  0.00  0.00    -0.388 OA
ATOM     24  H   LIG    1       26.817 -26.266   6.530  0.00  0.00    +0.210 HD
ENDBRANCH  22  23
BRANCH  22  25
ATOM     25  C   LIG    1       24.332 -26.871   5.863  0.00  0.00    +0.188 C 
BRANCH  25  26
ATOM     26  O   LIG    1       23.785 -25.657   6.383  0.00  0.00    -0.392 OA
ATOM     27  H   LIG    1       22.866 -25.608   6.050  0.00  0.00    +0.209 HD
ENDBRANCH  25  26
ENDBRANCH  22  25
ENDBRANCH  21  22
ENDBRANCH  18  21
ENDBRANCH   4  17
BRANCH   7  28
ATOM     28  C   LIG    1       22.365 -27.796  13.112  0.00  0.00    +0.246 C 
ATOM     29  N   LIG    1       21.117 -28.190  13.670  0.00  0.00    -0.309 N 
ATOM     30  H   LIG    1       20.968 -29.152  13.946  0.00  0.00    +0.149 HD
ATOM     31  O   LIG    1       22.682 -26.689  12.924  0.00  0.00    -0.270 OA
BRANCH  29  32
ATOM     32  C   LIG    1       20.084 -27.239  14.103  0.00  0.00    +0.138 C 
BRANCH  32  33
ATOM     33  C   LIG    1       18.738 -27.881  14.508  0.00  0.00    +0.157 C 
BRANCH  33  34
ATOM     34  O   LIG    1       18.438 -29.012  13.690  0.00  0.00    -0.388 OA
ATOM     35  H   LIG    1       19.264 -29.362  13.319  0.00  0.00    +0.210 HD
ENDBRANCH  33  34
BRANCH  33  36
ATOM     36  C   LIG    1       17.588 -26.860  14.423  0.00  0.00    +0.188 C 
BRANCH  36  37
ATOM     37  O   LIG    1       18.052 -25.574  14.036  0.00  0.00    -0.392 OA
ATOM     38  H   LIG    1       17.882 -24.957  14.770  0.00  0.00    +0.209 HD
ENDBRANCH  36  37
ENDBRANCH  33  36
ENDBRANCH  32  33
ENDBRANCH  29  32
ENDBRANCH   7  28
TORSDOF 15
ENDMDL
MODEL 2
REMARK VINA RESULT:      -5.5      1.444      1.602
REMARK  Name = *****
REMARK                            x       y       z     vdW  Elec       q    Type
REMARK                         _______ _______ _______ _____ _____    ______ ____
ROOT
ATOM      1  C   LIG    1       25.645 -30.550  11.519  0.00  0.00    +0.061 A 
ATOM      2  C   LIG    1       25.409 -30.823  10.140  0.00  0.00    +0.049 A 
ATOM      3  I   LIG    1       26.349 -32.464   9.109  0.00  0.00    -0.041 I 
ATOM      4  C   LIG    1       24.243 -30.375   9.523  0.00  0.00    +0.066 A 
ATOM      5  C   LIG    1       23.197 -30.038  10.385  0.00  0.00    +0.040 A 
ATOM      6  I   LIG    1       21.732 -31.966  10.395  0.00  0.00    -0.042 I 
ATOM      7  C   LIG    1       23.355 -29.685  11.744  0.00  0.00    +0.065 A 
ATOM      8  C   LIG    1       24.612 -29.977  12.300  0.00  0.00    +0.049 A 
ATOM      9  I   LIG    1       24.761 -30.139  14.433  0.00  0.00    -0.041 I 
ENDROOT
BRANCH   1  11
ATOM     10  C   LIG    1       27.692 -29.333  12.175  0.00  0.00    +0.243 C 
ATOM     11  N   LIG    1       26.989 -30.514  11.992  0.00  0.00    -0.282 N 
ATOM     12  H   LIG    1       27.583 -31.302  11.728  0.00  0.00    +0.155 HD
ATOM     13  O   LIG    1       27.297 -28.228  11.814  0.00  0.00    -0.273 OA
BRANCH  10  14
ATOM     14  C   LIG    1       29.044 -29.526  12.866  0.00  0.00    +0.255 C 
BRANCH  14  16
ATOM     15  C   LIG    1       28.744 -29.679  15.185  0.00  0.00    +0.194 C 
ATOM     16  O   LIG    1       28.941 -30.405  13.977  0.00  0.00    -0.374 OA
ENDBRANCH  14  16
ENDBRANCH  10  14
ENDBRANCH   1  11
BRANCH   4  17
ATOM     17  C   LIG    1       24.320 -29.772   8.129  0.00  0.00    +0.248 C 
ATOM     18  N   LIG    1       25.264 -28.785   7.793  0.00  0.00    -0.298 N 
ATOM     19  C   LIG    1       26.229 -28.247   8.713  0.00  0.00    +0.132 C 
ATOM     20  O   LIG    1       23.567 -30.243   7.266  0.00  0.00    -0.270 OA
BRANCH  18  21
ATOM     21  C   LIG    1       25.238 -28.132   6.461  0.00  0.00    +0.141 C 
BRANCH  21  22
ATOM     22  C   LIG    1       25.876 -26.713   6.377  0.00  0.00    +0.157 C 
BRANCH  22  23
ATOM     23  O   LIG    1       26.970 -26.722   5.453  0.00  0.00    -0.388 OA
ATOM     24  H   LIG    1       27.771 -26.657   6.010  0.00  0.00    +0.210 HD
ENDBRANCH  22  23
BRANCH  22  25
ATOM     25  C   LIG    1       24.939 -25.550   5.992  0.00  0.00    +0.188 C 
BRANCH  25  26
ATOM     26  O   LIG    1       23.715 -26.061   5.459  0.00  0.00    -0.392 OA
ATOM     27  H   LIG    1       23.064 -25.334   5.526  0.00  0.00    +0.209 HD
ENDBRANCH  25  26
ENDBRANCH  22  25
ENDBRANCH  21  22
ENDBRANCH  18  21
ENDBRANCH   4  17
BRANCH   7  28
ATOM     28  C   LIG    1       22.273 -28.840  12.388  0.00  0.00    +0.246 C 
ATOM     29  N   LIG    1       22.738 -27.574  12.840  0.00  0.00    -0.309 N 
ATOM     30  H   LIG    1       23.635 -27.225  12.530  0.00  0.00    +0.149 HD
ATOM     31  O   LIG    1       21.190 -29.241  12.557  0.00  0.00    -0.270 OA
BRANCH  29  32
ATOM     32  C   LIG    1       21.894 -26.605  13.554  0.00  0.00    +0.138 C 
BRANCH  32  33
ATOM     33  C   LIG    1       20.394 -26.972  13.619  0.00  0.00    +0.157 C 
BRANCH  33  34
ATOM     34  O   LIG    1       19.673 -26.389  12.533  0.00  0.00    -0.388 OA
ATOM     35  H   LIG    1       19.801 -26.934  11.740  0.00  0.00    +0.210 HD
ENDBRANCH  33  34
BRANCH  33  36
ATOM     36  C   LIG    1       19.770 -26.526  14.954  0.00  0.00    +0.188 C 
BRANCH  36  37
ATOM     37  O   LIG    1       18.491 -25.936  14.768  0.00  0.00    -0.392 OA
ATOM     38  H   LIG    1       18.411 -25.677  13.833  0.00  0.00    +0.209 HD
ENDBRANCH  36  37
ENDBRANCH  33  36
ENDBRANCH  32  33
ENDBRANCH  29  32
ENDBRANCH   7  28
TORSDOF 15
ENDMDL
MODEL 3
REMARK VINA RESULT:      -5.4      2.429      2.772
REMARK  Name = *****
REMARK                            x       y       z     vdW  Elec       q    Type
REMARK                         _______ _______ _______ _____ _____    ______ ____
ROOT
ATOM      1  C   LIG    1       25.820 -30.853  10.592  0.00  0.00    +0.061 A 
ATOM      2  C   LIG    1       25.595 -31.014   9.194  0.00  0.00    +0.049 A 
ATOM      3  I   LIG    1       26.794 -32.324   7.974  0.00  0.00    -0.041 I 
ATOM      4  C   LIG    1       24.345 -30.734   8.644  0.00  0.00    +0.066 A 
ATOM      5  C   LIG    1       23.283 -30.699   9.550  0.00  0.00    +0.040 A 
ATOM      6  I   LIG    1       22.210 -32.860   9.359  0.00  0.00    -0.042 I 
ATOM      7  C   LIG    1       23.416 -30.471  10.939  0.00  0.00    +0.065 A 
ATOM      8  C   LIG    1       24.723 -30.576  11.444  0.00  0.00    +0.049 A 
ATOM      9  I   LIG    1       24.969 -30.937  13.543  0.00  0.00    -0.041 I 
ENDROOT
BRANCH   1  11
ATOM     10  C   LIG    1       27.637 -29.341  11.307  0.00  0.00    +0.243 C 
ATOM     11  N   LIG    1       27.148 -30.613  11.050  0.00  0.00    -0.282 N 
ATOM     12  H   LIG    1       27.863 -31.264  10.727  0.00  0.00    +0.155 HD
ATOM     13  O   LIG    1       27.047 -28.301  11.027  0.00  0.00    -0.273 OA
BRANCH  10  14
ATOM     14  C   LIG    1       29.018 -29.338  11.967  0.00  0.00    +0.255 C 
BRANCH  14  16
ATOM     15  C   LIG    1       30.172 -29.668  13.979  0.00  0.00    +0.194 C 
ATOM     16  O   LIG    1       28.984 -29.950  13.248  0.00  0.00    -0.374 OA
ENDBRANCH  14  16
ENDBRANCH  10  14
ENDBRANCH   1  11
BRANCH   4  17
ATOM     17  C   LIG    1       24.263 -29.980   7.326  0.00  0.00    +0.248 C 
ATOM     18  N   LIG    1       24.988 -28.798   7.094  0.00  0.00    -0.298 N 
ATOM     19  C   LIG    1       25.859 -28.185   8.060  0.00  0.00    +0.132 C 
ATOM     20  O   LIG    1       23.588 -30.492   6.422  0.00  0.00    -0.270 OA
BRANCH  18  21
ATOM     21  C   LIG    1       24.796 -28.022   5.845  0.00  0.00    +0.141 C 
BRANCH  21  22
ATOM     22  C   LIG    1       25.753 -26.811   5.631  0.00  0.00    +0.157 C 
BRANCH  22  23
ATOM     23  O   LIG    1       26.917 -27.228   4.909  0.00  0.00    -0.388 OA
ATOM     24  H   LIG    1       27.539 -27.543   5.595  0.00  0.00    +0.210 HD
ENDBRANCH  22  23
BRANCH  22  25
ATOM     25  C   LIG    1       25.167 -25.577   4.914  0.00  0.00    +0.188 C 
BRANCH  25  26
ATOM     26  O   LIG    1       23.865 -25.283   5.428  0.00  0.00    -0.392 OA
ATOM     27  H   LIG    1       23.246 -25.387   4.677  0.00  0.00    +0.209 HD
ENDBRANCH  25  26
ENDBRANCH  22  25
ENDBRANCH  21  22
ENDBRANCH  18  21
ENDBRANCH   4  17
BRANCH   7  28
ATOM     28  C   LIG    1       22.215 -29.923  11.686  0.00  0.00    +0.246 C 
ATOM     29  N   LIG    1       21.179 -30.881  11.871  0.00  0.00    -0.309 N 
ATOM     30  H   LIG    1       21.367 -31.863  11.718  0.00  0.00    +0.149 HD
ATOM     31  O   LIG    1       22.137 -28.802  11.998  0.00  0.00    -0.270 OA
BRANCH  29  32
ATOM     32  C   LIG    1       19.892 -30.573  12.507  0.00  0.00    +0.138 C 
BRANCH  32  33
ATOM     33  C   LIG    1       18.711 -31.462  12.052  0.00  0.00    +0.157 C 
BRANCH  33  34
ATOM     34  O   LIG    1       18.847 -32.793  12.548  0.00  0.00    -0.388 OA
ATOM     35  H   LIG    1       18.754 -33.417  11.811  0.00  0.00    +0.210 HD
ENDBRANCH  33  34
BRANCH  33  36
ATOM     36  C   LIG    1       18.597 -31.490  10.516  0.00  0.00    +0.188 C 
BRANCH  36  37
ATOM     37  O   LIG    1       19.136 -30.315   9.925  0.00  0.00    -0.392 OA
ATOM     38  H   LIG    1       18.644 -30.137   9.104  0.00  0.00    +0.209 HD
ENDBRANCH  36  37
ENDBRANCH  33  36
ENDBRANCH  32  33
ENDBRANCH  29  32
ENDBRANCH   7  28
TORSDOF 15
ENDMDL
MODEL 4
REMARK VINA RESULT:      -5.4      2.949      7.975
REMARK  Name = *****
REMARK                            x       y       z     vdW  Elec       q    Type
REMARK                         _______ _______ _______ _____ _____    ______ ____
ROOT
ATOM      1  C   LIG    1       21.227 -30.113  12.383  0.00  0.00    +0.061 A 
ATOM      2  C   LIG    1       21.768 -29.254  13.383  0.00  0.00    +0.049 A 
ATOM      3  I   LIG    1       21.054 -29.254  15.416  0.00  0.00    -0.041 I 
ATOM      4  C   LIG    1       23.055 -28.737  13.248  0.00  0.00    +0.066 A 
ATOM      5  C   LIG    1       23.882 -29.409  12.345  0.00  0.00    +0.040 A 
ATOM      6  I   LIG    1       25.262 -30.862  13.703  0.00  0.00    -0.042 I 
ATOM      7  C   LIG    1       23.423 -30.220  11.282  0.00  0.00    +0.065 A 
ATOM      8  C   LIG    1       22.066 -30.578  11.340  0.00  0.00    +0.049 A 
ATOM      9  I   LIG    1       21.426 -32.299  10.233  0.00  0.00    -0.041 I 
ENDROOT
BRANCH   1  11
ATOM     10  C   LIG    1       19.044 -31.160  12.869  0.00  0.00    +0.243 C 
ATOM     11  N   LIG    1       19.812 -30.193  12.239  0.00  0.00    -0.282 N 
ATOM     12  H   LIG    1       19.431 -29.896  11.339  0.00  0.00    +0.155 HD
ATOM     13  O   LIG    1       19.503 -32.121  13.480  0.00  0.00    -0.273 OA
BRANCH  10  14
ATOM     14  C   LIG    1       17.537 -30.938  12.722  0.00  0.00    +0.255 C 
BRANCH  14  16
ATOM     15  C   LIG    1       15.783 -29.726  13.693  0.00  0.00    +0.194 C 
ATOM     16  O   LIG    1       16.954 -30.496  13.939  0.00  0.00    -0.374 OA
ENDBRANCH  14  16
ENDBRANCH  10  14
ENDBRANCH   1  11
BRANCH   4  17
ATOM     17  C   LIG    1       23.314 -27.279  13.595  0.00  0.00    +0.248 C 
ATOM     18  N   LIG    1       24.267 -26.898  14.556  0.00  0.00    -0.298 N 
ATOM     19  C   LIG    1       25.074 -27.825  15.302  0.00  0.00    +0.132 C 
ATOM     20  O   LIG    1       22.706 -26.424  12.937  0.00  0.00    -0.270 OA
BRANCH  18  21
ATOM     21  C   LIG    1       24.413 -25.478  14.959  0.00  0.00    +0.141 C 
BRANCH  21  22
ATOM     22  C   LIG    1       25.789 -24.812  14.653  0.00  0.00    +0.157 C 
BRANCH  22  23
ATOM     23  O   LIG    1       25.973 -24.696  13.238  0.00  0.00    -0.388 OA
ATOM     24  H   LIG    1       26.672 -25.345  13.021  0.00  0.00    +0.210 HD
ENDBRANCH  22  23
BRANCH  22  25
ATOM     25  C   LIG    1       26.047 -23.427  15.281  0.00  0.00    +0.188 C 
BRANCH  25  26
ATOM     26  O   LIG    1       25.450 -22.406  14.478  0.00  0.00    -0.392 OA
ATOM     27  H   LIG    1       26.046 -22.278  13.712  0.00  0.00    +0.209 HD
ENDBRANCH  25  26
ENDBRANCH  22  25
ENDBRANCH  21  22
ENDBRANCH  18  21
ENDBRANCH   4  17
BRANCH   7  28
ATOM     28  C   LIG    1       24.347 -30.425  10.096  0.00  0.00    +0.246 C 
ATOM     29  N   LIG    1       23.938 -29.717   8.932  0.00  0.00    -0.309 N 
ATOM     30  H   LIG    1       23.244 -28.985   9.004  0.00  0.00    +0.149 HD
ATOM     31  O   LIG    1       25.252 -31.159  10.135  0.00  0.00    -0.270 OA
BRANCH  29  32
ATOM     32  C   LIG    1       24.632 -29.807   7.640  0.00  0.00    +0.138 C 
BRANCH  32  33
ATOM     33  C   LIG    1       24.097 -28.855   6.546  0.00  0.00    +0.157 C 
BRANCH  33  34
ATOM     34  O   LIG    1       23.273 -29.554   5.613  0.00  0.00    -0.388 OA
ATOM     35  H   LIG    1       23.213 -29.037   4.794  0.00  0.00    +0.210 HD
ENDBRANCH  33  34
BRANCH  33  36
ATOM     36  C   LIG    1       25.252 -28.162   5.800  0.00  0.00    +0.188 C 
BRANCH  36  37
ATOM     37  O   LIG    1       26.154 -27.527   6.697  0.00  0.00    -0.392 OA
ATOM     38  H   LIG    1       25.892 -26.593   6.776  0.00  0.00    +0.209 HD
ENDBRANCH  36  37
ENDBRANCH  33  36
ENDBRANCH  32  33
ENDBRANCH  29  32
ENDBRANCH   7  28
TORSDOF 15
ENDMDL
MODEL 5
REMARK VINA RESULT:      -5.2      2.397      7.665
REMARK  Name = *****
REMARK                            x       y       z     vdW  Elec       q    Type
REMARK                         _______ _______ _______ _____ _____    ______ ____
ROOT
ATOM      1  C   LIG    1       23.915 -31.387  11.503  0.00  0.00    +0.061 A 
ATOM      2  C   LIG    1       23.664 -30.586  12.653  0.00  0.00    +0.049 A 
ATOM      3  I   LIG    1       23.247 -31.438  14.587  0.00  0.00    -0.041 I 
ATOM      4  C   LIG    1       24.132 -29.274  12.715  0.00  0.00    +0.066 A 
ATOM      5  C   LIG    1       25.158 -28.959  11.821  0.00  0.00    +0.040 A 
ATOM      6  I   LIG    1       27.199 -29.108  13.114  0.00  0.00    -0.042 I 
ATOM      7  C   LIG    1       25.425 -29.659  10.622  0.00  0.00    +0.065 A 
ATOM      8  C   LIG    1       24.790 -30.906  10.498  0.00  0.00    +0.049 A 
ATOM      9  I   LIG    1       25.615 -32.328   9.121  0.00  0.00    -0.041 I 
ENDROOT
BRANCH   1  11
ATOM     10  C   LIG    1       22.001 -32.360  10.281  0.00  0.00    +0.243 C 
ATOM     11  N   LIG    1       23.027 -32.463  11.208  0.00  0.00    -0.282 N 
ATOM     12  H   LIG    1       22.816 -33.099  11.978  0.00  0.00    +0.155 HD
ATOM     13  O   LIG    1       21.657 -31.313   9.740  0.00  0.00    -0.273 OA
BRANCH  10  14
ATOM     14  C   LIG    1       21.301 -33.690   9.993  0.00  0.00    +0.255 C 
BRANCH  14  16
ATOM     15  C   LIG    1       19.338 -33.520  11.262  0.00  0.00    +0.194 C 
ATOM     16  O   LIG    1       19.889 -33.537   9.950  0.00  0.00    -0.374 OA
ENDBRANCH  14  16
ENDBRANCH  10  14
ENDBRANCH   1  11
BRANCH   4  17
ATOM     17  C   LIG    1       23.228 -28.184  13.270  0.00  0.00    +0.248 C 
ATOM     18  N   LIG    1       21.857 -28.122  12.962  0.00  0.00    -0.298 N 
ATOM     19  C   LIG    1       21.182 -29.056  12.103  0.00  0.00    +0.132 C 
ATOM     20  O   LIG    1       23.730 -27.390  14.077  0.00  0.00    -0.270 OA
BRANCH  18  21
ATOM     21  C   LIG    1       21.028 -26.981  13.422  0.00  0.00    +0.141 C 
BRANCH  21  22
ATOM     22  C   LIG    1       20.178 -27.221  14.706  0.00  0.00    +0.157 C 
BRANCH  22  23
ATOM     23  O   LIG    1       19.845 -25.968  15.313  0.00  0.00    -0.388 OA
ATOM     24  H   LIG    1       20.339 -25.299  14.798  0.00  0.00    +0.210 HD
ENDBRANCH  22  23
BRANCH  22  25
ATOM     25  C   LIG    1       18.874 -28.027  14.537  0.00  0.00    +0.188 C 
BRANCH  25  26
ATOM     26  O   LIG    1       17.857 -27.202  13.962  0.00  0.00    -0.392 OA
ATOM     27  H   LIG    1       17.075 -27.777  13.843  0.00  0.00    +0.209 HD
ENDBRANCH  25  26
ENDBRANCH  22  25
ENDBRANCH  21  22
ENDBRANCH  18  21
ENDBRANCH   4  17
BRANCH   7  28
ATOM     28  C   LIG    1       26.160 -28.921   9.519  0.00  0.00    +0.246 C 
ATOM     29  N   LIG    1       25.314 -28.516   8.450  0.00  0.00    -0.309 N 
ATOM     30  H   LIG    1       24.309 -28.527   8.568  0.00  0.00    +0.149 HD
ATOM     31  O   LIG    1       27.318 -28.782   9.530  0.00  0.00    -0.270 OA
BRANCH  29  32
ATOM     32  C   LIG    1       25.801 -27.844   7.238  0.00  0.00    +0.138 C 
BRANCH  32  33
ATOM     33  C   LIG    1       24.980 -28.131   5.959  0.00  0.00    +0.157 C 
BRANCH  33  34
ATOM     34  O   LIG    1       23.922 -27.186   5.802  0.00  0.00    -0.388 OA
ATOM     35  H   LIG    1       23.144 -27.497   6.292  0.00  0.00    +0.210 HD
ENDBRANCH  33  34
BRANCH  33  36
ATOM     36  C   LIG    1       24.402 -29.558   5.980  0.00  0.00    +0.188 C 
BRANCH  36  37
ATOM     37  O   LIG    1       23.100 -29.608   5.411  0.00  0.00    -0.392 OA
ATOM     38  H   LIG    1       23.167 -29.332   4.480  0.00  0.00    +0.209 HD
ENDBRANCH  36  37
ENDBRANCH  33  36
ENDBRANCH  32  33
ENDBRANCH  29  32
ENDBRANCH   7  28
TORSDOF 15
ENDMDL
MODEL 6
REMARK VINA RESULT:      -5.1      3.321      7.766
REMARK  Name = *****
REMARK                            x       y       z     vdW  Elec       q    Type
REMARK                         _______ _______ _______ _____ _____    ______ ____
ROOT
ATOM      1  C   LIG    1       23.268 -32.019  10.003  0.00  0.00    +0.061 A 
ATOM      2  C   LIG    1       23.719 -31.376  11.191  0.00  0.00    +0.049 A 
ATOM      3  I   LIG    1       24.187 -32.466  12.989  0.00  0.00    -0.041 I 
ATOM      4  C   LIG    1       24.329 -30.124  11.127  0.00  0.00    +0.066 A 
ATOM      5  C   LIG    1       24.821 -29.758   9.872  0.00  0.00    +0.040 A 
ATOM      6  I   LIG    1       27.192 -30.237   9.952  0.00  0.00    -0.042 I 
ATOM      7  C   LIG    1       24.374 -30.295   8.644  0.00  0.00    +0.065 A 
ATOM      8  C   LIG    1       23.598 -31.462   8.743  0.00  0.00    +0.049 A 
ATOM      9  I   LIG    1       23.448 -32.726   7.017  0.00  0.00    -0.041 I 
ENDROOT
BRANCH   1  11
ATOM     10  C   LIG    1       20.873 -32.624  10.054  0.00  0.00    +0.243 C 
ATOM     11  N   LIG    1       22.214 -32.974  10.097  0.00  0.00    -0.282 N 
ATOM     12  H   LIG    1       22.399 -33.798  10.671  0.00  0.00    +0.155 HD
ATOM     13  O   LIG    1       20.457 -31.469  10.085  0.00  0.00    -0.273 OA
BRANCH  10  14
ATOM     14  C   LIG    1       19.928 -33.825   9.982  0.00  0.00    +0.255 C 
BRANCH  14  16
ATOM     15  C   LIG    1       17.616 -33.642  10.318  0.00  0.00    +0.194 C 
ATOM     16  O   LIG    1       18.684 -33.475   9.392  0.00  0.00    -0.374 OA
ENDBRANCH  14  16
ENDBRANCH  10  14
ENDBRANCH   1  11
BRANCH   4  17
ATOM     17  C   LIG    1       23.965 -29.064  12.155  0.00  0.00    +0.248 C 
ATOM     18  N   LIG    1       24.899 -28.575  13.086  0.00  0.00    -0.298 N 
ATOM     19  C   LIG    1       26.263 -29.022  13.170  0.00  0.00    +0.132 C 
ATOM     20  O   LIG    1       22.827 -28.581  12.091  0.00  0.00    -0.270 OA
BRANCH  18  21
ATOM     21  C   LIG    1       24.484 -27.630  14.151  0.00  0.00    +0.141 C 
BRANCH  21  22
ATOM     22  C   LIG    1       24.390 -26.129  13.742  0.00  0.00    +0.157 C 
BRANCH  22  23
ATOM     23  O   LIG    1       23.023 -25.770  13.510  0.00  0.00    -0.388 OA
ATOM     24  H   LIG    1       22.516 -26.253  14.193  0.00  0.00    +0.210 HD
ENDBRANCH  22  23
BRANCH  22  25
ATOM     25  C   LIG    1       24.991 -25.101  14.723  0.00  0.00    +0.188 C 
BRANCH  25  26
ATOM     26  O   LIG    1       25.300 -23.888  14.033  0.00  0.00    -0.392 OA
ATOM     27  H   LIG    1       25.767 -23.319  14.678  0.00  0.00    +0.209 HD
ENDBRANCH  25  26
ENDBRANCH  22  25
ENDBRANCH  21  22
ENDBRANCH  18  21
ENDBRANCH   4  17
BRANCH   7  28
ATOM     28  C   LIG    1       24.569 -29.460   7.392  0.00  0.00    +0.246 C 
ATOM     29  N   LIG    1       25.543 -28.435   7.543  0.00  0.00    -0.309 N 
ATOM     30  H   LIG    1       26.177 -28.452   8.330  0.00  0.00    +0.149 HD
ATOM     31  O   LIG    1       23.915 -29.612   6.437  0.00  0.00    -0.270 OA
BRANCH  29  32
ATOM     32  C   LIG    1       25.862 -27.456   6.494  0.00  0.00    +0.138 C 
BRANCH  32  33
ATOM     33  C   LIG    1       24.865 -26.280   6.376  0.00  0.00    +0.157 C 
BRANCH  33  34
ATOM     34  O   LIG    1       23.725 -26.647   5.600  0.00  0.00    -0.388 OA
ATOM     35  H   LIG    1       24.018 -26.923   4.717  0.00  0.00    +0.210 HD
ENDBRANCH  33  34
BRANCH  33  36
ATOM     36  C   LIG    1       25.538 -25.042   5.756  0.00  0.00    +0.188 C 
BRANCH  36  37
ATOM     37  O   LIG    1       24.857 -24.600   4.589  0.00  0.00    -0.392 OA
ATOM     38  H   LIG    1       23.904 -24.579   4.786  0.00  0.00    +0.209 HD
ENDBRANCH  36  37
ENDBRANCH  33  36
ENDBRANCH  32  33
ENDBRANCH  29  32
ENDBRANCH   7  28
TORSDOF 15
ENDMDL
MODEL 7
REMARK VINA RESULT:      -5.1      2.549      7.113
REMARK  Name = *****
REMARK                            x       y       z     vdW  Elec       q    Type
REMARK                         _______ _______ _______ _____ _____    ______ ____
ROOT
ATOM      1  C   LIG    1       24.391 -29.560  11.280  0.00  0.00    +0.061 A 
ATOM      2  C   LIG    1       23.098 -29.843  11.807  0.00  0.00    +0.049 A 
ATOM      3  I   LIG    1       21.963 -31.577  11.219  0.00  0.00    -0.041 I 
ATOM      4  C   LIG    1       22.707 -29.316  13.037  0.00  0.00    +0.066 A 
ATOM      5  C   LIG    1       23.745 -28.876  13.860  0.00  0.00    +0.040 A 
ATOM      6  I   LIG    1       24.118 -30.677  15.434  0.00  0.00    -0.042 I 
ATOM      7  C   LIG    1       25.032 -28.506  13.407  0.00  0.00    +0.065 A 
ATOM      8  C   LIG    1       25.339 -28.888  12.090  0.00  0.00    +0.049 A 
ATOM      9  I   LIG    1       27.404 -29.014  11.529  0.00  0.00    -0.041 I 
ENDROOT
BRANCH   1  11
ATOM     10  C   LIG    1       25.040 -30.763   9.222  0.00  0.00    +0.243 C 
ATOM     11  N   LIG    1       24.586 -29.623   9.870  0.00  0.00    -0.282 N 
ATOM     12  H   LIG    1       24.873 -28.757   9.414  0.00  0.00    +0.155 HD
ATOM     13  O   LIG    1       25.459 -31.765   9.795  0.00  0.00    -0.273 OA
BRANCH  10  14
ATOM     14  C   LIG    1       24.993 -30.659   7.696  0.00  0.00    +0.255 C 
BRANCH  14  16
ATOM     15  C   LIG    1       24.229 -29.035   6.191  0.00  0.00    +0.194 C 
ATOM     16  O   LIG    1       23.872 -29.904   7.260  0.00  0.00    -0.374 OA
ENDBRANCH  14  16
ENDBRANCH  10  14
ENDBRANCH   1  11
BRANCH   4  17
ATOM     17  C   LIG    1       21.303 -28.752  13.195  0.00  0.00    +0.248 C 
ATOM     18  N   LIG    1       20.348 -29.350  14.037  0.00  0.00    -0.298 N 
ATOM     19  C   LIG    1       20.589 -30.536  14.813  0.00  0.00    +0.132 C 
ATOM     20  O   LIG    1       21.051 -27.689  12.612  0.00  0.00    -0.270 OA
BRANCH  18  21
ATOM     21  C   LIG    1       18.953 -28.848  14.079  0.00  0.00    +0.141 C 
BRANCH  21  22
ATOM     22  C   LIG    1       18.662 -27.709  15.102  0.00  0.00    +0.157 C 
BRANCH  22  23
ATOM     23  O   LIG    1       19.850 -26.946  15.337  0.00  0.00    -0.388 OA
ATOM     24  H   LIG    1       20.011 -26.467  14.500  0.00  0.00    +0.210 HD
ENDBRANCH  22  23
BRANCH  22  25
ATOM     25  C   LIG    1       17.529 -26.726  14.746  0.00  0.00    +0.188 C 
BRANCH  25  26
ATOM     26  O   LIG    1       18.068 -25.567  14.104  0.00  0.00    -0.392 OA
ATOM     27  H   LIG    1       18.821 -25.276  14.657  0.00  0.00    +0.209 HD
ENDBRANCH  25  26
ENDBRANCH  22  25
ENDBRANCH  21  22
ENDBRANCH  18  21
ENDBRANCH   4  17
BRANCH   7  28
ATOM     28  C   LIG    1       25.845 -27.562  14.271  0.00  0.00    +0.246 C 
ATOM     29  N   LIG    1       25.397 -26.213  14.211  0.00  0.00    -0.309 N 
ATOM     30  H   LIG    1       24.492 -25.999  13.815  0.00  0.00    +0.149 HD
ATOM     31  O   LIG    1       26.790 -27.915  14.857  0.00  0.00    -0.270 OA
BRANCH  29  32
ATOM     32  C   LIG    1       26.062 -25.104  14.908  0.00  0.00    +0.138 C 
BRANCH  32  33
ATOM     33  C   LIG    1       27.403 -24.654  14.285  0.00  0.00    +0.157 C 
BRANCH  33  34
ATOM     34  O   LIG    1       27.638 -25.308  13.038  0.00  0.00    -0.388 OA
ATOM     35  H   LIG    1       27.934 -24.652  12.387  0.00  0.00    +0.210 HD
ENDBRANCH  33  34
BRANCH  33  36
ATOM     36  C   LIG    1       28.579 -24.923  15.242  0.00  0.00    +0.188 C 
BRANCH  36  37
ATOM     37  O   LIG    1       29.213 -26.164  14.962  0.00  0.00    -0.392 OA
ATOM     38  H   LIG    1       30.176 -26.025  14.996  0.00  0.00    +0.209 HD
ENDBRANCH  36  37
ENDBRANCH  33  36
ENDBRANCH  32  33
ENDBRANCH  29  32
ENDBRANCH   7  28
TORSDOF 15
ENDMDL
MODEL 8
REMARK VINA RESULT:      -5.1      2.991      6.684
REMARK  Name = *****
REMARK                            x       y       z     vdW  Elec       q    Type
REMARK                         _______ _______ _______ _____ _____    ______ ____
ROOT
ATOM      1  C   LIG    1       24.337 -29.976  10.534  0.00  0.00    +0.061 A 
ATOM      2  C   LIG    1       23.103 -30.581  10.912  0.00  0.00    +0.049 A 
ATOM      3  I   LIG    1       22.318 -32.324   9.917  0.00  0.00    -0.041 I 
ATOM      4  C   LIG    1       22.591 -30.398  12.195  0.00  0.00    +0.066 A 
ATOM      5  C   LIG    1       23.511 -29.967  13.154  0.00  0.00    +0.040 A 
ATOM      6  I   LIG    1       24.164 -31.966  14.354  0.00  0.00    -0.042 I 
ATOM      7  C   LIG    1       24.721 -29.296  12.865  0.00  0.00    +0.065 A 
ATOM      8  C   LIG    1       25.126 -29.335  11.521  0.00  0.00    +0.049 A 
ATOM      9  I   LIG    1       27.194 -28.983  11.077  0.00  0.00    -0.041 I 
ENDROOT
BRANCH   1  11
ATOM     10  C   LIG    1       25.232 -30.600   8.318  0.00  0.00    +0.243 C 
ATOM     11  N   LIG    1       24.577 -29.709   9.155  0.00  0.00    -0.282 N 
ATOM     12  H   LIG    1       24.727 -28.731   8.903  0.00  0.00    +0.155 HD
ATOM     13  O   LIG    1       25.798 -31.621   8.698  0.00  0.00    -0.273 OA
BRANCH  10  14
ATOM     14  C   LIG    1       25.209 -30.186   6.845  0.00  0.00    +0.255 C 
BRANCH  14  16
ATOM     15  C   LIG    1       24.432 -28.567   5.340  0.00  0.00    +0.194 C 
ATOM     16  O   LIG    1       24.219 -29.198   6.597  0.00  0.00    -0.374 OA
ENDBRANCH  14  16
ENDBRANCH  10  14
ENDBRANCH   1  11
BRANCH   4  17
ATOM     17  C   LIG    1       21.105 -30.130  12.375  0.00  0.00    +0.248 C 
ATOM     18  N   LIG    1       20.218 -31.121  12.832  0.00  0.00    -0.298 N 
ATOM     19  C   LIG    1       20.610 -32.464  13.162  0.00  0.00    +0.132 C 
ATOM     20  O   LIG    1       20.711 -28.972  12.179  0.00  0.00    -0.270 OA
BRANCH  18  21
ATOM     21  C   LIG    1       18.757 -30.865  12.883  0.00  0.00    +0.141 C 
BRANCH  21  22
ATOM     22  C   LIG    1       17.917 -31.431  11.699  0.00  0.00    +0.157 C 
BRANCH  22  23
ATOM     23  O   LIG    1       16.631 -30.801  11.667  0.00  0.00    -0.388 OA
ATOM     24  H   LIG    1       16.624 -30.204  12.441  0.00  0.00    +0.210 HD
ENDBRANCH  22  23
BRANCH  22  25
ATOM     25  C   LIG    1       18.535 -31.320  10.291  0.00  0.00    +0.188 C 
BRANCH  25  26
ATOM     26  O   LIG    1       17.735 -30.468   9.468  0.00  0.00    -0.392 OA
ATOM     27  H   LIG    1       16.831 -30.499   9.842  0.00  0.00    +0.209 HD
ENDBRANCH  25  26
ENDBRANCH  22  25
ENDBRANCH  21  22
ENDBRANCH  18  21
ENDBRANCH   4  17
BRANCH   7  28
ATOM     28  C   LIG    1       25.327 -28.427  13.951  0.00  0.00    +0.246 C 
ATOM     29  N   LIG    1       24.854 -27.085  13.931  0.00  0.00    -0.309 N 
ATOM     30  H   LIG    1       24.032 -26.847  13.392  0.00  0.00    +0.149 HD
ATOM     31  O   LIG    1       26.156 -28.821  14.671  0.00  0.00    -0.270 OA
BRANCH  29  32
ATOM     32  C   LIG    1       25.340 -26.039  14.841  0.00  0.00    +0.138 C 
BRANCH  32  33
ATOM     33  C   LIG    1       26.413 -25.101  14.240  0.00  0.00    +0.157 C 
BRANCH  33  34
ATOM     34  O   LIG    1       26.347 -25.089  12.815  0.00  0.00    -0.388 OA
ATOM     35  H   LIG    1       26.832 -24.317  12.482  0.00  0.00    +0.210 HD
ENDBRANCH  33  34
BRANCH  33  36
ATOM     36  C   LIG    1       27.826 -25.514  14.691  0.00  0.00    +0.188 C 
BRANCH  36  37
ATOM     37  O   LIG    1       28.210 -26.767  14.141  0.00  0.00    -0.392 OA
ATOM     38  H   LIG    1       28.106 -27.445  14.831  0.00  0.00    +0.209 HD
ENDBRANCH  36  37
ENDBRANCH  33  36
ENDBRANCH  32  33
ENDBRANCH  29  32
ENDBRANCH   7  28
TORSDOF 15
ENDMDL
MODEL 9
REMARK VINA RESULT:      -5.0      2.868      6.794
REMARK  Name = *****
REMARK                            x       y       z     vdW  Elec       q    Type
REMARK                         _______ _______ _______ _____ _____    ______ ____
ROOT
ATOM      1  C   LIG    1       24.240 -30.108  10.394  0.00  0.00    +0.061 A 
ATOM      2  C   LIG    1       23.014 -30.715  10.794  0.00  0.00    +0.049 A 
ATOM      3  I   LIG    1       22.249 -32.498   9.857  0.00  0.00    -0.041 I 
ATOM      4  C   LIG    1       22.502 -30.497  12.072  0.00  0.00    +0.066 A 
ATOM      5  C   LIG    1       23.419 -30.025  13.014  0.00  0.00    +0.040 A 
ATOM      6  I   LIG    1       24.098 -31.977  14.276  0.00  0.00    -0.042 I 
ATOM      7  C   LIG    1       24.620 -29.349  12.702  0.00  0.00    +0.065 A 
ATOM      8  C   LIG    1       25.023 -29.426  11.358  0.00  0.00    +0.049 A 
ATOM      9  I   LIG    1       27.085 -29.064  10.899  0.00  0.00    -0.041 I 
ENDROOT
BRANCH   1  11
ATOM     10  C   LIG    1       25.132 -30.795   8.196  0.00  0.00    +0.243 C 
ATOM     11  N   LIG    1       24.474 -29.882   9.007  0.00  0.00    -0.282 N 
ATOM     12  H   LIG    1       24.618 -28.912   8.725  0.00  0.00    +0.155 HD
ATOM     13  O   LIG    1       25.704 -31.800   8.606  0.00  0.00    -0.273 OA
BRANCH  10  14
ATOM     14  C   LIG    1       25.102 -30.426   6.711  0.00  0.00    +0.255 C 
BRANCH  14  16
ATOM     15  C   LIG    1       24.260 -28.639   5.451  0.00  0.00    +0.194 C 
ATOM     16  O   LIG    1       23.947 -29.665   6.386  0.00  0.00    -0.374 OA
ENDBRANCH  14  16
ENDBRANCH  10  14
ENDBRANCH   1  11
BRANCH   4  17
ATOM     17  C   LIG    1       21.013 -30.242  12.246  0.00  0.00    +0.248 C 
ATOM     18  N   LIG    1       20.161 -31.180  12.855  0.00  0.00    -0.298 N 
ATOM     19  C   LIG    1       20.595 -32.454  13.358  0.00  0.00    +0.132 C 
ATOM     20  O   LIG    1       20.586 -29.132  11.901  0.00  0.00    -0.270 OA
BRANCH  18  21
ATOM     21  C   LIG    1       18.695 -30.953  12.903  0.00  0.00    +0.141 C 
BRANCH  21  22
ATOM     22  C   LIG    1       18.176 -30.047  14.060  0.00  0.00    +0.157 C 
BRANCH  22  23
ATOM     23  O   LIG    1       18.610 -28.698  13.856  0.00  0.00    -0.388 OA
ATOM     24  H   LIG    1       18.956 -28.680  12.942  0.00  0.00    +0.210 HD
ENDBRANCH  22  23
BRANCH  22  25
ATOM     25  C   LIG    1       16.652 -30.025  14.296  0.00  0.00    +0.188 C 
BRANCH  25  26
ATOM     26  O   LIG    1       16.037 -29.053  13.446  0.00  0.00    -0.392 OA
ATOM     27  H   LIG    1       15.303 -29.514  12.992  0.00  0.00    +0.209 HD
ENDBRANCH  25  26
ENDBRANCH  22  25
ENDBRANCH  21  22
ENDBRANCH  18  21
ENDBRANCH   4  17
BRANCH   7  28
ATOM     28  C   LIG    1       25.217 -28.439  13.758  0.00  0.00    +0.246 C 
ATOM     29  N   LIG    1       24.607 -27.154  13.808  0.00  0.00    -0.309 N 
ATOM     30  H   LIG    1       23.725 -26.996  13.340  0.00  0.00    +0.149 HD
ATOM     31  O   LIG    1       26.137 -28.755  14.401  0.00  0.00    -0.270 OA
BRANCH  29  32
ATOM     32  C   LIG    1       25.053 -26.077  14.702  0.00  0.00    +0.138 C 
BRANCH  32  33
ATOM     33  C   LIG    1       25.356 -24.733  14.001  0.00  0.00    +0.157 C 
BRANCH  33  34
ATOM     34  O   LIG    1       26.479 -24.849  13.127  0.00  0.00    -0.388 OA
ATOM     35  H   LIG    1       26.750 -25.780  13.081  0.00  0.00    +0.210 HD
ENDBRANCH  33  34
BRANCH  33  36
ATOM     36  C   LIG    1       25.613 -23.616  15.029  0.00  0.00    +0.188 C 
BRANCH  36  37
ATOM     37  O   LIG    1       25.487 -22.324  14.448  0.00  0.00    -0.392 OA
ATOM     38  H   LIG    1       25.618 -21.663  15.150  0.00  0.00    +0.209 HD
ENDBRANCH  36  37
ENDBRANCH  33  36
ENDBRANCH  32  33
ENDBRANCH  29  32
ENDBRANCH   7  28
TORSDOF 15
ENDMDL
