MODEL 1
REMARK VINA RESULT:      -6.0      0.000      0.000
REMARK  Name = *****
REMARK                            x       y       z     vdW  Elec       q    Type
REMARK                         _______ _______ _______ _____ _____    ______ ____
ROOT
ATOM      1  C   LIG    1       24.655 -31.002   8.866  0.00  0.00    +0.133 C 
ATOM      2  C   LIG    1       24.350 -30.491  10.299  0.00  0.00    +0.012 C 
ATOM      3  C   LIG    1       24.086 -31.630  11.321  0.00  0.00    +0.011 C 
ATOM      4  C   LIG    1       25.342 -32.024  12.129  0.00  0.00    +0.089 C 
ATOM      5  N   LIG    1       26.061 -30.896  12.723  0.00  0.00    -0.293 NA
ATOM      6  C   LIG    1       25.498 -29.579  12.368  0.00  0.00    +0.104 C 
ATOM      7  C   LIG    1       26.324 -28.505  12.994  0.00  0.00    +0.038 C 
ATOM      8  C   LIG    1       27.143 -28.660  14.094  0.00  0.00    -0.016 C 
ATOM      9  C   LIG    1       27.651 -27.378  14.440  0.00  0.00    +0.003 C 
ATOM     10  C   LIG    1       27.110 -26.470  13.526  0.00  0.00    +0.047 C 
ATOM     11  C   LIG    1       27.384 -25.098  13.568  0.00  0.00    +0.026 C 
ATOM     12  C   LIG    1       28.239 -24.639  14.575  0.00  0.00    +0.002 C 
ATOM     13  C   LIG    1       28.794 -25.520  15.500  0.00  0.00    +0.001 C 
ATOM     14  C   LIG    1       28.511 -26.890  15.445  0.00  0.00    +0.010 C 
ATOM     15  C   LIG    1       27.360 -30.006  14.703  0.00  0.00    +0.053 C 
ATOM     16  N   LIG    1       26.311 -27.181  12.660  0.00  0.00    -0.356 NA
ATOM     17  H   LIG    1       25.782 -26.767  11.905  0.00  0.00    +0.166 HD
ATOM     18  C   LIG    1       26.323 -31.036  14.170  0.00  0.00    +0.090 C 
ATOM     19  C   LIG    1       23.425 -32.873  10.711  0.00  0.00    +0.052 C 
ATOM     20  C   LIG    1       22.681 -32.566   9.415  0.00  0.00    +0.206 C 
ATOM     21  C   LIG    1       25.424 -29.510  10.837  0.00  0.00    +0.030 C 
ATOM     22  C   LIG    1       23.682 -32.092   8.339  0.00  0.00    +0.172 C 
ENDROOT
BRANCH   1  23
ATOM     23  C   LIG    1       24.664 -29.831   7.892  0.00  0.00    +0.313 C 
ATOM     24  O   LIG    1       25.523 -28.960   7.853  0.00  0.00    -0.250 OA
BRANCH  23  26
ATOM     25  C   LIG    1       23.861 -29.373   5.715  0.00  0.00    +0.280 C 
ATOM     26  O   LIG    1       23.647 -29.972   6.994  0.00  0.00    -0.468 OA
ENDBRANCH  23  26
ENDBRANCH   1  23
BRANCH  22  27
ATOM     27  O   LIG    1       24.524 -33.185   7.904  0.00  0.00    -0.375 OA
ATOM     28  C   LIG    1       24.600 -33.353   6.494  0.00  0.00    +0.194 C 
ENDBRANCH  22  27
BRANCH  20  29
ATOM     29  O   LIG    1       21.655 -31.600   9.685  0.00  0.00    -0.455 OA
BRANCH  29  30
ATOM     30  C   LIG    1       20.554 -32.081  10.286  0.00  0.00    +0.340 C 
ATOM     31  O   LIG    1       19.966 -33.129  10.010  0.00  0.00    -0.245 OA
BRANCH  30  32
ATOM     32  C   LIG    1       20.297 -31.291  11.494  0.00  0.00    +0.066 A 
ATOM     33  C   LIG    1       20.921 -30.047  11.619  0.00  0.00    +0.064 A 
ATOM     34  C   LIG    1       20.595 -29.179  12.660  0.00  0.00    +0.166 A 
ATOM     35  C   LIG    1       19.664 -29.606  13.642  0.00  0.00    +0.203 A 
ATOM     36  C   LIG    1       19.033 -30.877  13.507  0.00  0.00    +0.166 A 
ATOM     37  C   LIG    1       19.362 -31.704  12.436  0.00  0.00    +0.064 A 
BRANCH  34  38
ATOM     38  O   LIG    1       21.153 -27.921  12.722  0.00  0.00    -0.491 OA
ATOM     39  C   LIG    1       22.480 -27.847  13.267  0.00  0.00    +0.277 C 
ENDBRANCH  34  38
BRANCH  35  40
ATOM     40  O   LIG    1       19.234 -28.869  14.719  0.00  0.00    -0.488 OA
ATOM     41  C   LIG    1       18.275 -27.845  14.488  0.00  0.00    +0.277 C 
ENDBRANCH  35  40
BRANCH  36  42
ATOM     42  O   LIG    1       18.092 -31.239  14.449  0.00  0.00    -0.491 OA
ATOM     43  C   LIG    1       16.731 -31.326  14.017  0.00  0.00    +0.277 C 
ENDBRANCH  36  42
ENDBRANCH  30  32
ENDBRANCH  29  30
ENDBRANCH  20  29
TORSDOF 9
ENDMDL
MODEL 2
REMARK VINA RESULT:      -5.8      0.579      1.938
REMARK  Name = *****
REMARK                            x       y       z     vdW  Elec       q    Type
REMARK                         _______ _______ _______ _____ _____    ______ ____
ROOT
ATOM      1  C   LIG    1       24.675 -30.773   8.826  0.00  0.00    +0.133 C 
ATOM      2  C   LIG    1       24.389 -30.297  10.275  0.00  0.00    +0.012 C 
ATOM      3  C   LIG    1       24.161 -31.461  11.277  0.00  0.00    +0.011 C 
ATOM      4  C   LIG    1       25.438 -31.852  12.054  0.00  0.00    +0.089 C 
ATOM      5  N   LIG    1       26.150 -30.726  12.658  0.00  0.00    -0.293 NA
ATOM      6  C   LIG    1       25.561 -29.410  12.342  0.00  0.00    +0.104 C 
ATOM      7  C   LIG    1       26.381 -28.337  12.975  0.00  0.00    +0.038 C 
ATOM      8  C   LIG    1       27.222 -28.502  14.057  0.00  0.00    -0.016 C 
ATOM      9  C   LIG    1       27.717 -27.220  14.421  0.00  0.00    +0.003 C 
ATOM     10  C   LIG    1       27.146 -26.301  13.537  0.00  0.00    +0.047 C 
ATOM     11  C   LIG    1       27.399 -24.927  13.604  0.00  0.00    +0.026 C 
ATOM     12  C   LIG    1       28.265 -24.476  14.604  0.00  0.00    +0.002 C 
ATOM     13  C   LIG    1       28.851 -25.367  15.500  0.00  0.00    +0.001 C 
ATOM     14  C   LIG    1       28.587 -26.740  15.420  0.00  0.00    +0.010 C 
ATOM     15  C   LIG    1       27.471 -29.857  14.634  0.00  0.00    +0.053 C 
ATOM     16  N   LIG    1       26.341 -27.006  12.670  0.00  0.00    -0.356 NA
ATOM     17  H   LIG    1       25.793 -26.585  11.934  0.00  0.00    +0.166 HD
ATOM     18  C   LIG    1       26.441 -30.892  14.097  0.00  0.00    +0.090 C 
ATOM     19  C   LIG    1       23.508 -32.701  10.652  0.00  0.00    +0.052 C 
ATOM     20  C   LIG    1       22.736 -32.378   9.376  0.00  0.00    +0.206 C 
ATOM     21  C   LIG    1       25.457 -29.311  10.814  0.00  0.00    +0.030 C 
ATOM     22  C   LIG    1       23.709 -31.866   8.294  0.00  0.00    +0.172 C 
ENDROOT
BRANCH   1  23
ATOM     23  C   LIG    1       24.648 -29.581   7.877  0.00  0.00    +0.313 C 
ATOM     24  O   LIG    1       25.416 -28.629   7.928  0.00  0.00    -0.250 OA
BRANCH  23  26
ATOM     25  C   LIG    1       24.029 -29.210   5.625  0.00  0.00    +0.280 C 
ATOM     26  O   LIG    1       23.730 -29.799   6.892  0.00  0.00    -0.468 OA
ENDBRANCH  23  26
ENDBRANCH   1  23
BRANCH  22  27
ATOM     27  O   LIG    1       24.560 -32.936   7.820  0.00  0.00    -0.375 OA
ATOM     28  C   LIG    1       25.933 -32.804   8.169  0.00  0.00    +0.194 C 
ENDBRANCH  22  27
BRANCH  20  29
ATOM     29  O   LIG    1       21.700 -31.435   9.686  0.00  0.00    -0.455 OA
BRANCH  29  30
ATOM     30  C   LIG    1       20.583 -31.958  10.218  0.00  0.00    +0.340 C 
ATOM     31  O   LIG    1       20.083 -33.051   9.945  0.00  0.00    -0.245 OA
BRANCH  30  32
ATOM     32  C   LIG    1       20.181 -31.135  11.364  0.00  0.00    +0.066 A 
ATOM     33  C   LIG    1       19.041 -31.509  12.081  0.00  0.00    +0.064 A 
ATOM     34  C   LIG    1       18.698 -30.869  13.271  0.00  0.00    +0.166 A 
ATOM     35  C   LIG    1       19.487 -29.777  13.714  0.00  0.00    +0.203 A 
ATOM     36  C   LIG    1       20.647 -29.402  12.976  0.00  0.00    +0.166 A 
ATOM     37  C   LIG    1       20.975 -30.085  11.807  0.00  0.00    +0.064 A 
BRANCH  34  38
ATOM     38  O   LIG    1       17.622 -31.305  14.013  0.00  0.00    -0.491 OA
ATOM     39  C   LIG    1       17.934 -32.119  15.154  0.00  0.00    +0.277 C 
ENDBRANCH  34  38
BRANCH  35  40
ATOM     40  O   LIG    1       19.286 -29.052  14.864  0.00  0.00    -0.488 OA
ATOM     41  C   LIG    1       18.217 -28.114  14.886  0.00  0.00    +0.277 C 
ENDBRANCH  35  40
BRANCH  36  42
ATOM     42  O   LIG    1       21.423 -28.371  13.463  0.00  0.00    -0.491 OA
ATOM     43  C   LIG    1       21.218 -27.073  12.900  0.00  0.00    +0.277 C 
ENDBRANCH  36  42
ENDBRANCH  30  32
ENDBRANCH  29  30
ENDBRANCH  20  29
TORSDOF 9
ENDMDL
MODEL 3
REMARK VINA RESULT:      -5.4      3.900      7.055
REMARK  Name = *****
REMARK                            x       y       z     vdW  Elec       q    Type
REMARK                         _______ _______ _______ _____ _____    ______ ____
ROOT
ATOM      1  C   LIG    1       23.933 -30.228   7.756  0.00  0.00    +0.133 C 
ATOM      2  C   LIG    1       25.072 -29.284   7.286  0.00  0.00    +0.012 C 
ATOM      3  C   LIG    1       25.606 -29.616   5.866  0.00  0.00    +0.011 C 
ATOM      4  C   LIG    1       24.948 -28.768   4.756  0.00  0.00    +0.089 C 
ATOM      5  N   LIG    1       24.926 -27.329   5.022  0.00  0.00    -0.293 NA
ATOM      6  C   LIG    1       25.465 -26.962   6.347  0.00  0.00    +0.104 C 
ATOM      7  C   LIG    1       25.363 -25.484   6.528  0.00  0.00    +0.038 C 
ATOM      8  C   LIG    1       25.269 -24.555   5.511  0.00  0.00    -0.016 C 
ATOM      9  C   LIG    1       25.315 -23.262   6.100  0.00  0.00    +0.003 C 
ATOM     10  C   LIG    1       25.444 -23.451   7.479  0.00  0.00    +0.047 C 
ATOM     11  C   LIG    1       25.532 -22.388   8.384  0.00  0.00    +0.026 C 
ATOM     12  C   LIG    1       25.486 -21.090   7.867  0.00  0.00    +0.002 C 
ATOM     13  C   LIG    1       25.358 -20.870   6.497  0.00  0.00    +0.001 C 
ATOM     14  C   LIG    1       25.271 -21.944   5.603  0.00  0.00    +0.010 C 
ATOM     15  C   LIG    1       25.145 -24.988   4.088  0.00  0.00    +0.053 C 
ATOM     16  N   LIG    1       25.469 -24.808   7.710  0.00  0.00    -0.356 NA
ATOM     17  H   LIG    1       25.570 -25.227   8.623  0.00  0.00    +0.166 HD
ATOM     18  C   LIG    1       25.477 -26.500   3.931  0.00  0.00    +0.090 C 
ATOM     19  C   LIG    1       25.548 -31.108   5.512  0.00  0.00    +0.052 C 
ATOM     20  C   LIG    1       25.505 -32.003   6.747  0.00  0.00    +0.206 C 
ATOM     21  C   LIG    1       24.701 -27.782   7.395  0.00  0.00    +0.030 C 
ATOM     22  C   LIG    1       24.205 -31.741   7.536  0.00  0.00    +0.172 C 
ENDROOT
BRANCH   1  23
ATOM     23  C   LIG    1       23.638 -29.986   9.231  0.00  0.00    +0.313 C 
ATOM     24  O   LIG    1       24.274 -29.232   9.956  0.00  0.00    -0.250 OA
BRANCH  23  26
ATOM     25  C   LIG    1       22.084 -30.479  10.944  0.00  0.00    +0.280 C 
ATOM     26  O   LIG    1       22.490 -30.632   9.583  0.00  0.00    -0.468 OA
ENDBRANCH  23  26
ENDBRANCH   1  23
BRANCH  22  27
ATOM     27  O   LIG    1       23.056 -32.239   6.813  0.00  0.00    -0.375 OA
ATOM     28  C   LIG    1       22.861 -33.646   6.899  0.00  0.00    +0.194 C 
ENDBRANCH  22  27
BRANCH  20  29
ATOM     29  O   LIG    1       26.687 -31.775   7.527  0.00  0.00    -0.455 OA
BRANCH  29  30
ATOM     30  C   LIG    1       26.877 -32.625   8.550  0.00  0.00    +0.340 C 
ATOM     31  O   LIG    1       27.444 -33.720   8.498  0.00  0.00    -0.245 OA
BRANCH  30  32
ATOM     32  C   LIG    1       26.528 -31.941   9.799  0.00  0.00    +0.066 A 
ATOM     33  C   LIG    1       25.627 -32.564  10.667  0.00  0.00    +0.064 A 
ATOM     34  C   LIG    1       25.379 -32.049  11.938  0.00  0.00    +0.166 A 
ATOM     35  C   LIG    1       26.003 -30.833  12.318  0.00  0.00    +0.203 A 
ATOM     36  C   LIG    1       26.920 -30.204  11.427  0.00  0.00    +0.166 A 
ATOM     37  C   LIG    1       27.166 -30.766  10.176  0.00  0.00    +0.064 A 
BRANCH  34  38
ATOM     38  O   LIG    1       24.556 -32.720  12.816  0.00  0.00    -0.491 OA
ATOM     39  C   LIG    1       23.596 -33.608  12.225  0.00  0.00    +0.277 C 
ENDBRANCH  34  38
BRANCH  35  40
ATOM     40  O   LIG    1       25.868 -30.203  13.533  0.00  0.00    -0.488 OA
ATOM     41  C   LIG    1       24.693 -29.437  13.762  0.00  0.00    +0.277 C 
ENDBRANCH  35  40
BRANCH  36  42
ATOM     42  O   LIG    1       27.552 -29.053  11.848  0.00  0.00    -0.491 OA
ATOM     43  C   LIG    1       27.058 -27.810  11.340  0.00  0.00    +0.277 C 
ENDBRANCH  36  42
ENDBRANCH  30  32
ENDBRANCH  29  30
ENDBRANCH  20  29
TORSDOF 9
ENDMDL
MODEL 4
REMARK VINA RESULT:      -5.3      3.899      6.939
REMARK  Name = *****
REMARK                            x       y       z     vdW  Elec       q    Type
REMARK                         _______ _______ _______ _____ _____    ______ ____
ROOT
ATOM      1  C   LIG    1       23.954 -30.218   7.575  0.00  0.00    +0.133 C 
ATOM      2  C   LIG    1       25.085 -29.263   7.111  0.00  0.00    +0.012 C 
ATOM      3  C   LIG    1       25.569 -29.533   5.660  0.00  0.00    +0.011 C 
ATOM      4  C   LIG    1       24.884 -28.629   4.613  0.00  0.00    +0.089 C 
ATOM      5  N   LIG    1       24.885 -27.203   4.946  0.00  0.00    -0.293 NA
ATOM      6  C   LIG    1       25.470 -26.903   6.268  0.00  0.00    +0.104 C 
ATOM      7  C   LIG    1       25.390 -25.434   6.520  0.00  0.00    +0.038 C 
ATOM      8  C   LIG    1       25.272 -24.458   5.551  0.00  0.00    -0.016 C 
ATOM      9  C   LIG    1       25.350 -23.194   6.197  0.00  0.00    +0.003 C 
ATOM     10  C   LIG    1       25.522 -23.448   7.560  0.00  0.00    +0.047 C 
ATOM     11  C   LIG    1       25.651 -22.429   8.511  0.00  0.00    +0.026 C 
ATOM     12  C   LIG    1       25.601 -21.109   8.055  0.00  0.00    +0.002 C 
ATOM     13  C   LIG    1       25.430 -20.824   6.702  0.00  0.00    +0.001 C 
ATOM     14  C   LIG    1       25.303 -21.854   5.763  0.00  0.00    +0.010 C 
ATOM     15  C   LIG    1       25.096 -24.824   4.114  0.00  0.00    +0.053 C 
ATOM     16  N   LIG    1       25.541 -24.815   7.728  0.00  0.00    -0.356 NA
ATOM     17  H   LIG    1       25.668 -25.276   8.617  0.00  0.00    +0.166 HD
ATOM     18  C   LIG    1       25.408 -26.329   3.876  0.00  0.00    +0.090 C 
ATOM     19  C   LIG    1       25.485 -31.006   5.240  0.00  0.00    +0.052 C 
ATOM     20  C   LIG    1       25.473 -31.958   6.433  0.00  0.00    +0.206 C 
ATOM     21  C   LIG    1       24.734 -27.765   7.301  0.00  0.00    +0.030 C 
ATOM     22  C   LIG    1       24.203 -31.722   7.277  0.00  0.00    +0.172 C 
ENDROOT
BRANCH   1  23
ATOM     23  C   LIG    1       23.710 -30.042   9.068  0.00  0.00    +0.313 C 
ATOM     24  O   LIG    1       24.311 -29.254   9.787  0.00  0.00    -0.250 OA
BRANCH  23  26
ATOM     25  C   LIG    1       22.025 -30.418  10.685  0.00  0.00    +0.280 C 
ATOM     26  O   LIG    1       22.641 -30.796   9.452  0.00  0.00    -0.468 OA
ENDBRANCH  23  26
ENDBRANCH   1  23
BRANCH  22  27
ATOM     27  O   LIG    1       23.025 -32.176   6.570  0.00  0.00    -0.375 OA
ATOM     28  C   LIG    1       22.782 -33.574   6.656  0.00  0.00    +0.194 C 
ENDBRANCH  22  27
BRANCH  20  29
ATOM     29  O   LIG    1       26.683 -31.776   7.184  0.00  0.00    -0.455 OA
BRANCH  29  30
ATOM     30  C   LIG    1       26.926 -32.707   8.120  0.00  0.00    +0.340 C 
ATOM     31  O   LIG    1       27.414 -33.825   7.935  0.00  0.00    -0.245 OA
BRANCH  30  32
ATOM     32  C   LIG    1       26.756 -32.096   9.443  0.00  0.00    +0.066 A 
ATOM     33  C   LIG    1       27.431 -30.903   9.715  0.00  0.00    +0.064 A 
ATOM     34  C   LIG    1       27.187 -30.190  10.887  0.00  0.00    +0.166 A 
ATOM     35  C   LIG    1       26.290 -30.730  11.844  0.00  0.00    +0.203 A 
ATOM     36  C   LIG    1       25.607 -31.948  11.559  0.00  0.00    +0.166 A 
ATOM     37  C   LIG    1       25.854 -32.617  10.362  0.00  0.00    +0.064 A 
BRANCH  34  38
ATOM     38  O   LIG    1       27.793 -28.971  11.103  0.00  0.00    -0.491 OA
ATOM     39  C   LIG    1       26.936 -27.821  11.030  0.00  0.00    +0.277 C 
ENDBRANCH  34  38
BRANCH  35  40
ATOM     40  O   LIG    1       25.939 -30.147  13.038  0.00  0.00    -0.488 OA
ATOM     41  C   LIG    1       26.796 -30.343  14.155  0.00  0.00    +0.277 C 
ENDBRANCH  35  40
BRANCH  36  42
ATOM     42  O   LIG    1       24.700 -32.417  12.486  0.00  0.00    -0.491 OA
ATOM     43  C   LIG    1       23.736 -33.373  12.035  0.00  0.00    +0.277 C 
ENDBRANCH  36  42
ENDBRANCH  30  32
ENDBRANCH  29  30
ENDBRANCH  20  29
TORSDOF 9
ENDMDL
MODEL 5
REMARK VINA RESULT:      -4.7      3.127      7.061
REMARK  Name = *****
REMARK                            x       y       z     vdW  Elec       q    Type
REMARK                         _______ _______ _______ _____ _____    ______ ____
ROOT
ATOM      1  C   LIG    1       23.244 -31.667  11.426  0.00  0.00    +0.133 C 
ATOM      2  C   LIG    1       24.511 -31.228  10.646  0.00  0.00    +0.012 C 
ATOM      3  C   LIG    1       25.309 -32.415  10.041  0.00  0.00    +0.011 C 
ATOM      4  C   LIG    1       24.951 -32.698   8.565  0.00  0.00    +0.089 C 
ATOM      5  N   LIG    1       24.963 -31.518   7.700  0.00  0.00    -0.293 NA
ATOM      6  C   LIG    1       25.235 -30.257   8.418  0.00  0.00    +0.104 C 
ATOM      7  C   LIG    1       25.189 -29.120   7.453  0.00  0.00    +0.038 C 
ATOM      8  C   LIG    1       25.367 -29.219   6.087  0.00  0.00    -0.016 C 
ATOM      9  C   LIG    1       25.369 -27.900   5.555  0.00  0.00    +0.003 C 
ATOM     10  C   LIG    1       25.195 -27.029   6.633  0.00  0.00    +0.047 C 
ATOM     11  C   LIG    1       25.158 -25.638   6.485  0.00  0.00    +0.026 C 
ATOM     12  C   LIG    1       25.301 -25.120   5.195  0.00  0.00    +0.002 C 
ATOM     13  C   LIG    1       25.476 -25.963   4.100  0.00  0.00    +0.001 C 
ATOM     14  C   LIG    1       25.511 -27.353   4.264  0.00  0.00    +0.010 C 
ATOM     15  C   LIG    1       25.517 -30.550   5.429  0.00  0.00    +0.053 C 
ATOM     16  N   LIG    1       25.087 -27.796   7.772  0.00  0.00    -0.356 NA
ATOM     17  H   LIG    1       24.969 -27.420   8.701  0.00  0.00    +0.166 HD
ATOM     18  C   LIG    1       25.780 -31.668   6.478  0.00  0.00    +0.090 C 
ATOM     19  C   LIG    1       25.234 -33.703  10.871  0.00  0.00    +0.052 C 
ATOM     20  C   LIG    1       24.879 -33.441  12.332  0.00  0.00    +0.206 C 
ATOM     21  C   LIG    1       24.220 -30.156   9.565  0.00  0.00    +0.030 C 
ATOM     22  C   LIG    1       23.461 -32.837  12.424  0.00  0.00    +0.172 C 
ENDROOT
BRANCH   1  23
ATOM     23  C   LIG    1       22.663 -30.476  12.178  0.00  0.00    +0.313 C 
ATOM     24  O   LIG    1       22.416 -29.386  11.678  0.00  0.00    -0.250 OA
BRANCH  23  26
ATOM     25  C   LIG    1       21.406 -30.003  14.125  0.00  0.00    +0.280 C 
ATOM     26  O   LIG    1       22.341 -30.847  13.450  0.00  0.00    -0.468 OA
ENDBRANCH  23  26
ENDBRANCH   1  23
BRANCH  22  27
ATOM     27  O   LIG    1       22.460 -33.825  12.085  0.00  0.00    -0.375 OA
ATOM     28  C   LIG    1       21.426 -33.355  11.229  0.00  0.00    +0.194 C 
ENDBRANCH  22  27
BRANCH  20  29
ATOM     29  O   LIG    1       25.883 -32.595  12.909  0.00  0.00    -0.455 OA
BRANCH  29  30
ATOM     30  C   LIG    1       25.629 -32.164  14.156  0.00  0.00    +0.340 C 
ATOM     31  O   LIG    1       25.259 -32.854  15.109  0.00  0.00    -0.245 OA
BRANCH  30  32
ATOM     32  C   LIG    1       26.101 -30.781  14.280  0.00  0.00    +0.066 A 
ATOM     33  C   LIG    1       25.162 -29.781  14.543  0.00  0.00    +0.064 A 
ATOM     34  C   LIG    1       25.562 -28.477  14.832  0.00  0.00    +0.166 A 
ATOM     35  C   LIG    1       26.943 -28.157  14.786  0.00  0.00    +0.203 A 
ATOM     36  C   LIG    1       27.894 -29.184  14.515  0.00  0.00    +0.166 A 
ATOM     37  C   LIG    1       27.458 -30.483  14.261  0.00  0.00    +0.064 A 
BRANCH  34  38
ATOM     38  O   LIG    1       24.632 -27.520  15.177  0.00  0.00    -0.491 OA
ATOM     39  C   LIG    1       23.738 -27.107  14.132  0.00  0.00    +0.277 C 
ENDBRANCH  34  38
BRANCH  35  40
ATOM     40  O   LIG    1       27.496 -26.927  15.052  0.00  0.00    -0.488 OA
ATOM     41  C   LIG    1       27.358 -25.906  14.072  0.00  0.00    +0.277 C 
ENDBRANCH  35  40
BRANCH  36  42
ATOM     42  O   LIG    1       29.233 -28.852  14.531  0.00  0.00    -0.491 OA
ATOM     43  C   LIG    1       30.126 -29.692  13.794  0.00  0.00    +0.277 C 
ENDBRANCH  36  42
ENDBRANCH  30  32
ENDBRANCH  29  30
ENDBRANCH  20  29
TORSDOF 9
ENDMDL
MODEL 6
REMARK VINA RESULT:      -4.6      2.874      7.818
REMARK  Name = *****
REMARK                            x       y       z     vdW  Elec       q    Type
REMARK                         _______ _______ _______ _____ _____    ______ ____
ROOT
ATOM      1  C   LIG    1       24.782 -32.707  11.329  0.00  0.00    +0.133 C 
ATOM      2  C   LIG    1       23.430 -31.961  11.180  0.00  0.00    +0.012 C 
ATOM      3  C   LIG    1       22.966 -31.806   9.705  0.00  0.00    +0.011 C 
ATOM      4  C   LIG    1       21.983 -32.910   9.258  0.00  0.00    +0.089 C 
ATOM      5  N   LIG    1       20.865 -33.135  10.175  0.00  0.00    -0.293 NA
ATOM      6  C   LIG    1       20.929 -32.320  11.404  0.00  0.00    +0.104 C 
ATOM      7  C   LIG    1       19.767 -32.653  12.278  0.00  0.00    +0.038 C 
ATOM      8  C   LIG    1       18.580 -33.217  11.856  0.00  0.00    -0.016 C 
ATOM      9  C   LIG    1       17.698 -33.257  12.970  0.00  0.00    +0.003 C 
ATOM     10  C   LIG    1       18.388 -32.701  14.051  0.00  0.00    +0.047 C 
ATOM     11  C   LIG    1       17.822 -32.565  15.323  0.00  0.00    +0.026 C 
ATOM     12  C   LIG    1       16.509 -33.012  15.499  0.00  0.00    +0.002 C 
ATOM     13  C   LIG    1       15.796 -33.572  14.441  0.00  0.00    +0.001 C 
ATOM     14  C   LIG    1       16.376 -33.701  13.174  0.00  0.00    +0.010 C 
ATOM     15  C   LIG    1       18.404 -33.660  10.441  0.00  0.00    +0.053 C 
ATOM     16  N   LIG    1       19.641 -32.345  13.603  0.00  0.00    -0.356 NA
ATOM     17  H   LIG    1       20.345 -31.903  14.176  0.00  0.00    +0.166 HD
ATOM     18  C   LIG    1       19.535 -33.098   9.532  0.00  0.00    +0.090 C 
ATOM     19  C   LIG    1       24.119 -31.670   8.702  0.00  0.00    +0.052 C 
ATOM     20  C   LIG    1       25.408 -31.178   9.351  0.00  0.00    +0.206 C 
ATOM     21  C   LIG    1       22.299 -32.572  12.048  0.00  0.00    +0.030 C 
ATOM     22  C   LIG    1       25.907 -32.218  10.375  0.00  0.00    +0.172 C 
ENDROOT
BRANCH   1  23
ATOM     23  C   LIG    1       25.271 -32.604  12.768  0.00  0.00    +0.313 C 
ATOM     24  O   LIG    1       24.998 -33.399  13.658  0.00  0.00    -0.250 OA
BRANCH  23  26
ATOM     25  C   LIG    1       26.377 -31.085  14.205  0.00  0.00    +0.280 C 
ATOM     26  O   LIG    1       26.157 -31.573  12.880  0.00  0.00    -0.468 OA
ENDBRANCH  23  26
ENDBRANCH   1  23
BRANCH  22  27
ATOM     27  O   LIG    1       26.390 -33.407   9.707  0.00  0.00    -0.375 OA
ATOM     28  C   LIG    1       27.384 -33.172   8.718  0.00  0.00    +0.194 C 
ENDBRANCH  22  27
BRANCH  20  29
ATOM     29  O   LIG    1       25.171 -29.889   9.936  0.00  0.00    -0.455 OA
BRANCH  29  30
ATOM     30  C   LIG    1       26.266 -29.238  10.362  0.00  0.00    +0.340 C 
ATOM     31  O   LIG    1       27.324 -29.100   9.744  0.00  0.00    -0.245 OA
BRANCH  30  32
ATOM     32  C   LIG    1       25.925 -28.494  11.579  0.00  0.00    +0.066 A 
ATOM     33  C   LIG    1       24.610 -28.555  12.048  0.00  0.00    +0.064 A 
ATOM     34  C   LIG    1       24.259 -28.008  13.281  0.00  0.00    +0.166 A 
ATOM     35  C   LIG    1       25.247 -27.319  14.031  0.00  0.00    +0.203 A 
ATOM     36  C   LIG    1       26.586 -27.261  13.545  0.00  0.00    +0.166 A 
ATOM     37  C   LIG    1       26.905 -27.847  12.322  0.00  0.00    +0.064 A 
BRANCH  34  38
ATOM     38  O   LIG    1       22.979 -28.151  13.771  0.00  0.00    -0.491 OA
ATOM     39  C   LIG    1       22.039 -28.791  12.895  0.00  0.00    +0.277 C 
ENDBRANCH  34  38
BRANCH  35  40
ATOM     40  O   LIG    1       25.063 -26.735  15.261  0.00  0.00    -0.488 OA
ATOM     41  C   LIG    1       24.495 -25.432  15.305  0.00  0.00    +0.277 C 
ENDBRANCH  35  40
BRANCH  36  42
ATOM     42  O   LIG    1       27.534 -26.632  14.324  0.00  0.00    -0.491 OA
ATOM     43  C   LIG    1       28.414 -27.463  15.087  0.00  0.00    +0.277 C 
ENDBRANCH  36  42
ENDBRANCH  30  32
ENDBRANCH  29  30
ENDBRANCH  20  29
TORSDOF 9
ENDMDL
MODEL 7
REMARK VINA RESULT:      -4.4      2.833      6.349
REMARK  Name = *****
REMARK                            x       y       z     vdW  Elec       q    Type
REMARK                         _______ _______ _______ _____ _____    ______ ____
ROOT
ATOM      1  C   LIG    1       22.350 -31.664  10.871  0.00  0.00    +0.133 C 
ATOM      2  C   LIG    1       23.714 -31.225  10.277  0.00  0.00    +0.012 C 
ATOM      3  C   LIG    1       24.576 -32.410   9.761  0.00  0.00    +0.011 C 
ATOM      4  C   LIG    1       24.418 -32.662   8.246  0.00  0.00    +0.089 C 
ATOM      5  N   LIG    1       24.556 -31.466   7.414  0.00  0.00    -0.293 NA
ATOM      6  C   LIG    1       24.739 -30.221   8.186  0.00  0.00    +0.104 C 
ATOM      7  C   LIG    1       24.833 -29.067   7.246  0.00  0.00    +0.038 C 
ATOM      8  C   LIG    1       25.193 -29.142   5.915  0.00  0.00    -0.016 C 
ATOM      9  C   LIG    1       25.278 -27.814   5.414  0.00  0.00    +0.003 C 
ATOM     10  C   LIG    1       24.967 -26.961   6.476  0.00  0.00    +0.047 C 
ATOM     11  C   LIG    1       24.962 -25.567   6.352  0.00  0.00    +0.026 C 
ATOM     12  C   LIG    1       25.283 -25.027   5.104  0.00  0.00    +0.002 C 
ATOM     13  C   LIG    1       25.596 -25.851   4.025  0.00  0.00    +0.001 C 
ATOM     14  C   LIG    1       25.597 -27.244   4.165  0.00  0.00    +0.010 C 
ATOM     15  C   LIG    1       25.418 -30.462   5.257  0.00  0.00    +0.053 C 
ATOM     16  N   LIG    1       24.701 -27.747   7.574  0.00  0.00    -0.356 NA
ATOM     17  H   LIG    1       24.462 -27.387   8.487  0.00  0.00    +0.166 HD
ATOM     18  C   LIG    1       25.529 -31.602   6.310  0.00  0.00    +0.090 C 
ATOM     19  C   LIG    1       24.379 -33.712  10.549  0.00  0.00    +0.052 C 
ATOM     20  C   LIG    1       23.833 -33.473  11.953  0.00  0.00    +0.206 C 
ATOM     21  C   LIG    1       23.580 -30.130   9.188  0.00  0.00    +0.030 C 
ATOM     22  C   LIG    1       22.421 -32.855  11.865  0.00  0.00    +0.172 C 
ENDROOT
BRANCH   1  23
ATOM     23  C   LIG    1       21.683 -30.481  11.561  0.00  0.00    +0.313 C 
ATOM     24  O   LIG    1       22.276 -29.512  12.016  0.00  0.00    -0.250 OA
BRANCH  23  26
ATOM     25  C   LIG    1       19.631 -30.648  12.727  0.00  0.00    +0.280 C 
ATOM     26  O   LIG    1       20.327 -30.604  11.479  0.00  0.00    -0.468 OA
ENDBRANCH  23  26
ENDBRANCH   1  23
BRANCH  22  27
ATOM     27  O   LIG    1       21.466 -33.825  11.376  0.00  0.00    -0.375 OA
ATOM     28  C   LIG    1       20.913 -33.526  10.100  0.00  0.00    +0.194 C 
ENDBRANCH  22  27
BRANCH  20  29
ATOM     29  O   LIG    1       24.758 -32.648  12.677  0.00  0.00    -0.455 OA
BRANCH  29  30
ATOM     30  C   LIG    1       24.390 -32.330  13.929  0.00  0.00    +0.340 C 
ATOM     31  O   LIG    1       24.036 -33.115  14.812  0.00  0.00    -0.245 OA
BRANCH  30  32
ATOM     32  C   LIG    1       24.714 -30.920  14.168  0.00  0.00    +0.066 A 
ATOM     33  C   LIG    1       25.902 -30.412  13.634  0.00  0.00    +0.064 A 
ATOM     34  C   LIG    1       26.190 -29.050  13.686  0.00  0.00    +0.166 A 
ATOM     35  C   LIG    1       25.288 -28.184  14.356  0.00  0.00    +0.203 A 
ATOM     36  C   LIG    1       24.080 -28.710  14.899  0.00  0.00    +0.166 A 
ATOM     37  C   LIG    1       23.812 -30.074  14.801  0.00  0.00    +0.064 A 
BRANCH  34  38
ATOM     38  O   LIG    1       27.321 -28.550  13.078  0.00  0.00    -0.491 OA
ATOM     39  C   LIG    1       27.560 -28.993  11.734  0.00  0.00    +0.277 C 
ENDBRANCH  34  38
BRANCH  35  40
ATOM     40  O   LIG    1       25.424 -26.822  14.486  0.00  0.00    -0.488 OA
ATOM     41  C   LIG    1       25.545 -26.046  13.300  0.00  0.00    +0.277 C 
ENDBRANCH  35  40
BRANCH  36  42
ATOM     42  O   LIG    1       23.199 -27.833  15.496  0.00  0.00    -0.491 OA
ATOM     43  C   LIG    1       21.802 -28.099  15.341  0.00  0.00    +0.277 C 
ENDBRANCH  36  42
ENDBRANCH  30  32
ENDBRANCH  29  30
ENDBRANCH  20  29
TORSDOF 9
ENDMDL
MODEL 8
REMARK VINA RESULT:      -4.4      3.261      6.252
REMARK  Name = *****
REMARK                            x       y       z     vdW  Elec       q    Type
REMARK                         _______ _______ _______ _____ _____    ______ ____
ROOT
ATOM      1  C   LIG    1       23.507 -31.403   8.622  0.00  0.00    +0.133 C 
ATOM      2  C   LIG    1       24.637 -30.376   8.349  0.00  0.00    +0.012 C 
ATOM      3  C   LIG    1       25.797 -30.944   7.485  0.00  0.00    +0.011 C 
ATOM      4  C   LIG    1       25.648 -30.623   5.982  0.00  0.00    +0.089 C 
ATOM      5  N   LIG    1       25.367 -29.218   5.685  0.00  0.00    -0.293 NA
ATOM      6  C   LIG    1       25.194 -28.379   6.887  0.00  0.00    +0.104 C 
ATOM      7  C   LIG    1       24.879 -26.981   6.472  0.00  0.00    +0.038 C 
ATOM      8  C   LIG    1       25.177 -26.421   5.246  0.00  0.00    -0.016 C 
ATOM      9  C   LIG    1       24.821 -25.046   5.300  0.00  0.00    +0.003 C 
ATOM     10  C   LIG    1       24.315 -24.810   6.581  0.00  0.00    +0.047 C 
ATOM     11  C   LIG    1       23.872 -23.551   7.001  0.00  0.00    +0.026 C 
ATOM     12  C   LIG    1       23.946 -22.499   6.084  0.00  0.00    +0.002 C 
ATOM     13  C   LIG    1       24.445 -22.703   4.799  0.00  0.00    +0.001 C 
ATOM     14  C   LIG    1       24.885 -23.969   4.393  0.00  0.00    +0.010 C 
ATOM     15  C   LIG    1       25.767 -27.246   4.151  0.00  0.00    +0.053 C 
ATOM     16  N   LIG    1       24.361 -26.001   7.270  0.00  0.00    -0.356 NA
ATOM     17  H   LIG    1       24.068 -26.114   8.230  0.00  0.00    +0.166 HD
ATOM     18  C   LIG    1       26.278 -28.613   4.691  0.00  0.00    +0.090 C 
ATOM     19  C   LIG    1       26.052 -32.442   7.696  0.00  0.00    +0.052 C 
ATOM     20  C   LIG    1       25.530 -32.945   9.038  0.00  0.00    +0.206 C 
ATOM     21  C   LIG    1       24.116 -29.041   7.755  0.00  0.00    +0.030 C 
ATOM     22  C   LIG    1       23.994 -32.803   9.087  0.00  0.00    +0.172 C 
ENDROOT
BRANCH   1  23
ATOM     23  C   LIG    1       22.542 -30.844   9.660  0.00  0.00    +0.313 C 
ATOM     24  O   LIG    1       22.774 -29.886  10.386  0.00  0.00    -0.250 OA
BRANCH  23  26
ATOM     25  C   LIG    1       20.402 -31.198  10.603  0.00  0.00    +0.280 C 
ATOM     26  O   LIG    1       21.343 -31.487   9.567  0.00  0.00    -0.468 OA
ENDBRANCH  23  26
ENDBRANCH   1  23
BRANCH  22  27
ATOM     27  O   LIG    1       23.363 -33.748   8.191  0.00  0.00    -0.375 OA
ATOM     28  C   LIG    1       22.916 -33.195   6.960  0.00  0.00    +0.194 C 
ENDBRANCH  22  27
BRANCH  20  29
ATOM     29  O   LIG    1       26.189 -32.227  10.091  0.00  0.00    -0.455 OA
BRANCH  29  30
ATOM     30  C   LIG    1       25.830 -32.572  11.339  0.00  0.00    +0.340 C 
ATOM     31  O   LIG    1       25.975 -33.678  11.864  0.00  0.00    -0.245 OA
BRANCH  30  32
ATOM     32  C   LIG    1       25.463 -31.357  12.074  0.00  0.00    +0.066 A 
ATOM     33  C   LIG    1       26.029 -30.143  11.674  0.00  0.00    +0.064 A 
ATOM     34  C   LIG    1       25.601 -28.935  12.222  0.00  0.00    +0.166 A 
ATOM     35  C   LIG    1       24.626 -28.957  13.252  0.00  0.00    +0.203 A 
ATOM     36  C   LIG    1       24.056 -30.199  13.655  0.00  0.00    +0.166 A 
ATOM     37  C   LIG    1       24.487 -31.384  13.062  0.00  0.00    +0.064 A 
BRANCH  34  38
ATOM     38  O   LIG    1       26.103 -27.739  11.756  0.00  0.00    -0.491 OA
ATOM     39  C   LIG    1       27.021 -27.061  12.627  0.00  0.00    +0.277 C 
ENDBRANCH  34  38
BRANCH  35  40
ATOM     40  O   LIG    1       24.098 -27.857  13.885  0.00  0.00    -0.488 OA
ATOM     41  C   LIG    1       23.037 -27.161  13.242  0.00  0.00    +0.277 C 
ENDBRANCH  35  40
BRANCH  36  42
ATOM     42  O   LIG    1       23.072 -30.181  14.621  0.00  0.00    -0.491 OA
ATOM     43  C   LIG    1       21.755 -30.572  14.223  0.00  0.00    +0.277 C 
ENDBRANCH  36  42
ENDBRANCH  30  32
ENDBRANCH  29  30
ENDBRANCH  20  29
TORSDOF 9
ENDMDL
MODEL 9
REMARK VINA RESULT:      -3.8      1.899      3.360
REMARK  Name = *****
REMARK                            x       y       z     vdW  Elec       q    Type
REMARK                         _______ _______ _______ _____ _____    ______ ____
ROOT
ATOM      1  C   LIG    1       25.637 -30.472   8.114  0.00  0.00    +0.133 C 
ATOM      2  C   LIG    1       25.540 -30.472   9.662  0.00  0.00    +0.012 C 
ATOM      3  C   LIG    1       26.470 -31.514  10.342  0.00  0.00    +0.011 C 
ATOM      4  C   LIG    1       27.820 -30.919  10.797  0.00  0.00    +0.089 C 
ATOM      5  N   LIG    1       27.709 -29.681  11.570  0.00  0.00    -0.293 NA
ATOM      6  C   LIG    1       26.326 -29.184  11.701  0.00  0.00    +0.104 C 
ATOM      7  C   LIG    1       26.332 -27.906  12.471  0.00  0.00    +0.038 C 
ATOM      8  C   LIG    1       27.324 -27.497  13.339  0.00  0.00    -0.016 C 
ATOM      9  C   LIG    1       26.891 -26.291  13.955  0.00  0.00    +0.003 C 
ATOM     10  C   LIG    1       25.625 -26.005  13.437  0.00  0.00    +0.047 C 
ATOM     11  C   LIG    1       24.880 -24.887  13.828  0.00  0.00    +0.026 C 
ATOM     12  C   LIG    1       25.446 -24.032  14.777  0.00  0.00    +0.002 C 
ATOM     13  C   LIG    1       26.707 -24.289  15.312  0.00  0.00    +0.001 C 
ATOM     14  C   LIG    1       27.440 -25.412  14.910  0.00  0.00    +0.010 C 
ATOM     15  C   LIG    1       28.580 -28.289  13.495  0.00  0.00    +0.053 C 
ATOM     16  N   LIG    1       25.312 -27.001  12.538  0.00  0.00    -0.356 NA
ATOM     17  H   LIG    1       24.442 -27.051  12.026  0.00  0.00    +0.166 HD
ATOM     18  C   LIG    1       28.435 -29.701  12.857  0.00  0.00    +0.090 C 
ATOM     19  C   LIG    1       26.691 -32.785   9.512  0.00  0.00    +0.052 C 
ATOM     20  C   LIG    1       25.583 -33.021   8.491  0.00  0.00    +0.206 C 
ATOM     21  C   LIG    1       25.746 -29.067  10.285  0.00  0.00    +0.030 C 
ATOM     22  C   LIG    1       25.576 -31.878   7.455  0.00  0.00    +0.172 C 
ENDROOT
BRANCH   1  23
ATOM     23  C   LIG    1       24.534 -29.601   7.528  0.00  0.00    +0.313 C 
ATOM     24  O   LIG    1       23.396 -29.519   7.973  0.00  0.00    -0.250 OA
BRANCH  23  26
ATOM     25  C   LIG    1       25.435 -27.511   6.883  0.00  0.00    +0.280 C 
ATOM     26  O   LIG    1       25.039 -28.835   6.519  0.00  0.00    -0.468 OA
ENDBRANCH  23  26
ENDBRANCH   1  23
BRANCH  22  27
ATOM     27  O   LIG    1       26.740 -31.954   6.598  0.00  0.00    -0.375 OA
ATOM     28  C   LIG    1       26.636 -32.892   5.535  0.00  0.00    +0.194 C 
ENDBRANCH  22  27
BRANCH  20  29
ATOM     29  O   LIG    1       24.333 -33.153   9.184  0.00  0.00    -0.455 OA
BRANCH  29  30
ATOM     30  C   LIG    1       23.236 -33.087   8.413  0.00  0.00    +0.340 C 
ATOM     31  O   LIG    1       23.132 -33.480   7.248  0.00  0.00    -0.245 OA
BRANCH  30  32
ATOM     32  C   LIG    1       22.096 -32.702   9.251  0.00  0.00    +0.066 A 
ATOM     33  C   LIG    1       20.868 -33.331   9.031  0.00  0.00    +0.064 A 
ATOM     34  C   LIG    1       19.792 -33.131   9.895  0.00  0.00    +0.166 A 
ATOM     35  C   LIG    1       19.937 -32.217  10.970  0.00  0.00    +0.203 A 
ATOM     36  C   LIG    1       21.192 -31.578  11.186  0.00  0.00    +0.166 A 
ATOM     37  C   LIG    1       22.254 -31.827  10.319  0.00  0.00    +0.064 A 
BRANCH  34  38
ATOM     38  O   LIG    1       18.615 -33.825   9.718  0.00  0.00    -0.491 OA
ATOM     39  C   LIG    1       17.927 -33.592   8.479  0.00  0.00    +0.277 C 
ENDBRANCH  34  38
BRANCH  35  40
ATOM     40  O   LIG    1       18.978 -31.917  11.908  0.00  0.00    -0.488 OA
ATOM     41  C   LIG    1       18.852 -32.777  13.033  0.00  0.00    +0.277 C 
ENDBRANCH  35  40
BRANCH  36  42
ATOM     42  O   LIG    1       21.316 -30.737  12.272  0.00  0.00    -0.491 OA
ATOM     43  C   LIG    1       21.560 -29.353  12.005  0.00  0.00    +0.277 C 
ENDBRANCH  36  42
ENDBRANCH  30  32
ENDBRANCH  29  30
ENDBRANCH  20  29
TORSDOF 9
ENDMDL
