MODEL 1
REMARK VINA RESULT:      -5.2      0.000      0.000
REMARK  Name = *****
REMARK                            x       y       z     vdW  Elec       q    Type
REMARK                         _______ _______ _______ _____ _____    ______ ____
ROOT
ATOM      1  C   LIG    1       25.113 -19.686   4.565  0.00  0.00    +0.162 A 
ATOM      2  C   LIG    1       24.812 -18.532   3.818  0.00  0.00    +0.162 A 
ATOM      3  C   LIG    1       23.478 -18.109   3.733  0.00  0.00    +0.049 A 
ATOM      4  C   LIG    1       22.461 -18.777   4.411  0.00  0.00    +0.004 A 
ATOM      5  C   LIG    1       22.763 -19.895   5.182  0.00  0.00    +0.004 A 
ATOM      6  C   LIG    1       24.083 -20.337   5.263  0.00  0.00    +0.049 A 
ENDROOT
BRANCH   1   7
ATOM      7  O   LIG    1       26.406 -20.129   4.604  0.00  0.00    -0.489 OA
BRANCH   7   9
ATOM      8  C   LIG    1       28.357 -19.788   5.927  0.00  0.00    +0.048 C 
ATOM      9  C   LIG    1       26.939 -20.326   5.919  0.00  0.00    +0.226 C 
ENDBRANCH   7   9
ENDBRANCH   1   7
BRANCH   2  10
ATOM     10  O   LIG    1       25.676 -17.778   3.065  0.00  0.00    -0.486 OA
BRANCH  10  11
ATOM     11  C   LIG    1       26.502 -16.826   3.751  0.00  0.00    +0.262 C 
BRANCH  11  12
ATOM     12  C   LIG    1       26.402 -15.457   3.032  0.00  0.00    +0.169 C 
ATOM     13  O   LIG    1       25.082 -14.871   3.125  0.00  0.00    -0.371 OA
ATOM     14  C   LIG    1       24.803 -14.350   4.431  0.00  0.00    +0.175 C 
ATOM     15  C   LIG    1       25.849 -13.312   4.855  0.00  0.00    +0.109 C 
ATOM     16  N   LIG    1       27.211 -13.874   4.835  0.00  0.00    -0.311 NA
ATOM     17  H   LIG    1       27.877 -13.122   5.017  0.00  0.00    +0.122 HD
ATOM     18  C   LIG    1       27.469 -14.437   3.497  0.00  0.00    +0.115 C 
ENDBRANCH  11  12
ENDBRANCH  10  11
ENDBRANCH   2  10
TORSDOF 5
ENDMDL
MODEL 2
REMARK VINA RESULT:      -5.2      1.261      1.363
REMARK  Name = *****
REMARK                            x       y       z     vdW  Elec       q    Type
REMARK                         _______ _______ _______ _____ _____    ______ ____
ROOT
ATOM      1  C   LIG    1       26.167 -19.762   4.781  0.00  0.00    +0.162 A 
ATOM      2  C   LIG    1       25.638 -18.774   3.929  0.00  0.00    +0.162 A 
ATOM      3  C   LIG    1       24.295 -18.865   3.539  0.00  0.00    +0.049 A 
ATOM      4  C   LIG    1       23.468 -19.879   4.016  0.00  0.00    +0.004 A 
ATOM      5  C   LIG    1       23.980 -20.834   4.890  0.00  0.00    +0.004 A 
ATOM      6  C   LIG    1       25.319 -20.765   5.274  0.00  0.00    +0.049 A 
ENDROOT
BRANCH   1   7
ATOM      7  O   LIG    1       27.491 -19.703   5.118  0.00  0.00    -0.489 OA
BRANCH   7   9
ATOM      8  C   LIG    1       29.298 -20.070   6.628  0.00  0.00    +0.048 C 
ATOM      9  C   LIG    1       27.826 -20.325   6.365  0.00  0.00    +0.226 C 
ENDBRANCH   7   9
ENDBRANCH   1   7
BRANCH   2  10
ATOM     10  O   LIG    1       26.311 -17.733   3.343  0.00  0.00    -0.486 OA
BRANCH  10  11
ATOM     11  C   LIG    1       25.644 -16.463   3.270  0.00  0.00    +0.262 C 
BRANCH  11  12
ATOM     12  C   LIG    1       26.706 -15.337   3.209  0.00  0.00    +0.169 C 
ATOM     13  O   LIG    1       26.548 -14.480   2.053  0.00  0.00    -0.371 OA
ATOM     14  C   LIG    1       25.429 -13.594   2.176  0.00  0.00    +0.175 C 
ATOM     15  C   LIG    1       25.534 -12.728   3.437  0.00  0.00    +0.109 C 
ATOM     16  N   LIG    1       25.638 -13.552   4.654  0.00  0.00    -0.311 NA
ATOM     17  H   LIG    1       25.815 -12.938   5.450  0.00  0.00    +0.122 HD
ATOM     18  C   LIG    1       26.772 -14.482   4.498  0.00  0.00    +0.115 C 
ENDBRANCH  11  12
ENDBRANCH  10  11
ENDBRANCH   2  10
TORSDOF 5
ENDMDL
MODEL 3
REMARK VINA RESULT:      -4.8      1.399      2.959
REMARK  Name = *****
REMARK                            x       y       z     vdW  Elec       q    Type
REMARK                         _______ _______ _______ _____ _____    ______ ____
ROOT
ATOM      1  C   LIG    1       24.478 -19.316   4.038  0.00  0.00    +0.162 A 
ATOM      2  C   LIG    1       25.667 -18.598   3.813  0.00  0.00    +0.162 A 
ATOM      3  C   LIG    1       26.831 -18.985   4.490  0.00  0.00    +0.049 A 
ATOM      4  C   LIG    1       26.844 -20.091   5.337  0.00  0.00    +0.004 A 
ATOM      5  C   LIG    1       25.677 -20.827   5.529  0.00  0.00    +0.004 A 
ATOM      6  C   LIG    1       24.508 -20.443   4.874  0.00  0.00    +0.049 A 
ENDROOT
BRANCH   1   7
ATOM      7  O   LIG    1       23.330 -18.905   3.418  0.00  0.00    -0.489 OA
BRANCH   7   9
ATOM      8  C   LIG    1       22.242 -17.193   4.669  0.00  0.00    +0.048 C 
ATOM      9  C   LIG    1       22.223 -18.663   4.295  0.00  0.00    +0.226 C 
ENDBRANCH   7   9
ENDBRANCH   1   7
BRANCH   2  10
ATOM     10  O   LIG    1       25.827 -17.472   3.046  0.00  0.00    -0.486 OA
BRANCH  10  11
ATOM     11  C   LIG    1       26.701 -16.445   3.541  0.00  0.00    +0.262 C 
BRANCH  11  12
ATOM     12  C   LIG    1       26.049 -15.062   3.291  0.00  0.00    +0.169 C 
ATOM     13  O   LIG    1       25.689 -14.382   4.517  0.00  0.00    -0.371 OA
ATOM     14  C   LIG    1       26.830 -13.863   5.211  0.00  0.00    +0.175 C 
ATOM     15  C   LIG    1       27.642 -12.911   4.324  0.00  0.00    +0.109 C 
ATOM     16  N   LIG    1       28.086 -13.571   3.084  0.00  0.00    -0.311 NA
ATOM     17  H   LIG    1       28.523 -12.873   2.482  0.00  0.00    +0.122 HD
ATOM     18  C   LIG    1       26.906 -14.130   2.399  0.00  0.00    +0.115 C 
ENDBRANCH  11  12
ENDBRANCH  10  11
ENDBRANCH   2  10
TORSDOF 5
ENDMDL
MODEL 4
REMARK VINA RESULT:      -4.6      1.360      2.972
REMARK  Name = *****
REMARK                            x       y       z     vdW  Elec       q    Type
REMARK                         _______ _______ _______ _____ _____    ______ ____
ROOT
ATOM      1  C   LIG    1       24.946 -19.569   4.200  0.00  0.00    +0.162 A 
ATOM      2  C   LIG    1       26.043 -18.742   3.896  0.00  0.00    +0.162 A 
ATOM      3  C   LIG    1       27.234 -18.904   4.616  0.00  0.00    +0.049 A 
ATOM      4  C   LIG    1       27.366 -19.895   5.586  0.00  0.00    +0.004 A 
ATOM      5  C   LIG    1       26.294 -20.740   5.861  0.00  0.00    +0.004 A 
ATOM      6  C   LIG    1       25.098 -20.580   5.163  0.00  0.00    +0.049 A 
ENDROOT
BRANCH   1   7
ATOM      7  O   LIG    1       23.767 -19.376   3.534  0.00  0.00    -0.489 OA
BRANCH   7   9
ATOM      8  C   LIG    1       22.195 -17.909   4.562  0.00  0.00    +0.048 C 
ATOM      9  C   LIG    1       22.599 -19.358   4.364  0.00  0.00    +0.226 C 
ENDBRANCH   7   9
ENDBRANCH   1   7
BRANCH   2  10
ATOM     10  O   LIG    1       26.078 -17.702   3.002  0.00  0.00    -0.486 OA
BRANCH  10  11
ATOM     11  C   LIG    1       25.588 -16.426   3.443  0.00  0.00    +0.262 C 
BRANCH  11  12
ATOM     12  C   LIG    1       26.705 -15.367   3.268  0.00  0.00    +0.169 C 
ATOM     13  O   LIG    1       26.550 -14.584   2.061  0.00  0.00    -0.371 OA
ATOM     14  C   LIG    1       25.483 -13.631   2.158  0.00  0.00    +0.175 C 
ATOM     15  C   LIG    1       25.680 -12.688   3.351  0.00  0.00    +0.109 C 
ATOM     16  N   LIG    1       25.786 -13.431   4.619  0.00  0.00    -0.311 NA
ATOM     17  H   LIG    1       26.025 -12.775   5.363  0.00  0.00    +0.122 HD
ATOM     18  C   LIG    1       26.863 -14.430   4.491  0.00  0.00    +0.115 C 
ENDBRANCH  11  12
ENDBRANCH  10  11
ENDBRANCH   2  10
TORSDOF 5
ENDMDL
MODEL 5
REMARK VINA RESULT:      -4.2      2.534      5.773
REMARK  Name = *****
REMARK                            x       y       z     vdW  Elec       q    Type
REMARK                         _______ _______ _______ _____ _____    ______ ____
ROOT
ATOM      1  C   LIG    1       26.018 -14.716   3.706  0.00  0.00    +0.162 A 
ATOM      2  C   LIG    1       25.202 -15.862   3.664  0.00  0.00    +0.162 A 
ATOM      3  C   LIG    1       23.860 -15.753   4.056  0.00  0.00    +0.049 A 
ATOM      4  C   LIG    1       23.313 -14.530   4.435  0.00  0.00    +0.004 A 
ATOM      5  C   LIG    1       24.109 -13.388   4.439  0.00  0.00    +0.004 A 
ATOM      6  C   LIG    1       25.449 -13.485   4.067  0.00  0.00    +0.049 A 
ENDROOT
BRANCH   1   7
ATOM      7  O   LIG    1       27.339 -14.833   3.375  0.00  0.00    -0.489 OA
BRANCH   7   9
ATOM      8  C   LIG    1       28.721 -13.013   4.051  0.00  0.00    +0.048 C 
ATOM      9  C   LIG    1       27.952 -13.630   2.897  0.00  0.00    +0.226 C 
ENDBRANCH   7   9
ENDBRANCH   1   7
BRANCH   2  10
ATOM     10  O   LIG    1       25.580 -17.142   3.352  0.00  0.00    -0.486 OA
BRANCH  10  11
ATOM     11  C   LIG    1       24.680 -18.208   3.696  0.00  0.00    +0.262 C 
BRANCH  11  12
ATOM     12  C   LIG    1       25.421 -19.561   3.555  0.00  0.00    +0.169 C 
ATOM     13  O   LIG    1       26.109 -19.952   4.768  0.00  0.00    -0.371 OA
ATOM     14  C   LIG    1       25.209 -20.403   5.788  0.00  0.00    +0.175 C 
ATOM     15  C   LIG    1       24.345 -21.571   5.297  0.00  0.00    +0.109 C 
ATOM     16  N   LIG    1       23.575 -21.209   4.094  0.00  0.00    -0.311 NA
ATOM     17  H   LIG    1       23.105 -22.044   3.744  0.00  0.00    +0.122 HD
ATOM     18  C   LIG    1       24.510 -20.714   3.068  0.00  0.00    +0.115 C 
ENDBRANCH  11  12
ENDBRANCH  10  11
ENDBRANCH   2  10
TORSDOF 5
ENDMDL
MODEL 6
REMARK VINA RESULT:      -4.0      2.151      5.924
REMARK  Name = *****
REMARK                            x       y       z     vdW  Elec       q    Type
REMARK                         _______ _______ _______ _____ _____    ______ ____
ROOT
ATOM      1  C   LIG    1       25.070 -14.594   3.818  0.00  0.00    +0.162 A 
ATOM      2  C   LIG    1       25.844 -15.730   3.517  0.00  0.00    +0.162 A 
ATOM      3  C   LIG    1       27.241 -15.630   3.570  0.00  0.00    +0.049 A 
ATOM      4  C   LIG    1       27.870 -14.451   3.961  0.00  0.00    +0.004 A 
ATOM      5  C   LIG    1       27.105 -13.339   4.298  0.00  0.00    +0.004 A 
ATOM      6  C   LIG    1       25.714 -13.418   4.234  0.00  0.00    +0.049 A 
ENDROOT
BRANCH   1   7
ATOM      7  O   LIG    1       23.709 -14.675   3.714  0.00  0.00    -0.489 OA
BRANCH   7   9
ATOM      8  C   LIG    1       22.244 -16.133   4.901  0.00  0.00    +0.048 C 
ATOM      9  C   LIG    1       23.015 -14.827   4.958  0.00  0.00    +0.226 C 
ENDBRANCH   7   9
ENDBRANCH   1   7
BRANCH   2  10
ATOM     10  O   LIG    1       25.396 -16.952   3.084  0.00  0.00    -0.486 OA
BRANCH  10  11
ATOM     11  C   LIG    1       25.782 -18.110   3.839  0.00  0.00    +0.262 C 
BRANCH  11  12
ATOM     12  C   LIG    1       24.961 -19.330   3.350  0.00  0.00    +0.169 C 
ATOM     13  O   LIG    1       25.475 -20.588   3.848  0.00  0.00    -0.371 OA
ATOM     14  C   LIG    1       25.187 -20.787   5.238  0.00  0.00    +0.175 C 
ATOM     15  C   LIG    1       23.680 -20.711   5.514  0.00  0.00    +0.109 C 
ATOM     16  N   LIG    1       23.112 -19.423   5.079  0.00  0.00    -0.311 NA
ATOM     17  H   LIG    1       22.097 -19.463   5.181  0.00  0.00    +0.122 HD
ATOM     18  C   LIG    1       23.448 -19.217   3.658  0.00  0.00    +0.115 C 
ENDBRANCH  11  12
ENDBRANCH  10  11
ENDBRANCH   2  10
TORSDOF 5
ENDMDL
MODEL 7
REMARK VINA RESULT:      -3.9      2.359      6.275
REMARK  Name = *****
REMARK                            x       y       z     vdW  Elec       q    Type
REMARK                         _______ _______ _______ _____ _____    ______ ____
ROOT
ATOM      1  C   LIG    1       25.333 -14.470   3.753  0.00  0.00    +0.162 A 
ATOM      2  C   LIG    1       25.650 -15.834   3.611  0.00  0.00    +0.162 A 
ATOM      3  C   LIG    1       26.986 -16.237   3.745  0.00  0.00    +0.049 A 
ATOM      4  C   LIG    1       27.990 -15.326   4.064  0.00  0.00    +0.004 A 
ATOM      5  C   LIG    1       27.671 -13.982   4.244  0.00  0.00    +0.004 A 
ATOM      6  C   LIG    1       26.349 -13.565   4.098  0.00  0.00    +0.049 A 
ENDROOT
BRANCH   1   7
ATOM      7  O   LIG    1       24.039 -14.069   3.569  0.00  0.00    -0.489 OA
BRANCH   7   9
ATOM      8  C   LIG    1       24.309 -12.483   1.812  0.00  0.00    +0.048 C 
ATOM      9  C   LIG    1       23.874 -12.682   3.252  0.00  0.00    +0.226 C 
ENDBRANCH   7   9
ENDBRANCH   1   7
BRANCH   2  10
ATOM     10  O   LIG    1       24.801 -16.854   3.266  0.00  0.00    -0.486 OA
BRANCH  10  11
ATOM     11  C   LIG    1       25.173 -18.189   3.642  0.00  0.00    +0.262 C 
BRANCH  11  12
ATOM     12  C   LIG    1       24.026 -19.160   3.268  0.00  0.00    +0.169 C 
ATOM     13  O   LIG    1       24.412 -20.551   3.371  0.00  0.00    -0.371 OA
ATOM     14  C   LIG    1       24.515 -20.992   4.731  0.00  0.00    +0.175 C 
ATOM     15  C   LIG    1       23.201 -20.773   5.492  0.00  0.00    +0.109 C 
ATOM     16  N   LIG    1       22.789 -19.359   5.469  0.00  0.00    -0.311 NA
ATOM     17  H   LIG    1       21.863 -19.282   5.890  0.00  0.00    +0.122 HD
ATOM     18  C   LIG    1       22.723 -18.910   4.066  0.00  0.00    +0.115 C 
ENDBRANCH  11  12
ENDBRANCH  10  11
ENDBRANCH   2  10
TORSDOF 5
ENDMDL
MODEL 8
REMARK VINA RESULT:      -3.8      1.341      3.381
REMARK  Name = *****
REMARK                            x       y       z     vdW  Elec       q    Type
REMARK                         _______ _______ _______ _____ _____    ______ ____
ROOT
ATOM      1  C   LIG    1       27.031 -19.545   5.126  0.00  0.00    +0.162 A 
ATOM      2  C   LIG    1       27.903 -18.481   4.832  0.00  0.00    +0.162 A 
ATOM      3  C   LIG    1       29.107 -18.376   5.542  0.00  0.00    +0.049 A 
ATOM      4  C   LIG    1       29.475 -19.327   6.491  0.00  0.00    +0.004 A 
ATOM      5  C   LIG    1       28.631 -20.403   6.754  0.00  0.00    +0.004 A 
ATOM      6  C   LIG    1       27.423 -20.511   6.067  0.00  0.00    +0.049 A 
ENDROOT
BRANCH   1   7
ATOM      7  O   LIG    1       25.832 -19.618   4.471  0.00  0.00    -0.489 OA
BRANCH   7   9
ATOM      8  C   LIG    1       23.558 -20.099   4.993  0.00  0.00    +0.048 C 
ATOM      9  C   LIG    1       24.963 -20.666   4.916  0.00  0.00    +0.226 C 
ENDBRANCH   7   9
ENDBRANCH   1   7
BRANCH   2  10
ATOM     10  O   LIG    1       27.688 -17.445   3.960  0.00  0.00    -0.486 OA
BRANCH  10  11
ATOM     11  C   LIG    1       27.755 -16.108   4.482  0.00  0.00    +0.262 C 
BRANCH  11  12
ATOM     12  C   LIG    1       27.301 -15.113   3.385  0.00  0.00    +0.169 C 
ATOM     13  O   LIG    1       25.917 -15.293   3.002  0.00  0.00    -0.371 OA
ATOM     14  C   LIG    1       25.005 -14.812   3.997  0.00  0.00    +0.175 C 
ATOM     15  C   LIG    1       25.254 -13.332   4.316  0.00  0.00    +0.109 C 
ATOM     16  N   LIG    1       26.636 -13.099   4.769  0.00  0.00    -0.311 NA
ATOM     17  H   LIG    1       26.783 -12.094   4.863  0.00  0.00    +0.122 HD
ATOM     18  C   LIG    1       27.561 -13.632   3.752  0.00  0.00    +0.115 C 
ENDBRANCH  11  12
ENDBRANCH  10  11
ENDBRANCH   2  10
TORSDOF 5
ENDMDL
MODEL 9
REMARK VINA RESULT:      -3.6      2.346      5.180
REMARK  Name = *****
REMARK                            x       y       z     vdW  Elec       q    Type
REMARK                         _______ _______ _______ _____ _____    ______ ____
ROOT
ATOM      1  C   LIG    1       27.431 -17.127   4.124  0.00  0.00    +0.162 A 
ATOM      2  C   LIG    1       26.201 -17.155   3.442  0.00  0.00    +0.162 A 
ATOM      3  C   LIG    1       25.571 -15.942   3.132  0.00  0.00    +0.049 A 
ATOM      4  C   LIG    1       26.160 -14.719   3.440  0.00  0.00    +0.004 A 
ATOM      5  C   LIG    1       27.397 -14.689   4.080  0.00  0.00    +0.004 A 
ATOM      6  C   LIG    1       28.028 -15.889   4.408  0.00  0.00    +0.049 A 
ENDROOT
BRANCH   1   7
ATOM      7  O   LIG    1       28.021 -18.311   4.474  0.00  0.00    -0.489 OA
BRANCH   7   9
ATOM      8  C   LIG    1       29.103 -19.355   6.322  0.00  0.00    +0.048 C 
ATOM      9  C   LIG    1       29.147 -18.190   5.351  0.00  0.00    +0.226 C 
ENDBRANCH   7   9
ENDBRANCH   1   7
BRANCH   2  10
ATOM     10  O   LIG    1       25.467 -18.260   3.094  0.00  0.00    -0.486 OA
BRANCH  10  11
ATOM     11  C   LIG    1       24.269 -18.527   3.839  0.00  0.00    +0.262 C 
BRANCH  11  12
ATOM     12  C   LIG    1       24.068 -20.060   3.943  0.00  0.00    +0.169 C 
ATOM     13  O   LIG    1       25.257 -20.751   4.395  0.00  0.00    -0.371 OA
ATOM     14  C   LIG    1       25.506 -20.558   5.793  0.00  0.00    +0.175 C 
ATOM     15  C   LIG    1       24.308 -21.003   6.642  0.00  0.00    +0.109 C 
ATOM     16  N   LIG    1       23.078 -20.287   6.263  0.00  0.00    -0.311 NA
ATOM     17  H   LIG    1       22.293 -20.692   6.775  0.00  0.00    +0.122 HD
ATOM     18  C   LIG    1       22.856 -20.465   4.816  0.00  0.00    +0.115 C 
ENDBRANCH  11  12
ENDBRANCH  10  11
ENDBRANCH   2  10
TORSDOF 5
ENDMDL
