MODEL 1
REMARK VINA RESULT:      -8.1      0.000      0.000
REMARK  Name = *****
REMARK                            x       y       z     vdW  Elec       q    Type
REMARK                         _______ _______ _______ _____ _____    ______ ____
ROOT
ATOM      1  C   LIG    1       25.281 -25.157   6.316  0.00  0.00    +0.019 A 
ATOM      2  C   LIG    1       25.801 -23.933   5.869  0.00  0.00    +0.035 A 
ATOM      3  C   LIG    1       25.017 -22.768   5.835  0.00  0.00    +0.049 A 
ATOM      4  N   LIG    1       25.654 -21.519   5.496  0.00  0.00    -0.297 N 
ATOM      5  C   LIG    1       24.878 -20.453   4.934  0.00  0.00    +0.048 A 
ATOM      6  C   LIG    1       23.493 -20.314   5.150  0.00  0.00    +0.034 A 
ATOM      7  S   LIG    1       22.554 -21.468   6.131  0.00  0.00    -0.086 S 
ATOM      8  C   LIG    1       22.800 -19.222   4.600  0.00  0.00    +0.017 A 
ATOM      9  C   LIG    1       23.466 -18.276   3.821  0.00  0.00    +0.001 A 
ATOM     10  C   LIG    1       24.820 -18.434   3.559  0.00  0.00    +0.002 A 
ATOM     11  C   LIG    1       25.511 -19.522   4.094  0.00  0.00    +0.024 A 
ATOM     12  C   LIG    1       23.651 -22.868   6.162  0.00  0.00    +0.034 A 
ATOM     13  C   LIG    1       23.120 -24.098   6.578  0.00  0.00    +0.017 A 
ATOM     14  C   LIG    1       23.926 -25.237   6.669  0.00  0.00    +0.012 A 
ENDROOT
BRANCH   1  16
ATOM     15  C   LIG    1       25.965 -27.363   7.506  0.00  0.00    +0.091 C 
ATOM     16  C   LIG    1       26.207 -26.323   6.433  0.00  0.00    +0.160 C 
ATOM     17  O   LIG    1       27.140 -26.431   5.663  0.00  0.00    -0.292 OA
ENDBRANCH   1  16
BRANCH   4  18
ATOM     18  C   LIG    1       26.378 -21.033   6.738  0.00  0.00    +0.129 C 
BRANCH  18  19
ATOM     19  C   LIG    1       27.934 -20.864   6.609  0.00  0.00    +0.071 C 
ATOM     20  C   LIG    1       28.703 -21.773   7.586  0.00  0.00    +0.026 C 
BRANCH  19  21
ATOM     21  N   LIG    1       28.463 -19.472   6.716  0.00  0.00    -0.304 NA
ATOM     22  C   LIG    1       28.945 -18.881   5.470  0.00  0.00    +0.105 C 
ATOM     23  C   LIG    1       29.435 -19.301   7.791  0.00  0.00    +0.105 C 
ENDBRANCH  19  21
ENDBRANCH  18  19
ENDBRANCH   4  18
TORSDOF 4
ENDMDL
MODEL 2
REMARK VINA RESULT:      -7.2      2.145      5.378
REMARK  Name = *****
REMARK                            x       y       z     vdW  Elec       q    Type
REMARK                         _______ _______ _______ _____ _____    ______ ____
ROOT
ATOM      1  C   LIG    1       29.099 -20.189   7.336  0.00  0.00    +0.019 A 
ATOM      2  C   LIG    1       27.767 -20.628   7.337  0.00  0.00    +0.035 A 
ATOM      3  C   LIG    1       26.895 -20.341   6.274  0.00  0.00    +0.049 A 
ATOM      4  N   LIG    1       25.583 -20.941   6.277  0.00  0.00    -0.297 N 
ATOM      5  C   LIG    1       24.508 -20.308   5.571  0.00  0.00    +0.048 A 
ATOM      6  C   LIG    1       24.710 -19.452   4.470  0.00  0.00    +0.034 A 
ATOM      7  S   LIG    1       26.333 -19.050   3.853  0.00  0.00    -0.086 S 
ATOM      8  C   LIG    1       23.609 -18.895   3.800  0.00  0.00    +0.017 A 
ATOM      9  C   LIG    1       22.307 -19.164   4.223  0.00  0.00    +0.001 A 
ATOM     10  C   LIG    1       22.100 -19.963   5.339  0.00  0.00    +0.002 A 
ATOM     11  C   LIG    1       23.192 -20.511   6.016  0.00  0.00    +0.024 A 
ATOM     12  C   LIG    1       27.352 -19.504   5.238  0.00  0.00    +0.034 A 
ATOM     13  C   LIG    1       28.674 -19.035   5.251  0.00  0.00    +0.017 A 
ATOM     14  C   LIG    1       29.551 -19.380   6.283  0.00  0.00    +0.012 A 
ENDROOT
BRANCH   1  16
ATOM     15  C   LIG    1       31.129 -19.734   8.891  0.00  0.00    +0.091 C 
ATOM     16  C   LIG    1       29.995 -20.632   8.446  0.00  0.00    +0.160 C 
ATOM     17  O   LIG    1       29.803 -21.703   8.984  0.00  0.00    -0.292 OA
ENDBRANCH   1  16
BRANCH   4  18
ATOM     18  C   LIG    1       25.743 -22.373   5.800  0.00  0.00    +0.129 C 
BRANCH  18  19
ATOM     19  C   LIG    1       25.091 -23.480   6.704  0.00  0.00    +0.071 C 
ATOM     20  C   LIG    1       26.102 -24.565   7.119  0.00  0.00    +0.026 C 
BRANCH  19  21
ATOM     21  N   LIG    1       23.861 -24.135   6.169  0.00  0.00    -0.304 NA
ATOM     22  C   LIG    1       22.608 -23.749   6.811  0.00  0.00    +0.105 C 
ATOM     23  C   LIG    1       23.975 -25.587   6.066  0.00  0.00    +0.105 C 
ENDBRANCH  19  21
ENDBRANCH  18  19
ENDBRANCH   4  18
TORSDOF 4
ENDMDL
MODEL 3
REMARK VINA RESULT:      -6.7      1.229      1.676
REMARK  Name = *****
REMARK                            x       y       z     vdW  Elec       q    Type
REMARK                         _______ _______ _______ _____ _____    ______ ____
ROOT
ATOM      1  C   LIG    1       24.967 -25.835   5.532  0.00  0.00    +0.019 A 
ATOM      2  C   LIG    1       25.360 -24.596   5.006  0.00  0.00    +0.035 A 
ATOM      3  C   LIG    1       24.727 -23.401   5.386  0.00  0.00    +0.049 A 
ATOM      4  N   LIG    1       25.272 -22.152   4.912  0.00  0.00    -0.297 N 
ATOM      5  C   LIG    1       24.425 -21.001   4.800  0.00  0.00    +0.048 A 
ATOM      6  C   LIG    1       23.261 -20.825   5.575  0.00  0.00    +0.034 A 
ATOM      7  S   LIG    1       22.708 -22.033   6.763  0.00  0.00    -0.086 S 
ATOM      8  C   LIG    1       22.497 -19.654   5.443  0.00  0.00    +0.017 A 
ATOM      9  C   LIG    1       22.866 -18.662   4.534  0.00  0.00    +0.001 A 
ATOM     10  C   LIG    1       23.982 -18.850   3.729  0.00  0.00    +0.002 A 
ATOM     11  C   LIG    1       24.739 -20.017   3.849  0.00  0.00    +0.024 A 
ATOM     12  C   LIG    1       23.606 -23.474   6.235  0.00  0.00    +0.034 A 
ATOM     13  C   LIG    1       23.190 -24.717   6.736  0.00  0.00    +0.017 A 
ATOM     14  C   LIG    1       23.868 -25.892   6.401  0.00  0.00    +0.012 A 
ENDROOT
BRANCH   1  16
ATOM     15  C   LIG    1       25.094 -28.403   5.161  0.00  0.00    +0.091 C 
ATOM     16  C   LIG    1       25.763 -27.047   5.169  0.00  0.00    +0.160 C 
ATOM     17  O   LIG    1       26.936 -26.931   4.877  0.00  0.00    -0.292 OA
ENDBRANCH   1  16
BRANCH   4  18
ATOM     18  C   LIG    1       26.473 -21.828   5.781  0.00  0.00    +0.129 C 
BRANCH  18  19
ATOM     19  C   LIG    1       26.623 -20.328   6.223  0.00  0.00    +0.071 C 
ATOM     20  C   LIG    1       27.752 -19.606   5.466  0.00  0.00    +0.026 C 
BRANCH  19  21
ATOM     21  N   LIG    1       26.777 -20.079   7.687  0.00  0.00    -0.304 NA
ATOM     22  C   LIG    1       28.148 -20.091   8.190  0.00  0.00    +0.105 C 
ATOM     23  C   LIG    1       25.905 -20.908   8.512  0.00  0.00    +0.105 C 
ENDBRANCH  19  21
ENDBRANCH  18  19
ENDBRANCH   4  18
TORSDOF 4
ENDMDL
MODEL 4
REMARK VINA RESULT:      -5.6      5.494      9.729
REMARK  Name = *****
REMARK                            x       y       z     vdW  Elec       q    Type
REMARK                         _______ _______ _______ _____ _____    ______ ____
ROOT
ATOM      1  C   LIG    1       25.132 -26.562   6.135  0.00  0.00    +0.019 A 
ATOM      2  C   LIG    1       24.772 -27.488   7.126  0.00  0.00    +0.035 A 
ATOM      3  C   LIG    1       24.908 -28.871   6.924  0.00  0.00    +0.049 A 
ATOM      4  N   LIG    1       24.650 -29.757   8.034  0.00  0.00    -0.297 N 
ATOM      5  C   LIG    1       24.250 -31.111   7.786  0.00  0.00    +0.048 A 
ATOM      6  C   LIG    1       24.575 -31.804   6.603  0.00  0.00    +0.034 A 
ATOM      7  S   LIG    1       25.501 -31.057   5.276  0.00  0.00    -0.086 S 
ATOM      8  C   LIG    1       24.184 -33.144   6.442  0.00  0.00    +0.017 A 
ATOM      9  C   LIG    1       23.458 -33.798   7.437  0.00  0.00    +0.001 A 
ATOM     10  C   LIG    1       23.087 -33.107   8.583  0.00  0.00    +0.002 A 
ATOM     11  C   LIG    1       23.464 -31.773   8.743  0.00  0.00    +0.024 A 
ATOM     12  C   LIG    1       25.318 -29.329   5.658  0.00  0.00    +0.034 A 
ATOM     13  C   LIG    1       25.647 -28.406   4.654  0.00  0.00    +0.017 A 
ATOM     14  C   LIG    1       25.569 -27.030   4.887  0.00  0.00    +0.012 A 
ENDROOT
BRANCH   1  16
ATOM     15  C   LIG    1       23.722 -24.429   6.590  0.00  0.00    +0.091 C 
ATOM     16  C   LIG    1       25.069 -25.106   6.466  0.00  0.00    +0.160 C 
ATOM     17  O   LIG    1       26.097 -24.482   6.638  0.00  0.00    -0.292 OA
ENDBRANCH   1  16
BRANCH   4  18
ATOM     18  C   LIG    1       25.880 -29.734   8.922  0.00  0.00    +0.129 C 
BRANCH  18  19
ATOM     19  C   LIG    1       25.686 -29.124  10.356  0.00  0.00    +0.071 C 
ATOM     20  C   LIG    1       26.917 -28.327  10.824  0.00  0.00    +0.026 C 
BRANCH  19  21
ATOM     21  N   LIG    1       25.280 -30.075  11.434  0.00  0.00    -0.304 NA
ATOM     22  C   LIG    1       23.946 -29.867  11.991  0.00  0.00    +0.105 C 
ATOM     23  C   LIG    1       26.277 -30.214  12.491  0.00  0.00    +0.105 C 
ENDBRANCH  19  21
ENDBRANCH  18  19
ENDBRANCH   4  18
TORSDOF 4
ENDMDL
MODEL 5
REMARK VINA RESULT:      -5.5      6.058     10.118
REMARK  Name = *****
REMARK                            x       y       z     vdW  Elec       q    Type
REMARK                         _______ _______ _______ _____ _____    ______ ____
ROOT
ATOM      1  C   LIG    1       25.366 -28.032   5.994  0.00  0.00    +0.019 A 
ATOM      2  C   LIG    1       24.877 -28.356   7.268  0.00  0.00    +0.035 A 
ATOM      3  C   LIG    1       24.540 -29.675   7.614  0.00  0.00    +0.049 A 
ATOM      4  N   LIG    1       24.176 -29.957   8.981  0.00  0.00    -0.297 N 
ATOM      5  C   LIG    1       23.339 -31.082   9.278  0.00  0.00    +0.048 A 
ATOM      6  C   LIG    1       23.258 -32.219   8.450  0.00  0.00    +0.034 A 
ATOM      7  S   LIG    1       24.174 -32.366   6.929  0.00  0.00    -0.086 S 
ATOM      8  C   LIG    1       22.447 -33.304   8.822  0.00  0.00    +0.017 A 
ATOM      9  C   LIG    1       21.700 -33.264   9.999  0.00  0.00    +0.001 A 
ATOM     10  C   LIG    1       21.732 -32.127  10.794  0.00  0.00    +0.002 A 
ATOM     11  C   LIG    1       22.529 -31.041  10.424  0.00  0.00    +0.024 A 
ATOM     12  C   LIG    1       24.601 -30.668   6.617  0.00  0.00    +0.034 A 
ATOM     13  C   LIG    1       25.058 -30.340   5.332  0.00  0.00    +0.017 A 
ATOM     14  C   LIG    1       25.452 -29.036   5.018  0.00  0.00    +0.012 A 
ENDROOT
BRANCH   1  16
ATOM     15  C   LIG    1       24.778 -25.549   5.507  0.00  0.00    +0.091 C 
ATOM     16  C   LIG    1       25.813 -26.629   5.738  0.00  0.00    +0.160 C 
ATOM     17  O   LIG    1       26.998 -26.367   5.726  0.00  0.00    -0.292 OA
ENDBRANCH   1  16
BRANCH   4  18
ATOM     18  C   LIG    1       25.463 -30.043   9.780  0.00  0.00    +0.129 C 
BRANCH  18  19
ATOM     19  C   LIG    1       25.637 -28.986  10.928  0.00  0.00    +0.071 C 
ATOM     20  C   LIG    1       26.962 -28.211  10.813  0.00  0.00    +0.026 C 
BRANCH  19  21
ATOM     21  N   LIG    1       25.485 -29.491  12.325  0.00  0.00    -0.304 NA
ATOM     22  C   LIG    1       25.625 -30.935  12.495  0.00  0.00    +0.105 C 
ATOM     23  C   LIG    1       24.286 -28.995  12.994  0.00  0.00    +0.105 C 
ENDBRANCH  19  21
ENDBRANCH  18  19
ENDBRANCH   4  18
TORSDOF 4
ENDMDL
MODEL 6
REMARK VINA RESULT:      -5.3      2.514      6.153
REMARK  Name = *****
REMARK                            x       y       z     vdW  Elec       q    Type
REMARK                         _______ _______ _______ _____ _____    ______ ____
ROOT
ATOM      1  C   LIG    1       28.685 -19.581   6.550  0.00  0.00    +0.019 A 
ATOM      2  C   LIG    1       27.708 -20.234   5.783  0.00  0.00    +0.035 A 
ATOM      3  C   LIG    1       26.894 -21.239   6.330  0.00  0.00    +0.049 A 
ATOM      4  N   LIG    1       25.820 -21.769   5.525  0.00  0.00    -0.297 N 
ATOM      5  C   LIG    1       25.326 -23.091   5.778  0.00  0.00    +0.048 A 
ATOM      6  C   LIG    1       25.424 -23.721   7.033  0.00  0.00    +0.034 A 
ATOM      7  S   LIG    1       26.198 -22.946   8.439  0.00  0.00    -0.086 S 
ATOM      8  C   LIG    1       24.884 -25.004   7.222  0.00  0.00    +0.017 A 
ATOM      9  C   LIG    1       24.262 -25.676   6.169  0.00  0.00    +0.001 A 
ATOM     10  C   LIG    1       24.207 -25.084   4.914  0.00  0.00    +0.002 A 
ATOM     11  C   LIG    1       24.752 -23.814   4.719  0.00  0.00    +0.024 A 
ATOM     12  C   LIG    1       27.145 -21.664   7.648  0.00  0.00    +0.034 A 
ATOM     13  C   LIG    1       28.144 -21.036   8.407  0.00  0.00    +0.017 A 
ATOM     14  C   LIG    1       28.905 -19.992   7.872  0.00  0.00    +0.012 A 
ENDROOT
BRANCH   1  16
ATOM     15  C   LIG    1       28.774 -17.627   4.840  0.00  0.00    +0.091 C 
ATOM     16  C   LIG    1       29.431 -18.443   5.932  0.00  0.00    +0.160 C 
ATOM     17  O   LIG    1       30.553 -18.179   6.315  0.00  0.00    -0.292 OA
ENDBRANCH   1  16
BRANCH   4  18
ATOM     18  C   LIG    1       24.680 -20.770   5.585  0.00  0.00    +0.129 C 
BRANCH  18  19
ATOM     19  C   LIG    1       24.136 -20.257   4.204  0.00  0.00    +0.071 C 
ATOM     20  C   LIG    1       24.953 -19.071   3.658  0.00  0.00    +0.026 C 
BRANCH  19  21
ATOM     21  N   LIG    1       22.683 -19.919   4.145  0.00  0.00    -0.304 NA
ATOM     22  C   LIG    1       22.341 -18.537   4.473  0.00  0.00    +0.105 C 
ATOM     23  C   LIG    1       21.838 -20.858   4.876  0.00  0.00    +0.105 C 
ENDBRANCH  19  21
ENDBRANCH  18  19
ENDBRANCH   4  18
TORSDOF 4
ENDMDL
MODEL 7
REMARK VINA RESULT:      -5.3      5.997      9.478
REMARK  Name = *****
REMARK                            x       y       z     vdW  Elec       q    Type
REMARK                         _______ _______ _______ _____ _____    ______ ____
ROOT
ATOM      1  C   LIG    1       25.276 -29.722  11.015  0.00  0.00    +0.019 A 
ATOM      2  C   LIG    1       25.629 -29.638   9.660  0.00  0.00    +0.035 A 
ATOM      3  C   LIG    1       24.997 -30.426   8.684  0.00  0.00    +0.049 A 
ATOM      4  N   LIG    1       25.313 -30.189   7.296  0.00  0.00    -0.297 N 
ATOM      5  C   LIG    1       25.149 -31.242   6.338  0.00  0.00    +0.048 A 
ATOM      6  C   LIG    1       24.243 -32.306   6.513  0.00  0.00    +0.034 A 
ATOM      7  S   LIG    1       23.218 -32.465   7.962  0.00  0.00    -0.086 S 
ATOM      8  C   LIG    1       24.104 -33.285   5.515  0.00  0.00    +0.017 A 
ATOM      9  C   LIG    1       24.870 -33.228   4.351  0.00  0.00    +0.001 A 
ATOM     10  C   LIG    1       25.804 -32.213   4.194  0.00  0.00    +0.002 A 
ATOM     11  C   LIG    1       25.954 -31.243   5.187  0.00  0.00    +0.024 A 
ATOM     12  C   LIG    1       24.063 -31.392   9.102  0.00  0.00    +0.034 A 
ATOM     13  C   LIG    1       23.731 -31.502  10.461  0.00  0.00    +0.017 A 
ATOM     14  C   LIG    1       24.321 -30.667  11.416  0.00  0.00    +0.012 A 
ENDROOT
BRANCH   1  16
ATOM     15  C   LIG    1       26.888 -27.735  11.463  0.00  0.00    +0.091 C 
ATOM     16  C   LIG    1       25.910 -28.769  11.976  0.00  0.00    +0.160 C 
ATOM     17  O   LIG    1       25.631 -28.829  13.156  0.00  0.00    -0.292 OA
ENDBRANCH   1  16
BRANCH   4  18
ATOM     18  C   LIG    1       24.528 -28.965   6.861  0.00  0.00    +0.129 C 
BRANCH  18  19
ATOM     19  C   LIG    1       25.374 -27.763   6.307  0.00  0.00    +0.071 C 
ATOM     20  C   LIG    1       26.156 -27.038   7.418  0.00  0.00    +0.026 C 
BRANCH  19  21
ATOM     21  N   LIG    1       24.638 -26.754   5.488  0.00  0.00    -0.304 NA
ATOM     22  C   LIG    1       25.352 -26.245   4.320  0.00  0.00    +0.105 C 
ATOM     23  C   LIG    1       24.076 -25.664   6.278  0.00  0.00    +0.105 C 
ENDBRANCH  19  21
ENDBRANCH  18  19
ENDBRANCH   4  18
TORSDOF 4
ENDMDL
MODEL 8
REMARK VINA RESULT:      -5.1      6.081     10.652
REMARK  Name = *****
REMARK                            x       y       z     vdW  Elec       q    Type
REMARK                         _______ _______ _______ _____ _____    ______ ____
ROOT
ATOM      1  C   LIG    1       25.187 -27.962   6.114  0.00  0.00    +0.019 A 
ATOM      2  C   LIG    1       24.626 -28.387   7.328  0.00  0.00    +0.035 A 
ATOM      3  C   LIG    1       24.347 -29.741   7.576  0.00  0.00    +0.049 A 
ATOM      4  N   LIG    1       23.901 -30.122   8.894  0.00  0.00    -0.297 N 
ATOM      5  C   LIG    1       23.117 -31.310   9.066  0.00  0.00    +0.048 A 
ATOM      6  C   LIG    1       23.169 -32.400   8.175  0.00  0.00    +0.034 A 
ATOM      7  S   LIG    1       24.204 -32.405   6.724  0.00  0.00    -0.086 S 
ATOM      8  C   LIG    1       22.403 -33.550   8.424  0.00  0.00    +0.017 A 
ATOM      9  C   LIG    1       21.569 -33.622   9.540  0.00  0.00    +0.001 A 
ATOM     10  C   LIG    1       21.471 -32.532  10.394  0.00  0.00    +0.002 A 
ATOM     11  C   LIG    1       22.222 -31.382  10.146  0.00  0.00    +0.024 A 
ATOM     12  C   LIG    1       24.545 -30.669   6.537  0.00  0.00    +0.034 A 
ATOM     13  C   LIG    1       25.075 -30.242   5.310  0.00  0.00    +0.017 A 
ATOM     14  C   LIG    1       25.408 -28.901   5.097  0.00  0.00    +0.012 A 
ENDROOT
BRANCH   1  16
ATOM     15  C   LIG    1       24.507 -25.455   6.163  0.00  0.00    +0.091 C 
ATOM     16  C   LIG    1       25.562 -26.523   5.969  0.00  0.00    +0.160 C 
ATOM     17  O   LIG    1       26.708 -26.223   5.705  0.00  0.00    -0.292 OA
ENDBRANCH   1  16
BRANCH   4  18
ATOM     18  C   LIG    1       25.128 -30.178   9.785  0.00  0.00    +0.129 C 
BRANCH  18  19
ATOM     19  C   LIG    1       25.301 -31.483  10.641  0.00  0.00    +0.071 C 
ATOM     20  C   LIG    1       25.526 -31.177  12.134  0.00  0.00    +0.026 C 
BRANCH  19  21
ATOM     21  N   LIG    1       26.341 -32.450  10.178  0.00  0.00    -0.304 NA
ATOM     22  C   LIG    1       27.068 -32.067   8.971  0.00  0.00    +0.105 C 
ATOM     23  C   LIG    1       25.857 -33.824  10.088  0.00  0.00    +0.105 C 
ENDBRANCH  19  21
ENDBRANCH  18  19
ENDBRANCH   4  18
TORSDOF 4
ENDMDL
