MODEL 1
REMARK VINA RESULT:      -4.8      0.000      0.000
REMARK  Name = *****
REMARK                            x       y       z     vdW  Elec       q    Type
REMARK                         _______ _______ _______ _____ _____    ______ ____
ROOT
ATOM      1  C   LIG    1       24.093 -17.821   3.903  0.00  0.00    +0.086 C 
ATOM      2  C   LIG    1       22.971 -16.991   4.408  0.00  0.00    +0.345 C 
ATOM      3  O   LIG    1       21.932 -17.483   4.849  0.00  0.00    -0.245 OA
ATOM      4  O   LIG    1       23.150 -15.612   4.432  0.00  0.00    -0.422 OA
ATOM      5  C   LIG    1       24.309 -14.995   3.933  0.00  0.00    +0.143 A 
ATOM      6  C   LIG    1       25.359 -15.761   3.439  0.00  0.00    +0.059 A 
ATOM      7  C   LIG    1       26.459 -15.081   2.893  0.00  0.00    +0.015 A 
ATOM      8  C   LIG    1       26.508 -13.681   2.887  0.00  0.00    +0.001 A 
ATOM      9  C   LIG    1       25.451 -12.940   3.415  0.00  0.00    +0.004 A 
ATOM     10  C   LIG    1       24.341 -13.599   3.936  0.00  0.00    +0.047 A 
ATOM     11  C   LIG    1       25.227 -17.220   3.493  0.00  0.00    +0.138 C 
ENDROOT
BRANCH  11  12
ATOM     12  O   LIG    1       26.328 -17.967   3.117  0.00  0.00    -0.505 OA
ATOM     13  H   LIG    1       26.736 -17.539   2.345  0.00  0.00    +0.292 HD
ENDBRANCH  11  12
BRANCH   1  14
ATOM     14  C   LIG    1       23.922 -19.340   3.926  0.00  0.00    +0.059 C 
BRANCH  14  15
ATOM     15  C   LIG    1       24.753 -20.010   5.042  0.00  0.00    -0.040 A 
ATOM     16  C   LIG    1       26.156 -19.950   5.086  0.00  0.00    +0.004 A 
ATOM     17  C   LIG    1       26.884 -20.621   6.074  0.00  0.00    +0.000 A 
ATOM     18  C   LIG    1       26.224 -21.343   7.062  0.00  0.00    +0.000 A 
ATOM     19  C   LIG    1       24.833 -21.390   7.062  0.00  0.00    +0.000 A 
ATOM     20  C   LIG    1       24.104 -20.732   6.062  0.00  0.00    +0.004 A 
ENDBRANCH  14  15
BRANCH  14  22
ATOM     21  C   LIG    1       23.870 -21.568   2.542  0.00  0.00    +0.005 C 
ATOM     22  C   LIG    1       24.061 -20.054   2.547  0.00  0.00    +0.010 C 
ENDBRANCH  14  22
ENDBRANCH   1  14
TORSDOF 4
ENDMDL
MODEL 2
REMARK VINA RESULT:      -4.7      1.715      6.371
REMARK  Name = *****
REMARK                            x       y       z     vdW  Elec       q    Type
REMARK                         _______ _______ _______ _____ _____    ______ ____
ROOT
ATOM      1  C   LIG    1       24.786 -15.948   3.548  0.00  0.00    +0.086 C 
ATOM      2  C   LIG    1       25.930 -16.852   3.273  0.00  0.00    +0.345 C 
ATOM      3  O   LIG    1       27.015 -16.439   2.862  0.00  0.00    -0.245 OA
ATOM      4  O   LIG    1       25.767 -18.203   3.558  0.00  0.00    -0.422 OA
ATOM      5  C   LIG    1       24.550 -18.732   4.019  0.00  0.00    +0.143 A 
ATOM      6  C   LIG    1       23.464 -17.898   4.262  0.00  0.00    +0.059 A 
ATOM      7  C   LIG    1       22.258 -18.499   4.656  0.00  0.00    +0.015 A 
ATOM      8  C   LIG    1       22.171 -19.885   4.836  0.00  0.00    +0.001 A 
ATOM      9  C   LIG    1       23.285 -20.693   4.611  0.00  0.00    +0.004 A 
ATOM     10  C   LIG    1       24.482 -20.116   4.194  0.00  0.00    +0.047 A 
ATOM     11  C   LIG    1       23.647 -16.458   4.056  0.00  0.00    +0.138 C 
ENDROOT
BRANCH  11  12
ATOM     12  O   LIG    1       22.602 -15.631   4.423  0.00  0.00    -0.505 OA
ATOM     13  H   LIG    1       22.854 -14.714   4.215  0.00  0.00    +0.292 HD
ENDBRANCH  11  12
BRANCH   1  14
ATOM     14  C   LIG    1       24.980 -14.453   3.287  0.00  0.00    +0.059 C 
BRANCH  14  15
ATOM     15  C   LIG    1       26.241 -13.894   3.980  0.00  0.00    -0.040 A 
ATOM     16  C   LIG    1       26.344 -13.754   5.374  0.00  0.00    +0.004 A 
ATOM     17  C   LIG    1       27.475 -13.183   5.968  0.00  0.00    +0.000 A 
ATOM     18  C   LIG    1       28.544 -12.767   5.184  0.00  0.00    +0.000 A 
ATOM     19  C   LIG    1       28.482 -12.926   3.802  0.00  0.00    +0.000 A 
ATOM     20  C   LIG    1       27.342 -13.482   3.205  0.00  0.00    +0.004 A 
ENDBRANCH  14  15
BRANCH  14  22
ATOM     21  C   LIG    1       23.881 -12.073   3.220  0.00  0.00    +0.005 C 
ATOM     22  C   LIG    1       23.718 -13.564   3.501  0.00  0.00    +0.010 C 
ENDBRANCH  14  22
ENDBRANCH   1  14
TORSDOF 4
ENDMDL
MODEL 3
REMARK VINA RESULT:      -4.2      1.650      5.972
REMARK  Name = *****
REMARK                            x       y       z     vdW  Elec       q    Type
REMARK                         _______ _______ _______ _____ _____    ______ ____
ROOT
ATOM      1  C   LIG    1       24.879 -15.827   3.354  0.00  0.00    +0.086 C 
ATOM      2  C   LIG    1       23.556 -15.476   3.926  0.00  0.00    +0.345 C 
ATOM      3  O   LIG    1       23.119 -14.325   3.922  0.00  0.00    -0.245 OA
ATOM      4  O   LIG    1       22.773 -16.513   4.422  0.00  0.00    -0.422 OA
ATOM      5  C   LIG    1       23.224 -17.843   4.461  0.00  0.00    +0.143 A 
ATOM      6  C   LIG    1       24.470 -18.181   3.946  0.00  0.00    +0.059 A 
ATOM      7  C   LIG    1       24.888 -19.515   4.078  0.00  0.00    +0.015 A 
ATOM      8  C   LIG    1       24.057 -20.473   4.672  0.00  0.00    +0.001 A 
ATOM      9  C   LIG    1       22.800 -20.109   5.155  0.00  0.00    +0.004 A 
ATOM     10  C   LIG    1       22.381 -18.784   5.055  0.00  0.00    +0.047 A 
ATOM     11  C   LIG    1       25.270 -17.116   3.334  0.00  0.00    +0.138 C 
ENDROOT
BRANCH  11  12
ATOM     12  O   LIG    1       26.449 -17.489   2.714  0.00  0.00    -0.505 OA
ATOM     13  H   LIG    1       26.226 -17.882   1.852  0.00  0.00    +0.292 HD
ENDBRANCH  11  12
BRANCH   1  14
ATOM     14  C   LIG    1       25.720 -14.696   2.758  0.00  0.00    +0.059 C 
BRANCH  14  15
ATOM     15  C   LIG    1       26.642 -14.034   3.804  0.00  0.00    -0.040 A 
ATOM     16  C   LIG    1       26.283 -13.896   5.155  0.00  0.00    +0.004 A 
ATOM     17  C   LIG    1       27.113 -13.233   6.066  0.00  0.00    +0.000 A 
ATOM     18  C   LIG    1       28.337 -12.719   5.653  0.00  0.00    +0.000 A 
ATOM     19  C   LIG    1       28.732 -12.873   4.327  0.00  0.00    +0.000 A 
ATOM     20  C   LIG    1       27.894 -13.522   3.411  0.00  0.00    +0.004 A 
ENDBRANCH  14  15
BRANCH  14  22
ATOM     21  C   LIG    1       25.019 -12.206   2.328  0.00  0.00    +0.005 C 
ATOM     22  C   LIG    1       24.940 -13.665   1.888  0.00  0.00    +0.010 C 
ENDBRANCH  14  22
ENDBRANCH   1  14
TORSDOF 4
ENDMDL
MODEL 4
REMARK VINA RESULT:      -3.6      1.312      2.680
REMARK  Name = *****
REMARK                            x       y       z     vdW  Elec       q    Type
REMARK                         _______ _______ _______ _____ _____    ______ ____
ROOT
ATOM      1  C   LIG    1       23.729 -17.438   4.125  0.00  0.00    +0.086 C 
ATOM      2  C   LIG    1       24.936 -17.820   3.350  0.00  0.00    +0.345 C 
ATOM      3  O   LIG    1       25.164 -18.983   3.015  0.00  0.00    -0.245 OA
ATOM      4  O   LIG    1       25.792 -16.801   2.946  0.00  0.00    -0.422 OA
ATOM      5  C   LIG    1       25.587 -15.460   3.308  0.00  0.00    +0.143 A 
ATOM      6  C   LIG    1       24.470 -15.091   4.050  0.00  0.00    +0.059 A 
ATOM      7  C   LIG    1       24.361 -13.746   4.436  0.00  0.00    +0.015 A 
ATOM      8  C   LIG    1       25.324 -12.806   4.047  0.00  0.00    +0.001 A 
ATOM      9  C   LIG    1       26.419 -13.201   3.280  0.00  0.00    +0.004 A 
ATOM     10  C   LIG    1       26.557 -14.537   2.911  0.00  0.00    +0.047 A 
ATOM     11  C   LIG    1       23.508 -16.138   4.405  0.00  0.00    +0.138 C 
ENDROOT
BRANCH  11  12
ATOM     12  O   LIG    1       22.342 -15.738   5.032  0.00  0.00    -0.505 OA
ATOM     13  H   LIG    1       21.660 -16.411   4.861  0.00  0.00    +0.292 HD
ENDBRANCH  11  12
BRANCH   1  14
ATOM     14  C   LIG    1       22.757 -18.549   4.524  0.00  0.00    +0.059 C 
BRANCH  14  15
ATOM     15  C   LIG    1       23.433 -19.645   5.375  0.00  0.00    -0.040 A 
ATOM     16  C   LIG    1       22.717 -20.473   6.256  0.00  0.00    +0.004 A 
ATOM     17  C   LIG    1       23.367 -21.415   7.062  0.00  0.00    +0.000 A 
ATOM     18  C   LIG    1       24.746 -21.571   6.984  0.00  0.00    +0.000 A 
ATOM     19  C   LIG    1       25.475 -20.787   6.094  0.00  0.00    +0.000 A 
ATOM     20  C   LIG    1       24.826 -19.833   5.299  0.00  0.00    +0.004 A 
ENDBRANCH  14  15
BRANCH  14  22
ATOM     21  C   LIG    1       20.438 -18.631   3.301  0.00  0.00    +0.005 C 
ATOM     22  C   LIG    1       21.881 -19.123   3.369  0.00  0.00    +0.010 C 
ENDBRANCH  14  22
ENDBRANCH   1  14
TORSDOF 4
ENDMDL
MODEL 5
REMARK VINA RESULT:      -3.2      1.804      6.388
REMARK  Name = *****
REMARK                            x       y       z     vdW  Elec       q    Type
REMARK                         _______ _______ _______ _____ _____    ______ ____
ROOT
ATOM      1  C   LIG    1       24.918 -16.220   4.070  0.00  0.00    +0.086 C 
ATOM      2  C   LIG    1       23.495 -16.040   4.450  0.00  0.00    +0.345 C 
ATOM      3  O   LIG    1       23.024 -14.942   4.746  0.00  0.00    -0.245 OA
ATOM      4  O   LIG    1       22.669 -17.158   4.402  0.00  0.00    -0.422 OA
ATOM      5  C   LIG    1       23.152 -18.437   4.081  0.00  0.00    +0.143 A 
ATOM      6  C   LIG    1       24.488 -18.622   3.743  0.00  0.00    +0.059 A 
ATOM      7  C   LIG    1       24.922 -19.935   3.500  0.00  0.00    +0.015 A 
ATOM      8  C   LIG    1       24.025 -21.010   3.558  0.00  0.00    +0.001 A 
ATOM      9  C   LIG    1       22.685 -20.790   3.874  0.00  0.00    +0.004 A 
ATOM     10  C   LIG    1       22.245 -19.496   4.143  0.00  0.00    +0.047 A 
ATOM     11  C   LIG    1       25.353 -17.440   3.697  0.00  0.00    +0.138 C 
ENDROOT
BRANCH  11  12
ATOM     12  O   LIG    1       26.645 -17.620   3.237  0.00  0.00    -0.505 OA
ATOM     13  H   LIG    1       26.632 -17.555   2.266  0.00  0.00    +0.292 HD
ENDBRANCH  11  12
BRANCH   1  14
ATOM     14  C   LIG    1       25.817 -14.983   4.070  0.00  0.00    +0.059 C 
BRANCH  14  15
ATOM     15  C   LIG    1       25.068 -13.711   3.619  0.00  0.00    -0.040 A 
ATOM     16  C   LIG    1       24.573 -12.759   4.526  0.00  0.00    +0.004 A 
ATOM     17  C   LIG    1       23.842 -11.648   4.091  0.00  0.00    +0.000 A 
ATOM     18  C   LIG    1       23.614 -11.447   2.734  0.00  0.00    +0.000 A 
ATOM     19  C   LIG    1       24.124 -12.357   1.812  0.00  0.00    +0.000 A 
ATOM     20  C   LIG    1       24.842 -13.478   2.249  0.00  0.00    +0.004 A 
ENDBRANCH  14  15
BRANCH  14  22
ATOM     21  C   LIG    1       28.238 -14.071   3.637  0.00  0.00    +0.005 C 
ATOM     22  C   LIG    1       27.201 -15.158   3.373  0.00  0.00    +0.010 C 
ENDBRANCH  14  22
ENDBRANCH   1  14
TORSDOF 4
ENDMDL
MODEL 6
REMARK VINA RESULT:      -2.9      1.882      5.492
REMARK  Name = *****
REMARK                            x       y       z     vdW  Elec       q    Type
REMARK                         _______ _______ _______ _____ _____    ______ ____
ROOT
ATOM      1  C   LIG    1       24.649 -19.516   4.704  0.00  0.00    +0.086 C 
ATOM      2  C   LIG    1       24.237 -20.588   5.644  0.00  0.00    +0.345 C 
ATOM      3  O   LIG    1       23.064 -20.938   5.774  0.00  0.00    -0.245 OA
ATOM      4  O   LIG    1       25.239 -21.249   6.347  0.00  0.00    -0.422 OA
ATOM      5  C   LIG    1       26.592 -20.887   6.247  0.00  0.00    +0.143 A 
ATOM      6  C   LIG    1       26.989 -19.871   5.384  0.00  0.00    +0.059 A 
ATOM      7  C   LIG    1       28.346 -19.512   5.383  0.00  0.00    +0.015 A 
ATOM      8  C   LIG    1       29.268 -20.187   6.193  0.00  0.00    +0.001 A 
ATOM      9  C   LIG    1       28.845 -21.220   7.029  0.00  0.00    +0.004 A 
ATOM     10  C   LIG    1       27.497 -21.570   7.061  0.00  0.00    +0.047 A 
ATOM     11  C   LIG    1       25.958 -19.226   4.566  0.00  0.00    +0.138 C 
ENDROOT
BRANCH  11  12
ATOM     12  O   LIG    1       26.383 -18.309   3.623  0.00  0.00    -0.505 OA
ATOM     13  H   LIG    1       27.037 -18.744   3.049  0.00  0.00    +0.292 HD
ENDBRANCH  11  12
BRANCH   1  14
ATOM     14  C   LIG    1       23.556 -18.824   3.889  0.00  0.00    +0.059 C 
BRANCH  14  15
ATOM     15  C   LIG    1       23.539 -17.296   4.104  0.00  0.00    -0.040 A 
ATOM     16  C   LIG    1       24.513 -16.441   3.561  0.00  0.00    +0.004 A 
ATOM     17  C   LIG    1       24.507 -15.067   3.827  0.00  0.00    +0.000 A 
ATOM     18  C   LIG    1       23.509 -14.511   4.619  0.00  0.00    +0.000 A 
ATOM     19  C   LIG    1       22.512 -15.331   5.141  0.00  0.00    +0.000 A 
ATOM     20  C   LIG    1       22.527 -16.709   4.888  0.00  0.00    +0.004 A 
ENDBRANCH  14  15
BRANCH  14  22
ATOM     21  C   LIG    1       20.987 -18.667   3.385  0.00  0.00    +0.005 C 
ATOM     22  C   LIG    1       22.140 -19.471   3.977  0.00  0.00    +0.010 C 
ENDBRANCH  14  22
ENDBRANCH   1  14
TORSDOF 4
ENDMDL
MODEL 7
REMARK VINA RESULT:      -2.6      2.100      6.731
REMARK  Name = *****
REMARK                            x       y       z     vdW  Elec       q    Type
REMARK                         _______ _______ _______ _____ _____    ______ ____
ROOT
ATOM      1  C   LIG    1       25.491 -16.018   3.939  0.00  0.00    +0.086 C 
ATOM      2  C   LIG    1       26.324 -17.180   3.539  0.00  0.00    +0.345 C 
ATOM      3  O   LIG    1       27.530 -17.081   3.314  0.00  0.00    -0.245 OA
ATOM      4  O   LIG    1       25.708 -18.425   3.483  0.00  0.00    -0.422 OA
ATOM      5  C   LIG    1       24.334 -18.595   3.719  0.00  0.00    +0.143 A 
ATOM      6  C   LIG    1       23.539 -17.512   4.076  0.00  0.00    +0.059 A 
ATOM      7  C   LIG    1       22.162 -17.738   4.230  0.00  0.00    +0.015 A 
ATOM      8  C   LIG    1       21.622 -19.020   4.070  0.00  0.00    +0.001 A 
ATOM      9  C   LIG    1       22.449 -20.093   3.739  0.00  0.00    +0.004 A 
ATOM     10  C   LIG    1       23.813 -19.881   3.556  0.00  0.00    +0.047 A 
ATOM     11  C   LIG    1       24.189 -16.207   4.230  0.00  0.00    +0.138 C 
ENDROOT
BRANCH  11  12
ATOM     12  O   LIG    1       23.413 -15.167   4.707  0.00  0.00    -0.505 OA
ATOM     13  H   LIG    1       22.987 -15.460   5.532  0.00  0.00    +0.292 HD
ENDBRANCH  11  12
BRANCH   1  14
ATOM     14  C   LIG    1       26.177 -14.656   4.054  0.00  0.00    +0.059 C 
BRANCH  14  15
ATOM     15  C   LIG    1       25.260 -13.496   3.612  0.00  0.00    -0.040 A 
ATOM     16  C   LIG    1       24.634 -12.631   4.525  0.00  0.00    +0.004 A 
ATOM     17  C   LIG    1       23.757 -11.628   4.096  0.00  0.00    +0.000 A 
ATOM     18  C   LIG    1       23.509 -11.447   2.740  0.00  0.00    +0.000 A 
ATOM     19  C   LIG    1       24.144 -12.268   1.812  0.00  0.00    +0.000 A 
ATOM     20  C   LIG    1       25.009 -13.283   2.242  0.00  0.00    +0.004 A 
ENDBRANCH  14  15
BRANCH  14  22
ATOM     21  C   LIG    1       28.381 -13.279   3.699  0.00  0.00    +0.005 C 
ATOM     22  C   LIG    1       27.610 -14.571   3.445  0.00  0.00    +0.010 C 
ENDBRANCH  14  22
ENDBRANCH   1  14
TORSDOF 4
ENDMDL
MODEL 8
REMARK VINA RESULT:      -2.5      1.069      2.028
REMARK  Name = *****
REMARK                            x       y       z     vdW  Elec       q    Type
REMARK                         _______ _______ _______ _____ _____    ______ ____
ROOT
ATOM      1  C   LIG    1       24.707 -17.908   3.740  0.00  0.00    +0.086 C 
ATOM      2  C   LIG    1       23.335 -17.462   4.088  0.00  0.00    +0.345 C 
ATOM      3  O   LIG    1       22.434 -18.254   4.366  0.00  0.00    -0.245 OA
ATOM      4  O   LIG    1       23.100 -16.093   4.157  0.00  0.00    -0.422 OA
ATOM      5  C   LIG    1       24.087 -15.144   3.842  0.00  0.00    +0.143 A 
ATOM      6  C   LIG    1       25.371 -15.550   3.495  0.00  0.00    +0.059 A 
ATOM      7  C   LIG    1       26.290 -14.555   3.125  0.00  0.00    +0.015 A 
ATOM      8  C   LIG    1       25.930 -13.201   3.147  0.00  0.00    +0.001 A 
ATOM      9  C   LIG    1       24.642 -12.823   3.525  0.00  0.00    +0.004 A 
ATOM     10  C   LIG    1       23.711 -13.800   3.869  0.00  0.00    +0.047 A 
ATOM     11  C   LIG    1       25.663 -16.986   3.508  0.00  0.00    +0.138 C 
ENDROOT
BRANCH  11  12
ATOM     12  O   LIG    1       26.973 -17.366   3.286  0.00  0.00    -0.505 OA
ATOM     13  H   LIG    1       27.140 -17.334   2.328  0.00  0.00    +0.292 HD
ENDBRANCH  11  12
BRANCH   1  14
ATOM     14  C   LIG    1       24.984 -19.412   3.717  0.00  0.00    +0.059 C 
BRANCH  14  15
ATOM     15  C   LIG    1       24.103 -20.188   4.719  0.00  0.00    -0.040 A 
ATOM     16  C   LIG    1       22.977 -20.931   4.325  0.00  0.00    +0.004 A 
ATOM     17  C   LIG    1       22.161 -21.571   5.265  0.00  0.00    +0.000 A 
ATOM     18  C   LIG    1       22.469 -21.509   6.619  0.00  0.00    +0.000 A 
ATOM     19  C   LIG    1       23.599 -20.808   7.032  0.00  0.00    +0.000 A 
ATOM     20  C   LIG    1       24.407 -20.153   6.093  0.00  0.00    +0.004 A 
ENDBRANCH  14  15
BRANCH  14  22
ATOM     21  C   LIG    1       27.074 -20.048   5.167  0.00  0.00    +0.005 C 
ATOM     22  C   LIG    1       26.487 -19.821   3.778  0.00  0.00    +0.010 C 
ENDBRANCH  14  22
ENDBRANCH   1  14
TORSDOF 4
ENDMDL
