MODEL 1
REMARK VINA RESULT:      -8.6      0.000      0.000
REMARK  Name = *****
REMARK                            x       y       z     vdW  Elec       q    Type
REMARK                         _______ _______ _______ _____ _____    ______ ____
ROOT
ATOM      1  C   LIG    1       29.314 -19.608   7.115  0.00  0.00    +0.107 A 
ATOM      2  C   LIG    1       28.099 -20.197   7.500  0.00  0.00    +0.053 A 
ATOM      3  C   LIG    1       26.955 -20.173   6.668  0.00  0.00    +0.050 A 
ATOM      4  N   LIG    1       25.715 -20.777   7.046  0.00  0.00    -0.298 N 
ATOM      5  C   LIG    1       24.546 -20.855   6.225  0.00  0.00    +0.048 A 
ATOM      6  C   LIG    1       24.481 -20.232   4.962  0.00  0.00    +0.034 A 
ATOM      7  S   LIG    1       25.813 -19.314   4.237  0.00  0.00    -0.086 S 
ATOM      8  C   LIG    1       23.315 -20.302   4.169  0.00  0.00    +0.017 A 
ATOM      9  C   LIG    1       22.190 -20.990   4.602  0.00  0.00    +0.001 A 
ATOM     10  C   LIG    1       22.225 -21.619   5.832  0.00  0.00    +0.002 A 
ATOM     11  C   LIG    1       23.381 -21.555   6.622  0.00  0.00    +0.024 A 
ATOM     12  C   LIG    1       27.113 -19.514   5.428  0.00  0.00    +0.034 A 
ATOM     13  C   LIG    1       28.347 -18.944   5.044  0.00  0.00    +0.019 A 
ATOM     14  C   LIG    1       29.450 -18.989   5.883  0.00  0.00    +0.030 A 
ENDROOT
BRANCH   1  15
ATOM     15  S   LIG    1       30.723 -19.680   8.194  0.00  0.00    +0.060 S 
ATOM     16  O   LIG    1       30.439 -20.613   9.261  0.00  0.00    -0.153 OA
ATOM     17  O   LIG    1       31.888 -19.836   7.347  0.00  0.00    -0.153 OA
BRANCH  15  19
ATOM     18  C   LIG    1       30.084 -17.976  10.183  0.00  0.00    +0.131 C 
ATOM     19  N   LIG    1       30.758 -18.109   8.874  0.00  0.00    -0.183 NA
ATOM     20  C   LIG    1       32.106 -17.499   8.869  0.00  0.00    +0.131 C 
ENDBRANCH  15  19
ENDBRANCH   1  15
BRANCH   4  21
ATOM     21  C   LIG    1       25.657 -21.464   8.360  0.00  0.00    +0.112 C 
BRANCH  21  22
ATOM     22  C   LIG    1       26.341 -22.841   8.305  0.00  0.00    +0.035 C 
BRANCH  22  23
ATOM     23  C   LIG    1       26.012 -23.551   6.984  0.00  0.00    +0.086 C 
BRANCH  23  24
ATOM     24  N   LIG    1       25.124 -24.725   7.106  0.00  0.00    -0.300 NA
ATOM     25  C   LIG    1       24.267 -24.947   5.920  0.00  0.00    +0.100 C 
ATOM     26  C   LIG    1       25.041 -25.353   4.644  0.00  0.00    +0.099 C 
ATOM     27  N   LIG    1       25.934 -26.522   4.800  0.00  0.00    -0.303 NA
ATOM     28  C   LIG    1       25.186 -27.774   4.744  0.00  0.00    +0.105 C 
ATOM     29  C   LIG    1       26.718 -26.419   6.047  0.00  0.00    +0.099 C 
ATOM     30  C   LIG    1       25.927 -25.959   7.300  0.00  0.00    +0.100 C 
ENDBRANCH  23  24
ENDBRANCH  22  23
ENDBRANCH  21  22
ENDBRANCH   4  21
TORSDOF 6
ENDMDL
MODEL 2
REMARK VINA RESULT:      -7.1      1.281      1.628
REMARK  Name = *****
REMARK                            x       y       z     vdW  Elec       q    Type
REMARK                         _______ _______ _______ _____ _____    ______ ____
ROOT
ATOM      1  C   LIG    1       29.451 -19.861   7.317  0.00  0.00    +0.107 A 
ATOM      2  C   LIG    1       28.184 -20.381   7.626  0.00  0.00    +0.053 A 
ATOM      3  C   LIG    1       27.085 -20.259   6.743  0.00  0.00    +0.050 A 
ATOM      4  N   LIG    1       25.793 -20.792   7.045  0.00  0.00    -0.298 N 
ATOM      5  C   LIG    1       24.662 -20.770   6.168  0.00  0.00    +0.048 A 
ATOM      6  C   LIG    1       24.697 -20.110   4.923  0.00  0.00    +0.034 A 
ATOM      7  S   LIG    1       26.119 -19.260   4.290  0.00  0.00    -0.086 S 
ATOM      8  C   LIG    1       23.570 -20.082   4.075  0.00  0.00    +0.017 A 
ATOM      9  C   LIG    1       22.384 -20.708   4.434  0.00  0.00    +0.001 A 
ATOM     10  C   LIG    1       22.319 -21.372   5.644  0.00  0.00    +0.002 A 
ATOM     11  C   LIG    1       23.438 -21.405   6.488  0.00  0.00    +0.024 A 
ATOM     12  C   LIG    1       27.344 -19.577   5.533  0.00  0.00    +0.034 A 
ATOM     13  C   LIG    1       28.629 -19.077   5.225  0.00  0.00    +0.019 A 
ATOM     14  C   LIG    1       29.685 -19.217   6.112  0.00  0.00    +0.030 A 
ENDROOT
BRANCH   1  15
ATOM     15  S   LIG    1       30.799 -20.054   8.457  0.00  0.00    +0.060 S 
ATOM     16  O   LIG    1       32.038 -19.828   7.746  0.00  0.00    -0.153 OA
ATOM     17  O   LIG    1       30.458 -19.288   9.639  0.00  0.00    -0.153 OA
BRANCH  15  19
ATOM     18  C   LIG    1       31.871 -22.526   8.388  0.00  0.00    +0.131 C 
ATOM     19  N   LIG    1       30.724 -21.717   8.852  0.00  0.00    -0.183 NA
ATOM     20  C   LIG    1       30.395 -21.967  10.273  0.00  0.00    +0.131 C 
ENDBRANCH  15  19
ENDBRANCH   1  15
BRANCH   4  21
ATOM     21  C   LIG    1       25.628 -21.510   8.332  0.00  0.00    +0.112 C 
BRANCH  21  22
ATOM     22  C   LIG    1       26.290 -22.898   8.291  0.00  0.00    +0.035 C 
BRANCH  22  23
ATOM     23  C   LIG    1       25.971 -23.605   6.966  0.00  0.00    +0.086 C 
BRANCH  23  24
ATOM     24  N   LIG    1       25.093 -24.788   7.081  0.00  0.00    -0.300 NA
ATOM     25  C   LIG    1       24.245 -25.015   5.890  0.00  0.00    +0.100 C 
ATOM     26  C   LIG    1       25.029 -25.411   4.616  0.00  0.00    +0.099 C 
ATOM     27  N   LIG    1       25.931 -26.572   4.775  0.00  0.00    -0.303 NA
ATOM     28  C   LIG    1       25.195 -27.831   4.712  0.00  0.00    +0.105 C 
ATOM     29  C   LIG    1       26.709 -26.464   6.026  0.00  0.00    +0.099 C 
ATOM     30  C   LIG    1       25.907 -26.015   7.276  0.00  0.00    +0.100 C 
ENDBRANCH  23  24
ENDBRANCH  22  23
ENDBRANCH  21  22
ENDBRANCH   4  21
TORSDOF 6
ENDMDL
MODEL 3
REMARK VINA RESULT:      -6.5      6.298     10.163
REMARK  Name = *****
REMARK                            x       y       z     vdW  Elec       q    Type
REMARK                         _______ _______ _______ _____ _____    ______ ____
ROOT
ATOM      1  C   LIG    1       25.319 -27.848   6.505  0.00  0.00    +0.107 A 
ATOM      2  C   LIG    1       25.689 -28.146   7.827  0.00  0.00    +0.053 A 
ATOM      3  C   LIG    1       25.249 -29.319   8.484  0.00  0.00    +0.050 A 
ATOM      4  N   LIG    1       25.626 -29.636   9.827  0.00  0.00    -0.298 N 
ATOM      5  C   LIG    1       25.280 -30.836  10.524  0.00  0.00    +0.048 A 
ATOM      6  C   LIG    1       24.422 -31.803   9.961  0.00  0.00    +0.034 A 
ATOM      7  S   LIG    1       23.696 -31.669   8.349  0.00  0.00    -0.086 S 
ATOM      8  C   LIG    1       24.075 -32.975  10.666  0.00  0.00    +0.017 A 
ATOM      9  C   LIG    1       24.568 -33.222  11.939  0.00  0.00    +0.001 A 
ATOM     10  C   LIG    1       25.419 -32.298  12.516  0.00  0.00    +0.002 A 
ATOM     11  C   LIG    1       25.769 -31.134  11.819  0.00  0.00    +0.024 A 
ATOM     12  C   LIG    1       24.410 -30.168   7.728  0.00  0.00    +0.034 A 
ATOM     13  C   LIG    1       24.063 -29.867   6.392  0.00  0.00    +0.019 A 
ATOM     14  C   LIG    1       24.515 -28.710   5.776  0.00  0.00    +0.030 A 
ENDROOT
BRANCH   1  15
ATOM     15  S   LIG    1       25.912 -26.369   5.722  0.00  0.00    +0.060 S 
ATOM     16  O   LIG    1       27.352 -26.326   5.850  0.00  0.00    -0.153 OA
ATOM     17  O   LIG    1       25.267 -26.295   4.427  0.00  0.00    -0.153 OA
BRANCH  15  19
ATOM     18  C   LIG    1       26.086 -23.905   6.803  0.00  0.00    +0.131 C 
ATOM     19  N   LIG    1       25.267 -25.133   6.716  0.00  0.00    -0.183 NA
ATOM     20  C   LIG    1       23.843 -24.843   6.439  0.00  0.00    +0.131 C 
ENDBRANCH  15  19
ENDBRANCH   1  15
BRANCH   4  21
ATOM     21  C   LIG    1       26.529 -28.691  10.529  0.00  0.00    +0.112 C 
BRANCH  21  22
ATOM     22  C   LIG    1       25.869 -28.120  11.797  0.00  0.00    +0.035 C 
BRANCH  22  23
ATOM     23  C   LIG    1       26.923 -27.461  12.698  0.00  0.00    +0.086 C 
BRANCH  23  24
ATOM     24  N   LIG    1       26.475 -27.164  14.074  0.00  0.00    -0.300 NA
ATOM     25  C   LIG    1       27.450 -26.375  14.858  0.00  0.00    +0.100 C 
ATOM     26  C   LIG    1       27.657 -24.929  14.348  0.00  0.00    +0.099 C 
ATOM     27  N   LIG    1       26.419 -24.134  14.208  0.00  0.00    -0.303 NA
ATOM     28  C   LIG    1       25.971 -23.613  15.496  0.00  0.00    +0.105 C 
ATOM     29  C   LIG    1       25.359 -24.925  13.549  0.00  0.00    +0.099 C 
ATOM     30  C   LIG    1       25.209 -26.387  14.046  0.00  0.00    +0.100 C 
ENDBRANCH  23  24
ENDBRANCH  22  23
ENDBRANCH  21  22
ENDBRANCH   4  21
TORSDOF 6
ENDMDL
MODEL 4
REMARK VINA RESULT:      -6.3      2.977      5.856
REMARK  Name = *****
REMARK                            x       y       z     vdW  Elec       q    Type
REMARK                         _______ _______ _______ _____ _____    ______ ____
ROOT
ATOM      1  C   LIG    1       25.263 -19.782   4.478  0.00  0.00    +0.107 A 
ATOM      2  C   LIG    1       25.883 -20.529   5.494  0.00  0.00    +0.053 A 
ATOM      3  C   LIG    1       27.203 -20.261   5.925  0.00  0.00    +0.050 A 
ATOM      4  N   LIG    1       27.840 -21.009   6.964  0.00  0.00    -0.298 N 
ATOM      5  C   LIG    1       29.140 -20.744   7.499  0.00  0.00    +0.048 A 
ATOM      6  C   LIG    1       29.977 -19.745   6.961  0.00  0.00    +0.034 A 
ATOM      7  S   LIG    1       29.529 -18.700   5.600  0.00  0.00    -0.086 S 
ATOM      8  C   LIG    1       31.264 -19.504   7.488  0.00  0.00    +0.017 A 
ATOM      9  C   LIG    1       31.753 -20.240   8.559  0.00  0.00    +0.001 A 
ATOM     10  C   LIG    1       30.954 -21.221   9.114  0.00  0.00    +0.002 A 
ATOM     11  C   LIG    1       29.674 -21.462   8.596  0.00  0.00    +0.024 A 
ATOM     12  C   LIG    1       27.859 -19.196   5.267  0.00  0.00    +0.034 A 
ATOM     13  C   LIG    1       27.217 -18.439   4.262  0.00  0.00    +0.019 A 
ATOM     14  C   LIG    1       25.919 -18.727   3.865  0.00  0.00    +0.030 A 
ENDROOT
BRANCH   1  15
ATOM     15  S   LIG    1       23.599 -20.154   3.984  0.00  0.00    +0.060 S 
ATOM     16  O   LIG    1       22.847 -18.920   3.935  0.00  0.00    -0.153 OA
ATOM     17  O   LIG    1       23.691 -21.027   2.831  0.00  0.00    -0.153 OA
BRANCH  15  19
ATOM     18  C   LIG    1       23.062 -20.386   6.616  0.00  0.00    +0.131 C 
ATOM     19  N   LIG    1       23.008 -21.068   5.306  0.00  0.00    -0.183 NA
ATOM     20  C   LIG    1       21.690 -21.687   5.046  0.00  0.00    +0.131 C 
ENDBRANCH  15  19
ENDBRANCH   1  15
BRANCH   4  21
ATOM     21  C   LIG    1       27.060 -22.093   7.609  0.00  0.00    +0.112 C 
BRANCH  21  22
ATOM     22  C   LIG    1       26.093 -22.760   6.614  0.00  0.00    +0.035 C 
BRANCH  22  23
ATOM     23  C   LIG    1       25.951 -24.256   6.926  0.00  0.00    +0.086 C 
BRANCH  23  24
ATOM     24  N   LIG    1       26.265 -25.164   5.805  0.00  0.00    -0.300 NA
ATOM     25  C   LIG    1       26.724 -26.503   6.236  0.00  0.00    +0.100 C 
ATOM     26  C   LIG    1       25.640 -27.350   6.944  0.00  0.00    +0.099 C 
ATOM     27  N   LIG    1       24.380 -27.509   6.186  0.00  0.00    -0.303 NA
ATOM     28  C   LIG    1       24.505 -28.535   5.154  0.00  0.00    +0.105 C 
ATOM     29  C   LIG    1       23.945 -26.219   5.613  0.00  0.00    +0.099 C 
ATOM     30  C   LIG    1       25.064 -25.368   4.956  0.00  0.00    +0.100 C 
ENDBRANCH  23  24
ENDBRANCH  22  23
ENDBRANCH  21  22
ENDBRANCH   4  21
TORSDOF 6
ENDMDL
MODEL 5
REMARK VINA RESULT:      -6.3      9.118     11.518
REMARK  Name = *****
REMARK                            x       y       z     vdW  Elec       q    Type
REMARK                         _______ _______ _______ _____ _____    ______ ____
ROOT
ATOM      1  C   LIG    1       22.109 -30.302  11.750  0.00  0.00    +0.107 A 
ATOM      2  C   LIG    1       23.433 -29.835  11.787  0.00  0.00    +0.053 A 
ATOM      3  C   LIG    1       23.780 -28.608  12.399  0.00  0.00    +0.050 A 
ATOM      4  N   LIG    1       25.126 -28.127  12.451  0.00  0.00    -0.298 N 
ATOM      5  C   LIG    1       25.556 -26.936  13.117  0.00  0.00    +0.048 A 
ATOM      6  C   LIG    1       24.641 -26.049  13.720  0.00  0.00    +0.034 A 
ATOM      7  S   LIG    1       22.886 -26.298  13.748  0.00  0.00    -0.086 S 
ATOM      8  C   LIG    1       25.077 -24.869  14.360  0.00  0.00    +0.017 A 
ATOM      9  C   LIG    1       26.424 -24.540  14.423  0.00  0.00    +0.001 A 
ATOM     10  C   LIG    1       27.347 -25.393  13.850  0.00  0.00    +0.002 A 
ATOM     11  C   LIG    1       26.919 -26.568  13.215  0.00  0.00    +0.024 A 
ATOM     12  C   LIG    1       22.709 -27.881  12.967  0.00  0.00    +0.034 A 
ATOM     13  C   LIG    1       21.385 -28.372  12.941  0.00  0.00    +0.019 A 
ATOM     14  C   LIG    1       21.080 -29.582  12.335  0.00  0.00    +0.030 A 
ENDROOT
BRANCH   1  15
ATOM     15  S   LIG    1       21.731 -31.857  10.979  0.00  0.00    +0.060 S 
ATOM     16  O   LIG    1       21.826 -31.695   9.546  0.00  0.00    -0.153 OA
ATOM     17  O   LIG    1       22.503 -32.866  11.677  0.00  0.00    -0.153 OA
BRANCH  15  19
ATOM     18  C   LIG    1       19.148 -31.999  10.222  0.00  0.00    +0.131 C 
ATOM     19  N   LIG    1       20.079 -32.079  11.367  0.00  0.00    -0.183 NA
ATOM     20  C   LIG    1       19.831 -33.267  12.214  0.00  0.00    +0.131 C 
ENDBRANCH  15  19
ENDBRANCH   1  15
BRANCH   4  21
ATOM     21  C   LIG    1       26.183 -28.974  11.846  0.00  0.00    +0.112 C 
BRANCH  21  22
ATOM     22  C   LIG    1       26.528 -28.510  10.420  0.00  0.00    +0.035 C 
BRANCH  22  23
ATOM     23  C   LIG    1       26.649 -29.717   9.479  0.00  0.00    +0.086 C 
BRANCH  23  24
ATOM     24  N   LIG    1       25.395 -30.462   9.249  0.00  0.00    -0.300 NA
ATOM     25  C   LIG    1       24.509 -29.836   8.242  0.00  0.00    +0.100 C 
ATOM     26  C   LIG    1       25.073 -29.850   6.802  0.00  0.00    +0.099 C 
ATOM     27  N   LIG    1       25.478 -31.182   6.304  0.00  0.00    -0.303 NA
ATOM     28  C   LIG    1       24.324 -31.957   5.858  0.00  0.00    +0.105 C 
ATOM     29  C   LIG    1       26.254 -31.911   7.327  0.00  0.00    +0.099 C 
ATOM     30  C   LIG    1       25.693 -31.836   8.772  0.00  0.00    +0.100 C 
ENDBRANCH  23  24
ENDBRANCH  22  23
ENDBRANCH  21  22
ENDBRANCH   4  21
TORSDOF 6
ENDMDL
MODEL 6
REMARK VINA RESULT:      -6.1      5.398      9.220
REMARK  Name = *****
REMARK                            x       y       z     vdW  Elec       q    Type
REMARK                         _______ _______ _______ _____ _____    ______ ____
ROOT
ATOM      1  C   LIG    1       25.059 -25.974   6.246  0.00  0.00    +0.107 A 
ATOM      2  C   LIG    1       25.596 -26.747   7.289  0.00  0.00    +0.053 A 
ATOM      3  C   LIG    1       25.402 -28.146   7.365  0.00  0.00    +0.050 A 
ATOM      4  N   LIG    1       25.952 -28.943   8.417  0.00  0.00    -0.298 N 
ATOM      5  C   LIG    1       25.858 -30.367   8.514  0.00  0.00    +0.048 A 
ATOM      6  C   LIG    1       25.102 -31.128   7.598  0.00  0.00    +0.034 A 
ATOM      7  S   LIG    1       24.211 -30.436   6.230  0.00  0.00    -0.086 S 
ATOM      8  C   LIG    1       25.004 -32.531   7.715  0.00  0.00    +0.017 A 
ATOM      9  C   LIG    1       25.652 -33.215   8.734  0.00  0.00    +0.001 A 
ATOM     10  C   LIG    1       26.407 -32.500   9.643  0.00  0.00    +0.002 A 
ATOM     11  C   LIG    1       26.510 -31.107   9.530  0.00  0.00    +0.024 A 
ATOM     12  C   LIG    1       24.629 -28.715   6.327  0.00  0.00    +0.034 A 
ATOM     13  C   LIG    1       24.112 -27.930   5.273  0.00  0.00    +0.019 A 
ATOM     14  C   LIG    1       24.325 -26.560   5.227  0.00  0.00    +0.030 A 
ENDROOT
BRANCH   1  15
ATOM     15  S   LIG    1       25.345 -24.223   6.192  0.00  0.00    +0.060 S 
ATOM     16  O   LIG    1       26.601 -23.941   6.850  0.00  0.00    -0.153 OA
ATOM     17  O   LIG    1       25.098 -23.802   4.827  0.00  0.00    -0.153 OA
BRANCH  15  19
ATOM     18  C   LIG    1       24.283 -22.213   7.642  0.00  0.00    +0.131 C 
ATOM     19  N   LIG    1       24.092 -23.605   7.181  0.00  0.00    -0.183 NA
ATOM     20  C   LIG    1       22.740 -23.834   6.625  0.00  0.00    +0.131 C 
ENDBRANCH  15  19
ENDBRANCH   1  15
BRANCH   4  21
ATOM     21  C   LIG    1       26.767 -28.255   9.447  0.00  0.00    +0.112 C 
BRANCH  21  22
ATOM     22  C   LIG    1       26.179 -28.452  10.855  0.00  0.00    +0.035 C 
BRANCH  22  23
ATOM     23  C   LIG    1       26.771 -27.426  11.832  0.00  0.00    +0.086 C 
BRANCH  23  24
ATOM     24  N   LIG    1       26.517 -27.701  13.261  0.00  0.00    -0.300 NA
ATOM     25  C   LIG    1       26.880 -26.578  14.154  0.00  0.00    +0.100 C 
ATOM     26  C   LIG    1       25.997 -25.319  13.983  0.00  0.00    +0.099 C 
ATOM     27  N   LIG    1       24.543 -25.556  14.098  0.00  0.00    -0.303 NA
ATOM     28  C   LIG    1       24.128 -25.655  15.495  0.00  0.00    +0.105 C 
ATOM     29  C   LIG    1       24.144 -26.753  13.331  0.00  0.00    +0.099 C 
ATOM     30  C   LIG    1       25.076 -27.985  13.481  0.00  0.00    +0.100 C 
ENDBRANCH  23  24
ENDBRANCH  22  23
ENDBRANCH  21  22
ENDBRANCH   4  21
TORSDOF 6
ENDMDL
MODEL 7
REMARK VINA RESULT:      -5.9      6.029      9.651
REMARK  Name = *****
REMARK                            x       y       z     vdW  Elec       q    Type
REMARK                         _______ _______ _______ _____ _____    ______ ____
ROOT
ATOM      1  C   LIG    1       25.061 -26.537   6.100  0.00  0.00    +0.107 A 
ATOM      2  C   LIG    1       25.592 -27.259   7.181  0.00  0.00    +0.053 A 
ATOM      3  C   LIG    1       25.306 -28.629   7.384  0.00  0.00    +0.050 A 
ATOM      4  N   LIG    1       25.849 -29.375   8.477  0.00  0.00    -0.298 N 
ATOM      5  C   LIG    1       25.662 -30.777   8.698  0.00  0.00    +0.048 A 
ATOM      6  C   LIG    1       24.814 -31.553   7.882  0.00  0.00    +0.034 A 
ATOM      7  S   LIG    1       23.909 -30.913   6.498  0.00  0.00    -0.086 S 
ATOM      8  C   LIG    1       24.625 -32.931   8.121  0.00  0.00    +0.017 A 
ATOM      9  C   LIG    1       25.271 -33.575   9.167  0.00  0.00    +0.001 A 
ATOM     10  C   LIG    1       26.116 -32.844   9.981  0.00  0.00    +0.002 A 
ATOM     11  C   LIG    1       26.309 -31.476   9.745  0.00  0.00    +0.024 A 
ATOM     12  C   LIG    1       24.449 -29.224   6.431  0.00  0.00    +0.034 A 
ATOM     13  C   LIG    1       23.937 -28.493   5.336  0.00  0.00    +0.019 A 
ATOM     14  C   LIG    1       24.241 -27.150   5.165  0.00  0.00    +0.030 A 
ENDROOT
BRANCH   1  15
ATOM     15  S   LIG    1       25.464 -24.821   5.885  0.00  0.00    +0.060 S 
ATOM     16  O   LIG    1       26.836 -24.617   6.293  0.00  0.00    -0.153 OA
ATOM     17  O   LIG    1       25.007 -24.448   4.562  0.00  0.00    -0.153 OA
BRANCH  15  19
ATOM     18  C   LIG    1       24.931 -22.727   7.497  0.00  0.00    +0.131 C 
ATOM     19  N   LIG    1       24.461 -24.051   7.039  0.00  0.00    -0.183 NA
ATOM     20  C   LIG    1       23.031 -24.041   6.657  0.00  0.00    +0.131 C 
ENDBRANCH  15  19
ENDBRANCH   1  15
BRANCH   4  21
ATOM     21  C   LIG    1       26.757 -28.666   9.410  0.00  0.00    +0.112 C 
BRANCH  21  22
ATOM     22  C   LIG    1       26.082 -28.412  10.769  0.00  0.00    +0.035 C 
BRANCH  22  23
ATOM     23  C   LIG    1       27.129 -28.031  11.825  0.00  0.00    +0.086 C 
BRANCH  23  24
ATOM     24  N   LIG    1       26.687 -28.174  13.227  0.00  0.00    -0.300 NA
ATOM     25  C   LIG    1       25.856 -29.375  13.467  0.00  0.00    +0.100 C 
ATOM     26  C   LIG    1       26.612 -30.715  13.307  0.00  0.00    +0.099 C 
ATOM     27  N   LIG    1       27.847 -30.834  14.111  0.00  0.00    -0.303 NA
ATOM     28  C   LIG    1       27.549 -31.171  15.500  0.00  0.00    +0.105 C 
ATOM     29  C   LIG    1       28.655 -29.601  14.017  0.00  0.00    +0.099 C 
ATOM     30  C   LIG    1       27.863 -28.272  14.129  0.00  0.00    +0.100 C 
ENDBRANCH  23  24
ENDBRANCH  22  23
ENDBRANCH  21  22
ENDBRANCH   4  21
TORSDOF 6
ENDMDL
MODEL 8
REMARK VINA RESULT:      -5.8      9.051     10.588
REMARK  Name = *****
REMARK                            x       y       z     vdW  Elec       q    Type
REMARK                         _______ _______ _______ _____ _____    ______ ____
ROOT
ATOM      1  C   LIG    1       24.786 -27.287  13.130  0.00  0.00    +0.107 A 
ATOM      2  C   LIG    1       23.916 -28.369  12.913  0.00  0.00    +0.053 A 
ATOM      3  C   LIG    1       22.569 -28.348  13.344  0.00  0.00    +0.050 A 
ATOM      4  N   LIG    1       21.673 -29.440  13.120  0.00  0.00    -0.298 N 
ATOM      5  C   LIG    1       20.283 -29.455  13.460  0.00  0.00    +0.048 A 
ATOM      6  C   LIG    1       19.676 -28.392  14.161  0.00  0.00    +0.034 A 
ATOM      7  S   LIG    1       20.531 -26.928  14.679  0.00  0.00    -0.086 S 
ATOM      8  C   LIG    1       18.308 -28.427  14.505  0.00  0.00    +0.017 A 
ATOM      9  C   LIG    1       17.507 -29.508  14.163  0.00  0.00    +0.001 A 
ATOM     10  C   LIG    1       18.070 -30.562  13.468  0.00  0.00    +0.002 A 
ATOM     11  C   LIG    1       19.427 -30.531  13.122  0.00  0.00    +0.024 A 
ATOM     12  C   LIG    1       22.155 -27.171  14.008  0.00  0.00    +0.034 A 
ATOM     13  C   LIG    1       23.034 -26.082  14.202  0.00  0.00    +0.019 A 
ATOM     14  C   LIG    1       24.349 -26.134  13.764  0.00  0.00    +0.030 A 
ENDROOT
BRANCH   1  15
ATOM     15  S   LIG    1       26.465 -27.361  12.557  0.00  0.00    +0.060 S 
ATOM     16  O   LIG    1       26.478 -27.982  11.251  0.00  0.00    -0.153 OA
ATOM     17  O   LIG    1       27.037 -26.047  12.773  0.00  0.00    -0.153 OA
BRANCH  15  19
ATOM     18  C   LIG    1       28.094 -29.452  13.048  0.00  0.00    +0.131 C 
ATOM     19  N   LIG    1       27.191 -28.452  13.657  0.00  0.00    -0.183 NA
ATOM     20  C   LIG    1       27.799 -27.784  14.829  0.00  0.00    +0.131 C 
ENDBRANCH  15  19
ENDBRANCH   1  15
BRANCH   4  21
ATOM     21  C   LIG    1       22.196 -30.622  12.393  0.00  0.00    +0.112 C 
BRANCH  21  22
ATOM     22  C   LIG    1       22.012 -30.474  10.872  0.00  0.00    +0.035 C 
BRANCH  22  23
ATOM     23  C   LIG    1       23.359 -30.628  10.152  0.00  0.00    +0.086 C 
BRANCH  23  24
ATOM     24  N   LIG    1       23.277 -30.709   8.680  0.00  0.00    -0.300 NA
ATOM     25  C   LIG    1       24.256 -29.845   7.983  0.00  0.00    +0.100 C 
ATOM     26  C   LIG    1       25.731 -30.272   8.173  0.00  0.00    +0.099 C 
ATOM     27  N   LIG    1       26.022 -31.680   7.829  0.00  0.00    -0.303 NA
ATOM     28  C   LIG    1       26.159 -31.858   6.386  0.00  0.00    +0.105 C 
ATOM     29  C   LIG    1       24.994 -32.580   8.387  0.00  0.00    +0.099 C 
ATOM     30  C   LIG    1       23.527 -32.101   8.227  0.00  0.00    +0.100 C 
ENDBRANCH  23  24
ENDBRANCH  22  23
ENDBRANCH  21  22
ENDBRANCH   4  21
TORSDOF 6
ENDMDL
MODEL 9
REMARK VINA RESULT:      -5.7      9.695     12.234
REMARK  Name = *****
REMARK                            x       y       z     vdW  Elec       q    Type
REMARK                         _______ _______ _______ _____ _____    ______ ____
ROOT
ATOM      1  C   LIG    1       20.165 -30.158  12.761  0.00  0.00    +0.107 A 
ATOM      2  C   LIG    1       21.507 -30.158  12.346  0.00  0.00    +0.053 A 
ATOM      3  C   LIG    1       22.387 -29.093  12.649  0.00  0.00    +0.050 A 
ATOM      4  N   LIG    1       23.757 -29.087  12.239  0.00  0.00    -0.298 N 
ATOM      5  C   LIG    1       24.718 -28.082  12.574  0.00  0.00    +0.048 A 
ATOM      6  C   LIG    1       24.361 -26.916  13.282  0.00  0.00    +0.034 A 
ATOM      7  S   LIG    1       22.719 -26.564  13.852  0.00  0.00    -0.086 S 
ATOM      8  C   LIG    1       25.315 -25.924  13.591  0.00  0.00    +0.017 A 
ATOM      9  C   LIG    1       26.644 -26.061  13.214  0.00  0.00    +0.001 A 
ATOM     10  C   LIG    1       27.029 -27.196  12.527  0.00  0.00    +0.002 A 
ATOM     11  C   LIG    1       26.085 -28.185  12.219  0.00  0.00    +0.024 A 
ATOM     12  C   LIG    1       21.828 -28.028  13.391  0.00  0.00    +0.034 A 
ATOM     13  C   LIG    1       20.483 -28.050  13.820  0.00  0.00    +0.019 A 
ATOM     14  C   LIG    1       19.648 -29.113  13.509  0.00  0.00    +0.030 A 
ENDROOT
BRANCH   1  15
ATOM     15  S   LIG    1       19.107 -31.528  12.364  0.00  0.00    +0.060 S 
ATOM     16  O   LIG    1       19.651 -32.721  12.974  0.00  0.00    -0.153 OA
ATOM     17  O   LIG    1       17.749 -31.097  12.632  0.00  0.00    -0.153 OA
BRANCH  15  19
ATOM     18  C   LIG    1       19.971 -32.916  10.221  0.00  0.00    +0.131 C 
ATOM     19  N   LIG    1       19.301 -31.677  10.670  0.00  0.00    -0.183 NA
ATOM     20  C   LIG    1       18.061 -31.400   9.912  0.00  0.00    +0.131 C 
ENDBRANCH  15  19
ENDBRANCH   1  15
BRANCH   4  21
ATOM     21  C   LIG    1       24.254 -30.262  11.482  0.00  0.00    +0.112 C 
BRANCH  21  22
ATOM     22  C   LIG    1       24.059 -30.079   9.967  0.00  0.00    +0.035 C 
BRANCH  22  23
ATOM     23  C   LIG    1       24.721 -31.233   9.199  0.00  0.00    +0.086 C 
BRANCH  23  24
ATOM     24  N   LIG    1       25.724 -30.824   8.195  0.00  0.00    -0.300 NA
ATOM     25  C   LIG    1       26.491 -31.956   7.628  0.00  0.00    +0.100 C 
ATOM     26  C   LIG    1       25.650 -32.923   6.760  0.00  0.00    +0.099 C 
ATOM     27  N   LIG    1       24.890 -32.280   5.667  0.00  0.00    -0.303 NA
ATOM     28  C   LIG    1       25.746 -31.996   4.519  0.00  0.00    +0.105 C 
ATOM     29  C   LIG    1       24.211 -31.060   6.148  0.00  0.00    +0.099 C 
ATOM     30  C   LIG    1       25.062 -30.135   7.058  0.00  0.00    +0.100 C 
ENDBRANCH  23  24
ENDBRANCH  22  23
ENDBRANCH  21  22
ENDBRANCH   4  21
TORSDOF 6
ENDMDL
