MODEL 1
REMARK VINA RESULT:       5.4      0.000      0.000
REMARK  Name = *****
REMARK                            x       y       z     vdW  Elec       q    Type
REMARK                         _______ _______ _______ _____ _____    ______ ____
ROOT
ATOM      1  C   LIG    1       23.890 -16.466   4.012  0.00  0.00    -0.021 C 
ATOM      2  C   LIG    1       23.495 -17.736   3.733  0.00  0.00    -0.035 C 
ATOM      3  C   LIG    1       24.631 -18.761   3.554  0.00  0.00    +0.059 C 
ATOM      4  C   LIG    1       24.234 -20.095   2.873  0.00  0.00    +0.085 C 
ATOM      5  C   LIG    1       25.416 -21.042   2.856  0.00  0.00    -0.011 C 
ATOM      6  C   LIG    1       26.317 -21.038   3.846  0.00  0.00    +0.009 C 
ATOM      7  C   LIG    1       26.158 -20.146   4.995  0.00  0.00    +0.051 C 
ATOM      8  S   LIG    1       22.912 -20.930   3.823  0.00  0.00    -0.116 S 
ATOM      9  C   LIG    1       21.741 -19.588   3.875  0.00  0.00    +0.016 A 
ATOM     10  C   LIG    1       20.401 -19.982   4.039  0.00  0.00    +0.015 A 
ATOM     11  C   LIG    1       19.369 -19.061   3.911  0.00  0.00    +0.001 A 
ATOM     12  C   LIG    1       19.671 -17.758   3.554  0.00  0.00    +0.001 A 
ATOM     13  C   LIG    1       21.008 -17.360   3.420  0.00  0.00    +0.009 A 
ATOM     14  C   LIG    1       25.388 -19.042   4.856  0.00  0.00    -0.005 C 
ATOM     15  C   LIG    1       22.080 -18.231   3.684  0.00  0.00    -0.008 A 
ENDROOT
BRANCH   7  16
ATOM     16  C   LIG    1       26.830 -20.520   6.294  0.00  0.00    +0.417 C 
ATOM     17  F   LIG    1       26.057 -21.355   7.037  0.00  0.00    -0.166 F 
ATOM     18  F   LIG    1       27.078 -19.427   7.062  0.00  0.00    -0.166 F 
ATOM     19  F   LIG    1       28.022 -21.150   6.118  0.00  0.00    -0.166 F 
ENDBRANCH   7  16
BRANCH   1  20
ATOM     20  C   LIG    1       23.156 -15.215   4.426  0.00  0.00    +0.043 C 
BRANCH  20  21
ATOM     21  C   LIG    1       23.189 -14.153   3.308  0.00  0.00    +0.088 C 
BRANCH  21  25
ATOM     22  N   LIG    1       26.954 -14.263   3.441  0.00  0.00    -0.298 NA
ATOM     23  C   LIG    1       26.041 -14.418   4.592  0.00  0.00    +0.100 C 
ATOM     24  C   LIG    1       24.995 -13.288   4.745  0.00  0.00    +0.100 C 
ATOM     25  N   LIG    1       24.158 -13.065   3.547  0.00  0.00    -0.300 NA
ATOM     26  C   LIG    1       25.059 -12.896   2.383  0.00  0.00    +0.100 C 
ATOM     27  C   LIG    1       26.147 -13.992   2.227  0.00  0.00    +0.100 C 
BRANCH  22  28
ATOM     28  C   LIG    1       27.962 -13.202   3.643  0.00  0.00    +0.112 C 
BRANCH  28  29
ATOM     29  C   LIG    1       28.200 -12.828   5.115  0.00  0.00    +0.171 C 
BRANCH  29  30
ATOM     30  O   LIG    1       29.281 -11.902   5.204  0.00  0.00    -0.394 OA
ATOM     31  H   LIG    1       29.164 -11.266   4.477  0.00  0.00    +0.209 HD
ENDBRANCH  29  30
ENDBRANCH  28  29
ENDBRANCH  22  28
ENDBRANCH  21  25
ENDBRANCH  20  21
ENDBRANCH   1  20
TORSDOF 7
ENDMDL
MODEL 2
REMARK VINA RESULT:       8.4      3.960      6.938
REMARK  Name = *****
REMARK                            x       y       z     vdW  Elec       q    Type
REMARK                         _______ _______ _______ _____ _____    ______ ____
ROOT
ATOM      1  C   LIG    1       25.080 -18.854   3.466  0.00  0.00    -0.021 C 
ATOM      2  C   LIG    1       26.173 -18.073   3.676  0.00  0.00    -0.035 C 
ATOM      3  C   LIG    1       26.116 -16.667   3.050  0.00  0.00    +0.059 C 
ATOM      4  C   LIG    1       27.469 -15.920   2.947  0.00  0.00    +0.085 C 
ATOM      5  C   LIG    1       27.251 -14.519   2.412  0.00  0.00    -0.011 C 
ATOM      6  C   LIG    1       26.130 -13.841   2.692  0.00  0.00    +0.009 C 
ATOM      7  C   LIG    1       25.106 -14.421   3.560  0.00  0.00    +0.051 C 
ATOM      8  S   LIG    1       28.224 -15.731   4.604  0.00  0.00    -0.116 S 
ATOM      9  C   LIG    1       28.201 -17.443   5.095  0.00  0.00    +0.016 A 
ATOM     10  C   LIG    1       29.166 -17.792   6.059  0.00  0.00    +0.015 A 
ATOM     11  C   LIG    1       29.386 -19.121   6.395  0.00  0.00    +0.001 A 
ATOM     12  C   LIG    1       28.687 -20.110   5.722  0.00  0.00    +0.001 A 
ATOM     13  C   LIG    1       27.706 -19.760   4.785  0.00  0.00    +0.009 A 
ATOM     14  C   LIG    1       25.067 -15.766   3.709  0.00  0.00    -0.005 C 
ATOM     15  C   LIG    1       27.359 -18.423   4.527  0.00  0.00    -0.008 A 
ENDROOT
BRANCH   7  16
ATOM     16  C   LIG    1       24.162 -13.489   4.281  0.00  0.00    +0.417 C 
ATOM     17  F   LIG    1       23.292 -14.168   5.073  0.00  0.00    -0.166 F 
ATOM     18  F   LIG    1       23.415 -12.761   3.411  0.00  0.00    -0.166 F 
ATOM     19  F   LIG    1       24.802 -12.597   5.084  0.00  0.00    -0.166 F 
ENDBRANCH   7  16
BRANCH   1  20
ATOM     20  C   LIG    1       24.632 -20.185   4.015  0.00  0.00    +0.043 C 
BRANCH  20  21
ATOM     21  C   LIG    1       23.196 -20.522   3.559  0.00  0.00    +0.088 C 
BRANCH  21  25
ATOM     22  N   LIG    1       22.280 -17.014   4.591  0.00  0.00    -0.298 NA
ATOM     23  C   LIG    1       23.243 -17.896   5.281  0.00  0.00    +0.100 C 
ATOM     24  C   LIG    1       22.693 -19.298   5.640  0.00  0.00    +0.100 C 
ATOM     25  N   LIG    1       22.150 -20.053   4.490  0.00  0.00    -0.300 NA
ATOM     26  C   LIG    1       21.173 -19.185   3.792  0.00  0.00    +0.100 C 
ATOM     27  C   LIG    1       21.681 -17.757   3.457  0.00  0.00    +0.100 C 
BRANCH  22  28
ATOM     28  C   LIG    1       21.226 -16.497   5.489  0.00  0.00    +0.112 C 
BRANCH  28  29
ATOM     29  C   LIG    1       21.754 -15.692   6.688  0.00  0.00    +0.171 C 
BRANCH  29  30
ATOM     30  O   LIG    1       20.905 -14.570   6.921  0.00  0.00    -0.394 OA
ATOM     31  H   LIG    1       21.286 -13.825   6.427  0.00  0.00    +0.209 HD
ENDBRANCH  29  30
ENDBRANCH  28  29
ENDBRANCH  22  28
ENDBRANCH  21  25
ENDBRANCH  20  21
ENDBRANCH   1  20
TORSDOF 7
ENDMDL
