MODEL 1
REMARK VINA RESULT:      -3.5      0.000      0.000
REMARK  Name = *****
REMARK                            x       y       z     vdW  Elec       q    Type
REMARK                         _______ _______ _______ _____ _____    ______ ____
ROOT
ATOM      1  C   LIG    1       24.288 -19.417   3.512  0.00  0.00    +0.051 C 
ATOM      2  C   LIG    1       23.393 -19.321   4.771  0.00  0.00    +0.065 C 
ATOM      3  C   LIG    1       23.918 -20.484   5.592  0.00  0.00    +0.140 C 
ATOM      4  O   LIG    1       23.717 -20.620   6.796  0.00  0.00    -0.297 OA
ATOM      5  C   LIG    1       24.749 -21.451   4.798  0.00  0.00    +0.106 C 
ATOM      6  C   LIG    1       24.596 -20.923   3.377  0.00  0.00    +0.129 C 
ENDROOT
BRANCH   6   7
ATOM      7  O   LIG    1       23.509 -21.572   2.719  0.00  0.00    -0.391 OA
ATOM      8  H   LIG    1       23.267 -22.366   3.227  0.00  0.00    +0.210 HD
ENDBRANCH   6   7
BRANCH   1  10
ATOM      9  C   LIG    1       25.654 -17.284   3.664  0.00  0.00    -0.000 C 
ATOM     10  C   LIG    1       25.575 -18.627   3.671  0.00  0.00    -0.022 C 
BRANCH   9  11
ATOM     11  C   LIG    1       26.923 -16.468   3.750  0.00  0.00    +0.137 C 
BRANCH  11  12
ATOM     12  O   LIG    1       28.023 -17.358   3.618  0.00  0.00    -0.388 OA
ATOM     13  H   LIG    1       28.410 -17.213   2.738  0.00  0.00    +0.210 HD
ENDBRANCH  11  12
BRANCH  11  14
ATOM     14  C   LIG    1       27.028 -15.350   2.702  0.00  0.00    +0.035 C 
BRANCH  14  15
ATOM     15  C   LIG    1       27.436 -13.997   3.293  0.00  0.00    +0.003 C 
BRANCH  15  16
ATOM     16  C   LIG    1       27.203 -13.974   4.808  0.00  0.00    -0.000 C 
BRANCH  16  18
ATOM     17  C   LIG    1       28.936 -12.136   4.715  0.00  0.00    +0.004 C 
ATOM     18  C   LIG    1       27.712 -12.677   5.439  0.00  0.00    -0.003 C 
ENDBRANCH  16  18
ENDBRANCH  15  16
ENDBRANCH  14  15
ENDBRANCH  11  14
ENDBRANCH   9  11
ENDBRANCH   1  10
BRANCH   2  19
ATOM     19  C   LIG    1       21.890 -19.469   4.470  0.00  0.00    +0.011 C 
BRANCH  19  20
ATOM     20  C   LIG    1       21.222 -18.125   4.157  0.00  0.00    +0.001 C 
BRANCH  20  21
ATOM     21  C   LIG    1       22.226 -16.978   4.015  0.00  0.00    +0.000 C 
BRANCH  21  22
ATOM     22  C   LIG    1       22.188 -16.005   5.206  0.00  0.00    +0.000 C 
BRANCH  22  23
ATOM     23  C   LIG    1       23.190 -14.854   5.060  0.00  0.00    +0.011 C 
BRANCH  23  24
ATOM     24  C   LIG    1       23.451 -14.483   3.600  0.00  0.00    +0.120 C 
BRANCH  24  25
ATOM     25  C   LIG    1       23.991 -13.077   3.449  0.00  0.00    +0.305 C 
ATOM     26  O   LIG    1       24.442 -12.640   2.410  0.00  0.00    -0.251 OA
BRANCH  25  27
ATOM     27  O   LIG    1       23.885 -12.315   4.564  0.00  0.00    -0.481 OA
ATOM     28  H   LIG    1       23.078 -12.458   5.089  0.00  0.00    +0.295 HD
ENDBRANCH  25  27
ENDBRANCH  24  25
ENDBRANCH  23  24
ENDBRANCH  22  23
ENDBRANCH  21  22
ENDBRANCH  20  21
ENDBRANCH  19  20
ENDBRANCH   2  19
TORSDOF 16
ENDMDL
MODEL 2
REMARK VINA RESULT:      -3.1      2.089      4.772
REMARK  Name = *****
REMARK                            x       y       z     vdW  Elec       q    Type
REMARK                         _______ _______ _______ _____ _____    ______ ____
ROOT
ATOM      1  C   LIG    1       21.979 -17.884   4.924  0.00  0.00    +0.051 C 
ATOM      2  C   LIG    1       23.147 -18.853   5.227  0.00  0.00    +0.065 C 
ATOM      3  C   LIG    1       23.656 -19.143   3.827  0.00  0.00    +0.140 C 
ATOM      4  O   LIG    1       24.759 -19.625   3.584  0.00  0.00    -0.297 OA
ATOM      5  C   LIG    1       22.692 -18.747   2.745  0.00  0.00    +0.106 C 
ATOM      6  C   LIG    1       21.461 -18.330   3.541  0.00  0.00    +0.129 C 
ENDROOT
BRANCH   6   7
ATOM      7  O   LIG    1       20.573 -19.434   3.701  0.00  0.00    -0.391 OA
ATOM      8  H   LIG    1       21.060 -20.256   3.515  0.00  0.00    +0.210 HD
ENDBRANCH   6   7
BRANCH   1  10
ATOM      9  C   LIG    1       23.378 -15.965   4.032  0.00  0.00    -0.000 C 
ATOM     10  C   LIG    1       22.442 -16.439   4.874  0.00  0.00    -0.022 C 
BRANCH   9  11
ATOM     11  C   LIG    1       23.913 -14.551   4.003  0.00  0.00    +0.137 C 
BRANCH  11  12
ATOM     12  O   LIG    1       24.086 -14.123   5.347  0.00  0.00    -0.388 OA
ATOM     13  H   LIG    1       23.880 -13.173   5.378  0.00  0.00    +0.210 HD
ENDBRANCH  11  12
BRANCH  11  14
ATOM     14  C   LIG    1       25.231 -14.390   3.231  0.00  0.00    +0.035 C 
BRANCH  14  15
ATOM     15  C   LIG    1       26.167 -15.596   3.366  0.00  0.00    +0.003 C 
BRANCH  15  16
ATOM     16  C   LIG    1       27.481 -15.190   4.043  0.00  0.00    -0.000 C 
BRANCH  16  18
ATOM     17  C   LIG    1       28.537 -12.919   3.699  0.00  0.00    +0.004 C 
ATOM     18  C   LIG    1       27.477 -13.715   4.446  0.00  0.00    -0.003 C 
ENDBRANCH  16  18
ENDBRANCH  15  16
ENDBRANCH  14  15
ENDBRANCH  11  14
ENDBRANCH   9  11
ENDBRANCH   1  10
BRANCH   2  19
ATOM     19  C   LIG    1       22.706 -20.140   5.950  0.00  0.00    +0.011 C 
BRANCH  19  20
ATOM     20  C   LIG    1       23.794 -21.221   5.932  0.00  0.00    +0.001 C 
BRANCH  20  21
ATOM     21  C   LIG    1       24.856 -21.016   7.016  0.00  0.00    +0.000 C 
BRANCH  21  22
ATOM     22  C   LIG    1       26.254 -21.480   6.573  0.00  0.00    +0.000 C 
BRANCH  22  23
ATOM     23  C   LIG    1       27.347 -20.456   6.902  0.00  0.00    +0.011 C 
BRANCH  23  24
ATOM     24  C   LIG    1       27.731 -19.598   5.698  0.00  0.00    +0.120 C 
BRANCH  24  25
ATOM     25  C   LIG    1       28.958 -18.751   5.959  0.00  0.00    +0.305 C 
ATOM     26  O   LIG    1       29.475 -18.636   7.052  0.00  0.00    -0.251 OA
BRANCH  25  27
ATOM     27  O   LIG    1       29.475 -18.160   4.854  0.00  0.00    -0.481 OA
ATOM     28  H   LIG    1       29.768 -18.771   4.156  0.00  0.00    +0.295 HD
ENDBRANCH  25  27
ENDBRANCH  24  25
ENDBRANCH  23  24
ENDBRANCH  22  23
ENDBRANCH  21  22
ENDBRANCH  20  21
ENDBRANCH  19  20
ENDBRANCH   2  19
TORSDOF 16
ENDMDL
MODEL 3
REMARK VINA RESULT:      -2.6      1.906      6.475
REMARK  Name = *****
REMARK                            x       y       z     vdW  Elec       q    Type
REMARK                         _______ _______ _______ _____ _____    ______ ____
ROOT
ATOM      1  C   LIG    1       27.348 -14.523   4.671  0.00  0.00    +0.051 C 
ATOM      2  C   LIG    1       26.037 -13.942   4.087  0.00  0.00    +0.065 C 
ATOM      3  C   LIG    1       26.522 -13.414   2.749  0.00  0.00    +0.140 C 
ATOM      4  O   LIG    1       25.780 -13.134   1.812  0.00  0.00    -0.297 OA
ATOM      5  C   LIG    1       28.018 -13.296   2.658  0.00  0.00    +0.106 C 
ATOM      6  C   LIG    1       28.458 -13.631   4.078  0.00  0.00    +0.129 C 
ENDROOT
BRANCH   6   7
ATOM      7  O   LIG    1       28.577 -12.442   4.857  0.00  0.00    -0.391 OA
ATOM      8  H   LIG    1       29.059 -11.776   4.337  0.00  0.00    +0.210 HD
ENDBRANCH   6   7
BRANCH   1  10
ATOM      9  C   LIG    1       26.566 -16.853   4.039  0.00  0.00    -0.000 C 
ATOM     10  C   LIG    1       27.557 -15.970   4.259  0.00  0.00    -0.022 C 
BRANCH   9  11
ATOM     11  C   LIG    1       26.739 -18.316   3.698  0.00  0.00    +0.137 C 
BRANCH  11  12
ATOM     12  O   LIG    1       27.728 -18.852   4.566  0.00  0.00    -0.388 OA
ATOM     13  H   LIG    1       28.385 -19.307   4.013  0.00  0.00    +0.210 HD
ENDBRANCH  11  12
BRANCH  11  14
ATOM     14  C   LIG    1       25.450 -19.145   3.801  0.00  0.00    +0.035 C 
BRANCH  14  15
ATOM     15  C   LIG    1       25.646 -20.490   4.509  0.00  0.00    +0.003 C 
BRANCH  15  16
ATOM     16  C   LIG    1       24.774 -20.572   5.768  0.00  0.00    -0.000 C 
BRANCH  16  18
ATOM     17  C   LIG    1       27.044 -21.027   6.784  0.00  0.00    +0.004 C 
ATOM     18  C   LIG    1       25.619 -20.558   7.042  0.00  0.00    -0.003 C 
ENDBRANCH  16  18
ENDBRANCH  15  16
ENDBRANCH  14  15
ENDBRANCH  11  14
ENDBRANCH   9  11
ENDBRANCH   1  10
BRANCH   2  19
ATOM     19  C   LIG    1       25.422 -12.825   4.950  0.00  0.00    +0.011 C 
BRANCH  19  20
ATOM     20  C   LIG    1       23.899 -12.952   5.069  0.00  0.00    +0.001 C 
BRANCH  20  21
ATOM     21  C   LIG    1       23.324 -14.079   4.207  0.00  0.00    +0.000 C 
BRANCH  21  22
ATOM     22  C   LIG    1       22.888 -15.298   5.039  0.00  0.00    +0.000 C 
BRANCH  22  23
ATOM     23  C   LIG    1       22.762 -16.572   4.196  0.00  0.00    +0.011 C 
BRANCH  23  24
ATOM     24  C   LIG    1       22.288 -17.774   5.013  0.00  0.00    +0.120 C 
BRANCH  24  25
ATOM     25  C   LIG    1       21.507 -18.767   4.181  0.00  0.00    +0.305 C 
ATOM     26  O   LIG    1       20.564 -18.461   3.479  0.00  0.00    -0.251 OA
BRANCH  25  27
ATOM     27  O   LIG    1       21.977 -20.037   4.240  0.00  0.00    -0.481 OA
ATOM     28  H   LIG    1       21.830 -20.494   5.086  0.00  0.00    +0.295 HD
ENDBRANCH  25  27
ENDBRANCH  24  25
ENDBRANCH  23  24
ENDBRANCH  22  23
ENDBRANCH  21  22
ENDBRANCH  20  21
ENDBRANCH  19  20
ENDBRANCH   2  19
TORSDOF 16
ENDMDL
MODEL 4
REMARK VINA RESULT:      -2.4      1.612      6.333
REMARK  Name = *****
REMARK                            x       y       z     vdW  Elec       q    Type
REMARK                         _______ _______ _______ _____ _____    ______ ____
ROOT
ATOM      1  C   LIG    1       24.659 -13.196   5.292  0.00  0.00    +0.051 C 
ATOM      2  C   LIG    1       24.047 -14.085   4.182  0.00  0.00    +0.065 C 
ATOM      3  C   LIG    1       23.923 -13.089   3.044  0.00  0.00    +0.140 C 
ATOM      4  O   LIG    1       23.766 -13.406   1.869  0.00  0.00    -0.297 OA
ATOM      5  C   LIG    1       24.046 -11.658   3.485  0.00  0.00    +0.106 C 
ATOM      6  C   LIG    1       24.099 -11.787   5.003  0.00  0.00    +0.129 C 
ENDROOT
BRANCH   6   7
ATOM      7  O   LIG    1       22.791 -11.673   5.559  0.00  0.00    -0.391 OA
ATOM      8  H   LIG    1       22.569 -12.508   6.005  0.00  0.00    +0.210 HD
ENDBRANCH   6   7
BRANCH   1  10
ATOM      9  C   LIG    1       26.912 -12.220   4.653  0.00  0.00    -0.000 C 
ATOM     10  C   LIG    1       26.176 -13.184   5.234  0.00  0.00    -0.022 C 
BRANCH   9  11
ATOM     11  C   LIG    1       28.418 -12.211   4.517  0.00  0.00    +0.137 C 
BRANCH  11  12
ATOM     12  O   LIG    1       28.973 -12.125   5.822  0.00  0.00    -0.388 OA
ATOM     13  H   LIG    1       29.223 -13.024   6.092  0.00  0.00    +0.210 HD
ENDBRANCH  11  12
BRANCH  11  14
ATOM     14  C   LIG    1       28.992 -13.434   3.786  0.00  0.00    +0.035 C 
BRANCH  14  15
ATOM     15  C   LIG    1       27.943 -14.215   2.987  0.00  0.00    +0.003 C 
BRANCH  15  16
ATOM     16  C   LIG    1       27.534 -15.491   3.731  0.00  0.00    -0.000 C 
BRANCH  16  18
ATOM     17  C   LIG    1       26.155 -17.581   3.384  0.00  0.00    +0.004 C 
ATOM     18  C   LIG    1       26.233 -16.075   3.179  0.00  0.00    -0.003 C 
ENDBRANCH  16  18
ENDBRANCH  15  16
ENDBRANCH  14  15
ENDBRANCH  11  14
ENDBRANCH   9  11
ENDBRANCH   1  10
BRANCH   2  19
ATOM     19  C   LIG    1       22.682 -14.690   4.561  0.00  0.00    +0.011 C 
BRANCH  19  20
ATOM     20  C   LIG    1       22.815 -16.080   5.194  0.00  0.00    +0.001 C 
BRANCH  20  21
ATOM     21  C   LIG    1       21.965 -17.140   4.489  0.00  0.00    +0.000 C 
BRANCH  21  22
ATOM     22  C   LIG    1       22.759 -18.417   4.163  0.00  0.00    +0.000 C 
BRANCH  22  23
ATOM     23  C   LIG    1       22.388 -19.592   5.076  0.00  0.00    +0.011 C 
BRANCH  23  24
ATOM     24  C   LIG    1       23.613 -20.282   5.673  0.00  0.00    +0.120 C 
BRANCH  24  25
ATOM     25  C   LIG    1       24.487 -20.924   4.617  0.00  0.00    +0.305 C 
ATOM     26  O   LIG    1       24.053 -21.433   3.604  0.00  0.00    -0.251 OA
BRANCH  25  27
ATOM     27  O   LIG    1       25.816 -20.841   4.867  0.00  0.00    -0.481 OA
ATOM     28  H   LIG    1       26.237 -20.005   4.599  0.00  0.00    +0.295 HD
ENDBRANCH  25  27
ENDBRANCH  24  25
ENDBRANCH  23  24
ENDBRANCH  22  23
ENDBRANCH  21  22
ENDBRANCH  20  21
ENDBRANCH  19  20
ENDBRANCH   2  19
TORSDOF 16
ENDMDL
MODEL 5
REMARK VINA RESULT:      -1.8      1.975      6.506
REMARK  Name = *****
REMARK                            x       y       z     vdW  Elec       q    Type
REMARK                         _______ _______ _______ _____ _____    ______ ____
ROOT
ATOM      1  C   LIG    1       26.669 -14.741   3.849  0.00  0.00    +0.051 C 
ATOM      2  C   LIG    1       27.240 -13.654   2.907  0.00  0.00    +0.065 C 
ATOM      3  C   LIG    1       28.350 -13.076   3.767  0.00  0.00    +0.140 C 
ATOM      4  O   LIG    1       29.271 -12.392   3.330  0.00  0.00    -0.297 OA
ATOM      5  C   LIG    1       28.242 -13.453   5.217  0.00  0.00    +0.106 C 
ATOM      6  C   LIG    1       26.902 -14.179   5.267  0.00  0.00    +0.129 C 
ENDROOT
BRANCH   6   7
ATOM      7  O   LIG    1       25.854 -13.269   5.595  0.00  0.00    -0.391 OA
ATOM      8  H   LIG    1       26.250 -12.438   5.911  0.00  0.00    +0.210 HD
ENDBRANCH   6   7
BRANCH   1  10
ATOM      9  C   LIG    1       27.385 -17.059   4.590  0.00  0.00    -0.000 C 
ATOM     10  C   LIG    1       27.388 -16.068   3.681  0.00  0.00    -0.022 C 
BRANCH   9  11
ATOM     11  C   LIG    1       28.145 -18.362   4.487  0.00  0.00    +0.137 C 
BRANCH  11  12
ATOM     12  O   LIG    1       29.474 -18.127   4.932  0.00  0.00    -0.388 OA
ATOM     13  H   LIG    1       30.074 -18.532   4.283  0.00  0.00    +0.210 HD
ENDBRANCH  11  12
BRANCH  11  14
ATOM     14  C   LIG    1       27.526 -19.520   5.285  0.00  0.00    +0.035 C 
BRANCH  14  15
ATOM     15  C   LIG    1       26.025 -19.701   5.031  0.00  0.00    +0.003 C 
BRANCH  15  16
ATOM     16  C   LIG    1       25.468 -20.852   5.876  0.00  0.00    -0.000 C 
BRANCH  16  18
ATOM     17  C   LIG    1       23.027 -21.511   5.915  0.00  0.00    +0.004 C 
ATOM     18  C   LIG    1       24.076 -20.530   6.421  0.00  0.00    -0.003 C 
ENDBRANCH  16  18
ENDBRANCH  15  16
ENDBRANCH  14  15
ENDBRANCH  11  14
ENDBRANCH   9  11
ENDBRANCH   1  10
BRANCH   2  19
ATOM     19  C   LIG    1       26.210 -12.579   2.512  0.00  0.00    +0.011 C 
BRANCH  19  20
ATOM     20  C   LIG    1       24.856 -13.185   2.123  0.00  0.00    +0.001 C 
BRANCH  20  21
ATOM     21  C   LIG    1       23.853 -13.196   3.281  0.00  0.00    +0.000 C 
BRANCH  21  22
ATOM     22  C   LIG    1       22.972 -14.457   3.290  0.00  0.00    +0.000 C 
BRANCH  22  23
ATOM     23  C   LIG    1       23.260 -15.369   4.488  0.00  0.00    +0.011 C 
BRANCH  23  24
ATOM     24  C   LIG    1       23.884 -16.702   4.077  0.00  0.00    +0.120 C 
BRANCH  24  25
ATOM     25  C   LIG    1       22.894 -17.846   4.135  0.00  0.00    +0.305 C 
ATOM     26  O   LIG    1       23.051 -18.900   3.553  0.00  0.00    -0.251 OA
BRANCH  25  27
ATOM     27  O   LIG    1       21.826 -17.620   4.939  0.00  0.00    -0.481 OA
ATOM     28  H   LIG    1       22.030 -17.189   5.787  0.00  0.00    +0.295 HD
ENDBRANCH  25  27
ENDBRANCH  24  25
ENDBRANCH  23  24
ENDBRANCH  22  23
ENDBRANCH  21  22
ENDBRANCH  20  21
ENDBRANCH  19  20
ENDBRANCH   2  19
TORSDOF 16
ENDMDL
MODEL 6
REMARK VINA RESULT:      -0.7      1.797      6.533
REMARK  Name = *****
REMARK                            x       y       z     vdW  Elec       q    Type
REMARK                         _______ _______ _______ _____ _____    ______ ____
ROOT
ATOM      1  C   LIG    1       26.225 -14.537   4.968  0.00  0.00    +0.051 C 
ATOM      2  C   LIG    1       25.085 -14.500   3.921  0.00  0.00    +0.065 C 
ATOM      3  C   LIG    1       25.606 -13.448   2.959  0.00  0.00    +0.140 C 
ATOM      4  O   LIG    1       25.186 -13.294   1.816  0.00  0.00    -0.297 OA
ATOM      5  C   LIG    1       26.725 -12.620   3.526  0.00  0.00    +0.106 C 
ATOM      6  C   LIG    1       26.787 -13.100   4.971  0.00  0.00    +0.129 C 
ENDROOT
BRANCH   6   7
ATOM      7  O   LIG    1       25.976 -12.275   5.805  0.00  0.00    -0.391 OA
ATOM      8  H   LIG    1       25.786 -11.446   5.332  0.00  0.00    +0.210 HD
ENDBRANCH   6   7
BRANCH   1  10
ATOM      9  C   LIG    1       27.277 -16.843   4.869  0.00  0.00    -0.000 C 
ATOM     10  C   LIG    1       27.309 -15.528   4.588  0.00  0.00    -0.022 C 
BRANCH   9  11
ATOM     11  C   LIG    1       28.370 -17.844   4.568  0.00  0.00    +0.137 C 
BRANCH  11  12
ATOM     12  O   LIG    1       29.471 -17.556   5.419  0.00  0.00    -0.388 OA
ATOM     13  H   LIG    1       29.643 -18.350   5.952  0.00  0.00    +0.210 HD
ENDBRANCH  11  12
BRANCH  11  14
ATOM     14  C   LIG    1       27.948 -19.311   4.741  0.00  0.00    +0.035 C 
BRANCH  14  15
ATOM     15  C   LIG    1       26.429 -19.517   4.702  0.00  0.00    +0.003 C 
BRANCH  15  16
ATOM     16  C   LIG    1       26.019 -20.694   5.595  0.00  0.00    -0.000 C 
BRANCH  16  18
ATOM     17  C   LIG    1       28.254 -20.759   6.774  0.00  0.00    +0.004 C 
ATOM     18  C   LIG    1       26.744 -20.662   6.941  0.00  0.00    -0.003 C 
ENDBRANCH  16  18
ENDBRANCH  15  16
ENDBRANCH  14  15
ENDBRANCH  11  14
ENDBRANCH   9  11
ENDBRANCH   1  10
BRANCH   2  19
ATOM     19  C   LIG    1       23.719 -14.104   4.512  0.00  0.00    +0.011 C 
BRANCH  19  20
ATOM     20  C   LIG    1       23.020 -15.280   5.205  0.00  0.00    +0.001 C 
BRANCH  20  21
ATOM     21  C   LIG    1       22.565 -16.365   4.225  0.00  0.00    +0.000 C 
BRANCH  21  22
ATOM     22  C   LIG    1       23.586 -17.507   4.087  0.00  0.00    +0.000 C 
BRANCH  22  23
ATOM     23  C   LIG    1       22.920 -18.871   3.870  0.00  0.00    +0.011 C 
BRANCH  23  24
ATOM     24  C   LIG    1       22.285 -19.425   5.145  0.00  0.00    +0.120 C 
BRANCH  24  25
ATOM     25  C   LIG    1       22.817 -20.795   5.508  0.00  0.00    +0.305 C 
ATOM     26  O   LIG    1       22.900 -21.203   6.648  0.00  0.00    -0.251 OA
BRANCH  25  27
ATOM     27  O   LIG    1       23.153 -21.563   4.443  0.00  0.00    -0.481 OA
ATOM     28  H   LIG    1       23.147 -22.522   4.606  0.00  0.00    +0.295 HD
ENDBRANCH  25  27
ENDBRANCH  24  25
ENDBRANCH  23  24
ENDBRANCH  22  23
ENDBRANCH  21  22
ENDBRANCH  20  21
ENDBRANCH  19  20
ENDBRANCH   2  19
TORSDOF 16
ENDMDL
