MODEL 1
REMARK VINA RESULT:      11.0      0.000      0.000
REMARK  Name = *****
REMARK                            x       y       z     vdW  Elec       q    Type
REMARK                         _______ _______ _______ _____ _____    ______ ____
ROOT
ATOM      1  C   LIG    1       24.534 -14.786   4.361  0.00  0.00    +0.210 A 
ATOM      2  N   LIG    1       24.559 -16.161   4.470  0.00  0.00    -0.187 NA
ATOM      3  C   LIG    1       23.284 -16.479   4.500  0.00  0.00    +0.259 A 
ATOM      4  O   LIG    1       22.470 -15.383   4.479  0.00  0.00    -0.333 OA
ATOM      5  N   LIG    1       23.295 -14.272   4.371  0.00  0.00    -0.055 NA
ENDROOT
BRANCH   1   8
ATOM      6  C   LIG    1       26.529 -14.774   6.526  0.00  0.00    +0.046 C 
ATOM      7  C   LIG    1       26.721 -13.937   5.276  0.00  0.00    -0.008 C 
ATOM      8  C   LIG    1       25.746 -13.965   4.237  0.00  0.00    +0.112 C 
ATOM      9  C   LIG    1       25.943 -13.171   3.084  0.00  0.00    +0.300 C 
ATOM     10 CL   LIG    1       24.743 -13.089   1.812  0.00  0.00    -0.009 Cl
ATOM     11  N   LIG    1       27.096 -12.380   2.951  0.00  0.00    -0.156 NA
ATOM     12  O   LIG    1       27.281 -11.668   1.901  0.00  0.00    -0.619 OA
ATOM     13  C   LIG    1       28.052 -12.348   3.968  0.00  0.00    +0.212 C 
ATOM     14  C   LIG    1       29.231 -11.451   3.719  0.00  0.00    +0.125 C 
ATOM     15  C   LIG    1       27.855 -13.109   5.131  0.00  0.00    +0.112 C 
ATOM     16 CL   LIG    1       29.035 -13.008   6.403  0.00  0.00    -0.077 Cl
ENDBRANCH   1   8
BRANCH   3  17
ATOM     17  C   LIG    1       22.626 -17.784   4.520  0.00  0.00    +0.050 A 
ATOM     18  C   LIG    1       23.106 -18.836   5.318  0.00  0.00    +0.101 A 
ATOM     19  C   LIG    1       22.445 -20.076   5.321  0.00  0.00    +0.318 A 
ATOM     20  C   LIG    1       21.322 -20.292   4.539  0.00  0.00    +0.237 A 
ATOM     21  C   LIG    1       20.840 -19.245   3.755  0.00  0.00    +0.166 A 
ATOM     22  C   LIG    1       21.476 -18.002   3.739  0.00  0.00    +0.062 A 
BRANCH  19  23
ATOM     23  N   LIG    1       22.982 -21.132   6.154  0.00  0.00    +0.084 N 
ATOM     24  O   LIG    1       24.156 -21.453   5.959  0.00  0.00    -0.576 OA
ATOM     25  O   LIG    1       22.252 -21.571   7.061  0.00  0.00    +0.042 OA
ENDBRANCH  19  23
BRANCH  20  26
ATOM     26  O   LIG    1       20.687 -21.498   4.489  0.00  0.00    -0.499 OA
ATOM     27  H   LIG    1       21.392 -22.176   4.554  0.00  0.00    +0.292 HD
ENDBRANCH  20  26
BRANCH  21  28
ATOM     28  O   LIG    1       19.726 -19.493   3.000  0.00  0.00    -0.503 OA
ATOM     29  H   LIG    1       19.405 -18.654   2.620  0.00  0.00    +0.292 HD
ENDBRANCH  21  28
ENDBRANCH   3  17
TORSDOF 5
ENDMDL
