MODEL 1
REMARK VINA RESULT:      -8.3      0.000      0.000
REMARK  Name = *****
REMARK                            x       y       z     vdW  Elec       q    Type
REMARK                         _______ _______ _______ _____ _____    ______ ____
ROOT
ATOM      1  C   LIG    1       25.484 -23.659   6.197  0.00  0.00    +0.158 C 
ATOM      2  N   LIG    1       25.131 -22.480   7.035  0.00  0.00    -0.197 N 
ATOM      3  S   LIG    1       23.459 -22.078   6.995  0.00  0.00    +0.076 S 
ATOM      4  O   LIG    1       23.171 -21.220   8.122  0.00  0.00    -0.150 OA
ATOM      5  O   LIG    1       22.685 -23.250   6.675  0.00  0.00    -0.150 OA
ATOM      6  C   LIG    1       23.250 -21.033   5.641  0.00  0.00    +0.127 A 
ATOM      7  C   LIG    1       24.329 -20.390   5.080  0.00  0.00    +0.087 A 
ATOM      8  S   LIG    1       23.847 -19.422   3.760  0.00  0.00    -0.091 S 
ATOM      9  C   LIG    1       22.191 -19.807   4.001  0.00  0.00    +0.048 A 
ATOM     10  C   LIG    1       25.709 -20.450   5.534  0.00  0.00    +0.222 C 
ATOM     11  O   LIG    1       26.644 -19.862   4.999  0.00  0.00    -0.284 OA
ATOM     12  C   LIG    1       22.008 -20.690   5.044  0.00  0.00    +0.037 A 
ATOM     13  C   LIG    1       25.940 -21.295   6.764  0.00  0.00    +0.156 C 
ATOM     14  C   LIG    1       26.876 -21.060   7.705  0.00  0.00    +0.210 C 
ENDROOT
BRANCH  14  15
ATOM     15  N   LIG    1       27.768 -20.013   7.713  0.00  0.00    -0.269 N 
ATOM     16  H   LIG    1       27.380 -19.072   7.724  0.00  0.00    +0.157 HD
BRANCH  15  17
ATOM     17  C   LIG    1       29.122 -19.980   8.051  0.00  0.00    +0.125 A 
ATOM     18  N   LIG    1       29.662 -21.159   8.433  0.00  0.00    -0.240 NA
ATOM     19  C   LIG    1       30.976 -21.178   8.760  0.00  0.00    +0.113 A 
ATOM     20  C   LIG    1       31.792 -20.062   8.762  0.00  0.00    +0.020 A 
ATOM     21  C   LIG    1       31.228 -18.852   8.396  0.00  0.00    +0.005 A 
ATOM     22  C   LIG    1       29.885 -18.814   8.032  0.00  0.00    +0.044 A 
ENDBRANCH  15  17
ENDBRANCH  14  15
BRANCH  14  23
ATOM     23  O   LIG    1       26.907 -21.905   8.811  0.00  0.00    -0.494 OA
ATOM     24  H   LIG    1       26.368 -22.683   8.570  0.00  0.00    +0.293 HD
ENDBRANCH  14  23
TORSDOF 3
ENDMDL
MODEL 2
REMARK VINA RESULT:      -6.0      7.426     10.018
REMARK  Name = *****
REMARK                            x       y       z     vdW  Elec       q    Type
REMARK                         _______ _______ _______ _____ _____    ______ ____
ROOT
ATOM      1  C   LIG    1       26.086 -31.689  11.176  0.00  0.00    +0.158 C 
ATOM      2  N   LIG    1       25.725 -30.261  10.956  0.00  0.00    -0.197 N 
ATOM      3  S   LIG    1       24.854 -29.557  12.261  0.00  0.00    +0.076 S 
ATOM      4  O   LIG    1       24.921 -28.119  12.129  0.00  0.00    -0.150 OA
ATOM      5  O   LIG    1       25.163 -30.254  13.483  0.00  0.00    -0.150 OA
ATOM      6  C   LIG    1       23.191 -29.902  11.970  0.00  0.00    +0.127 A 
ATOM      7  C   LIG    1       22.763 -30.270  10.715  0.00  0.00    +0.087 A 
ATOM      8  S   LIG    1       21.080 -30.553  10.701  0.00  0.00    -0.091 S 
ATOM      9  C   LIG    1       20.927 -30.104  12.351  0.00  0.00    +0.048 A 
ATOM     10  C   LIG    1       23.576 -30.374   9.514  0.00  0.00    +0.222 C 
ATOM     11  O   LIG    1       23.151 -30.711   8.413  0.00  0.00    -0.284 OA
ATOM     12  C   LIG    1       22.142 -29.780  12.918  0.00  0.00    +0.037 A 
ATOM     13  C   LIG    1       25.030 -30.011   9.695  0.00  0.00    +0.156 C 
ATOM     14  C   LIG    1       25.813 -29.444   8.756  0.00  0.00    +0.210 C 
ENDROOT
BRANCH  14  15
ATOM     15  N   LIG    1       25.423 -29.091   7.486  0.00  0.00    -0.269 N 
ATOM     16  H   LIG    1       24.922 -29.789   6.942  0.00  0.00    +0.157 HD
BRANCH  15  17
ATOM     17  C   LIG    1       25.278 -27.831   6.901  0.00  0.00    +0.125 A 
ATOM     18  N   LIG    1       26.153 -26.887   7.312  0.00  0.00    -0.240 NA
ATOM     19  C   LIG    1       26.059 -25.652   6.765  0.00  0.00    +0.113 A 
ATOM     20  C   LIG    1       25.102 -25.286   5.837  0.00  0.00    +0.020 A 
ATOM     21  C   LIG    1       24.191 -26.249   5.437  0.00  0.00    +0.005 A 
ATOM     22  C   LIG    1       24.286 -27.532   5.970  0.00  0.00    +0.044 A 
ENDBRANCH  15  17
ENDBRANCH  14  15
BRANCH  14  23
ATOM     23  O   LIG    1       27.118 -29.116   9.115  0.00  0.00    -0.494 OA
ATOM     24  H   LIG    1       27.444 -29.859   9.657  0.00  0.00    +0.293 HD
ENDBRANCH  14  23
TORSDOF 3
ENDMDL
MODEL 3
REMARK VINA RESULT:      -6.0      7.376      9.864
REMARK  Name = *****
REMARK                            x       y       z     vdW  Elec       q    Type
REMARK                         _______ _______ _______ _____ _____    ______ ____
ROOT
ATOM      1  C   LIG    1       26.928 -31.550   9.090  0.00  0.00    +0.158 C 
ATOM      2  N   LIG    1       25.691 -30.725   9.000  0.00  0.00    -0.197 N 
ATOM      3  S   LIG    1       24.266 -31.559   9.480  0.00  0.00    +0.076 S 
ATOM      4  O   LIG    1       23.235 -30.580   9.743  0.00  0.00    -0.150 OA
ATOM      5  O   LIG    1       24.607 -32.615  10.399  0.00  0.00    -0.150 OA
ATOM      6  C   LIG    1       23.688 -32.371   8.075  0.00  0.00    +0.127 A 
ATOM      7  C   LIG    1       24.111 -31.990   6.823  0.00  0.00    +0.087 A 
ATOM      8  S   LIG    1       23.390 -32.953   5.613  0.00  0.00    -0.091 S 
ATOM      9  C   LIG    1       22.459 -33.818   6.767  0.00  0.00    +0.048 A 
ATOM     10  C   LIG    1       25.010 -30.892   6.506  0.00  0.00    +0.222 C 
ATOM     11  O   LIG    1       25.365 -30.588   5.371  0.00  0.00    -0.284 OA
ATOM     12  C   LIG    1       22.719 -33.409   8.058  0.00  0.00    +0.037 A 
ATOM     13  C   LIG    1       25.491 -30.097   7.696  0.00  0.00    +0.156 C 
ATOM     14  C   LIG    1       25.777 -28.779   7.688  0.00  0.00    +0.210 C 
ENDROOT
BRANCH  14  15
ATOM     15  N   LIG    1       25.670 -27.937   6.607  0.00  0.00    -0.269 N 
ATOM     16  H   LIG    1       25.595 -28.368   5.688  0.00  0.00    +0.157 HD
BRANCH  15  17
ATOM     17  C   LIG    1       25.299 -26.593   6.540  0.00  0.00    +0.125 A 
ATOM     18  N   LIG    1       26.263 -25.701   6.861  0.00  0.00    -0.240 NA
ATOM     19  C   LIG    1       25.953 -24.383   6.800  0.00  0.00    +0.113 A 
ATOM     20  C   LIG    1       24.705 -23.894   6.463  0.00  0.00    +0.020 A 
ATOM     21  C   LIG    1       23.715 -24.812   6.159  0.00  0.00    +0.005 A 
ATOM     22  C   LIG    1       24.018 -26.171   6.192  0.00  0.00    +0.044 A 
ENDBRANCH  15  17
ENDBRANCH  14  15
BRANCH  14  23
ATOM     23  O   LIG    1       26.146 -28.191   8.895  0.00  0.00    -0.494 OA
ATOM     24  H   LIG    1       27.072 -28.459   9.053  0.00  0.00    +0.293 HD
ENDBRANCH  14  23
TORSDOF 3
ENDMDL
MODEL 4
REMARK VINA RESULT:      -5.9      8.622     10.003
REMARK  Name = *****
REMARK                            x       y       z     vdW  Elec       q    Type
REMARK                         _______ _______ _______ _____ _____    ______ ____
ROOT
ATOM      1  C   LIG    1       26.657 -32.186   8.895  0.00  0.00    +0.158 C 
ATOM      2  N   LIG    1       25.393 -31.525   9.324  0.00  0.00    -0.197 N 
ATOM      3  S   LIG    1       24.228 -31.377   8.069  0.00  0.00    +0.076 S 
ATOM      4  O   LIG    1       22.940 -31.117   8.673  0.00  0.00    -0.150 OA
ATOM      5  O   LIG    1       24.444 -32.404   7.081  0.00  0.00    -0.150 OA
ATOM      6  C   LIG    1       24.586 -29.903   7.253  0.00  0.00    +0.127 A 
ATOM      7  C   LIG    1       25.366 -28.943   7.853  0.00  0.00    +0.087 A 
ATOM      8  S   LIG    1       25.564 -27.588   6.834  0.00  0.00    -0.091 S 
ATOM      9  C   LIG    1       24.540 -28.263   5.633  0.00  0.00    +0.048 A 
ATOM     10  C   LIG    1       25.934 -28.995   9.191  0.00  0.00    +0.222 C 
ATOM     11  O   LIG    1       26.631 -28.115   9.687  0.00  0.00    -0.284 OA
ATOM     12  C   LIG    1       24.083 -29.517   5.982  0.00  0.00    +0.037 A 
ATOM     13  C   LIG    1       25.591 -30.235   9.981  0.00  0.00    +0.156 C 
ATOM     14  C   LIG    1       25.438 -30.288  11.319  0.00  0.00    +0.210 C 
ENDROOT
BRANCH  14  15
ATOM     15  N   LIG    1       25.555 -29.228  12.187  0.00  0.00    -0.269 N 
ATOM     16  H   LIG    1       26.488 -28.850  12.337  0.00  0.00    +0.157 HD
BRANCH  15  17
ATOM     17  C   LIG    1       24.592 -28.332  12.657  0.00  0.00    +0.125 A 
ATOM     18  N   LIG    1       23.306 -28.720  12.510  0.00  0.00    -0.240 NA
ATOM     19  C   LIG    1       22.337 -27.889  12.962  0.00  0.00    +0.113 A 
ATOM     20  C   LIG    1       22.579 -26.653  13.531  0.00  0.00    +0.020 A 
ATOM     21  C   LIG    1       23.896 -26.248  13.656  0.00  0.00    +0.005 A 
ATOM     22  C   LIG    1       24.909 -27.098  13.221  0.00  0.00    +0.044 A 
ENDBRANCH  15  17
ENDBRANCH  14  15
BRANCH  14  23
ATOM     23  O   LIG    1       25.056 -31.504  11.879  0.00  0.00    -0.494 OA
ATOM     24  H   LIG    1       25.522 -32.193  11.368  0.00  0.00    +0.293 HD
ENDBRANCH  14  23
TORSDOF 3
ENDMDL
MODEL 5
REMARK VINA RESULT:      -5.9      8.421      9.924
REMARK  Name = *****
REMARK                            x       y       z     vdW  Elec       q    Type
REMARK                         _______ _______ _______ _____ _____    ______ ____
ROOT
ATOM      1  C   LIG    1       26.576 -32.221   8.795  0.00  0.00    +0.158 C 
ATOM      2  N   LIG    1       25.349 -31.524   9.274  0.00  0.00    -0.197 N 
ATOM      3  S   LIG    1       24.156 -31.306   8.055  0.00  0.00    +0.076 S 
ATOM      4  O   LIG    1       22.896 -31.012   8.701  0.00  0.00    -0.150 OA
ATOM      5  O   LIG    1       24.307 -32.317   7.040  0.00  0.00    -0.150 OA
ATOM      6  C   LIG    1       24.546 -29.828   7.261  0.00  0.00    +0.127 A 
ATOM      7  C   LIG    1       25.378 -28.910   7.860  0.00  0.00    +0.087 A 
ATOM      8  S   LIG    1       25.598 -27.541   6.865  0.00  0.00    -0.091 S 
ATOM      9  C   LIG    1       24.516 -28.151   5.679  0.00  0.00    +0.048 A 
ATOM     10  C   LIG    1       25.979 -29.013   9.180  0.00  0.00    +0.222 C 
ATOM     11  O   LIG    1       26.722 -28.170   9.674  0.00  0.00    -0.284 OA
ATOM     12  C   LIG    1       24.023 -29.395   6.014  0.00  0.00    +0.037 A 
ATOM     13  C   LIG    1       25.613 -30.258   9.952  0.00  0.00    +0.156 C 
ATOM     14  C   LIG    1       25.494 -30.335  11.293  0.00  0.00    +0.210 C 
ENDROOT
BRANCH  14  15
ATOM     15  N   LIG    1       25.674 -29.300  12.180  0.00  0.00    -0.269 N 
ATOM     16  H   LIG    1       26.630 -29.002  12.360  0.00  0.00    +0.157 HD
BRANCH  15  17
ATOM     17  C   LIG    1       24.776 -28.333  12.637  0.00  0.00    +0.125 A 
ATOM     18  N   LIG    1       25.330 -27.207  13.140  0.00  0.00    -0.240 NA
ATOM     19  C   LIG    1       24.498 -26.236  13.586  0.00  0.00    +0.113 A 
ATOM     20  C   LIG    1       23.120 -26.337  13.592  0.00  0.00    +0.020 A 
ATOM     21  C   LIG    1       22.557 -27.503  13.101  0.00  0.00    +0.005 A 
ATOM     22  C   LIG    1       23.394 -28.504  12.614  0.00  0.00    +0.044 A 
ENDBRANCH  15  17
ENDBRANCH  14  15
BRANCH  14  23
ATOM     23  O   LIG    1       25.083 -31.548  11.836  0.00  0.00    -0.494 OA
ATOM     24  H   LIG    1       24.814 -32.105  11.081  0.00  0.00    +0.293 HD
ENDBRANCH  14  23
TORSDOF 3
ENDMDL
MODEL 6
REMARK VINA RESULT:      -5.6      2.452      3.329
REMARK  Name = *****
REMARK                            x       y       z     vdW  Elec       q    Type
REMARK                         _______ _______ _______ _____ _____    ______ ____
ROOT
ATOM      1  C   LIG    1       28.995 -22.706   6.884  0.00  0.00    +0.158 C 
ATOM      2  N   LIG    1       28.371 -21.617   7.686  0.00  0.00    -0.197 N 
ATOM      3  S   LIG    1       26.658 -21.731   7.795  0.00  0.00    +0.076 S 
ATOM      4  O   LIG    1       26.218 -20.903   8.896  0.00  0.00    -0.150 OA
ATOM      5  O   LIG    1       26.251 -23.103   7.625  0.00  0.00    -0.150 OA
ATOM      6  C   LIG    1       26.033 -20.915   6.413  0.00  0.00    +0.127 A 
ATOM      7  C   LIG    1       26.818 -20.032   5.707  0.00  0.00    +0.087 A 
ATOM      8  S   LIG    1       25.960 -19.365   4.392  0.00  0.00    -0.091 S 
ATOM      9  C   LIG    1       24.524 -20.201   4.824  0.00  0.00    +0.048 A 
ATOM     10  C   LIG    1       28.184 -19.642   6.019  0.00  0.00    +0.222 C 
ATOM     11  O   LIG    1       28.851 -18.852   5.358  0.00  0.00    -0.284 OA
ATOM     12  C   LIG    1       24.701 -21.006   5.929  0.00  0.00    +0.037 A 
ATOM     13  C   LIG    1       28.759 -20.273   7.265  0.00  0.00    +0.156 C 
ATOM     14  C   LIG    1       29.654 -19.692   8.089  0.00  0.00    +0.210 C 
ENDROOT
BRANCH  14  15
ATOM     15  N   LIG    1       30.185 -18.432   7.945  0.00  0.00    -0.269 N 
ATOM     16  H   LIG    1       29.866 -17.881   7.151  0.00  0.00    +0.157 HD
BRANCH  15  17
ATOM     17  C   LIG    1       30.834 -17.612   8.870  0.00  0.00    +0.125 A 
ATOM     18  N   LIG    1       32.066 -17.186   8.514  0.00  0.00    -0.240 NA
ATOM     19  C   LIG    1       32.731 -16.378   9.375  0.00  0.00    +0.113 A 
ATOM     20  C   LIG    1       32.243 -15.990  10.608  0.00  0.00    +0.020 A 
ATOM     21  C   LIG    1       30.991 -16.449  10.979  0.00  0.00    +0.005 A 
ATOM     22  C   LIG    1       30.280 -17.261  10.099  0.00  0.00    +0.044 A 
ENDBRANCH  15  17
ENDBRANCH  14  15
BRANCH  14  23
ATOM     23  O   LIG    1       30.029 -20.393   9.232  0.00  0.00    -0.494 OA
ATOM     24  H   LIG    1       30.961 -20.649   9.097  0.00  0.00    +0.293 HD
ENDBRANCH  14  23
TORSDOF 3
ENDMDL
MODEL 7
REMARK VINA RESULT:      -5.5      7.897     10.159
REMARK  Name = *****
REMARK                            x       y       z     vdW  Elec       q    Type
REMARK                         _______ _______ _______ _____ _____    ______ ____
ROOT
ATOM      1  C   LIG    1       26.830 -30.034  13.702  0.00  0.00    +0.158 C 
ATOM      2  N   LIG    1       26.708 -28.937  12.702  0.00  0.00    -0.197 N 
ATOM      3  S   LIG    1       26.282 -27.418  13.388  0.00  0.00    +0.076 S 
ATOM      4  O   LIG    1       26.591 -26.383  12.427  0.00  0.00    -0.150 OA
ATOM      5  O   LIG    1       26.706 -27.371  14.765  0.00  0.00    -0.150 OA
ATOM      6  C   LIG    1       24.561 -27.389  13.460  0.00  0.00    +0.127 A 
ATOM      7  C   LIG    1       23.814 -28.256  12.696  0.00  0.00    +0.087 A 
ATOM      8  S   LIG    1       22.145 -28.018  12.954  0.00  0.00    -0.091 S 
ATOM      9  C   LIG    1       22.433 -26.707  14.025  0.00  0.00    +0.048 A 
ATOM     10  C   LIG    1       24.319 -29.230  11.742  0.00  0.00    +0.222 C 
ATOM     11  O   LIG    1       23.615 -29.988  11.082  0.00  0.00    -0.284 OA
ATOM     12  C   LIG    1       23.779 -26.475  14.215  0.00  0.00    +0.037 A 
ATOM     13  C   LIG    1       25.821 -29.249  11.584  0.00  0.00    +0.156 C 
ATOM     14  C   LIG    1       26.480 -29.544  10.445  0.00  0.00    +0.210 C 
ENDROOT
BRANCH  14  15
ATOM     15  N   LIG    1       25.903 -29.864   9.239  0.00  0.00    -0.269 N 
ATOM     16  H   LIG    1       25.448 -30.771   9.168  0.00  0.00    +0.157 HD
BRANCH  15  17
ATOM     17  C   LIG    1       25.516 -29.047   8.175  0.00  0.00    +0.125 A 
ATOM     18  N   LIG    1       26.200 -27.888   8.045  0.00  0.00    -0.240 NA
ATOM     19  C   LIG    1       25.867 -27.067   7.020  0.00  0.00    +0.113 A 
ATOM     20  C   LIG    1       24.851 -27.323   6.119  0.00  0.00    +0.020 A 
ATOM     21  C   LIG    1       24.136 -28.499   6.272  0.00  0.00    +0.005 A 
ATOM     22  C   LIG    1       24.478 -29.369   7.304  0.00  0.00    +0.044 A 
ENDBRANCH  15  17
ENDBRANCH  14  15
BRANCH  14  23
ATOM     23  O   LIG    1       27.869 -29.449  10.460  0.00  0.00    -0.494 OA
ATOM     24  H   LIG    1       28.196 -30.194   9.920  0.00  0.00    +0.293 HD
ENDBRANCH  14  23
TORSDOF 3
ENDMDL
MODEL 8
REMARK VINA RESULT:      -5.4      8.387     10.607
REMARK  Name = *****
REMARK                            x       y       z     vdW  Elec       q    Type
REMARK                         _______ _______ _______ _____ _____    ______ ____
ROOT
ATOM      1  C   LIG    1       26.958 -32.084   7.341  0.00  0.00    +0.158 C 
ATOM      2  N   LIG    1       25.547 -31.691   7.609  0.00  0.00    -0.197 N 
ATOM      3  S   LIG    1       24.715 -31.105   6.223  0.00  0.00    +0.076 S 
ATOM      4  O   LIG    1       23.296 -31.148   6.493  0.00  0.00    -0.150 OA
ATOM      5  O   LIG    1       25.311 -31.654   5.031  0.00  0.00    -0.150 OA
ATOM      6  C   LIG    1       25.050 -29.417   6.140  0.00  0.00    +0.127 A 
ATOM      7  C   LIG    1       25.515 -28.741   7.245  0.00  0.00    +0.087 A 
ATOM      8  S   LIG    1       25.762 -27.090   6.893  0.00  0.00    -0.091 S 
ATOM      9  C   LIG    1       25.170 -27.276   5.293  0.00  0.00    +0.048 A 
ATOM     10  C   LIG    1       25.739 -29.293   8.571  0.00  0.00    +0.222 C 
ATOM     11  O   LIG    1       26.161 -28.653   9.530  0.00  0.00    -0.284 OA
ATOM     12  C   LIG    1       24.824 -28.582   5.014  0.00  0.00    +0.037 A 
ATOM     13  C   LIG    1       25.393 -30.755   8.720  0.00  0.00    +0.156 C 
ATOM     14  C   LIG    1       24.925 -31.333   9.845  0.00  0.00    +0.210 C 
ENDROOT
BRANCH  14  15
ATOM     15  N   LIG    1       24.674 -30.694  11.036  0.00  0.00    -0.269 N 
ATOM     16  H   LIG    1       25.478 -30.363  11.564  0.00  0.00    +0.157 HD
BRANCH  15  17
ATOM     17  C   LIG    1       23.505 -30.100  11.516  0.00  0.00    +0.125 A 
ATOM     18  N   LIG    1       22.348 -30.669  11.113  0.00  0.00    -0.240 NA
ATOM     19  C   LIG    1       21.187 -30.134  11.562  0.00  0.00    +0.113 A 
ATOM     20  C   LIG    1       21.111 -29.023  12.380  0.00  0.00    +0.020 A 
ATOM     21  C   LIG    1       22.298 -28.428  12.770  0.00  0.00    +0.005 A 
ATOM     22  C   LIG    1       23.503 -28.976  12.339  0.00  0.00    +0.044 A 
ENDBRANCH  15  17
ENDBRANCH  14  15
BRANCH  14  23
ATOM     23  O   LIG    1       24.594 -32.684   9.787  0.00  0.00    -0.494 OA
ATOM     24  H   LIG    1       24.435 -32.962  10.710  0.00  0.00    +0.293 HD
ENDBRANCH  14  23
TORSDOF 3
ENDMDL
MODEL 9
REMARK VINA RESULT:      -5.4      3.008      6.061
REMARK  Name = *****
REMARK                            x       y       z     vdW  Elec       q    Type
REMARK                         _______ _______ _______ _____ _____    ______ ____
ROOT
ATOM      1  C   LIG    1       25.789 -20.667   8.832  0.00  0.00    +0.158 C 
ATOM      2  N   LIG    1       26.663 -21.470   7.932  0.00  0.00    -0.197 N 
ATOM      3  S   LIG    1       28.091 -20.649   7.440  0.00  0.00    +0.076 S 
ATOM      4  O   LIG    1       29.026 -21.629   6.934  0.00  0.00    -0.150 OA
ATOM      5  O   LIG    1       28.442 -19.653   8.421  0.00  0.00    -0.150 OA
ATOM      6  C   LIG    1       27.667 -19.747   6.034  0.00  0.00    +0.127 A 
ATOM      7  C   LIG    1       26.534 -20.059   5.318  0.00  0.00    +0.087 A 
ATOM      8  S   LIG    1       26.349 -19.017   3.980  0.00  0.00    -0.091 S 
ATOM      9  C   LIG    1       27.825 -18.210   4.323  0.00  0.00    +0.048 A 
ATOM     10  C   LIG    1       25.608 -21.147   5.587  0.00  0.00    +0.222 C 
ATOM     11  O   LIG    1       24.604 -21.387   4.923  0.00  0.00    -0.284 OA
ATOM     12  C   LIG    1       28.433 -18.698   5.461  0.00  0.00    +0.037 A 
ATOM     13  C   LIG    1       25.971 -22.017   6.767  0.00  0.00    +0.156 C 
ATOM     14  C   LIG    1       25.708 -23.335   6.872  0.00  0.00    +0.210 C 
ENDROOT
BRANCH  14  15
ATOM     15  N   LIG    1       25.080 -24.110   5.926  0.00  0.00    -0.269 N 
ATOM     16  H   LIG    1       24.713 -23.635   5.104  0.00  0.00    +0.157 HD
BRANCH  15  17
ATOM     17  C   LIG    1       25.137 -25.487   5.700  0.00  0.00    +0.125 A 
ATOM     18  N   LIG    1       26.297 -25.950   5.183  0.00  0.00    -0.240 NA
ATOM     19  C   LIG    1       26.405 -27.281   4.957  0.00  0.00    +0.113 A 
ATOM     20  C   LIG    1       25.391 -28.192   5.189  0.00  0.00    +0.020 A 
ATOM     21  C   LIG    1       24.196 -27.710   5.695  0.00  0.00    +0.005 A 
ATOM     22  C   LIG    1       24.073 -26.348   5.957  0.00  0.00    +0.044 A 
ENDBRANCH  15  17
ENDBRANCH  14  15
BRANCH  14  23
ATOM     23  O   LIG    1       26.173 -23.998   8.004  0.00  0.00    -0.494 OA
ATOM     24  H   LIG    1       26.573 -23.313   8.573  0.00  0.00    +0.293 HD
ENDBRANCH  14  23
TORSDOF 3
ENDMDL
