MODEL 1
REMARK VINA RESULT:      -8.7      0.000      0.000
REMARK  Name = *****
REMARK                            x       y       z     vdW  Elec       q    Type
REMARK                         _______ _______ _______ _____ _____    ______ ____
ROOT
ATOM      1  C   LIG    1       25.774 -22.106   7.271  0.00  0.00    +0.198 A 
ATOM      2  N   LIG    1       26.649 -23.127   6.960  0.00  0.00    -0.331 N 
ATOM      3  H   LIG    1       27.646 -23.097   7.056  0.00  0.00    +0.168 HD
ATOM      4  C   LIG    1       25.907 -24.241   6.642  0.00  0.00    +0.070 A 
ATOM      5  C   LIG    1       24.592 -23.802   6.722  0.00  0.00    +0.090 A 
ATOM      6  C   LIG    1       23.549 -24.682   6.425  0.00  0.00    +0.033 A 
ATOM      7  C   LIG    1       23.865 -25.997   6.063  0.00  0.00    +0.048 A 
ATOM      8  C   LIG    1       25.192 -26.430   5.994  0.00  0.00    +0.129 A 
ATOM      9  C   LIG    1       26.250 -25.554   6.302  0.00  0.00    +0.073 A 
ATOM     10  N   LIG    1       24.528 -22.492   7.116  0.00  0.00    -0.220 NA
ENDROOT
BRANCH   1  11
ATOM     11  S   LIG    1       26.216 -20.485   7.730  0.00  0.00    +0.096 S 
ATOM     12  O   LIG    1       26.549 -20.475   9.192  0.00  0.00    -0.249 OA
BRANCH  11  13
ATOM     13  C   LIG    1       27.628 -20.114   6.681  0.00  0.00    +0.171 C 
BRANCH  13  16
ATOM     14  C   LIG    1       31.056 -19.291   8.123  0.00  0.00    +0.165 A 
ATOM     15  C   LIG    1       29.877 -19.147   7.367  0.00  0.00    +0.184 A 
ATOM     16  C   LIG    1       28.969 -20.219   7.355  0.00  0.00    +0.099 A 
ATOM     17  N   LIG    1       29.203 -21.404   7.987  0.00  0.00    -0.255 NA
ATOM     18  C   LIG    1       30.329 -21.490   8.721  0.00  0.00    +0.115 A 
ATOM     19  C   LIG    1       31.256 -20.470   8.839  0.00  0.00    +0.069 A 
BRANCH  14  21
ATOM     20  C   LIG    1       31.975 -17.292   9.109  0.00  0.00    +0.277 C 
ATOM     21  O   LIG    1       31.971 -18.275   8.085  0.00  0.00    -0.491 OA
ENDBRANCH  14  21
BRANCH  15  22
ATOM     22  O   LIG    1       29.546 -18.077   6.575  0.00  0.00    -0.490 OA
ATOM     23  C   LIG    1       29.525 -18.295   5.167  0.00  0.00    +0.277 C 
ENDBRANCH  15  22
ENDBRANCH  13  16
ENDBRANCH  11  13
ENDBRANCH   1  11
BRANCH   8  24
ATOM     24  O   LIG    1       25.587 -27.691   5.623  0.00  0.00    -0.434 OA
BRANCH  24  25
ATOM     25  C   LIG    1       24.575 -28.687   5.628  0.00  0.00    +0.541 C 
ATOM     26  F   LIG    1       24.334 -29.024   6.920  0.00  0.00    -0.166 F 
ATOM     27  F   LIG    1       25.038 -29.809   5.021  0.00  0.00    -0.166 F 
ENDBRANCH  24  25
ENDBRANCH   8  24
TORSDOF 7
ENDMDL
MODEL 2
REMARK VINA RESULT:      -8.4      1.228      1.988
REMARK  Name = *****
REMARK                            x       y       z     vdW  Elec       q    Type
REMARK                         _______ _______ _______ _____ _____    ______ ____
ROOT
ATOM      1  C   LIG    1       25.736 -22.959   7.134  0.00  0.00    +0.198 A 
ATOM      2  N   LIG    1       26.669 -23.898   6.745  0.00  0.00    -0.331 N 
ATOM      3  H   LIG    1       27.663 -23.815   6.844  0.00  0.00    +0.168 HD
ATOM      4  C   LIG    1       25.994 -25.026   6.342  0.00  0.00    +0.070 A 
ATOM      5  C   LIG    1       24.655 -24.675   6.455  0.00  0.00    +0.090 A 
ATOM      6  C   LIG    1       23.666 -25.591   6.090  0.00  0.00    +0.033 A 
ATOM      7  C   LIG    1       24.059 -26.852   5.628  0.00  0.00    +0.048 A 
ATOM      8  C   LIG    1       25.408 -27.198   5.527  0.00  0.00    +0.129 A 
ATOM      9  C   LIG    1       26.414 -26.286   5.902  0.00  0.00    +0.073 A 
ATOM     10  N   LIG    1       24.515 -23.406   6.949  0.00  0.00    -0.220 NA
ENDROOT
BRANCH   1  11
ATOM     11  S   LIG    1       26.082 -21.354   7.718  0.00  0.00    +0.096 S 
ATOM     12  O   LIG    1       25.215 -21.080   8.909  0.00  0.00    -0.249 OA
BRANCH  11  13
ATOM     13  C   LIG    1       27.834 -21.413   8.117  0.00  0.00    +0.171 C 
BRANCH  13  16
ATOM     14  C   LIG    1       30.727 -19.132   7.148  0.00  0.00    +0.165 A 
ATOM     15  C   LIG    1       29.961 -20.035   7.910  0.00  0.00    +0.184 A 
ATOM     16  C   LIG    1       28.678 -20.366   7.442  0.00  0.00    +0.099 A 
ATOM     17  N   LIG    1       28.122 -19.811   6.327  0.00  0.00    -0.255 NA
ATOM     18  C   LIG    1       28.898 -18.973   5.614  0.00  0.00    +0.115 A 
ATOM     19  C   LIG    1       30.192 -18.630   5.962  0.00  0.00    +0.069 A 
BRANCH  14  21
ATOM     20  C   LIG    1       32.031 -17.781   8.659  0.00  0.00    +0.277 C 
ATOM     21  O   LIG    1       31.949 -18.759   7.633  0.00  0.00    -0.491 OA
ENDBRANCH  14  21
BRANCH  15  22
ATOM     22  O   LIG    1       30.316 -20.586   9.115  0.00  0.00    -0.490 OA
ATOM     23  C   LIG    1       31.181 -21.717   9.080  0.00  0.00    +0.277 C 
ENDBRANCH  15  22
ENDBRANCH  13  16
ENDBRANCH  11  13
ENDBRANCH   1  11
BRANCH   8  24
ATOM     24  O   LIG    1       25.878 -28.401   5.060  0.00  0.00    -0.434 OA
BRANCH  24  25
ATOM     25  C   LIG    1       25.277 -29.561   5.615  0.00  0.00    +0.541 C 
ATOM     26  F   LIG    1       25.400 -29.483   6.964  0.00  0.00    -0.166 F 
ATOM     27  F   LIG    1       25.970 -30.661   5.231  0.00  0.00    -0.166 F 
ENDBRANCH  24  25
ENDBRANCH   8  24
TORSDOF 7
ENDMDL
MODEL 3
REMARK VINA RESULT:      -8.3      5.444      9.632
REMARK  Name = *****
REMARK                            x       y       z     vdW  Elec       q    Type
REMARK                         _______ _______ _______ _____ _____    ______ ____
ROOT
ATOM      1  C   LIG    1       30.174 -19.113   7.778  0.00  0.00    +0.198 A 
ATOM      2  N   LIG    1       29.593 -18.844   9.000  0.00  0.00    -0.331 N 
ATOM      3  H   LIG    1       28.791 -19.305   9.384  0.00  0.00    +0.168 HD
ATOM      4  C   LIG    1       30.394 -17.944   9.663  0.00  0.00    +0.070 A 
ATOM      5  C   LIG    1       31.409 -17.666   8.757  0.00  0.00    +0.090 A 
ATOM      6  C   LIG    1       32.405 -16.746   9.092  0.00  0.00    +0.033 A 
ATOM      7  C   LIG    1       32.355 -16.135  10.350  0.00  0.00    +0.048 A 
ATOM      8  C   LIG    1       31.335 -16.429  11.258  0.00  0.00    +0.129 A 
ATOM      9  C   LIG    1       30.332 -17.363  10.934  0.00  0.00    +0.073 A 
ATOM     10  N   LIG    1       31.262 -18.397   7.608  0.00  0.00    -0.220 NA
ENDROOT
BRANCH   1  11
ATOM     11  S   LIG    1       29.542 -20.185   6.559  0.00  0.00    +0.096 S 
ATOM     12  O   LIG    1       29.509 -21.577   7.115  0.00  0.00    -0.249 OA
BRANCH  11  13
ATOM     13  C   LIG    1       27.908 -19.521   6.212  0.00  0.00    +0.171 C 
BRANCH  13  16
ATOM     14  C   LIG    1       24.784 -21.614   6.821  0.00  0.00    +0.165 A 
ATOM     15  C   LIG    1       25.742 -20.850   6.127  0.00  0.00    +0.184 A 
ATOM     16  C   LIG    1       26.770 -20.251   6.874  0.00  0.00    +0.099 A 
ATOM     17  N   LIG    1       26.848 -20.325   8.233  0.00  0.00    -0.255 NA
ATOM     18  C   LIG    1       25.928 -21.086   8.854  0.00  0.00    +0.115 A 
ATOM     19  C   LIG    1       24.911 -21.761   8.201  0.00  0.00    +0.069 A 
BRANCH  14  21
ATOM     20  C   LIG    1       22.949 -23.171   6.677  0.00  0.00    +0.277 C 
ATOM     21  O   LIG    1       23.746 -22.145   6.105  0.00  0.00    -0.491 OA
ENDBRANCH  14  21
BRANCH  15  22
ATOM     22  O   LIG    1       25.740 -20.571   4.784  0.00  0.00    -0.490 OA
ATOM     23  C   LIG    1       24.625 -19.846   4.275  0.00  0.00    +0.277 C 
ENDBRANCH  15  22
ENDBRANCH  13  16
ENDBRANCH  11  13
ENDBRANCH   1  11
BRANCH   8  24
ATOM     24  O   LIG    1       31.199 -15.856  12.499  0.00  0.00    -0.434 OA
BRANCH  24  25
ATOM     25  C   LIG    1       32.334 -15.934  13.348  0.00  0.00    +0.541 C 
ATOM     26  F   LIG    1       32.663 -17.244  13.478  0.00  0.00    -0.166 F 
ATOM     27  F   LIG    1       32.005 -15.496  14.589  0.00  0.00    -0.166 F 
ENDBRANCH  24  25
ENDBRANCH   8  24
TORSDOF 7
ENDMDL
MODEL 4
REMARK VINA RESULT:      -8.1      5.739      9.378
REMARK  Name = *****
REMARK                            x       y       z     vdW  Elec       q    Type
REMARK                         _______ _______ _______ _____ _____    ______ ____
ROOT
ATOM      1  C   LIG    1       24.845 -25.261   5.407  0.00  0.00    +0.198 A 
ATOM      2  N   LIG    1       25.081 -24.176   4.588  0.00  0.00    -0.331 N 
ATOM      3  H   LIG    1       25.494 -24.208   3.675  0.00  0.00    +0.168 HD
ATOM      4  C   LIG    1       24.514 -23.069   5.173  0.00  0.00    +0.070 A 
ATOM      5  C   LIG    1       24.006 -23.547   6.374  0.00  0.00    +0.090 A 
ATOM      6  C   LIG    1       23.376 -22.668   7.259  0.00  0.00    +0.033 A 
ATOM      7  C   LIG    1       23.264 -21.321   6.897  0.00  0.00    +0.048 A 
ATOM      8  C   LIG    1       23.771 -20.852   5.682  0.00  0.00    +0.129 A 
ATOM      9  C   LIG    1       24.398 -21.732   4.779  0.00  0.00    +0.073 A 
ATOM     10  N   LIG    1       24.212 -24.895   6.499  0.00  0.00    -0.220 NA
ENDROOT
BRANCH   1  11
ATOM     11  S   LIG    1       25.369 -26.897   5.116  0.00  0.00    +0.096 S 
ATOM     12  O   LIG    1       26.861 -26.901   4.962  0.00  0.00    -0.249 OA
BRANCH  11  13
ATOM     13  C   LIG    1       24.805 -27.791   6.571  0.00  0.00    +0.171 C 
BRANCH  13  16
ATOM     14  C   LIG    1       25.454 -31.372   7.695  0.00  0.00    +0.165 A 
ATOM     15  C   LIG    1       25.271 -29.978   7.780  0.00  0.00    +0.184 A 
ATOM     16  C   LIG    1       25.129 -29.260   6.580  0.00  0.00    +0.099 A 
ATOM     17  N   LIG    1       25.220 -29.837   5.348  0.00  0.00    -0.255 NA
ATOM     18  C   LIG    1       25.369 -31.174   5.313  0.00  0.00    +0.115 A 
ATOM     19  C   LIG    1       25.461 -31.974   6.438  0.00  0.00    +0.069 A 
BRANCH  14  21
ATOM     20  C   LIG    1       26.868 -32.778   9.049  0.00  0.00    +0.277 C 
ATOM     21  O   LIG    1       25.656 -32.064   8.857  0.00  0.00    -0.491 OA
ENDBRANCH  14  21
BRANCH  15  22
ATOM     22  O   LIG    1       25.281 -29.226   8.927  0.00  0.00    -0.490 OA
ATOM     23  C   LIG    1       26.554 -28.860   9.450  0.00  0.00    +0.277 C 
ENDBRANCH  15  22
ENDBRANCH  13  16
ENDBRANCH  11  13
ENDBRANCH   1  11
BRANCH   8  24
ATOM     24  O   LIG    1       23.726 -19.545   5.264  0.00  0.00    -0.434 OA
BRANCH  24  25
ATOM     25  C   LIG    1       22.581 -19.172   4.511  0.00  0.00    +0.541 C 
ATOM     26  F   LIG    1       22.128 -17.993   5.006  0.00  0.00    -0.166 F 
ATOM     27  F   LIG    1       21.590 -20.076   4.711  0.00  0.00    -0.166 F 
ENDBRANCH  24  25
ENDBRANCH   8  24
TORSDOF 7
ENDMDL
MODEL 5
REMARK VINA RESULT:      -8.0      4.669      9.365
REMARK  Name = *****
REMARK                            x       y       z     vdW  Elec       q    Type
REMARK                         _______ _______ _______ _____ _____    ______ ____
ROOT
ATOM      1  C   LIG    1       24.834 -26.201   5.794  0.00  0.00    +0.198 A 
ATOM      2  N   LIG    1       25.801 -25.256   6.070  0.00  0.00    -0.331 N 
ATOM      3  H   LIG    1       26.785 -25.358   5.912  0.00  0.00    +0.168 HD
ATOM      4  C   LIG    1       25.167 -24.097   6.453  0.00  0.00    +0.070 A 
ATOM      5  C   LIG    1       23.819 -24.434   6.446  0.00  0.00    +0.090 A 
ATOM      6  C   LIG    1       22.866 -23.485   6.822  0.00  0.00    +0.033 A 
ATOM      7  C   LIG    1       23.302 -22.207   7.188  0.00  0.00    +0.048 A 
ATOM      8  C   LIG    1       24.660 -21.876   7.183  0.00  0.00    +0.129 A 
ATOM      9  C   LIG    1       25.628 -22.822   6.795  0.00  0.00    +0.073 A 
ATOM     10  N   LIG    1       23.632 -25.726   6.032  0.00  0.00    -0.220 NA
ENDROOT
BRANCH   1  11
ATOM     11  S   LIG    1       25.123 -27.840   5.279  0.00  0.00    +0.096 S 
ATOM     12  O   LIG    1       26.601 -28.095   5.300  0.00  0.00    -0.249 OA
BRANCH  11  13
ATOM     13  C   LIG    1       24.217 -28.830   6.475  0.00  0.00    +0.171 C 
BRANCH  13  16
ATOM     14  C   LIG    1       26.334 -31.648   7.919  0.00  0.00    +0.165 A 
ATOM     15  C   LIG    1       25.434 -30.983   7.065  0.00  0.00    +0.184 A 
ATOM     16  C   LIG    1       25.073 -29.665   7.390  0.00  0.00    +0.099 A 
ATOM     17  N   LIG    1       25.501 -29.027   8.516  0.00  0.00    -0.255 NA
ATOM     18  C   LIG    1       26.381 -29.689   9.291  0.00  0.00    +0.115 A 
ATOM     19  C   LIG    1       26.840 -30.967   9.025  0.00  0.00    +0.069 A 
BRANCH  14  21
ATOM     20  C   LIG    1       27.870 -33.268   7.010  0.00  0.00    +0.277 C 
ATOM     21  O   LIG    1       26.638 -32.952   7.641  0.00  0.00    -0.491 OA
ENDBRANCH  14  21
BRANCH  15  22
ATOM     22  O   LIG    1       24.813 -31.518   5.965  0.00  0.00    -0.490 OA
ATOM     23  C   LIG    1       25.578 -31.602   4.767  0.00  0.00    +0.277 C 
ENDBRANCH  15  22
ENDBRANCH  13  16
ENDBRANCH  11  13
ENDBRANCH   1  11
BRANCH   8  24
ATOM     24  O   LIG    1       25.172 -20.657   7.552  0.00  0.00    -0.434 OA
BRANCH  24  25
ATOM     25  C   LIG    1       26.301 -20.691   8.412  0.00  0.00    +0.541 C 
ATOM     26  F   LIG    1       25.944 -20.110   9.585  0.00  0.00    -0.166 F 
ATOM     27  F   LIG    1       27.292 -19.924   7.893  0.00  0.00    -0.166 F 
ENDBRANCH  24  25
ENDBRANCH   8  24
TORSDOF 7
ENDMDL
MODEL 6
REMARK VINA RESULT:      -8.0      4.668      9.322
REMARK  Name = *****
REMARK                            x       y       z     vdW  Elec       q    Type
REMARK                         _______ _______ _______ _____ _____    ______ ____
ROOT
ATOM      1  C   LIG    1       24.865 -26.133   5.744  0.00  0.00    +0.198 A 
ATOM      2  N   LIG    1       25.823 -25.179   6.022  0.00  0.00    -0.331 N 
ATOM      3  H   LIG    1       26.807 -25.266   5.850  0.00  0.00    +0.168 HD
ATOM      4  C   LIG    1       25.179 -24.036   6.431  0.00  0.00    +0.070 A 
ATOM      5  C   LIG    1       23.836 -24.390   6.436  0.00  0.00    +0.090 A 
ATOM      6  C   LIG    1       22.875 -23.460   6.839  0.00  0.00    +0.033 A 
ATOM      7  C   LIG    1       23.299 -22.182   7.219  0.00  0.00    +0.048 A 
ATOM      8  C   LIG    1       24.652 -21.833   7.201  0.00  0.00    +0.129 A 
ATOM      9  C   LIG    1       25.628 -22.759   6.786  0.00  0.00    +0.073 A 
ATOM     10  N   LIG    1       23.661 -25.679   6.006  0.00  0.00    -0.220 NA
ENDROOT
BRANCH   1  11
ATOM     11  S   LIG    1       25.169 -27.760   5.200  0.00  0.00    +0.096 S 
ATOM     12  O   LIG    1       26.650 -27.951   5.065  0.00  0.00    -0.249 OA
BRANCH  11  13
ATOM     13  C   LIG    1       24.438 -28.784   6.485  0.00  0.00    +0.171 C 
BRANCH  13  16
ATOM     14  C   LIG    1       26.186 -31.606   8.353  0.00  0.00    +0.165 A 
ATOM     15  C   LIG    1       25.584 -30.354   8.124  0.00  0.00    +0.184 A 
ATOM     16  C   LIG    1       25.199 -30.041   6.809  0.00  0.00    +0.099 A 
ATOM     17  N   LIG    1       25.435 -30.860   5.745  0.00  0.00    -0.255 NA
ATOM     18  C   LIG    1       25.988 -32.058   6.012  0.00  0.00    +0.115 A 
ATOM     19  C   LIG    1       26.349 -32.480   7.279  0.00  0.00    +0.069 A 
BRANCH  14  21
ATOM     20  C   LIG    1       25.735 -32.496  10.547  0.00  0.00    +0.277 C 
ATOM     21  O   LIG    1       26.620 -31.887   9.619  0.00  0.00    -0.491 OA
ENDBRANCH  14  21
BRANCH  15  22
ATOM     22  O   LIG    1       25.389 -29.364   9.054  0.00  0.00    -0.490 OA
ATOM     23  C   LIG    1       26.521 -28.576   9.407  0.00  0.00    +0.277 C 
ENDBRANCH  15  22
ENDBRANCH  13  16
ENDBRANCH  11  13
ENDBRANCH   1  11
BRANCH   8  24
ATOM     24  O   LIG    1       25.153 -20.612   7.582  0.00  0.00    -0.434 OA
BRANCH  24  25
ATOM     25  C   LIG    1       26.293 -20.644   8.427  0.00  0.00    +0.541 C 
ATOM     26  F   LIG    1       25.939 -20.101   9.619  0.00  0.00    -0.166 F 
ATOM     27  F   LIG    1       27.261 -19.844   7.915  0.00  0.00    -0.166 F 
ENDBRANCH  24  25
ENDBRANCH   8  24
TORSDOF 7
ENDMDL
MODEL 7
REMARK VINA RESULT:      -7.7      5.410      9.081
REMARK  Name = *****
REMARK                            x       y       z     vdW  Elec       q    Type
REMARK                         _______ _______ _______ _____ _____    ______ ____
ROOT
ATOM      1  C   LIG    1       25.505 -25.172   5.548  0.00  0.00    +0.198 A 
ATOM      2  N   LIG    1       24.818 -24.271   4.760  0.00  0.00    -0.331 N 
ATOM      3  H   LIG    1       24.440 -24.455   3.850  0.00  0.00    +0.168 HD
ATOM      4  C   LIG    1       24.608 -23.131   5.500  0.00  0.00    +0.070 A 
ATOM      5  C   LIG    1       25.251 -23.390   6.705  0.00  0.00    +0.090 A 
ATOM      6  C   LIG    1       25.268 -22.414   7.704  0.00  0.00    +0.033 A 
ATOM      7  C   LIG    1       24.620 -21.198   7.462  0.00  0.00    +0.048 A 
ATOM      8  C   LIG    1       23.970 -20.951   6.251  0.00  0.00    +0.129 A 
ATOM      9  C   LIG    1       23.937 -21.932   5.241  0.00  0.00    +0.073 A 
ATOM     10  N   LIG    1       25.789 -24.649   6.719  0.00  0.00    -0.220 NA
ENDROOT
BRANCH   1  11
ATOM     11  S   LIG    1       26.021 -26.765   5.068  0.00  0.00    +0.096 S 
ATOM     12  O   LIG    1       27.423 -26.981   5.554  0.00  0.00    -0.249 OA
BRANCH  11  13
ATOM     13  C   LIG    1       24.825 -27.855   5.852  0.00  0.00    +0.171 C 
BRANCH  13  16
ATOM     14  C   LIG    1       25.881 -30.583   8.292  0.00  0.00    +0.165 A 
ATOM     15  C   LIG    1       25.280 -29.982   7.169  0.00  0.00    +0.184 A 
ATOM     16  C   LIG    1       25.327 -28.581   7.071  0.00  0.00    +0.099 A 
ATOM     17  N   LIG    1       25.868 -27.781   8.034  0.00  0.00    -0.255 NA
ATOM     18  C   LIG    1       26.454 -28.397   9.077  0.00  0.00    +0.115 A 
ATOM     19  C   LIG    1       26.509 -29.771   9.235  0.00  0.00    +0.069 A 
BRANCH  14  21
ATOM     20  C   LIG    1       26.957 -32.736   8.418  0.00  0.00    +0.277 C 
ATOM     21  O   LIG    1       25.781 -31.940   8.423  0.00  0.00    -0.491 OA
ENDBRANCH  14  21
BRANCH  15  22
ATOM     22  O   LIG    1       24.587 -30.626   6.176  0.00  0.00    -0.490 OA
ATOM     23  C   LIG    1       25.353 -31.328   5.202  0.00  0.00    +0.277 C 
ENDBRANCH  15  22
ENDBRANCH  13  16
ENDBRANCH  11  13
ENDBRANCH   1  11
BRANCH   8  24
ATOM     24  O   LIG    1       23.335 -19.778   5.925  0.00  0.00    -0.434 OA
BRANCH  24  25
ATOM     25  C   LIG    1       22.942 -19.640   4.567  0.00  0.00    +0.541 C 
ATOM     26  F   LIG    1       23.859 -18.854   3.950  0.00  0.00    -0.166 F 
ATOM     27  F   LIG    1       21.761 -18.975   4.502  0.00  0.00    -0.166 F 
ENDBRANCH  24  25
ENDBRANCH   8  24
TORSDOF 7
ENDMDL
MODEL 8
REMARK VINA RESULT:      -7.7      2.095      3.150
REMARK  Name = *****
REMARK                            x       y       z     vdW  Elec       q    Type
REMARK                         _______ _______ _______ _____ _____    ______ ____
ROOT
ATOM      1  C   LIG    1       25.008 -23.121   5.296  0.00  0.00    +0.198 A 
ATOM      2  N   LIG    1       24.836 -24.155   4.399  0.00  0.00    -0.331 N 
ATOM      3  H   LIG    1       24.616 -24.058   3.426  0.00  0.00    +0.168 HD
ATOM      4  C   LIG    1       25.169 -25.329   5.033  0.00  0.00    +0.070 A 
ATOM      5  C   LIG    1       25.473 -24.936   6.330  0.00  0.00    +0.090 A 
ATOM      6  C   LIG    1       25.830 -25.896   7.279  0.00  0.00    +0.033 A 
ATOM      7  C   LIG    1       25.883 -27.238   6.886  0.00  0.00    +0.048 A 
ATOM      8  C   LIG    1       25.584 -27.621   5.577  0.00  0.00    +0.129 A 
ATOM      9  C   LIG    1       25.233 -26.660   4.609  0.00  0.00    +0.073 A 
ATOM     10  N   LIG    1       25.375 -23.577   6.472  0.00  0.00    -0.220 NA
ENDROOT
BRANCH   1  11
ATOM     11  S   LIG    1       24.708 -21.434   4.983  0.00  0.00    +0.096 S 
ATOM     12  O   LIG    1       23.245 -21.249   4.712  0.00  0.00    -0.249 OA
BRANCH  11  13
ATOM     13  C   LIG    1       25.259 -20.616   6.486  0.00  0.00    +0.171 C 
BRANCH  13  16
ATOM     14  C   LIG    1       28.889 -20.817   7.624  0.00  0.00    +0.165 A 
ATOM     15  C   LIG    1       27.487 -20.948   7.665  0.00  0.00    +0.184 A 
ATOM     16  C   LIG    1       26.747 -20.417   6.595  0.00  0.00    +0.099 A 
ATOM     17  N   LIG    1       27.312 -19.734   5.560  0.00  0.00    -0.255 NA
ATOM     18  C   LIG    1       28.656 -19.655   5.546  0.00  0.00    +0.115 A 
ATOM     19  C   LIG    1       29.474 -20.194   6.523  0.00  0.00    +0.069 A 
BRANCH  14  21
ATOM     20  C   LIG    1       31.020 -21.135   8.705  0.00  0.00    +0.277 C 
ATOM     21  O   LIG    1       29.607 -21.276   8.693  0.00  0.00    -0.491 OA
ENDBRANCH  14  21
BRANCH  15  22
ATOM     22  O   LIG    1       26.752 -21.492   8.687  0.00  0.00    -0.490 OA
ATOM     23  C   LIG    1       25.725 -20.681   9.249  0.00  0.00    +0.277 C 
ENDBRANCH  15  22
ENDBRANCH  13  16
ENDBRANCH  11  13
ENDBRANCH   1  11
BRANCH   8  24
ATOM     24  O   LIG    1       25.586 -28.915   5.118  0.00  0.00    -0.434 OA
BRANCH  24  25
ATOM     25  C   LIG    1       24.820 -29.844   5.871  0.00  0.00    +0.541 C 
ATOM     26  F   LIG    1       24.960 -31.062   5.289  0.00  0.00    -0.166 F 
ATOM     27  F   LIG    1       23.505 -29.526   5.782  0.00  0.00    -0.166 F 
ENDBRANCH  24  25
ENDBRANCH   8  24
TORSDOF 7
ENDMDL
MODEL 9
REMARK VINA RESULT:      -7.5      5.202     10.184
REMARK  Name = *****
REMARK                            x       y       z     vdW  Elec       q    Type
REMARK                         _______ _______ _______ _____ _____    ______ ____
ROOT
ATOM      1  C   LIG    1       24.730 -26.351   6.309  0.00  0.00    +0.198 A 
ATOM      2  N   LIG    1       23.674 -25.495   6.069  0.00  0.00    -0.331 N 
ATOM      3  H   LIG    1       22.767 -25.760   5.736  0.00  0.00    +0.168 HD
ATOM      4  C   LIG    1       24.032 -24.244   6.511  0.00  0.00    +0.070 A 
ATOM      5  C   LIG    1       25.341 -24.403   6.948  0.00  0.00    +0.090 A 
ATOM      6  C   LIG    1       26.045 -23.303   7.444  0.00  0.00    +0.033 A 
ATOM      7  C   LIG    1       25.398 -22.063   7.495  0.00  0.00    +0.048 A 
ATOM      8  C   LIG    1       24.079 -21.915   7.060  0.00  0.00    +0.129 A 
ATOM      9  C   LIG    1       23.357 -23.020   6.569  0.00  0.00    +0.073 A 
ATOM     10  N   LIG    1       25.751 -25.704   6.824  0.00  0.00    -0.220 NA
ENDROOT
BRANCH   1  11
ATOM     11  S   LIG    1       24.779 -28.049   5.921  0.00  0.00    +0.096 S 
ATOM     12  O   LIG    1       25.767 -28.258   4.812  0.00  0.00    -0.249 OA
BRANCH  11  13
ATOM     13  C   LIG    1       25.273 -28.826   7.465  0.00  0.00    +0.171 C 
BRANCH  13  16
ATOM     14  C   LIG    1       23.824 -32.338   7.729  0.00  0.00    +0.165 A 
ATOM     15  C   LIG    1       24.544 -31.248   7.206  0.00  0.00    +0.184 A 
ATOM     16  C   LIG    1       24.446 -30.015   7.873  0.00  0.00    +0.099 A 
ATOM     17  N   LIG    1       23.646 -29.813   8.958  0.00  0.00    -0.255 NA
ATOM     18  C   LIG    1       22.996 -30.888   9.442  0.00  0.00    +0.115 A 
ATOM     19  C   LIG    1       23.073 -32.154   8.889  0.00  0.00    +0.069 A 
BRANCH  14  21
ATOM     20  C   LIG    1       22.858 -33.820   6.091  0.00  0.00    +0.277 C 
ATOM     21  O   LIG    1       23.866 -33.522   7.046  0.00  0.00    -0.491 OA
ENDBRANCH  14  21
BRANCH  15  22
ATOM     22  O   LIG    1       25.292 -31.246   6.056  0.00  0.00    -0.490 OA
ATOM     23  C   LIG    1       26.506 -31.990   6.073  0.00  0.00    +0.277 C 
ENDBRANCH  15  22
ENDBRANCH  13  16
ENDBRANCH  11  13
ENDBRANCH   1  11
BRANCH   8  24
ATOM     24  O   LIG    1       23.383 -20.732   7.052  0.00  0.00    -0.434 OA
BRANCH  24  25
ATOM     25  C   LIG    1       22.947 -20.275   5.780  0.00  0.00    +0.541 C 
ATOM     26  F   LIG    1       24.050 -20.064   5.018  0.00  0.00    -0.166 F 
ATOM     27  F   LIG    1       22.337 -19.071   5.913  0.00  0.00    -0.166 F 
ENDBRANCH  24  25
ENDBRANCH   8  24
TORSDOF 7
ENDMDL
