MODEL 1
REMARK VINA RESULT:      -7.4      0.000      0.000
REMARK  Name = *****
REMARK                            x       y       z     vdW  Elec       q    Type
REMARK                         _______ _______ _______ _____ _____    ______ ____
ROOT
ATOM      1  C   LIG    1       28.209 -21.575   7.172  0.00  0.00    +0.119 C 
ATOM      2  N   LIG    1       29.590 -21.695   7.701  0.00  0.00    -0.330 N 
ATOM      3  H   LIG    1       29.747 -22.400   8.422  0.00  0.00    +0.147 HD
ATOM      4  C   LIG    1       30.313 -20.522   7.958  0.00  0.00    +0.133 C 
ATOM      5  C   LIG    1       29.967 -19.297   7.481  0.00  0.00    +0.149 C 
ATOM      6  N   LIG    1       30.647 -18.148   7.787  0.00  0.00    -0.199 NA
ATOM      7  C   LIG    1       31.648 -18.224   8.603  0.00  0.00    +0.195 C 
ATOM      8  N   LIG    1       32.095 -19.394   9.126  0.00  0.00    -0.294 N 
ATOM      9  H   LIG    1       32.846 -19.409   9.795  0.00  0.00    +0.172 HD
ATOM     10  N   LIG    1       28.797 -19.200   6.707  0.00  0.00    -0.326 N 
ATOM     11  H   LIG    1       28.882 -18.406   6.075  0.00  0.00    +0.148 HD
ATOM     12  C   LIG    1       31.488 -20.586   8.875  0.00  0.00    +0.276 C 
ATOM     13  O   LIG    1       31.857 -21.635   9.391  0.00  0.00    -0.266 OA
ATOM     14  C   LIG    1       28.203 -20.419   6.125  0.00  0.00    +0.128 C 
ENDROOT
BRANCH   7  15
ATOM     15  N   LIG    1       32.310 -17.103   8.977  0.00  0.00    -0.329 N 
ATOM     16  H   LIG    1       32.319 -16.331   8.326  0.00  0.00    +0.145 HD
ATOM     17  H   LIG    1       32.092 -16.828   9.929  0.00  0.00    +0.145 HD
ENDBRANCH   7  15
BRANCH   1  18
ATOM     18  C   LIG    1       27.194 -21.376   8.348  0.00  0.00    +0.164 C 
BRANCH  18  20
ATOM     19  C   LIG    1       26.053 -23.236   7.046  0.00  0.00    +0.040 C 
ATOM     20  C   LIG    1       25.977 -22.321   8.272  0.00  0.00    +0.142 C 
BRANCH  20  21
ATOM     21  O   LIG    1       24.773 -21.555   8.237  0.00  0.00    -0.389 OA
ATOM     22  H   LIG    1       25.005 -20.614   8.153  0.00  0.00    +0.210 HD
ENDBRANCH  20  21
ENDBRANCH  18  20
BRANCH  18  23
ATOM     23  O   LIG    1       26.718 -20.031   8.485  0.00  0.00    -0.387 OA
ATOM     24  H   LIG    1       27.241 -19.468   7.876  0.00  0.00    +0.210 HD
ENDBRANCH  18  23
ENDBRANCH   1  18
TORSDOF 5
ENDMDL
MODEL 2
REMARK VINA RESULT:      -7.3      2.767      5.665
REMARK  Name = *****
REMARK                            x       y       z     vdW  Elec       q    Type
REMARK                         _______ _______ _______ _____ _____    ______ ____
ROOT
ATOM      1  C   LIG    1       31.713 -19.391   8.445  0.00  0.00    +0.119 C 
ATOM      2  N   LIG    1       31.173 -19.077   7.099  0.00  0.00    -0.330 N 
ATOM      3  H   LIG    1       31.295 -18.120   6.767  0.00  0.00    +0.147 HD
ATOM      4  C   LIG    1       29.919 -19.593   6.742  0.00  0.00    +0.133 C 
ATOM      5  C   LIG    1       29.297 -20.601   7.408  0.00  0.00    +0.149 C 
ATOM      6  N   LIG    1       28.046 -21.059   7.086  0.00  0.00    -0.199 NA
ATOM      7  C   LIG    1       27.406 -20.476   6.124  0.00  0.00    +0.195 C 
ATOM      8  N   LIG    1       27.936 -19.474   5.378  0.00  0.00    -0.294 N 
ATOM      9  H   LIG    1       27.391 -19.013   4.669  0.00  0.00    +0.172 HD
ATOM     10  N   LIG    1       29.938 -21.137   8.539  0.00  0.00    -0.326 N 
ATOM     11  H   LIG    1       29.636 -22.100   8.667  0.00  0.00    +0.148 HD
ATOM     12  C   LIG    1       29.172 -18.958   5.619  0.00  0.00    +0.276 C 
ATOM     13  O   LIG    1       29.628 -18.015   4.981  0.00  0.00    -0.266 OA
ATOM     14  C   LIG    1       31.376 -20.883   8.752  0.00  0.00    +0.128 C 
ENDROOT
BRANCH   7  15
ATOM     15  N   LIG    1       26.145 -20.859   5.814  0.00  0.00    -0.329 N 
ATOM     16  H   LIG    1       25.654 -20.316   5.117  0.00  0.00    +0.145 HD
ATOM     17  H   LIG    1       26.071 -21.861   5.673  0.00  0.00    +0.145 HD
ENDBRANCH   7  15
BRANCH   1  18
ATOM     18  C   LIG    1       31.153 -18.380   9.502  0.00  0.00    +0.164 C 
BRANCH  18  20
ATOM     19  C   LIG    1       31.590 -16.338  10.950  0.00  0.00    +0.040 C 
ATOM     20  C   LIG    1       32.141 -17.247   9.848  0.00  0.00    +0.142 C 
BRANCH  20  21
ATOM     21  O   LIG    1       32.425 -16.480   8.677  0.00  0.00    -0.389 OA
ATOM     22  H   LIG    1       32.647 -15.571   8.948  0.00  0.00    +0.210 HD
ENDBRANCH  20  21
ENDBRANCH  18  20
BRANCH  18  23
ATOM     23  O   LIG    1       30.719 -18.994  10.724  0.00  0.00    -0.387 OA
ATOM     24  H   LIG    1       29.958 -19.573  10.510  0.00  0.00    +0.210 HD
ENDBRANCH  18  23
ENDBRANCH   1  18
TORSDOF 5
ENDMDL
MODEL 3
REMARK VINA RESULT:      -6.8      4.194      6.688
REMARK  Name = *****
REMARK                            x       y       z     vdW  Elec       q    Type
REMARK                         _______ _______ _______ _____ _____    ______ ____
ROOT
ATOM      1  C   LIG    1       26.132 -21.810   7.013  0.00  0.00    +0.119 C 
ATOM      2  N   LIG    1       25.897 -21.470   5.588  0.00  0.00    -0.330 N 
ATOM      3  H   LIG    1       26.712 -21.187   5.043  0.00  0.00    +0.147 HD
ATOM      4  C   LIG    1       24.765 -20.713   5.256  0.00  0.00    +0.133 C 
ATOM      5  C   LIG    1       23.709 -20.522   6.091  0.00  0.00    +0.149 C 
ATOM      6  N   LIG    1       22.633 -19.733   5.780  0.00  0.00    -0.199 NA
ATOM      7  C   LIG    1       22.640 -19.103   4.650  0.00  0.00    +0.195 C 
ATOM      8  N   LIG    1       23.630 -19.232   3.731  0.00  0.00    -0.294 N 
ATOM      9  H   LIG    1       23.624 -18.689   2.884  0.00  0.00    +0.172 HD
ATOM     10  N   LIG    1       23.772 -21.097   7.373  0.00  0.00    -0.326 N 
ATOM     11  H   LIG    1       22.826 -21.271   7.706  0.00  0.00    +0.148 HD
ATOM     12  C   LIG    1       24.734 -19.998   3.948  0.00  0.00    +0.276 C 
ATOM     13  O   LIG    1       25.655 -20.070   3.142  0.00  0.00    -0.266 OA
ATOM     14  C   LIG    1       24.752 -22.167   7.646  0.00  0.00    +0.128 C 
ENDROOT
BRANCH   7  15
ATOM     15  N   LIG    1       21.624 -18.266   4.330  0.00  0.00    -0.329 N 
ATOM     16  H   LIG    1       20.926 -18.610   3.685  0.00  0.00    +0.145 HD
ATOM     17  H   LIG    1       21.231 -17.809   5.146  0.00  0.00    +0.145 HD
ENDBRANCH   7  15
BRANCH   1  18
ATOM     18  C   LIG    1       26.880 -20.637   7.733  0.00  0.00    +0.164 C 
BRANCH  18  20
ATOM     19  C   LIG    1       29.117 -19.440   7.880  0.00  0.00    +0.040 C 
ATOM     20  C   LIG    1       28.414 -20.792   7.721  0.00  0.00    +0.142 C 
BRANCH  20  21
ATOM     21  O   LIG    1       28.827 -21.417   6.505  0.00  0.00    -0.389 OA
ATOM     22  H   LIG    1       28.035 -21.731   6.033  0.00  0.00    +0.210 HD
ENDBRANCH  20  21
ENDBRANCH  18  20
BRANCH  18  23
ATOM     23  O   LIG    1       26.455 -20.418   9.085  0.00  0.00    -0.387 OA
ATOM     24  H   LIG    1       25.910 -21.187   9.353  0.00  0.00    +0.210 HD
ENDBRANCH  18  23
ENDBRANCH   1  18
TORSDOF 5
ENDMDL
MODEL 4
REMARK VINA RESULT:      -6.8      5.633      6.963
REMARK  Name = *****
REMARK                            x       y       z     vdW  Elec       q    Type
REMARK                         _______ _______ _______ _____ _____    ______ ____
ROOT
ATOM      1  C   LIG    1       24.070 -23.970   6.797  0.00  0.00    +0.119 C 
ATOM      2  N   LIG    1       23.219 -22.832   6.370  0.00  0.00    -0.330 N 
ATOM      3  H   LIG    1       22.302 -23.063   5.987  0.00  0.00    +0.147 HD
ATOM      4  C   LIG    1       23.816 -21.770   5.677  0.00  0.00    +0.133 C 
ATOM      5  C   LIG    1       25.157 -21.555   5.630  0.00  0.00    +0.149 C 
ATOM      6  N   LIG    1       25.735 -20.548   4.902  0.00  0.00    -0.199 NA
ATOM      7  C   LIG    1       24.969 -19.786   4.190  0.00  0.00    +0.195 C 
ATOM      8  N   LIG    1       23.616 -19.895   4.175  0.00  0.00    -0.294 N 
ATOM      9  H   LIG    1       23.057 -19.316   3.572  0.00  0.00    +0.172 HD
ATOM     10  N   LIG    1       25.994 -22.470   6.293  0.00  0.00    -0.326 N 
ATOM     11  H   LIG    1       26.856 -21.999   6.561  0.00  0.00    +0.148 HD
ATOM     12  C   LIG    1       22.953 -20.860   4.870  0.00  0.00    +0.276 C 
ATOM     13  O   LIG    1       21.736 -20.995   4.812  0.00  0.00    -0.266 OA
ATOM     14  C   LIG    1       25.423 -23.382   7.303  0.00  0.00    +0.128 C 
ENDROOT
BRANCH   7  15
ATOM     15  N   LIG    1       25.506 -18.817   3.410  0.00  0.00    -0.329 N 
ATOM     16  H   LIG    1       25.915 -18.021   3.877  0.00  0.00    +0.145 HD
ATOM     17  H   LIG    1       26.088 -19.198   2.672  0.00  0.00    +0.145 HD
ENDBRANCH   7  15
BRANCH   1  18
ATOM     18  C   LIG    1       24.220 -25.002   5.629  0.00  0.00    +0.164 C 
BRANCH  18  20
ATOM     19  C   LIG    1       26.231 -26.553   5.717  0.00  0.00    +0.040 C 
ATOM     20  C   LIG    1       24.756 -26.373   6.090  0.00  0.00    +0.142 C 
BRANCH  20  21
ATOM     21  O   LIG    1       23.974 -27.417   5.510  0.00  0.00    -0.389 OA
ATOM     22  H   LIG    1       23.207 -27.587   6.085  0.00  0.00    +0.210 HD
ENDBRANCH  20  21
ENDBRANCH  18  20
BRANCH  18  23
ATOM     23  O   LIG    1       25.032 -24.538   4.542  0.00  0.00    -0.387 OA
ATOM     24  H   LIG    1       25.793 -25.151   4.458  0.00  0.00    +0.210 HD
ENDBRANCH  18  23
ENDBRANCH   1  18
TORSDOF 5
ENDMDL
MODEL 5
REMARK VINA RESULT:      -6.5      2.876      4.241
REMARK  Name = *****
REMARK                            x       y       z     vdW  Elec       q    Type
REMARK                         _______ _______ _______ _____ _____    ______ ____
ROOT
ATOM      1  C   LIG    1       24.318 -21.410   6.750  0.00  0.00    +0.119 C 
ATOM      2  N   LIG    1       25.381 -20.511   6.235  0.00  0.00    -0.330 N 
ATOM      3  H   LIG    1       25.393 -20.344   5.229  0.00  0.00    +0.147 HD
ATOM      4  C   LIG    1       26.677 -20.639   6.755  0.00  0.00    +0.133 C 
ATOM      5  C   LIG    1       26.972 -21.308   7.900  0.00  0.00    +0.149 C 
ATOM      6  N   LIG    1       28.248 -21.476   8.369  0.00  0.00    -0.199 NA
ATOM      7  C   LIG    1       29.228 -21.010   7.664  0.00  0.00    +0.195 C 
ATOM      8  N   LIG    1       29.052 -20.309   6.515  0.00  0.00    -0.294 N 
ATOM      9  H   LIG    1       29.840 -20.004   5.969  0.00  0.00    +0.172 HD
ATOM     10  N   LIG    1       25.916 -21.931   8.588  0.00  0.00    -0.326 N 
ATOM     11  H   LIG    1       26.154 -21.995   9.576  0.00  0.00    +0.148 HD
ATOM     12  C   LIG    1       27.822 -20.086   5.976  0.00  0.00    +0.276 C 
ATOM     13  O   LIG    1       27.666 -19.503   4.909  0.00  0.00    -0.266 OA
ATOM     14  C   LIG    1       24.522 -21.548   8.290  0.00  0.00    +0.128 C 
ENDROOT
BRANCH   7  15
ATOM     15  N   LIG    1       30.508 -21.207   8.061  0.00  0.00    -0.329 N 
ATOM     16  H   LIG    1       31.212 -20.593   7.676  0.00  0.00    +0.145 HD
ATOM     17  H   LIG    1       30.584 -21.331   9.065  0.00  0.00    +0.145 HD
ENDBRANCH   7  15
BRANCH   1  18
ATOM     18  C   LIG    1       24.341 -22.772   5.979  0.00  0.00    +0.164 C 
BRANCH  18  20
ATOM     19  C   LIG    1       24.045 -25.287   6.201  0.00  0.00    +0.040 C 
ATOM     20  C   LIG    1       23.622 -23.912   6.730  0.00  0.00    +0.142 C 
BRANCH  20  21
ATOM     21  O   LIG    1       22.208 -23.755   6.607  0.00  0.00    -0.389 OA
ATOM     22  H   LIG    1       21.892 -23.202   7.343  0.00  0.00    +0.210 HD
ENDBRANCH  20  21
ENDBRANCH  18  20
BRANCH  18  23
ATOM     23  O   LIG    1       25.657 -23.220   5.625  0.00  0.00    -0.387 OA
ATOM     24  H   LIG    1       26.283 -22.843   6.278  0.00  0.00    +0.210 HD
ENDBRANCH  18  23
ENDBRANCH   1  18
TORSDOF 5
ENDMDL
MODEL 6
REMARK VINA RESULT:      -6.4      5.566      7.861
REMARK  Name = *****
REMARK                            x       y       z     vdW  Elec       q    Type
REMARK                         _______ _______ _______ _____ _____    ______ ____
ROOT
ATOM      1  C   LIG    1       25.344 -22.725   6.587  0.00  0.00    +0.119 C 
ATOM      2  N   LIG    1       26.182 -23.950   6.611  0.00  0.00    -0.330 N 
ATOM      3  H   LIG    1       27.129 -23.866   6.241  0.00  0.00    +0.147 HD
ATOM      4  C   LIG    1       25.594 -25.172   6.257  0.00  0.00    +0.133 C 
ATOM      5  C   LIG    1       24.252 -25.374   6.185  0.00  0.00    +0.149 C 
ATOM      6  N   LIG    1       23.687 -26.556   5.782  0.00  0.00    -0.199 NA
ATOM      7  C   LIG    1       24.471 -27.517   5.411  0.00  0.00    +0.195 C 
ATOM      8  N   LIG    1       25.825 -27.434   5.458  0.00  0.00    -0.294 N 
ATOM      9  H   LIG    1       26.401 -28.184   5.116  0.00  0.00    +0.172 HD
ATOM     10  N   LIG    1       23.406 -24.284   6.456  0.00  0.00    -0.326 N 
ATOM     11  H   LIG    1       22.514 -24.633   6.800  0.00  0.00    +0.148 HD
ATOM     12  C   LIG    1       26.474 -26.304   5.851  0.00  0.00    +0.276 C 
ATOM     13  O   LIG    1       27.697 -26.210   5.840  0.00  0.00    -0.266 OA
ATOM     14  C   LIG    1       23.942 -23.101   7.157  0.00  0.00    +0.128 C 
ENDROOT
BRANCH   7  15
ATOM     15  N   LIG    1       23.952 -28.680   4.948  0.00  0.00    -0.329 N 
ATOM     16  H   LIG    1       22.978 -28.862   5.142  0.00  0.00    +0.145 HD
ATOM     17  H   LIG    1       24.214 -28.860   3.985  0.00  0.00    +0.145 HD
ENDBRANCH   7  15
BRANCH   1  18
ATOM     18  C   LIG    1       25.305 -22.125   5.140  0.00  0.00    +0.164 C 
BRANCH  18  20
ATOM     19  C   LIG    1       24.494 -19.933   4.144  0.00  0.00    +0.040 C 
ATOM     20  C   LIG    1       25.483 -20.593   5.109  0.00  0.00    +0.142 C 
BRANCH  20  21
ATOM     21  O   LIG    1       26.822 -20.270   4.733  0.00  0.00    -0.389 OA
ATOM     22  H   LIG    1       27.355 -21.085   4.748  0.00  0.00    +0.210 HD
ENDBRANCH  20  21
ENDBRANCH  18  20
BRANCH  18  23
ATOM     23  O   LIG    1       24.123 -22.461   4.402  0.00  0.00    -0.387 OA
ATOM     24  H   LIG    1       24.396 -23.021   3.645  0.00  0.00    +0.210 HD
ENDBRANCH  18  23
ENDBRANCH   1  18
TORSDOF 5
ENDMDL
MODEL 7
REMARK VINA RESULT:      -6.4      3.252      4.702
REMARK  Name = *****
REMARK                            x       y       z     vdW  Elec       q    Type
REMARK                         _______ _______ _______ _____ _____    ______ ____
ROOT
ATOM      1  C   LIG    1       24.567 -22.328   7.119  0.00  0.00    +0.119 C 
ATOM      2  N   LIG    1       24.773 -21.206   6.169  0.00  0.00    -0.330 N 
ATOM      3  H   LIG    1       24.365 -21.310   5.240  0.00  0.00    +0.147 HD
ATOM      4  C   LIG    1       26.034 -20.596   6.115  0.00  0.00    +0.133 C 
ATOM      5  C   LIG    1       26.991 -20.746   7.069  0.00  0.00    +0.149 C 
ATOM      6  N   LIG    1       28.241 -20.192   6.977  0.00  0.00    -0.199 NA
ATOM      7  C   LIG    1       28.542 -19.525   5.910  0.00  0.00    +0.195 C 
ATOM      8  N   LIG    1       27.662 -19.295   4.903  0.00  0.00    -0.294 N 
ATOM      9  H   LIG    1       27.946 -18.814   4.067  0.00  0.00    +0.172 HD
ATOM     10  N   LIG    1       26.706 -21.585   8.160  0.00  0.00    -0.326 N 
ATOM     11  H   LIG    1       27.252 -21.283   8.964  0.00  0.00    +0.148 HD
ATOM     12  C   LIG    1       26.397 -19.799   4.908  0.00  0.00    +0.276 C 
ATOM     13  O   LIG    1       25.621 -19.639   3.973  0.00  0.00    -0.266 OA
ATOM     14  C   LIG    1       25.308 -21.966   8.443  0.00  0.00    +0.128 C 
ENDROOT
BRANCH   7  15
ATOM     15  N   LIG    1       29.786 -19.013   5.754  0.00  0.00    -0.329 N 
ATOM     16  H   LIG    1       30.309 -19.306   4.942  0.00  0.00    +0.145 HD
ATOM     17  H   LIG    1       29.811 -18.011   5.912  0.00  0.00    +0.145 HD
ENDBRANCH   7  15
BRANCH   1  18
ATOM     18  C   LIG    1       25.035 -23.675   6.474  0.00  0.00    +0.164 C 
BRANCH  18  20
ATOM     19  C   LIG    1       24.187 -25.861   5.494  0.00  0.00    +0.040 C 
ATOM     20  C   LIG    1       23.985 -24.801   6.581  0.00  0.00    +0.142 C 
BRANCH  20  21
ATOM     21  O   LIG    1       22.672 -24.247   6.486  0.00  0.00    -0.389 OA
ATOM     22  H   LIG    1       22.642 -23.428   7.011  0.00  0.00    +0.210 HD
ENDBRANCH  20  21
ENDBRANCH  18  20
BRANCH  18  23
ATOM     23  O   LIG    1       26.281 -24.166   6.987  0.00  0.00    -0.387 OA
ATOM     24  H   LIG    1       26.811 -23.390   7.270  0.00  0.00    +0.210 HD
ENDBRANCH  18  23
ENDBRANCH   1  18
TORSDOF 5
ENDMDL
MODEL 8
REMARK VINA RESULT:      -6.2      3.685      6.603
REMARK  Name = *****
REMARK                            x       y       z     vdW  Elec       q    Type
REMARK                         _______ _______ _______ _____ _____    ______ ____
ROOT
ATOM      1  C   LIG    1       27.431 -21.303   7.894  0.00  0.00    +0.119 C 
ATOM      2  N   LIG    1       26.920 -22.677   7.663  0.00  0.00    -0.330 N 
ATOM      3  H   LIG    1       27.508 -23.298   7.107  0.00  0.00    +0.147 HD
ATOM      4  C   LIG    1       25.561 -22.847   7.365  0.00  0.00    +0.133 C 
ATOM      5  C   LIG    1       24.616 -21.891   7.567  0.00  0.00    +0.149 C 
ATOM      6  N   LIG    1       23.300 -22.046   7.218  0.00  0.00    -0.199 NA
ATOM      7  C   LIG    1       22.944 -23.142   6.630  0.00  0.00    +0.195 C 
ATOM      8  N   LIG    1       23.797 -24.171   6.395  0.00  0.00    -0.294 N 
ATOM      9  H   LIG    1       23.495 -24.988   5.892  0.00  0.00    +0.172 HD
ATOM     10  N   LIG    1       25.034 -20.650   8.079  0.00  0.00    -0.326 N 
ATOM     11  H   LIG    1       24.260 -20.220   8.581  0.00  0.00    +0.148 HD
ATOM     12  C   LIG    1       25.120 -24.112   6.711  0.00  0.00    +0.276 C 
ATOM     13  O   LIG    1       25.901 -25.019   6.448  0.00  0.00    -0.266 OA
ATOM     14  C   LIG    1       26.357 -20.534   8.723  0.00  0.00    +0.128 C 
ENDROOT
BRANCH   7  15
ATOM     15  N   LIG    1       21.666 -23.310   6.215  0.00  0.00    -0.329 N 
ATOM     16  H   LIG    1       21.489 -23.250   5.222  0.00  0.00    +0.145 HD
ATOM     17  H   LIG    1       21.220 -24.105   6.659  0.00  0.00    +0.145 HD
ENDBRANCH   7  15
BRANCH   1  18
ATOM     18  C   LIG    1       27.791 -20.624   6.530  0.00  0.00    +0.164 C 
BRANCH  18  20
ATOM     19  C   LIG    1       28.995 -18.690   5.403  0.00  0.00    +0.040 C 
ATOM     20  C   LIG    1       28.925 -19.585   6.645  0.00  0.00    +0.142 C 
BRANCH  20  21
ATOM     21  O   LIG    1       30.173 -20.251   6.837  0.00  0.00    -0.389 OA
ATOM     22  H   LIG    1       30.885 -19.587   6.826  0.00  0.00    +0.210 HD
ENDBRANCH  20  21
ENDBRANCH  18  20
BRANCH  18  23
ATOM     23  O   LIG    1       26.674 -20.008   5.873  0.00  0.00    -0.387 OA
ATOM     24  H   LIG    1       25.858 -20.419   6.228  0.00  0.00    +0.210 HD
ENDBRANCH  18  23
ENDBRANCH   1  18
TORSDOF 5
ENDMDL
MODEL 9
REMARK VINA RESULT:      -5.9      2.802      5.940
REMARK  Name = *****
REMARK                            x       y       z     vdW  Elec       q    Type
REMARK                         _______ _______ _______ _____ _____    ______ ____
ROOT
ATOM      1  C   LIG    1       29.451 -20.500   6.893  0.00  0.00    +0.119 C 
ATOM      2  N   LIG    1       28.343 -20.413   5.910  0.00  0.00    -0.330 N 
ATOM      3  H   LIG    1       28.347 -19.607   5.284  0.00  0.00    +0.147 HD
ATOM      4  C   LIG    1       27.045 -20.734   6.331  0.00  0.00    +0.133 C 
ATOM      5  C   LIG    1       26.766 -21.406   7.479  0.00  0.00    +0.149 C 
ATOM      6  N   LIG    1       25.491 -21.664   7.911  0.00  0.00    -0.199 NA
ATOM      7  C   LIG    1       24.501 -21.210   7.213  0.00  0.00    +0.195 C 
ATOM      8  N   LIG    1       24.660 -20.543   6.042  0.00  0.00    -0.294 N 
ATOM      9  H   LIG    1       23.868 -20.163   5.551  0.00  0.00    +0.172 HD
ATOM     10  N   LIG    1       27.842 -21.776   8.304  0.00  0.00    -0.326 N 
ATOM     11  H   LIG    1       27.582 -22.600   8.841  0.00  0.00    +0.148 HD
ATOM     12  C   LIG    1       25.886 -20.246   5.530  0.00  0.00    +0.276 C 
ATOM     13  O   LIG    1       26.031 -19.594   4.502  0.00  0.00    -0.266 OA
ATOM     14  C   LIG    1       29.214 -21.776   7.758  0.00  0.00    +0.128 C 
ENDROOT
BRANCH   7  15
ATOM     15  N   LIG    1       23.227 -21.392   7.636  0.00  0.00    -0.329 N 
ATOM     16  H   LIG    1       22.863 -20.729   8.306  0.00  0.00    +0.145 HD
ATOM     17  H   LIG    1       22.591 -21.584   6.870  0.00  0.00    +0.145 HD
ENDBRANCH   7  15
BRANCH   1  18
ATOM     18  C   LIG    1       29.544 -19.175   7.722  0.00  0.00    +0.164 C 
BRANCH  18  20
ATOM     19  C   LIG    1       31.049 -17.481   8.873  0.00  0.00    +0.040 C 
ATOM     20  C   LIG    1       30.972 -18.863   8.217  0.00  0.00    +0.142 C 
BRANCH  20  21
ATOM     21  O   LIG    1       31.889 -18.937   7.124  0.00  0.00    -0.389 OA
ATOM     22  H   LIG    1       31.660 -19.711   6.579  0.00  0.00    +0.210 HD
ENDBRANCH  20  21
ENDBRANCH  18  20
BRANCH  18  23
ATOM     23  O   LIG    1       28.653 -19.126   8.845  0.00  0.00    -0.387 OA
ATOM     24  H   LIG    1       28.298 -18.214   8.901  0.00  0.00    +0.210 HD
ENDBRANCH  18  23
ENDBRANCH   1  18
TORSDOF 5
ENDMDL
