MODEL 1
REMARK VINA RESULT:      -5.8      0.000      0.000
REMARK  Name = *****
REMARK                            x       y       z     vdW  Elec       q    Type
REMARK                         _______ _______ _______ _____ _____    ______ ____
ROOT
ATOM      1  C   LIG    1       25.708 -29.831  11.683  0.00  0.00    +0.131 C 
ATOM      2  C   LIG    1       24.433 -30.614  11.266  0.00  0.00    +0.280 C 
ATOM      3  C   LIG    1       24.712 -31.708  10.207  0.00  0.00    +0.262 C 
ATOM      4  O   LIG    1       24.841 -32.886  10.552  0.00  0.00    -0.271 OA
ATOM      5  N   LIG    1       24.747 -31.320   8.860  0.00  0.00    -0.266 N 
ATOM      6  C   LIG    1       25.069 -29.993   8.432  0.00  0.00    +0.050 A 
ATOM      7  C   LIG    1       26.122 -29.247   8.998  0.00  0.00    +0.030 A 
ATOM      8  C   LIG    1       26.504 -28.028   8.411  0.00  0.00    +0.016 A 
ATOM      9  C   LIG    1       25.795 -27.500   7.335  0.00  0.00    +0.001 A 
ATOM     10  C   LIG    1       24.711 -28.200   6.817  0.00  0.00    +0.002 A 
ATOM     11  C   LIG    1       24.367 -29.449   7.344  0.00  0.00    +0.024 A 
ATOM     12  S   LIG    1       27.061 -29.758  10.424  0.00  0.00    -0.111 S 
ENDROOT
BRANCH   1  16
ATOM     13  C   LIG    1       25.045 -25.911  13.523  0.00  0.00    +0.120 A 
ATOM     14  C   LIG    1       26.245 -26.220  12.896  0.00  0.00    +0.046 A 
ATOM     15  C   LIG    1       26.446 -27.472  12.318  0.00  0.00    +0.008 A 
ATOM     16  C   LIG    1       25.463 -28.468  12.341  0.00  0.00    -0.030 A 
ATOM     17  C   LIG    1       24.255 -28.157  12.991  0.00  0.00    +0.008 A 
ATOM     18  C   LIG    1       24.050 -26.889  13.576  0.00  0.00    +0.046 A 
BRANCH  13  20
ATOM     19  C   LIG    1       25.881 -24.054  14.726  0.00  0.00    +0.277 C 
ATOM     20  O   LIG    1       24.769 -24.696  14.098  0.00  0.00    -0.495 OA
ENDBRANCH  13  20
ENDBRANCH   1  16
BRANCH   2  21
ATOM     21  O   LIG    1       23.321 -29.789  10.843  0.00  0.00    -0.451 OA
BRANCH  21  22
ATOM     22  C   LIG    1       22.109 -30.418  10.918  0.00  0.00    +0.305 C 
ATOM     23  O   LIG    1       21.438 -30.767   9.967  0.00  0.00    -0.251 OA
ATOM     24  C   LIG    1       21.698 -30.679  12.338  0.00  0.00    +0.136 C 
ENDBRANCH  21  22
ENDBRANCH   2  21
BRANCH   5  25
ATOM     25  C   LIG    1       24.889 -32.380   7.832  0.00  0.00    +0.129 C 
BRANCH  25  26
ATOM     26  C   LIG    1       26.343 -32.583   7.341  0.00  0.00    +0.103 C 
BRANCH  26  27
ATOM     27  N   LIG    1       26.475 -33.060   5.942  0.00  0.00    -0.307 NA
ATOM     28  C   LIG    1       27.838 -33.457   5.589  0.00  0.00    +0.104 C 
ATOM     29  C   LIG    1       26.011 -32.028   5.010  0.00  0.00    +0.104 C 
ENDBRANCH  26  27
ENDBRANCH  25  26
ENDBRANCH   5  25
TORSDOF 7
ENDMDL
MODEL 2
REMARK VINA RESULT:      -5.3      2.854      6.234
REMARK  Name = *****
REMARK                            x       y       z     vdW  Elec       q    Type
REMARK                         _______ _______ _______ _____ _____    ______ ____
ROOT
ATOM      1  C   LIG    1       25.774 -30.491  10.088  0.00  0.00    +0.131 C 
ATOM      2  C   LIG    1       25.992 -29.780  11.452  0.00  0.00    +0.280 C 
ATOM      3  C   LIG    1       25.757 -30.711  12.666  0.00  0.00    +0.262 C 
ATOM      4  O   LIG    1       26.716 -31.239  13.237  0.00  0.00    -0.271 OA
ATOM      5  N   LIG    1       24.440 -30.876  13.119  0.00  0.00    -0.266 N 
ATOM      6  C   LIG    1       23.293 -30.703  12.280  0.00  0.00    +0.050 A 
ATOM      7  C   LIG    1       23.234 -31.200  10.963  0.00  0.00    +0.030 A 
ATOM      8  C   LIG    1       22.018 -31.161  10.260  0.00  0.00    +0.016 A 
ATOM      9  C   LIG    1       20.893 -30.550  10.811  0.00  0.00    +0.001 A 
ATOM     10  C   LIG    1       20.967 -29.996  12.083  0.00  0.00    +0.002 A 
ATOM     11  C   LIG    1       22.149 -30.095  12.823  0.00  0.00    +0.024 A 
ATOM     12  S   LIG    1       24.613 -31.931  10.103  0.00  0.00    -0.111 S 
ENDROOT
BRANCH   1  16
ATOM     13  C   LIG    1       25.006 -27.865   6.667  0.00  0.00    +0.120 A 
ATOM     14  C   LIG    1       24.276 -29.031   6.860  0.00  0.00    +0.046 A 
ATOM     15  C   LIG    1       24.533 -29.860   7.949  0.00  0.00    +0.008 A 
ATOM     16  C   LIG    1       25.525 -29.566   8.891  0.00  0.00    -0.030 A 
ATOM     17  C   LIG    1       26.274 -28.393   8.683  0.00  0.00    +0.008 A 
ATOM     18  C   LIG    1       26.015 -27.551   7.581  0.00  0.00    +0.046 A 
BRANCH  13  20
ATOM     19  C   LIG    1       24.234 -25.732   5.999  0.00  0.00    +0.277 C 
ATOM     20  O   LIG    1       24.799 -26.992   5.630  0.00  0.00    -0.495 OA
ENDBRANCH  13  20
ENDBRANCH   1  16
BRANCH   2  21
ATOM     21  O   LIG    1       25.252 -28.548  11.623  0.00  0.00    -0.451 OA
BRANCH  21  22
ATOM     22  C   LIG    1       25.871 -27.642  12.440  0.00  0.00    +0.305 C 
ATOM     23  O   LIG    1       27.035 -27.307  12.363  0.00  0.00    -0.251 OA
ATOM     24  C   LIG    1       24.923 -27.054  13.445  0.00  0.00    +0.136 C 
ENDBRANCH  21  22
ENDBRANCH   2  21
BRANCH   5  25
ATOM     25  C   LIG    1       24.220 -31.665  14.355  0.00  0.00    +0.129 C 
BRANCH  25  26
ATOM     26  C   LIG    1       23.921 -33.161  14.097  0.00  0.00    +0.103 C 
BRANCH  26  27
ATOM     27  N   LIG    1       22.572 -33.616  14.516  0.00  0.00    -0.307 NA
ATOM     28  C   LIG    1       21.637 -33.772  13.401  0.00  0.00    +0.104 C 
ATOM     29  C   LIG    1       22.007 -32.685  15.499  0.00  0.00    +0.104 C 
ENDBRANCH  26  27
ENDBRANCH  25  26
ENDBRANCH   5  25
TORSDOF 7
ENDMDL
MODEL 3
REMARK VINA RESULT:      -5.2      2.618      7.646
REMARK  Name = *****
REMARK                            x       y       z     vdW  Elec       q    Type
REMARK                         _______ _______ _______ _____ _____    ______ ____
ROOT
ATOM      1  C   LIG    1       26.241 -31.616   8.644  0.00  0.00    +0.131 C 
ATOM      2  C   LIG    1       25.987 -30.118   8.967  0.00  0.00    +0.280 C 
ATOM      3  C   LIG    1       25.874 -29.835  10.485  0.00  0.00    +0.262 C 
ATOM      4  O   LIG    1       26.845 -29.395  11.107  0.00  0.00    -0.271 OA
ATOM      5  N   LIG    1       24.628 -30.036  11.097  0.00  0.00    -0.266 N 
ATOM      6  C   LIG    1       23.643 -30.944  10.593  0.00  0.00    +0.050 A 
ATOM      7  C   LIG    1       23.966 -32.230  10.118  0.00  0.00    +0.030 A 
ATOM      8  C   LIG    1       22.937 -33.137   9.812  0.00  0.00    +0.016 A 
ATOM      9  C   LIG    1       21.601 -32.751   9.882  0.00  0.00    +0.001 A 
ATOM     10  C   LIG    1       21.279 -31.460  10.283  0.00  0.00    +0.002 A 
ATOM     11  C   LIG    1       22.290 -30.571  10.661  0.00  0.00    +0.024 A 
ATOM     12  S   LIG    1       25.630 -32.830   9.900  0.00  0.00    -0.111 S 
ENDROOT
BRANCH   1  16
ATOM     13  C   LIG    1       25.225 -32.836   4.561  0.00  0.00    +0.120 A 
ATOM     14  C   LIG    1       24.239 -32.606   5.512  0.00  0.00    +0.046 A 
ATOM     15  C   LIG    1       24.574 -32.223   6.809  0.00  0.00    +0.008 A 
ATOM     16  C   LIG    1       25.903 -32.054   7.214  0.00  0.00    -0.030 A 
ATOM     17  C   LIG    1       26.900 -32.303   6.253  0.00  0.00    +0.008 A 
ATOM     18  C   LIG    1       26.562 -32.690   4.939  0.00  0.00    +0.046 A 
BRANCH  13  20
ATOM     19  C   LIG    1       26.044 -32.969   2.347  0.00  0.00    +0.277 C 
ATOM     20  O   LIG    1       24.971 -33.198   3.263  0.00  0.00    -0.495 OA
ENDBRANCH  13  20
ENDBRANCH   1  16
BRANCH   2  21
ATOM     21  O   LIG    1       24.866 -29.526   8.269  0.00  0.00    -0.451 OA
BRANCH  21  22
ATOM     22  C   LIG    1       25.216 -28.494   7.441  0.00  0.00    +0.305 C 
ATOM     23  O   LIG    1       26.033 -27.634   7.697  0.00  0.00    -0.251 OA
ATOM     24  C   LIG    1       24.495 -28.562   6.126  0.00  0.00    +0.136 C 
ENDBRANCH  21  22
ENDBRANCH   2  21
BRANCH   5  25
ATOM     25  C   LIG    1       24.480 -29.649  12.520  0.00  0.00    +0.129 C 
BRANCH  25  26
ATOM     26  C   LIG    1       24.159 -28.150  12.730  0.00  0.00    +0.103 C 
BRANCH  26  27
ATOM     27  N   LIG    1       22.726 -27.835  12.950  0.00  0.00    -0.307 NA
ATOM     28  C   LIG    1       22.487 -26.445  13.336  0.00  0.00    +0.104 C 
ATOM     29  C   LIG    1       22.163 -28.727  13.970  0.00  0.00    +0.104 C 
ENDBRANCH  26  27
ENDBRANCH  25  26
ENDBRANCH   5  25
TORSDOF 7
ENDMDL
MODEL 4
REMARK VINA RESULT:      -5.0      2.966      6.219
REMARK  Name = *****
REMARK                            x       y       z     vdW  Elec       q    Type
REMARK                         _______ _______ _______ _____ _____    ______ ____
ROOT
ATOM      1  C   LIG    1       23.987 -30.662   8.296  0.00  0.00    +0.131 C 
ATOM      2  C   LIG    1       24.912 -31.904   8.417  0.00  0.00    +0.280 C 
ATOM      3  C   LIG    1       24.559 -32.808   9.623  0.00  0.00    +0.262 C 
ATOM      4  O   LIG    1       23.879 -33.825   9.455  0.00  0.00    -0.271 OA
ATOM      5  N   LIG    1       25.086 -32.464  10.875  0.00  0.00    -0.266 N 
ATOM      6  C   LIG    1       25.457 -31.128  11.232  0.00  0.00    +0.050 A 
ATOM      7  C   LIG    1       24.665 -30.009  10.910  0.00  0.00    +0.030 A 
ATOM      8  C   LIG    1       24.989 -28.751  11.448  0.00  0.00    +0.016 A 
ATOM      9  C   LIG    1       26.136 -28.577  12.218  0.00  0.00    +0.001 A 
ATOM     10  C   LIG    1       26.959 -29.667  12.480  0.00  0.00    +0.002 A 
ATOM     11  C   LIG    1       26.609 -30.937  12.014  0.00  0.00    +0.024 A 
ATOM     12  S   LIG    1       23.219 -30.068   9.871  0.00  0.00    -0.111 S 
ENDROOT
BRANCH   1  16
ATOM     13  C   LIG    1       25.508 -27.354   5.860  0.00  0.00    +0.120 A 
ATOM     14  C   LIG    1       24.644 -28.303   5.329  0.00  0.00    +0.046 A 
ATOM     15  C   LIG    1       24.170 -29.353   6.112  0.00  0.00    +0.008 A 
ATOM     16  C   LIG    1       24.537 -29.504   7.454  0.00  0.00    -0.030 A 
ATOM     17  C   LIG    1       25.425 -28.551   7.984  0.00  0.00    +0.008 A 
ATOM     18  C   LIG    1       25.905 -27.486   7.192  0.00  0.00    +0.046 A 
BRANCH  13  20
ATOM     19  C   LIG    1       25.136 -25.149   5.090  0.00  0.00    +0.277 C 
ATOM     20  O   LIG    1       26.001 -26.285   5.156  0.00  0.00    -0.495 OA
ENDBRANCH  13  20
ENDBRANCH   1  16
BRANCH   2  21
ATOM     21  O   LIG    1       26.330 -31.610   8.419  0.00  0.00    -0.451 OA
BRANCH  21  22
ATOM     22  C   LIG    1       27.067 -32.451   7.632  0.00  0.00    +0.305 C 
ATOM     23  O   LIG    1       27.860 -33.277   8.036  0.00  0.00    -0.251 OA
ATOM     24  C   LIG    1       26.755 -32.273   6.174  0.00  0.00    +0.136 C 
ENDBRANCH  21  22
ENDBRANCH   2  21
BRANCH   5  25
ATOM     25  C   LIG    1       24.856 -33.393  12.008  0.00  0.00    +0.129 C 
BRANCH  25  26
ATOM     26  C   LIG    1       23.564 -33.096  12.807  0.00  0.00    +0.103 C 
BRANCH  26  27
ATOM     27  N   LIG    1       23.775 -32.628  14.199  0.00  0.00    -0.307 NA
ATOM     28  C   LIG    1       23.622 -31.182  14.356  0.00  0.00    +0.104 C 
ATOM     29  C   LIG    1       25.103 -33.032  14.672  0.00  0.00    +0.104 C 
ENDBRANCH  26  27
ENDBRANCH  25  26
ENDBRANCH   5  25
TORSDOF 7
ENDMDL
MODEL 5
REMARK VINA RESULT:      -4.9      3.173      7.304
REMARK  Name = *****
REMARK                            x       y       z     vdW  Elec       q    Type
REMARK                         _______ _______ _______ _____ _____    ______ ____
ROOT
ATOM      1  C   LIG    1       25.037 -31.099  12.382  0.00  0.00    +0.131 C 
ATOM      2  C   LIG    1       26.007 -29.886  12.428  0.00  0.00    +0.280 C 
ATOM      3  C   LIG    1       26.117 -29.250  13.835  0.00  0.00    +0.262 C 
ATOM      4  O   LIG    1       27.069 -29.532  14.568  0.00  0.00    -0.271 OA
ATOM      5  N   LIG    1       25.145 -28.311  14.206  0.00  0.00    -0.266 N 
ATOM      6  C   LIG    1       23.825 -28.285  13.652  0.00  0.00    +0.050 A 
ATOM      7  C   LIG    1       23.066 -29.453  13.442  0.00  0.00    +0.030 A 
ATOM      8  C   LIG    1       21.715 -29.346  13.071  0.00  0.00    +0.016 A 
ATOM      9  C   LIG    1       21.141 -28.103  12.814  0.00  0.00    +0.001 A 
ATOM     10  C   LIG    1       21.907 -26.951  12.951  0.00  0.00    +0.002 A 
ATOM     11  C   LIG    1       23.230 -27.039  13.392  0.00  0.00    +0.024 A 
ATOM     12  S   LIG    1       23.692 -31.108  13.652  0.00  0.00    -0.111 S 
ENDROOT
BRANCH   1  16
ATOM     13  C   LIG    1       23.508 -32.142   8.412  0.00  0.00    +0.120 A 
ATOM     14  C   LIG    1       22.694 -31.540   9.363  0.00  0.00    +0.046 A 
ATOM     15  C   LIG    1       23.191 -31.217  10.624  0.00  0.00    +0.008 A 
ATOM     16  C   LIG    1       24.515 -31.480  10.992  0.00  0.00    -0.030 A 
ATOM     17  C   LIG    1       25.332 -32.105  10.032  0.00  0.00    +0.008 A 
ATOM     18  C   LIG    1       24.831 -32.431   8.753  0.00  0.00    +0.046 A 
BRANCH  13  20
ATOM     19  C   LIG    1       23.896 -31.942   6.088  0.00  0.00    +0.277 C 
ATOM     20  O   LIG    1       23.095 -32.472   7.146  0.00  0.00    -0.495 OA
ENDBRANCH  13  20
ENDBRANCH   1  16
BRANCH   2  21
ATOM     21  O   LIG    1       25.746 -28.861  11.441  0.00  0.00    -0.451 OA
BRANCH  21  22
ATOM     22  C   LIG    1       26.770 -28.677  10.553  0.00  0.00    +0.305 C 
ATOM     23  O   LIG    1       27.950 -28.638  10.838  0.00  0.00    -0.251 OA
ATOM     24  C   LIG    1       26.274 -28.569   9.140  0.00  0.00    +0.136 C 
ENDBRANCH  21  22
ENDBRANCH   2  21
BRANCH   5  25
ATOM     25  C   LIG    1       25.313 -27.606  15.500  0.00  0.00    +0.129 C 
BRANCH  25  26
ATOM     26  C   LIG    1       25.959 -26.206  15.369  0.00  0.00    +0.103 C 
BRANCH  26  27
ATOM     27  N   LIG    1       27.009 -26.090  14.327  0.00  0.00    -0.307 NA
ATOM     28  C   LIG    1       28.269 -25.543  14.828  0.00  0.00    +0.104 C 
ATOM     29  C   LIG    1       26.526 -25.263  13.215  0.00  0.00    +0.104 C 
ENDBRANCH  26  27
ENDBRANCH  25  26
ENDBRANCH   5  25
TORSDOF 7
ENDMDL
MODEL 6
REMARK VINA RESULT:      -4.6      2.709      7.509
REMARK  Name = *****
REMARK                            x       y       z     vdW  Elec       q    Type
REMARK                         _______ _______ _______ _____ _____    ______ ____
ROOT
ATOM      1  C   LIG    1       26.184 -31.299   9.100  0.00  0.00    +0.131 C 
ATOM      2  C   LIG    1       26.293 -29.750   9.136  0.00  0.00    +0.280 C 
ATOM      3  C   LIG    1       26.700 -29.202  10.525  0.00  0.00    +0.262 C 
ATOM      4  O   LIG    1       27.874 -28.893  10.750  0.00  0.00    -0.271 OA
ATOM      5  N   LIG    1       25.687 -29.015  11.477  0.00  0.00    -0.266 N 
ATOM      6  C   LIG    1       24.459 -29.750  11.472  0.00  0.00    +0.050 A 
ATOM      7  C   LIG    1       24.404 -31.136  11.228  0.00  0.00    +0.030 A 
ATOM      8  C   LIG    1       23.196 -31.828  11.419  0.00  0.00    +0.016 A 
ATOM      9  C   LIG    1       22.028 -31.147  11.755  0.00  0.00    +0.001 A 
ATOM     10  C   LIG    1       22.063 -29.768  11.929  0.00  0.00    +0.002 A 
ATOM     11  C   LIG    1       23.273 -29.078  11.815  0.00  0.00    +0.024 A 
ATOM     12  S   LIG    1       25.797 -32.120  10.712  0.00  0.00    -0.111 S 
ENDROOT
BRANCH   1  16
ATOM     13  C   LIG    1       23.866 -32.984   5.788  0.00  0.00    +0.120 A 
ATOM     14  C   LIG    1       25.211 -32.668   5.640  0.00  0.00    +0.046 A 
ATOM     15  C   LIG    1       25.936 -32.128   6.699  0.00  0.00    +0.008 A 
ATOM     16  C   LIG    1       25.356 -31.880   7.948  0.00  0.00    -0.030 A 
ATOM     17  C   LIG    1       23.990 -32.186   8.089  0.00  0.00    +0.008 A 
ATOM     18  C   LIG    1       23.254 -32.734   7.018  0.00  0.00    +0.046 A 
BRANCH  13  20
ATOM     19  C   LIG    1       23.782 -33.825   3.579  0.00  0.00    +0.277 C 
ATOM     20  O   LIG    1       23.093 -33.534   4.797  0.00  0.00    -0.495 OA
ENDBRANCH  13  20
ENDBRANCH   1  16
BRANCH   2  21
ATOM     21  O   LIG    1       25.127 -29.045   8.649  0.00  0.00    -0.451 OA
BRANCH  21  22
ATOM     22  C   LIG    1       25.372 -28.265   7.553  0.00  0.00    +0.305 C 
ATOM     23  O   LIG    1       26.177 -27.358   7.501  0.00  0.00    -0.251 OA
ATOM     24  C   LIG    1       24.548 -28.685   6.370  0.00  0.00    +0.136 C 
ENDBRANCH  21  22
ENDBRANCH   2  21
BRANCH   5  25
ATOM     25  C   LIG    1       26.049 -28.375  12.765  0.00  0.00    +0.129 C 
BRANCH  25  26
ATOM     26  C   LIG    1       26.216 -26.839  12.674  0.00  0.00    +0.103 C 
BRANCH  26  27
ATOM     27  N   LIG    1       26.047 -26.109  13.954  0.00  0.00    -0.307 NA
ATOM     28  C   LIG    1       25.960 -26.989  15.120  0.00  0.00    +0.104 C 
ATOM     29  C   LIG    1       24.855 -25.257  13.897  0.00  0.00    +0.104 C 
ENDBRANCH  26  27
ENDBRANCH  25  26
ENDBRANCH   5  25
TORSDOF 7
ENDMDL
MODEL 7
REMARK VINA RESULT:      -4.6      3.613      7.267
REMARK  Name = *****
REMARK                            x       y       z     vdW  Elec       q    Type
REMARK                         _______ _______ _______ _____ _____    ______ ____
ROOT
ATOM      1  C   LIG    1       22.190 -31.760  12.714  0.00  0.00    +0.131 C 
ATOM      2  C   LIG    1       23.480 -31.135  12.115  0.00  0.00    +0.280 C 
ATOM      3  C   LIG    1       24.404 -30.508  13.187  0.00  0.00    +0.262 C 
ATOM      4  O   LIG    1       25.380 -31.137  13.607  0.00  0.00    -0.271 OA
ATOM      5  N   LIG    1       24.128 -29.198  13.604  0.00  0.00    -0.266 N 
ATOM      6  C   LIG    1       22.825 -28.610  13.536  0.00  0.00    +0.050 A 
ATOM      7  C   LIG    1       21.657 -29.306  13.904  0.00  0.00    +0.030 A 
ATOM      8  C   LIG    1       20.435 -28.617  13.991  0.00  0.00    +0.016 A 
ATOM      9  C   LIG    1       20.344 -27.276  13.626  0.00  0.00    +0.001 A 
ATOM     10  C   LIG    1       21.482 -26.602  13.195  0.00  0.00    +0.002 A 
ATOM     11  C   LIG    1       22.717 -27.256  13.175  0.00  0.00    +0.024 A 
ATOM     12  S   LIG    1       21.610 -31.039  14.316  0.00  0.00    -0.111 S 
ENDROOT
BRANCH   1  16
ATOM     13  C   LIG    1       18.879 -32.412   9.921  0.00  0.00    +0.120 A 
ATOM     14  C   LIG    1       19.659 -33.468  10.373  0.00  0.00    +0.046 A 
ATOM     15  C   LIG    1       20.713 -33.247  11.258  0.00  0.00    +0.008 A 
ATOM     16  C   LIG    1       21.034 -31.969  11.728  0.00  0.00    -0.030 A 
ATOM     17  C   LIG    1       20.252 -30.900  11.255  0.00  0.00    +0.008 A 
ATOM     18  C   LIG    1       19.184 -31.121  10.360  0.00  0.00    +0.046 A 
BRANCH  13  20
ATOM     19  C   LIG    1       17.815 -33.755   8.291  0.00  0.00    +0.277 C 
ATOM     20  O   LIG    1       17.817 -32.553   9.064  0.00  0.00    -0.495 OA
ENDBRANCH  13  20
ENDBRANCH   1  16
BRANCH   2  21
ATOM     21  O   LIG    1       23.257 -30.191  11.041  0.00  0.00    -0.451 OA
BRANCH  21  22
ATOM     22  C   LIG    1       23.690 -30.632   9.821  0.00  0.00    +0.305 C 
ATOM     23  O   LIG    1       23.300 -30.223   8.746  0.00  0.00    -0.251 OA
ATOM     24  C   LIG    1       24.762 -31.676   9.950  0.00  0.00    +0.136 C 
ENDBRANCH  21  22
ENDBRANCH   2  21
BRANCH   5  25
ATOM     25  C   LIG    1       25.080 -28.547  14.535  0.00  0.00    +0.129 C 
BRANCH  25  26
ATOM     26  C   LIG    1       26.394 -28.081  13.862  0.00  0.00    +0.103 C 
BRANCH  26  27
ATOM     27  N   LIG    1       26.219 -27.236  12.655  0.00  0.00    -0.307 NA
ATOM     28  C   LIG    1       26.928 -27.744  11.481  0.00  0.00    +0.104 C 
ATOM     29  C   LIG    1       26.655 -25.863  12.932  0.00  0.00    +0.104 C 
ENDBRANCH  26  27
ENDBRANCH  25  26
ENDBRANCH   5  25
TORSDOF 7
ENDMDL
MODEL 8
REMARK VINA RESULT:      -4.5      1.888      2.646
REMARK  Name = *****
REMARK                            x       y       z     vdW  Elec       q    Type
REMARK                         _______ _______ _______ _____ _____    ______ ____
ROOT
ATOM      1  C   LIG    1       24.188 -30.966  12.719  0.00  0.00    +0.131 C 
ATOM      2  C   LIG    1       23.475 -31.686  11.542  0.00  0.00    +0.280 C 
ATOM      3  C   LIG    1       24.418 -32.610  10.734  0.00  0.00    +0.262 C 
ATOM      4  O   LIG    1       24.429 -33.825  10.950  0.00  0.00    -0.271 OA
ATOM      5  N   LIG    1       25.198 -32.027   9.725  0.00  0.00    -0.266 N 
ATOM      6  C   LIG    1       25.586 -30.649   9.728  0.00  0.00    +0.050 A 
ATOM      7  C   LIG    1       26.036 -29.989  10.889  0.00  0.00    +0.030 A 
ATOM      8  C   LIG    1       26.575 -28.695  10.787  0.00  0.00    +0.016 A 
ATOM      9  C   LIG    1       26.584 -28.018   9.570  0.00  0.00    +0.001 A 
ATOM     10  C   LIG    1       26.076 -28.639   8.435  0.00  0.00    +0.002 A 
ATOM     11  C   LIG    1       25.605 -29.954   8.507  0.00  0.00    +0.024 A 
ATOM     12  S   LIG    1       26.008 -30.701  12.522  0.00  0.00    -0.111 S 
ENDROOT
BRANCH   1  16
ATOM     13  C   LIG    1       22.163 -27.423  14.311  0.00  0.00    +0.120 A 
ATOM     14  C   LIG    1       21.818 -28.701  14.732  0.00  0.00    +0.046 A 
ATOM     15  C   LIG    1       22.466 -29.820  14.215  0.00  0.00    +0.008 A 
ATOM     16  C   LIG    1       23.482 -29.716  13.259  0.00  0.00    -0.030 A 
ATOM     17  C   LIG    1       23.818 -28.421  12.823  0.00  0.00    +0.008 A 
ATOM     18  C   LIG    1       23.163 -27.286  13.346  0.00  0.00    +0.046 A 
BRANCH  13  20
ATOM     19  C   LIG    1       20.357 -26.462  15.498  0.00  0.00    +0.277 C 
ATOM     20  O   LIG    1       21.582 -26.275  14.787  0.00  0.00    -0.495 OA
ENDBRANCH  13  20
ENDBRANCH   1  16
BRANCH   2  21
ATOM     21  O   LIG    1       22.749 -30.813  10.644  0.00  0.00    -0.451 OA
BRANCH  21  22
ATOM     22  C   LIG    1       21.475 -31.232  10.377  0.00  0.00    +0.305 C 
ATOM     23  O   LIG    1       21.175 -32.139   9.627  0.00  0.00    -0.251 OA
ATOM     24  C   LIG    1       20.455 -30.462  11.165  0.00  0.00    +0.136 C 
ENDBRANCH  21  22
ENDBRANCH   2  21
BRANCH   5  25
ATOM     25  C   LIG    1       26.009 -32.922   8.865  0.00  0.00    +0.129 C 
BRANCH  25  26
ATOM     26  C   LIG    1       25.209 -33.580   7.716  0.00  0.00    +0.103 C 
BRANCH  26  27
ATOM     27  N   LIG    1       25.002 -32.726   6.521  0.00  0.00    -0.307 NA
ATOM     28  C   LIG    1       23.592 -32.484   6.215  0.00  0.00    +0.104 C 
ATOM     29  C   LIG    1       25.658 -33.324   5.353  0.00  0.00    +0.104 C 
ENDBRANCH  26  27
ENDBRANCH  25  26
ENDBRANCH   5  25
TORSDOF 7
ENDMDL
MODEL 9
REMARK VINA RESULT:      -4.4      3.329      6.119
REMARK  Name = *****
REMARK                            x       y       z     vdW  Elec       q    Type
REMARK                         _______ _______ _______ _____ _____    ______ ____
ROOT
ATOM      1  C   LIG    1       21.518 -29.018  12.308  0.00  0.00    +0.131 C 
ATOM      2  C   LIG    1       21.809 -29.889  11.055  0.00  0.00    +0.280 C 
ATOM      3  C   LIG    1       20.812 -31.060  10.884  0.00  0.00    +0.262 C 
ATOM      4  O   LIG    1       19.863 -30.956  10.101  0.00  0.00    -0.271 OA
ATOM      5  N   LIG    1       21.062 -32.242  11.595  0.00  0.00    -0.266 N 
ATOM      6  C   LIG    1       21.812 -32.283  12.814  0.00  0.00    +0.050 A 
ATOM      7  C   LIG    1       21.645 -31.332  13.840  0.00  0.00    +0.030 A 
ATOM      8  C   LIG    1       22.273 -31.533  15.081  0.00  0.00    +0.016 A 
ATOM      9  C   LIG    1       23.135 -32.608  15.280  0.00  0.00    +0.001 A 
ATOM     10  C   LIG    1       23.358 -33.511  14.247  0.00  0.00    +0.002 A 
ATOM     11  C   LIG    1       22.682 -33.365  13.032  0.00  0.00    +0.024 A 
ATOM     12  S   LIG    1       20.641 -29.867  13.698  0.00  0.00    -0.111 S 
ENDROOT
BRANCH   1  16
ATOM     13  C   LIG    1       24.820 -26.538  13.768  0.00  0.00    +0.120 A 
ATOM     14  C   LIG    1       23.526 -26.040  13.685  0.00  0.00    +0.046 A 
ATOM     15  C   LIG    1       22.485 -26.837  13.215  0.00  0.00    +0.008 A 
ATOM     16  C   LIG    1       22.687 -28.160  12.807  0.00  0.00    -0.030 A 
ATOM     17  C   LIG    1       24.001 -28.656  12.877  0.00  0.00    +0.008 A 
ATOM     18  C   LIG    1       25.057 -27.851  13.354  0.00  0.00    +0.046 A 
BRANCH  13  20
ATOM     19  C   LIG    1       26.943 -25.611  13.292  0.00  0.00    +0.277 C 
ATOM     20  O   LIG    1       25.891 -25.820  14.237  0.00  0.00    -0.495 OA
ENDBRANCH  13  20
ENDBRANCH   1  16
BRANCH   2  21
ATOM     21  O   LIG    1       23.168 -30.379  10.957  0.00  0.00    -0.451 OA
BRANCH  21  22
ATOM     22  C   LIG    1       23.541 -30.718   9.685  0.00  0.00    +0.305 C 
ATOM     23  O   LIG    1       23.359 -30.039   8.695  0.00  0.00    -0.251 OA
ATOM     24  C   LIG    1       24.259 -32.036   9.643  0.00  0.00    +0.136 C 
ENDBRANCH  21  22
ENDBRANCH   2  21
BRANCH   5  25
ATOM     25  C   LIG    1       20.183 -33.409  11.341  0.00  0.00    +0.129 C 
BRANCH  25  26
ATOM     26  C   LIG    1       19.015 -33.542  12.348  0.00  0.00    +0.103 C 
BRANCH  26  27
ATOM     27  N   LIG    1       17.658 -33.432  11.759  0.00  0.00    -0.307 NA
ATOM     28  C   LIG    1       17.620 -33.718  10.325  0.00  0.00    +0.104 C 
ATOM     29  C   LIG    1       17.108 -32.094  12.003  0.00  0.00    +0.104 C 
ENDBRANCH  26  27
ENDBRANCH  25  26
ENDBRANCH   5  25
TORSDOF 7
ENDMDL
