MODEL 1
REMARK VINA RESULT:      -5.9      0.000      0.000
REMARK  Name = *****
REMARK                            x       y       z     vdW  Elec       q    Type
REMARK                         _______ _______ _______ _____ _____    ______ ____
ROOT
ATOM      1  C   LIG    1       23.228 -30.083   9.783  0.00  0.00    +0.193 C 
ATOM      2  N   LIG    1       24.242 -31.481  10.083  0.00  0.00    +0.246 N 
ATOM      3  C   LIG    1       25.602 -30.674  10.464  0.00  0.00    +0.104 C 
ATOM      4  C   LIG    1       26.172 -31.857   9.902  0.00  0.00    +0.123 C 
ATOM      5  C   LIG    1       25.275 -31.552   8.257  0.00  0.00    +0.082 C 
ATOM      6  C   LIG    1       23.442 -31.808   7.915  0.00  0.00    +0.253 C 
ATOM      7  O   LIG    1       23.521 -31.451   6.506  0.00  0.00    -0.476 OA
ATOM      8  C   LIG    1       24.382 -30.307   6.515  0.00  0.00    +0.167 A 
ATOM      9  C   LIG    1       24.111 -29.117   5.880  0.00  0.00    +0.159 A 
ATOM     10  C   LIG    1       24.730 -27.953   6.362  0.00  0.00    +0.049 A 
ATOM     11  C   LIG    1       25.510 -27.969   7.548  0.00  0.00    +0.008 A 
ATOM     12  C   LIG    1       25.737 -29.173   8.209  0.00  0.00    -0.034 A 
ATOM     13  C   LIG    1       22.643 -32.951   9.234  0.00  0.00    +0.174 C 
ATOM     14  O   LIG    1       21.435 -33.175   9.219  0.00  0.00    -0.293 OA
ATOM     15  C   LIG    1       23.737 -33.824  10.512  0.00  0.00    +0.081 C 
ATOM     16  C   LIG    1       25.328 -30.306   7.548  0.00  0.00    +0.015 A 
ATOM     17  C   LIG    1       25.751 -32.713   7.633  0.00  0.00    +0.070 C 
ATOM     18  C   LIG    1       25.480 -33.239  10.959  0.00  0.00    +0.049 C 
ATOM     19  C   LIG    1       26.055 -29.338   9.694  0.00  0.00    +0.092 C 
ATOM     20  C   LIG    1       24.860 -33.066   8.811  0.00  0.00    +0.134 C 
ENDROOT
BRANCH   4  21
ATOM     21  O   LIG    1       27.568 -31.914   9.800  0.00  0.00    -0.382 OA
ATOM     22  H   LIG    1       27.968 -32.005  10.684  0.00  0.00    +0.210 HD
ENDBRANCH   4  21
BRANCH   9  23
ATOM     23  O   LIG    1       23.175 -29.017   4.903  0.00  0.00    -0.503 OA
ATOM     24  H   LIG    1       22.753 -28.142   4.988  0.00  0.00    +0.292 HD
ENDBRANCH   9  23
BRANCH   2  25
ATOM     25  C   LIG    1       23.420 -31.629  11.690  0.00  0.00    +0.137 C 
BRANCH  25  26
ATOM     26  C   LIG    1       23.816 -30.682  12.813  0.00  0.00    +0.035 C 
ATOM     27  C   LIG    1       23.121 -30.776  14.156  0.00  0.00    +0.009 C 
ATOM     28  C   LIG    1       24.547 -31.217  14.023  0.00  0.00    +0.009 C 
ENDBRANCH  25  26
ENDBRANCH   2  25
TORSDOF 4
ENDMDL
MODEL 2
REMARK VINA RESULT:      -5.7      1.506      2.053
REMARK  Name = *****
REMARK                            x       y       z     vdW  Elec       q    Type
REMARK                         _______ _______ _______ _____ _____    ______ ____
ROOT
ATOM      1  C   LIG    1       23.010 -30.079   9.912  0.00  0.00    +0.193 C 
ATOM      2  N   LIG    1       24.255 -30.758  10.941  0.00  0.00    +0.246 N 
ATOM      3  C   LIG    1       25.387 -29.619  10.680  0.00  0.00    +0.104 C 
ATOM      4  C   LIG    1       26.230 -30.747  10.917  0.00  0.00    +0.123 C 
ATOM      5  C   LIG    1       25.434 -31.693   9.477  0.00  0.00    +0.082 C 
ATOM      6  C   LIG    1       23.728 -32.486   9.462  0.00  0.00    +0.253 C 
ATOM      7  O   LIG    1       23.854 -33.042   8.123  0.00  0.00    -0.476 OA
ATOM      8  C   LIG    1       24.462 -31.972   7.389  0.00  0.00    +0.167 A 
ATOM      9  C   LIG    1       24.011 -31.497   6.180  0.00  0.00    +0.159 A 
ATOM     10  C   LIG    1       24.338 -30.179   5.823  0.00  0.00    +0.049 A 
ATOM     11  C   LIG    1       25.001 -29.311   6.731  0.00  0.00    +0.008 A 
ATOM     12  C   LIG    1       25.408 -29.792   7.973  0.00  0.00    -0.034 A 
ATOM     13  C   LIG    1       23.066 -32.741  11.246  0.00  0.00    +0.174 C 
ATOM     14  O   LIG    1       21.933 -33.179  11.436  0.00  0.00    -0.293 OA
ATOM     15  C   LIG    1       24.200 -32.412  12.728  0.00  0.00    +0.081 C 
ATOM     16  C   LIG    1       25.296 -31.150   8.157  0.00  0.00    +0.015 A 
ATOM     17  C   LIG    1       26.188 -32.861   9.658  0.00  0.00    +0.070 C 
ATOM     18  C   LIG    1       25.744 -31.322  12.633  0.00  0.00    +0.049 C 
ATOM     19  C   LIG    1       25.624 -28.958   9.234  0.00  0.00    +0.092 C 
ATOM     20  C   LIG    1       25.288 -32.613  10.857  0.00  0.00    +0.134 C 
ENDROOT
BRANCH   4  21
ATOM     21  O   LIG    1       27.612 -30.556  10.794  0.00  0.00    -0.382 OA
ATOM     22  H   LIG    1       28.022 -30.467  11.674  0.00  0.00    +0.210 HD
ENDBRANCH   4  21
BRANCH   9  23
ATOM     23  O   LIG    1       23.162 -32.207   5.396  0.00  0.00    -0.503 OA
ATOM     24  H   LIG    1       23.445 -33.140   5.425  0.00  0.00    +0.292 HD
ENDBRANCH   9  23
BRANCH   2  25
ATOM     25  C   LIG    1       23.345 -30.080  12.353  0.00  0.00    +0.137 C 
BRANCH  25  26
ATOM     26  C   LIG    1       23.428 -28.588  12.636  0.00  0.00    +0.035 C 
ATOM     27  C   LIG    1       22.167 -27.813  12.961  0.00  0.00    +0.009 C 
ATOM     28  C   LIG    1       23.178 -28.075  14.036  0.00  0.00    +0.009 C 
ENDBRANCH  25  26
ENDBRANCH   2  25
TORSDOF 4
ENDMDL
MODEL 3
REMARK VINA RESULT:      -5.0      1.956      2.730
REMARK  Name = *****
REMARK                            x       y       z     vdW  Elec       q    Type
REMARK                         _______ _______ _______ _____ _____    ______ ____
ROOT
ATOM      1  C   LIG    1       23.308 -29.374  11.677  0.00  0.00    +0.193 C 
ATOM      2  N   LIG    1       23.252 -31.115  11.877  0.00  0.00    +0.246 N 
ATOM      3  C   LIG    1       24.680 -31.284  12.637  0.00  0.00    +0.104 C 
ATOM      4  C   LIG    1       24.613 -32.543  11.966  0.00  0.00    +0.123 C 
ATOM      5  C   LIG    1       24.492 -31.681  10.280  0.00  0.00    +0.082 C 
ATOM      6  C   LIG    1       22.988 -30.792   9.579  0.00  0.00    +0.253 C 
ATOM      7  O   LIG    1       23.608 -30.474   8.302  0.00  0.00    -0.476 OA
ATOM      8  C   LIG    1       24.924 -30.057   8.680  0.00  0.00    +0.167 A 
ATOM      9  C   LIG    1       25.535 -28.903   8.248  0.00  0.00    +0.159 A 
ATOM     10  C   LIG    1       26.552 -28.353   9.045  0.00  0.00    +0.049 A 
ATOM     11  C   LIG    1       26.858 -28.889  10.324  0.00  0.00    +0.008 A 
ATOM     12  C   LIG    1       26.197 -30.030  10.771  0.00  0.00    -0.034 A 
ATOM     13  C   LIG    1       21.384 -31.316  10.495  0.00  0.00    +0.174 C 
ATOM     14  O   LIG    1       20.308 -30.786  10.225  0.00  0.00    -0.293 OA
ATOM     15  C   LIG    1       21.436 -32.733  11.752  0.00  0.00    +0.081 C 
ATOM     16  C   LIG    1       25.410 -30.669   9.843  0.00  0.00    +0.015 A 
ATOM     17  C   LIG    1       24.379 -32.865   9.537  0.00  0.00    +0.070 C 
ATOM     18  C   LIG    1       23.026 -33.309  12.602  0.00  0.00    +0.049 C 
ATOM     19  C   LIG    1       25.979 -30.429  12.229  0.00  0.00    +0.092 C 
ATOM     20  C   LIG    1       23.178 -32.689  10.452  0.00  0.00    +0.134 C 
ENDROOT
BRANCH   4  21
ATOM     21  O   LIG    1       25.709 -33.404  12.101  0.00  0.00    -0.382 OA
ATOM     22  H   LIG    1       26.528 -32.957  11.817  0.00  0.00    +0.210 HD
ENDBRANCH   4  21
BRANCH   9  23
ATOM     23  O   LIG    1       25.100 -28.219   7.160  0.00  0.00    -0.503 OA
ATOM     24  H   LIG    1       25.526 -28.612   6.375  0.00  0.00    +0.292 HD
ENDBRANCH   9  23
BRANCH   2  25
ATOM     25  C   LIG    1       22.111 -30.838  13.256  0.00  0.00    +0.137 C 
BRANCH  25  26
ATOM     26  C   LIG    1       21.499 -29.458  13.442  0.00  0.00    +0.035 C 
ATOM     27  C   LIG    1       19.997 -29.317  13.590  0.00  0.00    +0.009 C 
ATOM     28  C   LIG    1       20.888 -29.081  14.772  0.00  0.00    +0.009 C 
ENDBRANCH  25  26
ENDBRANCH   2  25
TORSDOF 4
ENDMDL
MODEL 4
REMARK VINA RESULT:      -4.9      2.140      4.384
REMARK  Name = *****
REMARK                            x       y       z     vdW  Elec       q    Type
REMARK                         _______ _______ _______ _____ _____    ______ ____
ROOT
ATOM      1  C   LIG    1       23.566 -30.016  10.765  0.00  0.00    +0.193 C 
ATOM      2  N   LIG    1       24.201 -31.351   9.823  0.00  0.00    +0.246 N 
ATOM      3  C   LIG    1       24.443 -32.381  11.058  0.00  0.00    +0.104 C 
ATOM      4  C   LIG    1       25.484 -32.810  10.178  0.00  0.00    +0.123 C 
ATOM      5  C   LIG    1       26.252 -31.074  10.180  0.00  0.00    +0.082 C 
ATOM      6  C   LIG    1       25.594 -29.556   9.285  0.00  0.00    +0.253 C 
ATOM      7  O   LIG    1       26.689 -28.684   9.684  0.00  0.00    -0.476 OA
ATOM      8  C   LIG    1       26.880 -29.023  11.062  0.00  0.00    +0.167 A 
ATOM      9  C   LIG    1       26.967 -28.111  12.088  0.00  0.00    +0.159 A 
ATOM     10  C   LIG    1       26.641 -28.541  13.385  0.00  0.00    +0.049 A 
ATOM     11  C   LIG    1       26.112 -29.837  13.622  0.00  0.00    +0.008 A 
ATOM     12  C   LIG    1       25.983 -30.734  12.564  0.00  0.00    -0.034 A 
ATOM     13  C   LIG    1       24.364 -30.048   7.896  0.00  0.00    +0.174 C 
ATOM     14  O   LIG    1       23.773 -29.185   7.249  0.00  0.00    -0.293 OA
ATOM     15  C   LIG    1       24.132 -31.874   7.445  0.00  0.00    +0.081 C 
ATOM     16  C   LIG    1       26.561 -30.350  11.378  0.00  0.00    +0.015 A 
ATOM     17  C   LIG    1       27.286 -31.390   9.288  0.00  0.00    +0.070 C 
ATOM     18  C   LIG    1       24.579 -33.296   8.611  0.00  0.00    +0.049 C 
ATOM     19  C   LIG    1       24.997 -31.897  12.487  0.00  0.00    +0.092 C 
ATOM     20  C   LIG    1       25.935 -31.509   8.604  0.00  0.00    +0.134 C 
ENDROOT
BRANCH   4  21
ATOM     21  O   LIG    1       26.336 -33.823  10.634  0.00  0.00    -0.382 OA
ATOM     22  H   LIG    1       25.827 -34.508  11.106  0.00  0.00    +0.210 HD
ENDBRANCH   4  21
BRANCH   9  23
ATOM     23  O   LIG    1       27.223 -26.798  11.868  0.00  0.00    -0.503 OA
ATOM     24  H   LIG    1       27.633 -26.438  12.676  0.00  0.00    +0.292 HD
ENDBRANCH   9  23
BRANCH   2  25
ATOM     25  C   LIG    1       22.494 -31.718   9.343  0.00  0.00    +0.137 C 
BRANCH  25  26
ATOM     26  C   LIG    1       21.542 -32.288  10.384  0.00  0.00    +0.035 C 
ATOM     27  C   LIG    1       20.166 -31.676  10.559  0.00  0.00    +0.009 C 
ATOM     28  C   LIG    1       20.304 -33.034   9.939  0.00  0.00    +0.009 C 
ENDBRANCH  25  26
ENDBRANCH   2  25
TORSDOF 4
ENDMDL
MODEL 5
REMARK VINA RESULT:      -4.9      2.555      5.435
REMARK  Name = *****
REMARK                            x       y       z     vdW  Elec       q    Type
REMARK                         _______ _______ _______ _____ _____    ______ ____
ROOT
ATOM      1  C   LIG    1       23.552 -29.807   9.248  0.00  0.00    +0.193 C 
ATOM      2  N   LIG    1       24.539 -31.167   9.746  0.00  0.00    +0.246 N 
ATOM      3  C   LIG    1       23.325 -32.212  10.031  0.00  0.00    +0.104 C 
ATOM      4  C   LIG    1       24.281 -32.687  10.981  0.00  0.00    +0.123 C 
ATOM      5  C   LIG    1       24.337 -30.990  11.828  0.00  0.00    +0.082 C 
ATOM      6  C   LIG    1       25.180 -29.438  11.178  0.00  0.00    +0.253 C 
ATOM      7  O   LIG    1       24.866 -28.621  12.341  0.00  0.00    -0.476 OA
ATOM      8  C   LIG    1       23.506 -28.973  12.619  0.00  0.00    +0.167 A 
ATOM      9  C   LIG    1       22.489 -28.070  12.826  0.00  0.00    +0.159 A 
ATOM     10  C   LIG    1       21.172 -28.488  12.578  0.00  0.00    +0.049 A 
ATOM     11  C   LIG    1       20.895 -29.758  12.007  0.00  0.00    +0.008 A 
ATOM     12  C   LIG    1       21.939 -30.645  11.757  0.00  0.00    -0.034 A 
ATOM     13  C   LIG    1       26.473 -29.867   9.825  0.00  0.00    +0.174 C 
ATOM     14  O   LIG    1       27.074 -28.975   9.229  0.00  0.00    -0.293 OA
ATOM     15  C   LIG    1       26.904 -31.679   9.473  0.00  0.00    +0.081 C 
ATOM     16  C   LIG    1       23.166 -30.284  12.262  0.00  0.00    +0.015 A 
ATOM     17  C   LIG    1       25.304 -31.352  12.777  0.00  0.00    +0.070 C 
ATOM     18  C   LIG    1       25.774 -33.124   9.939  0.00  0.00    +0.049 C 
ATOM     19  C   LIG    1       21.941 -31.759  10.713  0.00  0.00    +0.092 C 
ATOM     20  C   LIG    1       25.884 -31.404  11.374  0.00  0.00    +0.134 C 
ENDROOT
BRANCH   4  21
ATOM     21  O   LIG    1       23.890 -33.741  11.816  0.00  0.00    -0.382 OA
ATOM     22  H   LIG    1       23.391 -34.408  11.309  0.00  0.00    +0.210 HD
ENDBRANCH   4  21
BRANCH   9  23
ATOM     23  O   LIG    1       22.729 -26.770  13.128  0.00  0.00    -0.503 OA
ATOM     24  H   LIG    1       21.873 -26.355  13.344  0.00  0.00    +0.292 HD
ENDBRANCH   9  23
BRANCH   2  25
ATOM     25  C   LIG    1       24.888 -31.451   7.992  0.00  0.00    +0.137 C 
BRANCH  25  26
ATOM     26  C   LIG    1       23.838 -32.138   7.132  0.00  0.00    +0.035 C 
ATOM     27  C   LIG    1       24.133 -32.430   5.675  0.00  0.00    +0.009 C 
ATOM     28  C   LIG    1       24.065 -33.556   6.661  0.00  0.00    +0.009 C 
ENDBRANCH  25  26
ENDBRANCH   2  25
TORSDOF 4
ENDMDL
MODEL 6
REMARK VINA RESULT:      -4.9      1.704      5.545
REMARK  Name = *****
REMARK                            x       y       z     vdW  Elec       q    Type
REMARK                         _______ _______ _______ _____ _____    ______ ____
ROOT
ATOM      1  C   LIG    1       25.942 -30.452   9.756  0.00  0.00    +0.193 C 
ATOM      2  N   LIG    1       24.772 -31.479   8.952  0.00  0.00    +0.246 N 
ATOM      3  C   LIG    1       23.450 -30.594   9.292  0.00  0.00    +0.104 C 
ATOM      4  C   LIG    1       22.863 -31.896   9.244  0.00  0.00    +0.123 C 
ATOM      5  C   LIG    1       24.019 -32.509  10.619  0.00  0.00    +0.082 C 
ATOM      6  C   LIG    1       25.851 -32.906  10.451  0.00  0.00    +0.253 C 
ATOM      7  O   LIG    1       26.015 -33.350  11.827  0.00  0.00    -0.476 OA
ATOM      8  C   LIG    1       25.271 -32.376  12.568  0.00  0.00    +0.167 A 
ATOM      9  C   LIG    1       25.741 -31.705  13.672  0.00  0.00    +0.159 A 
ATOM     10  C   LIG    1       25.167 -30.462  13.986  0.00  0.00    +0.049 A 
ATOM     11  C   LIG    1       24.221 -29.847  13.124  0.00  0.00    +0.008 A 
ATOM     12  C   LIG    1       23.790 -30.518  11.982  0.00  0.00    -0.034 A 
ATOM     13  C   LIG    1       26.337 -33.174   8.613  0.00  0.00    +0.174 C 
ATOM     14  O   LIG    1       27.509 -33.371   8.299  0.00  0.00    -0.293 OA
ATOM     15  C   LIG    1       24.990 -33.238   7.282  0.00  0.00    +0.081 C 
ATOM     16  C   LIG    1       24.186 -31.829  11.871  0.00  0.00    +0.015 A 
ATOM     17  C   LIG    1       23.536 -33.825  10.617  0.00  0.00    +0.070 C 
ATOM     18  C   LIG    1       23.261 -32.506   7.518  0.00  0.00    +0.049 C 
ATOM     19  C   LIG    1       23.241 -29.870  10.712  0.00  0.00    +0.092 C 
ATOM     20  C   LIG    1       24.206 -33.499   9.293  0.00  0.00    +0.134 C 
ENDROOT
BRANCH   4  21
ATOM     21  O   LIG    1       21.499 -32.000   9.542  0.00  0.00    -0.382 OA
ATOM     22  H   LIG    1       21.221 -31.263  10.117  0.00  0.00    +0.210 HD
ENDBRANCH   4  21
BRANCH   9  23
ATOM     23  O   LIG    1       26.817 -32.137  14.376  0.00  0.00    -0.503 OA
ATOM     24  H   LIG    1       27.089 -32.995  14.001  0.00  0.00    +0.292 HD
ENDBRANCH   9  23
BRANCH   2  25
ATOM     25  C   LIG    1       25.329 -30.752   7.389  0.00  0.00    +0.137 C 
BRANCH  25  26
ATOM     26  C   LIG    1       24.549 -29.587   6.797  0.00  0.00    +0.035 C 
ATOM     27  C   LIG    1       25.127 -28.187   6.859  0.00  0.00    +0.009 C 
ATOM     28  C   LIG    1       25.054 -28.906   5.546  0.00  0.00    +0.009 C 
ENDBRANCH  25  26
ENDBRANCH   2  25
TORSDOF 4
ENDMDL
MODEL 7
REMARK VINA RESULT:      -4.9      2.592      4.372
REMARK  Name = *****
REMARK                            x       y       z     vdW  Elec       q    Type
REMARK                         _______ _______ _______ _____ _____    ______ ____
ROOT
ATOM      1  C   LIG    1       23.022 -29.897  11.003  0.00  0.00    +0.193 C 
ATOM      2  N   LIG    1       23.376 -30.029  12.714  0.00  0.00    +0.246 N 
ATOM      3  C   LIG    1       24.535 -28.890  12.775  0.00  0.00    +0.104 C 
ATOM      4  C   LIG    1       24.989 -29.752  13.820  0.00  0.00    +0.123 C 
ATOM      5  C   LIG    1       25.108 -31.212  12.613  0.00  0.00    +0.082 C 
ATOM      6  C   LIG    1       23.672 -32.197  11.899  0.00  0.00    +0.253 C 
ATOM      7  O   LIG    1       24.508 -33.131  11.161  0.00  0.00    -0.476 OA
ATOM      8  C   LIG    1       25.513 -32.282  10.595  0.00  0.00    +0.167 A 
ATOM      9  C   LIG    1       25.891 -32.289   9.272  0.00  0.00    +0.159 A 
ATOM     10  C   LIG    1       26.469 -31.124   8.742  0.00  0.00    +0.049 A 
ATOM     11  C   LIG    1       26.546 -29.927   9.502  0.00  0.00    +0.008 A 
ATOM     12  C   LIG    1       26.114 -29.921  10.826  0.00  0.00    -0.034 A 
ATOM     13  C   LIG    1       22.078 -31.953  12.940  0.00  0.00    +0.174 C 
ATOM     14  O   LIG    1       21.015 -32.460  12.585  0.00  0.00    -0.293 OA
ATOM     15  C   LIG    1       22.159 -31.010  14.582  0.00  0.00    +0.081 C 
ATOM     16  C   LIG    1       25.808 -31.148  11.363  0.00  0.00    +0.015 A 
ATOM     17  C   LIG    1       25.519 -32.144  13.577  0.00  0.00    +0.070 C 
ATOM     18  C   LIG    1       23.552 -29.805  15.019  0.00  0.00    +0.049 C 
ATOM     19  C   LIG    1       25.622 -28.703  11.606  0.00  0.00    +0.092 C 
ATOM     20  C   LIG    1       24.113 -31.650  13.874  0.00  0.00    +0.134 C 
ENDROOT
BRANCH   4  21
ATOM     21  O   LIG    1       26.195 -29.421  14.451  0.00  0.00    -0.382 OA
ATOM     22  H   LIG    1       26.880 -30.082  14.242  0.00  0.00    +0.210 HD
ENDBRANCH   4  21
BRANCH   9  23
ATOM     23  O   LIG    1       25.603 -33.324   8.444  0.00  0.00    -0.503 OA
ATOM     24  H   LIG    1       24.648 -33.287   8.248  0.00  0.00    +0.292 HD
ENDBRANCH   9  23
BRANCH   2  25
ATOM     25  C   LIG    1       21.873 -29.066  13.017  0.00  0.00    +0.137 C 
BRANCH  25  26
ATOM     26  C   LIG    1       21.922 -27.554  12.862  0.00  0.00    +0.035 C 
ATOM     27  C   LIG    1       20.662 -26.736  13.067  0.00  0.00    +0.009 C 
ATOM     28  C   LIG    1       21.766 -26.670  14.079  0.00  0.00    +0.009 C 
ENDBRANCH  25  26
ENDBRANCH   2  25
TORSDOF 4
ENDMDL
MODEL 8
REMARK VINA RESULT:      -4.8      3.482      5.355
REMARK  Name = *****
REMARK                            x       y       z     vdW  Elec       q    Type
REMARK                         _______ _______ _______ _____ _____    ______ ____
ROOT
ATOM      1  C   LIG    1       23.603 -29.935  14.776  0.00  0.00    +0.193 C 
ATOM      2  N   LIG    1       24.251 -30.625  13.302  0.00  0.00    +0.246 N 
ATOM      3  C   LIG    1       25.095 -29.323  12.816  0.00  0.00    +0.104 C 
ATOM      4  C   LIG    1       24.778 -29.893  11.545  0.00  0.00    +0.123 C 
ATOM      5  C   LIG    1       22.920 -29.779  11.916  0.00  0.00    +0.082 C 
ATOM      6  C   LIG    1       21.941 -30.880  13.086  0.00  0.00    +0.253 C 
ATOM      7  O   LIG    1       20.655 -30.260  12.803  0.00  0.00    -0.476 OA
ATOM      8  C   LIG    1       20.971 -28.864  12.780  0.00  0.00    +0.167 A 
ATOM      9  C   LIG    1       20.279 -27.892  13.464  0.00  0.00    +0.159 A 
ATOM     10  C   LIG    1       20.950 -26.700  13.782  0.00  0.00    +0.049 A 
ATOM     11  C   LIG    1       22.338 -26.543  13.525  0.00  0.00    +0.008 A 
ATOM     12  C   LIG    1       23.038 -27.556  12.875  0.00  0.00    -0.034 A 
ATOM     13  C   LIG    1       22.885 -32.509  13.460  0.00  0.00    +0.174 C 
ATOM     14  O   LIG    1       22.435 -33.322  14.264  0.00  0.00    -0.293 OA
ATOM     15  C   LIG    1       24.473 -32.917  12.509  0.00  0.00    +0.081 C 
ATOM     16  C   LIG    1       22.276 -28.576  12.358  0.00  0.00    +0.015 A 
ATOM     17  C   LIG    1       22.512 -30.367  10.711  0.00  0.00    +0.070 C 
ATOM     18  C   LIG    1       25.518 -31.612  11.623  0.00  0.00    +0.049 C 
ATOM     19  C   LIG    1       24.538 -27.824  12.982  0.00  0.00    +0.092 C 
ATOM     20  C   LIG    1       23.290 -31.362  11.555  0.00  0.00    +0.134 C 
ENDROOT
BRANCH   4  21
ATOM     21  O   LIG    1       25.187 -29.191  10.404  0.00  0.00    -0.382 OA
ATOM     22  H   LIG    1       25.686 -28.393  10.658  0.00  0.00    +0.210 HD
ENDBRANCH   4  21
BRANCH   9  23
ATOM     23  O   LIG    1       19.031 -28.102  13.951  0.00  0.00    -0.503 OA
ATOM     24  H   LIG    1       18.618 -28.802  13.411  0.00  0.00    +0.292 HD
ENDBRANCH   9  23
BRANCH   2  25
ATOM     25  C   LIG    1       25.454 -31.500  14.335  0.00  0.00    +0.137 C 
BRANCH  25  26
ATOM     26  C   LIG    1       26.541 -30.702  15.039  0.00  0.00    +0.035 C 
ATOM     27  C   LIG    1       27.806 -31.398  15.500  0.00  0.00    +0.009 C 
ATOM     28  C   LIG    1       27.858 -30.450  14.340  0.00  0.00    +0.009 C 
ENDBRANCH  25  26
ENDBRANCH   2  25
TORSDOF 4
ENDMDL
MODEL 9
REMARK VINA RESULT:      -4.8      2.069      3.542
REMARK  Name = *****
REMARK                            x       y       z     vdW  Elec       q    Type
REMARK                         _______ _______ _______ _____ _____    ______ ____
ROOT
ATOM      1  C   LIG    1       22.710 -30.064  10.571  0.00  0.00    +0.193 C 
ATOM      2  N   LIG    1       23.524 -30.457  12.072  0.00  0.00    +0.246 N 
ATOM      3  C   LIG    1       24.891 -29.620  11.794  0.00  0.00    +0.104 C 
ATOM      4  C   LIG    1       25.413 -30.671  12.609  0.00  0.00    +0.123 C 
ATOM      5  C   LIG    1       24.794 -31.981  11.383  0.00  0.00    +0.082 C 
ATOM      6  C   LIG    1       23.012 -32.534  11.137  0.00  0.00    +0.253 C 
ATOM      7  O   LIG    1       23.326 -33.547  10.141  0.00  0.00    -0.476 OA
ATOM      8  C   LIG    1       24.288 -32.888   9.309  0.00  0.00    +0.167 A 
ATOM      9  C   LIG    1       24.231 -32.836   7.936  0.00  0.00    +0.159 A 
ATOM     10  C   LIG    1       24.890 -31.780   7.285  0.00  0.00    +0.049 A 
ATOM     11  C   LIG    1       25.488 -30.721   8.017  0.00  0.00    +0.008 A 
ATOM     12  C   LIG    1       25.495 -30.762   9.409  0.00  0.00    -0.034 A 
ATOM     13  C   LIG    1       21.922 -32.053  12.643  0.00  0.00    +0.174 C 
ATOM     14  O   LIG    1       20.712 -32.267  12.633  0.00  0.00    -0.293 OA
ATOM     15  C   LIG    1       22.730 -31.336  14.200  0.00  0.00    +0.081 C 
ATOM     16  C   LIG    1       25.073 -31.940   9.977  0.00  0.00    +0.015 A 
ATOM     17  C   LIG    1       25.235 -33.079  12.134  0.00  0.00    +0.070 C 
ATOM     18  C   LIG    1       24.442 -30.529  14.205  0.00  0.00    +0.049 C 
ATOM     19  C   LIG    1       25.581 -29.557  10.343  0.00  0.00    +0.092 C 
ATOM     20  C   LIG    1       24.154 -32.318  12.883  0.00  0.00    +0.134 C 
ENDROOT
BRANCH   4  21
ATOM     21  O   LIG    1       26.796 -30.689  12.830  0.00  0.00    -0.382 OA
ATOM     22  H   LIG    1       27.269 -30.871  11.997  0.00  0.00    +0.210 HD
ENDBRANCH   4  21
BRANCH   9  23
ATOM     23  O   LIG    1       23.458 -33.684   7.212  0.00  0.00    -0.503 OA
ATOM     24  H   LIG    1       23.083 -33.178   6.467  0.00  0.00    +0.292 HD
ENDBRANCH   9  23
BRANCH   2  25
ATOM     25  C   LIG    1       22.471 -29.219  12.873  0.00  0.00    +0.137 C 
BRANCH  25  26
ATOM     26  C   LIG    1       22.903 -27.761  12.855  0.00  0.00    +0.035 C 
ATOM     27  C   LIG    1       21.915 -26.680  13.245  0.00  0.00    +0.009 C 
ATOM     28  C   LIG    1       23.058 -27.009  14.157  0.00  0.00    +0.009 C 
ENDBRANCH  25  26
ENDBRANCH   2  25
TORSDOF 4
ENDMDL
