MODEL 1
REMARK VINA RESULT:      -3.7      0.000      0.000
REMARK  Name = *****
REMARK                            x       y       z     vdW  Elec       q    Type
REMARK                         _______ _______ _______ _____ _____    ______ ____
ROOT
ATOM      1  C   UNK A  0       23.127 -15.543   4.450  0.00  0.00    +0.217 C 
ATOM      2  N   PHE A  1       23.630 -16.629   3.754  0.00  0.00    -0.302 N 
ATOM      3  H   PHE A  1       24.253 -16.453   2.974  0.00  0.00    +0.149 HD
ATOM      4  O   UNK A  0       22.496 -15.684   5.499  0.00  0.00    -0.276 OA
ENDROOT
BRANCH   1   8
ATOM      5  C   UNK A  0       26.374 -13.447   4.000  0.00  0.00    -0.008 C 
ATOM      6  C   UNK A  0       25.437 -13.409   5.216  0.00  0.00    +0.004 C 
ATOM      7  C   UNK A  0       23.985 -13.161   4.845  0.00  0.00    +0.013 C 
ATOM      8  C   UNK A  0       23.445 -14.172   3.826  0.00  0.00    +0.075 C 
ATOM      9  C   UNK A  0       24.367 -14.259   2.598  0.00  0.00    +0.013 C 
ATOM     10  C   UNK A  0       25.850 -14.413   2.925  0.00  0.00    +0.004 C 
BRANCH   5  12
ATOM     11  C   UNK A  0       28.879 -12.961   3.699  0.00  0.00    +0.007 C 
ATOM     12  C   UNK A  0       27.827 -13.783   4.453  0.00  0.00    -0.014 C 
ATOM     13  C   UNK A  0       28.157 -15.276   4.321  0.00  0.00    +0.007 C 
ENDBRANCH   5  12
ENDBRANCH   1   8
BRANCH   2  14
ATOM     14  CA  PHE A  1       23.628 -18.000   4.331  0.00  0.00    +0.186 C 
BRANCH  14  15
ATOM     15  C   PHE A  1       22.213 -18.582   4.294  0.00  0.00    +0.326 C 
ATOM     16  O   PHE A  1       21.287 -18.114   3.622  0.00  0.00    -0.249 OA
BRANCH  15  17
ATOM     17  OXT PHE A  1       22.030 -19.642   5.114  0.00  0.00    -0.479 OA
ATOM     18  HXT PHE A  1       22.876 -19.851   5.561  0.00  0.00    +0.295 HD
ENDBRANCH  15  17
ENDBRANCH  14  15
BRANCH  14  19
ATOM     19  CB  PHE A  1       24.619 -18.951   3.617  0.00  0.00    +0.069 C 
BRANCH  19  20
ATOM     20  CG  PHE A  1       25.540 -19.639   4.602  0.00  0.00    -0.045 A 
ATOM     21  CD2 PHE A  1       25.016 -20.524   5.555  0.00  0.00    +0.003 A 
ATOM     22  CE2 PHE A  1       25.839 -21.065   6.544  0.00  0.00    +0.000 A 
ATOM     23  CZ  PHE A  1       27.191 -20.733   6.588  0.00  0.00    +0.000 A 
ATOM     24  CE1 PHE A  1       27.727 -19.875   5.630  0.00  0.00    +0.000 A 
ATOM     25  CD1 PHE A  1       26.909 -19.337   4.637  0.00  0.00    +0.003 A 
ENDBRANCH  19  20
ENDBRANCH  14  19
ENDBRANCH   2  14
TORSDOF 7
ENDMDL
MODEL 2
REMARK VINA RESULT:      -3.5      2.668      7.133
REMARK  Name = *****
REMARK                            x       y       z     vdW  Elec       q    Type
REMARK                         _______ _______ _______ _____ _____    ______ ____
ROOT
ATOM      1  C   UNK A  0       26.450 -17.350   3.666  0.00  0.00    +0.217 C 
ATOM      2  N   PHE A  1       26.413 -15.997   3.373  0.00  0.00    -0.302 N 
ATOM      3  H   PHE A  1       25.612 -15.637   2.867  0.00  0.00    +0.149 HD
ATOM      4  O   UNK A  0       27.308 -17.826   4.411  0.00  0.00    -0.276 OA
ENDROOT
BRANCH   1   8
ATOM      5  C   UNK A  0       24.315 -20.397   4.807  0.00  0.00    -0.008 C 
ATOM      6  C   UNK A  0       25.674 -20.464   4.094  0.00  0.00    +0.004 C 
ATOM      7  C   UNK A  0       25.717 -19.651   2.811  0.00  0.00    +0.013 C 
ATOM      8  C   UNK A  0       25.329 -18.182   3.018  0.00  0.00    +0.075 C 
ATOM      9  C   UNK A  0       23.982 -18.068   3.750  0.00  0.00    +0.013 C 
ATOM     10  C   UNK A  0       23.857 -18.941   4.996  0.00  0.00    +0.004 C 
BRANCH   5  12
ATOM     11  C   UNK A  0       23.079 -21.063   6.958  0.00  0.00    +0.007 C 
ATOM     12  C   UNK A  0       24.374 -21.188   6.149  0.00  0.00    -0.014 C 
ATOM     13  C   UNK A  0       25.565 -20.775   7.025  0.00  0.00    +0.007 C 
ENDBRANCH   5  12
ENDBRANCH   1   8
BRANCH   2  14
ATOM     14  CA  PHE A  1       27.263 -15.014   4.098  0.00  0.00    +0.186 C 
BRANCH  14  15
ATOM     15  C   PHE A  1       27.879 -14.024   3.107  0.00  0.00    +0.326 C 
ATOM     16  O   PHE A  1       28.781 -13.228   3.391  0.00  0.00    -0.249 OA
BRANCH  15  17
ATOM     17  OXT PHE A  1       27.314 -14.047   1.879  0.00  0.00    -0.479 OA
ATOM     18  HXT PHE A  1       27.628 -13.273   1.367  0.00  0.00    +0.295 HD
ENDBRANCH  15  17
ENDBRANCH  14  15
BRANCH  14  19
ATOM     19  CB  PHE A  1       26.490 -14.257   5.205  0.00  0.00    +0.069 C 
BRANCH  19  20
ATOM     20  CG  PHE A  1       25.373 -13.413   4.628  0.00  0.00    -0.045 A 
ATOM     21  CD2 PHE A  1       24.873 -13.688   3.347  0.00  0.00    +0.003 A 
ATOM     22  CE2 PHE A  1       23.932 -12.840   2.759  0.00  0.00    +0.000 A 
ATOM     23  CZ  PHE A  1       23.479 -11.715   3.446  0.00  0.00    +0.000 A 
ATOM     24  CE1 PHE A  1       23.949 -11.448   4.729  0.00  0.00    +0.000 A 
ATOM     25  CD1 PHE A  1       24.885 -12.296   5.322  0.00  0.00    +0.003 A 
ENDBRANCH  19  20
ENDBRANCH  14  19
ENDBRANCH   2  14
TORSDOF 7
ENDMDL
MODEL 3
REMARK VINA RESULT:      -2.9      2.821      4.487
REMARK  Name = *****
REMARK                            x       y       z     vdW  Elec       q    Type
REMARK                         _______ _______ _______ _____ _____    ______ ____
ROOT
ATOM      1  C   UNK A  0       27.282 -16.283   3.828  0.00  0.00    +0.217 C 
ATOM      2  N   PHE A  1       28.119 -17.225   4.404  0.00  0.00    -0.302 N 
ATOM      3  H   PHE A  1       28.946 -16.898   4.890  0.00  0.00    +0.149 HD
ATOM      4  O   UNK A  0       26.186 -16.594   3.361  0.00  0.00    -0.276 OA
ENDROOT
BRANCH   1   8
ATOM      5  C   UNK A  0       25.632 -12.761   3.699  0.00  0.00    -0.008 C 
ATOM      6  C   UNK A  0       26.063 -13.600   2.487  0.00  0.00    +0.004 C 
ATOM      7  C   UNK A  0       27.508 -14.065   2.565  0.00  0.00    +0.013 C 
ATOM      8  C   UNK A  0       27.820 -14.841   3.850  0.00  0.00    +0.075 C 
ATOM      9  C   UNK A  0       27.383 -14.045   5.091  0.00  0.00    +0.013 C 
ATOM     10  C   UNK A  0       25.968 -13.477   5.018  0.00  0.00    +0.004 C 
BRANCH   5  12
ATOM     11  C   UNK A  0       23.833 -11.480   2.387  0.00  0.00    +0.007 C 
ATOM     12  C   UNK A  0       24.122 -12.391   3.584  0.00  0.00    -0.014 C 
ATOM     13  C   UNK A  0       23.575 -11.741   4.863  0.00  0.00    +0.007 C 
ENDBRANCH   5  12
ENDBRANCH   1   8
BRANCH   2  14
ATOM     14  CA  PHE A  1       27.663 -18.613   4.685  0.00  0.00    +0.186 C 
BRANCH  14  15
ATOM     15  C   PHE A  1       28.708 -19.347   5.527  0.00  0.00    +0.326 C 
ATOM     16  O   PHE A  1       29.470 -18.792   6.326  0.00  0.00    -0.249 OA
BRANCH  15  17
ATOM     17  OXT PHE A  1       28.775 -20.677   5.289  0.00  0.00    -0.479 OA
ATOM     18  HXT PHE A  1       27.869 -21.048   5.287  0.00  0.00    +0.295 HD
ENDBRANCH  15  17
ENDBRANCH  14  15
BRANCH  14  19
ATOM     19  CB  PHE A  1       26.282 -18.658   5.382  0.00  0.00    +0.069 C 
BRANCH  19  20
ATOM     20  CG  PHE A  1       25.396 -19.736   4.795  0.00  0.00    -0.045 A 
ATOM     21  CD2 PHE A  1       25.158 -19.778   3.414  0.00  0.00    +0.003 A 
ATOM     22  CE2 PHE A  1       24.244 -20.690   2.882  0.00  0.00    +0.000 A 
ATOM     23  CZ  PHE A  1       23.566 -21.571   3.721  0.00  0.00    +0.000 A 
ATOM     24  CE1 PHE A  1       23.815 -21.556   5.092  0.00  0.00    +0.000 A 
ATOM     25  CD1 PHE A  1       24.730 -20.650   5.627  0.00  0.00    +0.003 A 
ENDBRANCH  19  20
ENDBRANCH  14  19
ENDBRANCH   2  14
TORSDOF 7
ENDMDL
MODEL 4
REMARK VINA RESULT:      -2.3      1.498      6.195
REMARK  Name = *****
REMARK                            x       y       z     vdW  Elec       q    Type
REMARK                         _______ _______ _______ _____ _____    ______ ____
ROOT
ATOM      1  C   UNK A  0       23.177 -16.517   4.336  0.00  0.00    +0.217 C 
ATOM      2  N   PHE A  1       24.327 -16.269   3.605  0.00  0.00    -0.302 N 
ATOM      3  H   PHE A  1       24.547 -16.886   2.832  0.00  0.00    +0.149 HD
ATOM      4  O   UNK A  0       22.766 -15.722   5.182  0.00  0.00    -0.276 OA
ENDROOT
BRANCH   1   8
ATOM      5  C   UNK A  0       23.963 -20.286   4.897  0.00  0.00    -0.008 C 
ATOM      6  C   UNK A  0       24.409 -19.441   3.695  0.00  0.00    +0.004 C 
ATOM      7  C   UNK A  0       23.261 -18.712   3.017  0.00  0.00    +0.013 C 
ATOM      8  C   UNK A  0       22.457 -17.831   3.981  0.00  0.00    +0.075 C 
ATOM      9  C   UNK A  0       22.008 -18.633   5.213  0.00  0.00    +0.013 C 
ATOM     10  C   UNK A  0       23.111 -19.458   5.872  0.00  0.00    +0.004 C 
BRANCH   5  12
ATOM     11  C   UNK A  0       24.951 -21.254   7.062  0.00  0.00    +0.007 C 
ATOM     12  C   UNK A  0       25.202 -20.937   5.584  0.00  0.00    -0.014 C 
ATOM     13  C   UNK A  0       26.468 -20.079   5.454  0.00  0.00    +0.007 C 
ENDBRANCH   5  12
ENDBRANCH   1   8
BRANCH   2  14
ATOM     14  CA  PHE A  1       25.011 -14.948   3.642  0.00  0.00    +0.186 C 
BRANCH  14  15
ATOM     15  C   PHE A  1       23.993 -13.825   3.435  0.00  0.00    +0.326 C 
ATOM     16  O   PHE A  1       23.452 -13.570   2.354  0.00  0.00    -0.249 OA
BRANCH  15  17
ATOM     17  OXT PHE A  1       23.761 -13.078   4.538  0.00  0.00    -0.479 OA
ATOM     18  HXT PHE A  1       22.828 -13.191   4.812  0.00  0.00    +0.295 HD
ENDBRANCH  15  17
ENDBRANCH  14  15
BRANCH  14  19
ATOM     19  CB  PHE A  1       25.802 -14.721   4.953  0.00  0.00    +0.069 C 
BRANCH  19  20
ATOM     20  CG  PHE A  1       27.061 -13.914   4.713  0.00  0.00    -0.045 A 
ATOM     21  CD2 PHE A  1       27.555 -13.067   5.714  0.00  0.00    +0.003 A 
ATOM     22  CE2 PHE A  1       28.640 -12.227   5.457  0.00  0.00    +0.000 A 
ATOM     23  CZ  PHE A  1       29.244 -12.229   4.201  0.00  0.00    +0.000 A 
ATOM     24  CE1 PHE A  1       28.778 -13.087   3.208  0.00  0.00    +0.000 A 
ATOM     25  CD1 PHE A  1       27.697 -13.931   3.463  0.00  0.00    +0.003 A 
ENDBRANCH  19  20
ENDBRANCH  14  19
ENDBRANCH   2  14
TORSDOF 7
ENDMDL
MODEL 5
REMARK VINA RESULT:      -1.9      2.441      3.630
REMARK  Name = *****
REMARK                            x       y       z     vdW  Elec       q    Type
REMARK                         _______ _______ _______ _____ _____    ______ ____
ROOT
ATOM      1  C   UNK A  0       26.330 -16.768   3.540  0.00  0.00    +0.217 C 
ATOM      2  N   PHE A  1       25.603 -17.939   3.678  0.00  0.00    -0.302 N 
ATOM      3  H   PHE A  1       24.604 -17.906   3.510  0.00  0.00    +0.149 HD
ATOM      4  O   UNK A  0       27.561 -16.765   3.573  0.00  0.00    -0.276 OA
ENDROOT
BRANCH   1   8
ATOM      5  C   UNK A  0       26.962 -12.954   3.986  0.00  0.00    -0.008 C 
ATOM      6  C   UNK A  0       26.434 -13.913   5.063  0.00  0.00    +0.004 C 
ATOM      7  C   UNK A  0       25.227 -14.717   4.609  0.00  0.00    +0.013 C 
ATOM      8  C   UNK A  0       25.481 -15.503   3.317  0.00  0.00    +0.075 C 
ATOM      9  C   UNK A  0       26.033 -14.584   2.215  0.00  0.00    +0.013 C 
ATOM     10  C   UNK A  0       27.188 -13.686   2.653  0.00  0.00    +0.004 C 
BRANCH   5  12
ATOM     11  C   UNK A  0       29.474 -12.543   3.643  0.00  0.00    +0.007 C 
ATOM     12  C   UNK A  0       28.242 -12.226   4.496  0.00  0.00    -0.014 C 
ATOM     13  C   UNK A  0       28.549 -12.533   5.969  0.00  0.00    +0.007 C 
ENDBRANCH   5  12
ENDBRANCH   1   8
BRANCH   2  14
ATOM     14  CA  PHE A  1       26.256 -19.275   3.658  0.00  0.00    +0.186 C 
BRANCH  14  15
ATOM     15  C   PHE A  1       26.912 -19.558   5.011  0.00  0.00    +0.326 C 
ATOM     16  O   PHE A  1       26.331 -20.078   5.969  0.00  0.00    -0.249 OA
BRANCH  15  17
ATOM     17  OXT PHE A  1       28.194 -19.136   5.103  0.00  0.00    -0.479 OA
ATOM     18  HXT PHE A  1       28.268 -18.246   4.701  0.00  0.00    +0.295 HD
ENDBRANCH  15  17
ENDBRANCH  14  15
BRANCH  14  19
ATOM     19  CB  PHE A  1       25.276 -20.414   3.287  0.00  0.00    +0.069 C 
BRANCH  19  20
ATOM     20  CG  PHE A  1       23.912 -20.202   3.909  0.00  0.00    -0.045 A 
ATOM     21  CD2 PHE A  1       23.262 -21.261   4.558  0.00  0.00    +0.003 A 
ATOM     22  CE2 PHE A  1       21.955 -21.109   5.023  0.00  0.00    +0.000 A 
ATOM     23  CZ  PHE A  1       21.287 -19.898   4.850  0.00  0.00    +0.000 A 
ATOM     24  CE1 PHE A  1       21.933 -18.831   4.231  0.00  0.00    +0.000 A 
ATOM     25  CD1 PHE A  1       23.242 -18.978   3.769  0.00  0.00    +0.003 A 
ENDBRANCH  19  20
ENDBRANCH  14  19
ENDBRANCH   2  14
TORSDOF 7
ENDMDL
MODEL 6
REMARK VINA RESULT:      -1.6      2.350      3.969
REMARK  Name = *****
REMARK                            x       y       z     vdW  Elec       q    Type
REMARK                         _______ _______ _______ _____ _____    ______ ____
ROOT
ATOM      1  C   UNK A  0       26.939 -16.227   3.614  0.00  0.00    +0.217 C 
ATOM      2  N   PHE A  1       27.424 -17.413   4.138  0.00  0.00    -0.302 N 
ATOM      3  H   PHE A  1       27.993 -17.371   4.976  0.00  0.00    +0.149 HD
ATOM      4  O   UNK A  0       26.117 -16.214   2.697  0.00  0.00    -0.276 OA
ENDROOT
BRANCH   1   8
ATOM      5  C   UNK A  0       25.836 -12.495   3.671  0.00  0.00    -0.008 C 
ATOM      6  C   UNK A  0       26.773 -13.144   2.641  0.00  0.00    +0.004 C 
ATOM      7  C   UNK A  0       27.934 -13.890   3.276  0.00  0.00    +0.013 C 
ATOM      8  C   UNK A  0       27.485 -14.953   4.285  0.00  0.00    +0.075 C 
ATOM      9  C   UNK A  0       26.524 -14.352   5.325  0.00  0.00    +0.013 C 
ATOM     10  C   UNK A  0       25.393 -13.512   4.736  0.00  0.00    +0.004 C 
BRANCH   5  12
ATOM     11  C   UNK A  0       23.503 -11.447   3.917  0.00  0.00    +0.007 C 
ATOM     12  C   UNK A  0       24.631 -11.819   2.949  0.00  0.00    -0.014 C 
ATOM     13  C   UNK A  0       24.065 -12.680   1.812  0.00  0.00    +0.007 C 
ENDBRANCH   5  12
ENDBRANCH   1   8
BRANCH   2  14
ATOM     14  CA  PHE A  1       26.831 -18.730   3.780  0.00  0.00    +0.186 C 
BRANCH  14  15
ATOM     15  C   PHE A  1       26.786 -19.637   5.011  0.00  0.00    +0.326 C 
ATOM     16  O   PHE A  1       26.147 -19.382   6.038  0.00  0.00    -0.249 OA
BRANCH  15  17
ATOM     17  OXT PHE A  1       27.559 -20.742   4.913  0.00  0.00    -0.479 OA
ATOM     18  HXT PHE A  1       27.009 -21.535   5.081  0.00  0.00    +0.295 HD
ENDBRANCH  15  17
ENDBRANCH  14  15
BRANCH  14  19
ATOM     19  CB  PHE A  1       25.421 -18.600   3.155  0.00  0.00    +0.069 C 
BRANCH  19  20
ATOM     20  CG  PHE A  1       24.405 -19.450   3.888  0.00  0.00    -0.045 A 
ATOM     21  CD2 PHE A  1       23.270 -18.856   4.456  0.00  0.00    +0.003 A 
ATOM     22  CE2 PHE A  1       22.395 -19.611   5.240  0.00  0.00    +0.000 A 
ATOM     23  CZ  PHE A  1       22.642 -20.965   5.458  0.00  0.00    +0.000 A 
ATOM     24  CE1 PHE A  1       23.753 -21.571   4.876  0.00  0.00    +0.000 A 
ATOM     25  CD1 PHE A  1       24.627 -20.821   4.089  0.00  0.00    +0.003 A 
ENDBRANCH  19  20
ENDBRANCH  14  19
ENDBRANCH   2  14
TORSDOF 7
ENDMDL
MODEL 7
REMARK VINA RESULT:      -1.6      2.660      7.088
REMARK  Name = *****
REMARK                            x       y       z     vdW  Elec       q    Type
REMARK                         _______ _______ _______ _____ _____    ______ ____
ROOT
ATOM      1  C   UNK A  0       26.978 -18.086   4.004  0.00  0.00    +0.217 C 
ATOM      2  N   PHE A  1       26.148 -17.216   3.317  0.00  0.00    -0.302 N 
ATOM      3  H   PHE A  1       25.388 -17.607   2.771  0.00  0.00    +0.149 HD
ATOM      4  O   UNK A  0       27.816 -17.679   4.808  0.00  0.00    -0.276 OA
ENDROOT
BRANCH   1   8
ATOM      5  C   UNK A  0       24.038 -20.558   4.628  0.00  0.00    -0.008 C 
ATOM      6  C   UNK A  0       25.190 -20.263   5.599  0.00  0.00    +0.004 C 
ATOM      7  C   UNK A  0       26.562 -20.424   4.966  0.00  0.00    +0.013 C 
ATOM      8  C   UNK A  0       26.743 -19.577   3.701  0.00  0.00    +0.075 C 
ATOM      9  C   UNK A  0       25.596 -19.825   2.707  0.00  0.00    +0.013 C 
ATOM     10  C   UNK A  0       24.198 -19.767   3.319  0.00  0.00    +0.004 C 
BRANCH   5  12
ATOM     11  C   UNK A  0       21.543 -21.159   4.745  0.00  0.00    +0.007 C 
ATOM     12  C   UNK A  0       22.668 -20.296   5.324  0.00  0.00    -0.014 C 
ATOM     13  C   UNK A  0       22.254 -18.819   5.275  0.00  0.00    +0.007 C 
ENDBRANCH   5  12
ENDBRANCH   1   8
BRANCH   2  14
ATOM     14  CA  PHE A  1       26.069 -15.770   3.661  0.00  0.00    +0.186 C 
BRANCH  14  15
ATOM     15  C   PHE A  1       27.293 -15.034   3.113  0.00  0.00    +0.326 C 
ATOM     16  O   PHE A  1       27.350 -14.521   1.990  0.00  0.00    -0.249 OA
BRANCH  15  17
ATOM     17  OXT PHE A  1       28.357 -15.031   3.949  0.00  0.00    -0.479 OA
ATOM     18  HXT PHE A  1       29.033 -15.652   3.609  0.00  0.00    +0.295 HD
ENDBRANCH  15  17
ENDBRANCH  14  15
BRANCH  14  19
ATOM     19  CB  PHE A  1       24.768 -15.105   3.152  0.00  0.00    +0.069 C 
BRANCH  19  20
ATOM     20  CG  PHE A  1       24.509 -13.783   3.844  0.00  0.00    -0.045 A 
ATOM     21  CD2 PHE A  1       25.065 -13.529   5.106  0.00  0.00    +0.003 A 
ATOM     22  CE2 PHE A  1       24.730 -12.367   5.804  0.00  0.00    +0.000 A 
ATOM     23  CZ  PHE A  1       23.843 -11.448   5.248  0.00  0.00    +0.000 A 
ATOM     24  CE1 PHE A  1       23.306 -11.678   3.984  0.00  0.00    +0.000 A 
ATOM     25  CD1 PHE A  1       23.642 -12.835   3.281  0.00  0.00    +0.003 A 
ENDBRANCH  19  20
ENDBRANCH  14  19
ENDBRANCH   2  14
TORSDOF 7
ENDMDL
MODEL 8
REMARK VINA RESULT:      -1.6      1.962      3.033
REMARK  Name = *****
REMARK                            x       y       z     vdW  Elec       q    Type
REMARK                         _______ _______ _______ _____ _____    ______ ____
ROOT
ATOM      1  C   UNK A  0       23.355 -15.001   4.178  0.00  0.00    +0.217 C 
ATOM      2  N   PHE A  1       24.029 -15.870   3.335  0.00  0.00    -0.302 N 
ATOM      3  H   PHE A  1       24.754 -15.491   2.737  0.00  0.00    +0.149 HD
ATOM      4  O   UNK A  0       22.578 -15.412   5.041  0.00  0.00    -0.276 OA
ENDROOT
BRANCH   1   8
ATOM      5  C   UNK A  0       26.633 -12.990   3.583  0.00  0.00    -0.008 C 
ATOM      6  C   UNK A  0       26.022 -13.336   4.949  0.00  0.00    +0.004 C 
ATOM      7  C   UNK A  0       24.564 -12.927   5.073  0.00  0.00    +0.013 C 
ATOM      8  C   UNK A  0       23.680 -13.512   3.965  0.00  0.00    +0.075 C 
ATOM      9  C   UNK A  0       24.268 -13.208   2.577  0.00  0.00    +0.013 C 
ATOM     10  C   UNK A  0       25.757 -13.515   2.434  0.00  0.00    +0.004 C 
BRANCH   5  12
ATOM     11  C   UNK A  0       28.278 -14.867   4.194  0.00  0.00    +0.007 C 
ATOM     12  C   UNK A  0       28.101 -13.510   3.505  0.00  0.00    -0.014 C 
ATOM     13  C   UNK A  0       29.113 -12.510   4.081  0.00  0.00    +0.007 C 
ENDBRANCH   5  12
ENDBRANCH   1   8
BRANCH   2  14
ATOM     14  CA  PHE A  1       24.023 -17.341   3.557  0.00  0.00    +0.186 C 
BRANCH  14  15
ATOM     15  C   PHE A  1       25.440 -17.899   3.410  0.00  0.00    +0.326 C 
ATOM     16  O   PHE A  1       26.446 -17.202   3.232  0.00  0.00    -0.249 OA
BRANCH  15  17
ATOM     17  OXT PHE A  1       25.508 -19.249   3.438  0.00  0.00    -0.479 OA
ATOM     18  HXT PHE A  1       25.153 -19.570   4.292  0.00  0.00    +0.295 HD
ENDBRANCH  15  17
ENDBRANCH  14  15
BRANCH  14  19
ATOM     19  CB  PHE A  1       23.429 -17.736   4.930  0.00  0.00    +0.069 C 
BRANCH  19  20
ATOM     20  CG  PHE A  1       22.791 -19.108   4.888  0.00  0.00    -0.045 A 
ATOM     21  CD2 PHE A  1       21.644 -19.327   4.112  0.00  0.00    +0.003 A 
ATOM     22  CE2 PHE A  1       20.977 -20.553   4.167  0.00  0.00    +0.000 A 
ATOM     23  CZ  PHE A  1       21.453 -21.572   4.990  0.00  0.00    +0.000 A 
ATOM     24  CE1 PHE A  1       22.607 -21.374   5.744  0.00  0.00    +0.000 A 
ATOM     25  CD1 PHE A  1       23.278 -20.152   5.689  0.00  0.00    +0.003 A 
ENDBRANCH  19  20
ENDBRANCH  14  19
ENDBRANCH   2  14
TORSDOF 7
ENDMDL
MODEL 9
REMARK VINA RESULT:      -1.5      1.227      2.101
REMARK  Name = *****
REMARK                            x       y       z     vdW  Elec       q    Type
REMARK                         _______ _______ _______ _____ _____    ______ ____
ROOT
ATOM      1  C   UNK A  0       23.941 -16.955   3.965  0.00  0.00    +0.217 C 
ATOM      2  N   PHE A  1       24.211 -18.298   3.757  0.00  0.00    -0.302 N 
ATOM      3  H   PHE A  1       24.903 -18.546   3.059  0.00  0.00    +0.149 HD
ATOM      4  O   UNK A  0       23.235 -16.576   4.900  0.00  0.00    -0.276 OA
ENDROOT
BRANCH   1   8
ATOM      5  C   UNK A  0       26.712 -14.237   4.237  0.00  0.00    -0.008 C 
ATOM      6  C   UNK A  0       25.206 -14.015   4.444  0.00  0.00    +0.004 C 
ATOM      7  C   UNK A  0       24.362 -14.521   3.286  0.00  0.00    +0.013 C 
ATOM      8  C   UNK A  0       24.612 -15.999   2.963  0.00  0.00    +0.075 C 
ATOM      9  C   UNK A  0       26.113 -16.272   2.769  0.00  0.00    +0.013 C 
ATOM     10  C   UNK A  0       27.011 -15.697   3.862  0.00  0.00    +0.004 C 
BRANCH   5  12
ATOM     11  C   UNK A  0       26.576 -13.328   6.636  0.00  0.00    +0.007 C 
ATOM     12  C   UNK A  0       27.501 -13.765   5.495  0.00  0.00    -0.014 C 
ATOM     13  C   UNK A  0       28.492 -12.636   5.181  0.00  0.00    +0.007 C 
ENDBRANCH   5  12
ENDBRANCH   1   8
BRANCH   2  14
ATOM     14  CA  PHE A  1       23.849 -19.336   4.760  0.00  0.00    +0.186 C 
BRANCH  14  15
ATOM     15  C   PHE A  1       22.367 -19.695   4.631  0.00  0.00    +0.326 C 
ATOM     16  O   PHE A  1       21.893 -20.799   4.918  0.00  0.00    -0.249 OA
BRANCH  15  17
ATOM     17  OXT PHE A  1       21.602 -18.705   4.115  0.00  0.00    -0.479 OA
ATOM     18  HXT PHE A  1       22.056 -17.848   4.247  0.00  0.00    +0.295 HD
ENDBRANCH  15  17
ENDBRANCH  14  15
BRANCH  14  19
ATOM     19  CB  PHE A  1       24.723 -20.608   4.646  0.00  0.00    +0.069 C 
BRANCH  19  20
ATOM     20  CG  PHE A  1       26.031 -20.455   5.392  0.00  0.00    -0.045 A 
ATOM     21  CD2 PHE A  1       26.982 -19.519   4.961  0.00  0.00    +0.003 A 
ATOM     22  CE2 PHE A  1       28.239 -19.459   5.566  0.00  0.00    +0.000 A 
ATOM     23  CZ  PHE A  1       28.556 -20.328   6.608  0.00  0.00    +0.000 A 
ATOM     24  CE1 PHE A  1       27.610 -21.244   7.061  0.00  0.00    +0.000 A 
ATOM     25  CD1 PHE A  1       26.351 -21.303   6.463  0.00  0.00    +0.003 A 
ENDBRANCH  19  20
ENDBRANCH  14  19
ENDBRANCH   2  14
TORSDOF 7
ENDMDL
