MODEL 1
REMARK VINA RESULT:      -7.9      0.000      0.000
REMARK  Name = *****
REMARK                            x       y       z     vdW  Elec       q    Type
REMARK                         _______ _______ _______ _____ _____    ______ ____
ROOT
ATOM      1  C   LIG    1       29.584 -19.805   8.149  0.00  0.00    +0.152 C 
ENDROOT
BRANCH   1   2
ATOM      2  C   LIG    1       28.367 -19.880   7.180  0.00  0.00    +0.034 C 
BRANCH   2   3
ATOM      3  C   LIG    1       27.203 -20.679   7.812  0.00  0.00    +0.006 C 
BRANCH   3   4
ATOM      4  C   LIG    1       26.336 -21.579   6.905  0.00  0.00    -0.011 C 
BRANCH   4   5
ATOM      5  C   LIG    1       25.755 -22.770   7.696  0.00  0.00    -0.000 C 
ATOM      6  C   LIG    1       25.622 -24.078   6.926  0.00  0.00    +0.004 C 
ENDBRANCH   4   5
BRANCH   4   7
ATOM      7  C   LIG    1       25.277 -20.784   6.122  0.00  0.00    +0.003 C 
BRANCH   7   8
ATOM      8  C   LIG    1       23.912 -20.773   6.827  0.00  0.00    -0.000 C 
BRANCH   8  10
ATOM      9  C   LIG    1       22.560 -19.515   5.134  0.00  0.00    +0.004 C 
ATOM     10  C   LIG    1       22.761 -20.853   5.830  0.00  0.00    -0.003 C 
ENDBRANCH   8  10
ENDBRANCH   7   8
ENDBRANCH   4   7
ENDBRANCH   3   4
ENDBRANCH   2   3
ENDBRANCH   1   2
BRANCH   1  11
ATOM     11  C   LIG    1       30.483 -18.556   7.825  0.00  0.00    +0.037 C 
BRANCH  11  12
ATOM     12  C   LIG    1       30.633 -17.455   8.914  0.00  0.00    -0.015 C 
ATOM     13  C   LIG    1       32.100 -17.008   9.106  0.00  0.00    +0.007 C 
ATOM     14  C   LIG    1       30.144 -17.927  10.282  0.00  0.00    +0.007 C 
ENDBRANCH  11  12
ENDBRANCH   1  11
BRANCH   1  15
ATOM     15  O   LIG    1       30.351 -20.996   8.011  0.00  0.00    -0.212 OA
BRANCH  15  16
ATOM     16  S   LIG    1       31.351 -21.548   9.170  0.00  0.00    +0.208 S 
ATOM     17  O   LIG    1       30.563 -22.147  10.230  0.00  0.00    -0.118 OA
ATOM     18  O   LIG    1       32.334 -20.552   9.416  0.00  0.00    -0.118 OA
BRANCH  16  19
ATOM     19  O   LIG    1       32.155 -22.740   8.427  0.00  0.00    -0.231 OA
ATOM     20  H   LIG    1       32.876 -23.030   9.030  0.00  0.00    +0.247 HD
ENDBRANCH  16  19
ENDBRANCH  15  16
ENDBRANCH   1  15
TORSDOF 12
ENDMDL
MODEL 2
REMARK VINA RESULT:      -7.9      0.812      2.229
REMARK  Name = *****
REMARK                            x       y       z     vdW  Elec       q    Type
REMARK                         _______ _______ _______ _____ _____    ______ ____
ROOT
ATOM      1  C   LIG    1       29.408 -20.213   8.085  0.00  0.00    +0.152 C 
ENDROOT
BRANCH   1   2
ATOM      2  C   LIG    1       28.121 -20.670   7.335  0.00  0.00    +0.034 C 
BRANCH   2   3
ATOM      3  C   LIG    1       26.852 -20.308   8.140  0.00  0.00    +0.006 C 
BRANCH   3   4
ATOM      4  C   LIG    1       25.581 -21.166   7.958  0.00  0.00    -0.011 C 
BRANCH   4   5
ATOM      5  C   LIG    1       24.819 -20.767   6.677  0.00  0.00    -0.000 C 
ATOM      6  C   LIG    1       23.300 -20.727   6.791  0.00  0.00    +0.004 C 
ENDBRANCH   4   5
BRANCH   4   7
ATOM      7  C   LIG    1       25.866 -22.674   8.061  0.00  0.00    +0.003 C 
BRANCH   7   8
ATOM      8  C   LIG    1       25.872 -23.364   6.689  0.00  0.00    -0.000 C 
BRANCH   8  10
ATOM      9  C   LIG    1       23.621 -24.459   6.581  0.00  0.00    +0.004 C 
ATOM     10  C   LIG    1       25.118 -24.690   6.721  0.00  0.00    -0.003 C 
ENDBRANCH   8  10
ENDBRANCH   7   8
ENDBRANCH   4   7
ENDBRANCH   3   4
ENDBRANCH   2   3
ENDBRANCH   1   2
BRANCH   1  11
ATOM     11  C   LIG    1       29.918 -18.833   7.531  0.00  0.00    +0.037 C 
BRANCH  11  12
ATOM     12  C   LIG    1       30.377 -17.753   8.554  0.00  0.00    -0.015 C 
ATOM     13  C   LIG    1       31.912 -17.573   8.577  0.00  0.00    +0.007 C 
ATOM     14  C   LIG    1       29.963 -18.101   9.982  0.00  0.00    +0.007 C 
ENDBRANCH  11  12
ENDBRANCH   1  11
BRANCH   1  15
ATOM     15  O   LIG    1       30.416 -21.202   7.908  0.00  0.00    -0.212 OA
BRANCH  15  16
ATOM     16  S   LIG    1       31.373 -21.721   9.116  0.00  0.00    +0.208 S 
ATOM     17  O   LIG    1       30.552 -22.335  10.142  0.00  0.00    -0.118 OA
ATOM     18  O   LIG    1       32.316 -20.698   9.402  0.00  0.00    -0.118 OA
BRANCH  16  19
ATOM     19  O   LIG    1       32.243 -22.894   8.420  0.00  0.00    -0.231 OA
ATOM     20  H   LIG    1       32.503 -22.577   7.525  0.00  0.00    +0.247 HD
ENDBRANCH  16  19
ENDBRANCH  15  16
ENDBRANCH   1  15
TORSDOF 12
ENDMDL
MODEL 3
REMARK VINA RESULT:      -7.9      1.549      2.262
REMARK  Name = *****
REMARK                            x       y       z     vdW  Elec       q    Type
REMARK                         _______ _______ _______ _____ _____    ______ ____
ROOT
ATOM      1  C   LIG    1       28.933 -20.869   7.857  0.00  0.00    +0.152 C 
ENDROOT
BRANCH   1   2
ATOM      2  C   LIG    1       27.498 -21.438   8.072  0.00  0.00    +0.034 C 
BRANCH   2   3
ATOM      3  C   LIG    1       26.427 -20.446   7.562  0.00  0.00    +0.006 C 
BRANCH   3   4
ATOM      4  C   LIG    1       25.399 -20.930   6.515  0.00  0.00    -0.011 C 
BRANCH   4   5
ATOM      5  C   LIG    1       23.962 -20.859   7.073  0.00  0.00    -0.000 C 
ATOM      6  C   LIG    1       23.259 -22.197   7.271  0.00  0.00    +0.004 C 
ENDBRANCH   4   5
BRANCH   4   7
ATOM      7  C   LIG    1       25.568 -20.231   5.155  0.00  0.00    +0.003 C 
BRANCH   7   8
ATOM      8  C   LIG    1       24.345 -20.421   4.244  0.00  0.00    -0.000 C 
BRANCH   8  10
ATOM      9  C   LIG    1       22.447 -18.798   4.440  0.00  0.00    +0.004 C 
ATOM     10  C   LIG    1       23.782 -19.085   3.770  0.00  0.00    -0.003 C 
ENDBRANCH   8  10
ENDBRANCH   7   8
ENDBRANCH   4   7
ENDBRANCH   3   4
ENDBRANCH   2   3
ENDBRANCH   1   2
BRANCH   1  11
ATOM     11  C   LIG    1       29.114 -20.345   6.387  0.00  0.00    +0.037 C 
BRANCH  11  12
ATOM     12  C   LIG    1       29.819 -18.975   6.175  0.00  0.00    -0.015 C 
ATOM     13  C   LIG    1       29.953 -18.168   7.487  0.00  0.00    +0.007 C 
ATOM     14  C   LIG    1       29.060 -18.081   5.196  0.00  0.00    +0.007 C 
ENDBRANCH  11  12
ENDBRANCH   1  11
BRANCH   1  15
ATOM     15  O   LIG    1       29.877 -21.902   8.117  0.00  0.00    -0.212 OA
BRANCH  15  16
ATOM     16  S   LIG    1       31.131 -21.723   9.137  0.00  0.00    +0.208 S 
ATOM     17  O   LIG    1       30.740 -22.181  10.456  0.00  0.00    -0.118 OA
ATOM     18  O   LIG    1       31.705 -20.443   8.911  0.00  0.00    -0.118 OA
BRANCH  16  19
ATOM     19  O   LIG    1       32.226 -22.767   8.563  0.00  0.00    -0.231 OA
ATOM     20  H   LIG    1       32.157 -23.590   9.098  0.00  0.00    +0.247 HD
ENDBRANCH  16  19
ENDBRANCH  15  16
ENDBRANCH   1  15
TORSDOF 12
ENDMDL
MODEL 4
REMARK VINA RESULT:      -7.5      3.233      5.173
REMARK  Name = *****
REMARK                            x       y       z     vdW  Elec       q    Type
REMARK                         _______ _______ _______ _____ _____    ______ ____
ROOT
ATOM      1  C   LIG    1       26.850 -21.879   7.280  0.00  0.00    +0.152 C 
ENDROOT
BRANCH   1   2
ATOM      2  C   LIG    1       26.056 -20.601   6.874  0.00  0.00    +0.034 C 
BRANCH   2   3
ATOM      3  C   LIG    1       26.266 -20.270   5.378  0.00  0.00    +0.006 C 
BRANCH   3   4
ATOM      4  C   LIG    1       25.040 -19.898   4.515  0.00  0.00    -0.011 C 
BRANCH   4   5
ATOM      5  C   LIG    1       25.472 -19.199   3.209  0.00  0.00    -0.000 C 
ATOM      6  C   LIG    1       25.774 -17.709   3.319  0.00  0.00    +0.004 C 
ENDBRANCH   4   5
BRANCH   4   7
ATOM      7  C   LIG    1       24.090 -21.086   4.295  0.00  0.00    +0.003 C 
BRANCH   7   8
ATOM      8  C   LIG    1       22.724 -20.876   4.966  0.00  0.00    -0.000 C 
BRANCH   8  10
ATOM      9  C   LIG    1       21.929 -18.596   4.300  0.00  0.00    +0.004 C 
ATOM     10  C   LIG    1       22.533 -19.431   5.417  0.00  0.00    -0.003 C 
ENDBRANCH   8  10
ENDBRANCH   7   8
ENDBRANCH   4   7
ENDBRANCH   3   4
ENDBRANCH   2   3
ENDBRANCH   1   2
BRANCH   1  11
ATOM     11  C   LIG    1       25.873 -23.041   7.686  0.00  0.00    +0.037 C 
BRANCH  11  12
ATOM     12  C   LIG    1       25.271 -23.926   6.557  0.00  0.00    -0.015 C 
ATOM     13  C   LIG    1       23.740 -24.095   6.688  0.00  0.00    +0.007 C 
ATOM     14  C   LIG    1       25.861 -25.335   6.554  0.00  0.00    +0.007 C 
ENDBRANCH  11  12
ENDBRANCH   1  11
BRANCH   1  15
ATOM     15  O   LIG    1       27.697 -21.559   8.378  0.00  0.00    -0.212 OA
BRANCH  15  16
ATOM     16  S   LIG    1       29.176 -20.906   8.199  0.00  0.00    +0.208 S 
ATOM     17  O   LIG    1       30.139 -21.701   8.936  0.00  0.00    -0.118 OA
ATOM     18  O   LIG    1       29.060 -19.499   8.363  0.00  0.00    -0.118 OA
BRANCH  16  19
ATOM     19  O   LIG    1       29.480 -21.108   6.623  0.00  0.00    -0.231 OA
ATOM     20  H   LIG    1       29.829 -20.254   6.278  0.00  0.00    +0.247 HD
ENDBRANCH  16  19
ENDBRANCH  15  16
ENDBRANCH   1  15
TORSDOF 12
ENDMDL
MODEL 5
REMARK VINA RESULT:      -7.4      3.798      7.117
REMARK  Name = *****
REMARK                            x       y       z     vdW  Elec       q    Type
REMARK                         _______ _______ _______ _____ _____    ______ ____
ROOT
ATOM      1  C   LIG    1       24.919 -21.371   6.651  0.00  0.00    +0.152 C 
ENDROOT
BRANCH   1   2
ATOM      2  C   LIG    1       25.899 -20.546   7.538  0.00  0.00    +0.034 C 
BRANCH   2   3
ATOM      3  C   LIG    1       27.281 -21.236   7.625  0.00  0.00    +0.006 C 
BRANCH   3   4
ATOM      4  C   LIG    1       28.509 -20.530   7.009  0.00  0.00    -0.011 C 
BRANCH   4   5
ATOM      5  C   LIG    1       28.132 -19.794   5.706  0.00  0.00    -0.000 C 
ATOM      6  C   LIG    1       28.956 -18.554   5.379  0.00  0.00    +0.004 C 
ENDBRANCH   4   5
BRANCH   4   7
ATOM      7  C   LIG    1       29.251 -19.645   8.024  0.00  0.00    +0.003 C 
BRANCH   7   8
ATOM      8  C   LIG    1       30.744 -19.994   8.124  0.00  0.00    -0.000 C 
BRANCH   8  10
ATOM      9  C   LIG    1       30.667 -17.658   9.025  0.00  0.00    +0.004 C 
ATOM     10  C   LIG    1       31.540 -18.884   8.804  0.00  0.00    -0.003 C 
ENDBRANCH   8  10
ENDBRANCH   7   8
ENDBRANCH   4   7
ENDBRANCH   3   4
ENDBRANCH   2   3
ENDBRANCH   1   2
BRANCH   1  11
ATOM     11  C   LIG    1       23.588 -20.573   6.396  0.00  0.00    +0.037 C 
BRANCH  11  12
ATOM     12  C   LIG    1       23.210 -20.223   4.928  0.00  0.00    -0.015 C 
ATOM     13  C   LIG    1       24.451 -20.021   4.028  0.00  0.00    +0.007 C 
ATOM     14  C   LIG    1       22.397 -18.933   4.835  0.00  0.00    +0.007 C 
ENDBRANCH  11  12
ENDBRANCH   1  11
BRANCH   1  15
ATOM     15  O   LIG    1       24.624 -22.595   7.314  0.00  0.00    -0.212 OA
BRANCH  15  16
ATOM     16  S   LIG    1       24.583 -24.031   6.552  0.00  0.00    +0.208 S 
ATOM     17  O   LIG    1       23.244 -24.580   6.645  0.00  0.00    -0.118 OA
ATOM     18  O   LIG    1       25.739 -24.766   6.931  0.00  0.00    -0.118 OA
BRANCH  16  19
ATOM     19  O   LIG    1       24.841 -23.635   5.004  0.00  0.00    -0.231 OA
ATOM     20  H   LIG    1       24.752 -22.658   4.932  0.00  0.00    +0.247 HD
ENDBRANCH  16  19
ENDBRANCH  15  16
ENDBRANCH   1  15
TORSDOF 12
ENDMDL
MODEL 6
REMARK VINA RESULT:      -7.1      3.735      7.069
REMARK  Name = *****
REMARK                            x       y       z     vdW  Elec       q    Type
REMARK                         _______ _______ _______ _____ _____    ______ ____
ROOT
ATOM      1  C   LIG    1       25.220 -21.617   7.053  0.00  0.00    +0.152 C 
ENDROOT
BRANCH   1   2
ATOM      2  C   LIG    1       26.235 -20.887   7.982  0.00  0.00    +0.034 C 
BRANCH   2   3
ATOM      3  C   LIG    1       27.348 -20.200   7.156  0.00  0.00    +0.006 C 
BRANCH   3   4
ATOM      4  C   LIG    1       28.780 -20.145   7.731  0.00  0.00    -0.011 C 
BRANCH   4   5
ATOM      5  C   LIG    1       29.335 -21.563   7.979  0.00  0.00    -0.000 C 
ATOM      6  C   LIG    1       30.613 -21.643   8.805  0.00  0.00    +0.004 C 
ENDBRANCH   4   5
BRANCH   4   7
ATOM      7  C   LIG    1       29.717 -19.252   6.900  0.00  0.00    +0.003 C 
BRANCH   7   8
ATOM      8  C   LIG    1       30.556 -18.309   7.775  0.00  0.00    -0.000 C 
BRANCH   8  10
ATOM      9  C   LIG    1       30.493 -16.873   9.828  0.00  0.00    +0.004 C 
ATOM     10  C   LIG    1       29.936 -18.119   9.156  0.00  0.00    -0.003 C 
ENDBRANCH   8  10
ENDBRANCH   7   8
ENDBRANCH   4   7
ENDBRANCH   3   4
ENDBRANCH   2   3
ENDBRANCH   1   2
BRANCH   1  11
ATOM     11  C   LIG    1       23.823 -20.896   7.075  0.00  0.00    +0.037 C 
BRANCH  11  12
ATOM     12  C   LIG    1       23.308 -20.247   5.758  0.00  0.00    -0.015 C 
ATOM     13  C   LIG    1       22.173 -21.064   5.098  0.00  0.00    +0.007 C 
ATOM     14  C   LIG    1       24.412 -20.121   4.709  0.00  0.00    +0.007 C 
ENDBRANCH  11  12
ENDBRANCH   1  11
BRANCH   1  15
ATOM     15  O   LIG    1       25.074 -22.959   7.502  0.00  0.00    -0.212 OA
BRANCH  15  16
ATOM     16  S   LIG    1       24.606 -24.176   6.529  0.00  0.00    +0.208 S 
ATOM     17  O   LIG    1       23.176 -24.371   6.668  0.00  0.00    -0.118 OA
ATOM     18  O   LIG    1       25.540 -25.237   6.669  0.00  0.00    -0.118 OA
BRANCH  16  19
ATOM     19  O   LIG    1       24.876 -23.588   5.047  0.00  0.00    -0.231 OA
ATOM     20  H   LIG    1       24.696 -22.620   5.076  0.00  0.00    +0.247 HD
ENDBRANCH  16  19
ENDBRANCH  15  16
ENDBRANCH   1  15
TORSDOF 12
ENDMDL
MODEL 7
REMARK VINA RESULT:      -7.0      1.676      2.377
REMARK  Name = *****
REMARK                            x       y       z     vdW  Elec       q    Type
REMARK                         _______ _______ _______ _____ _____    ______ ____
ROOT
ATOM      1  C   LIG    1       28.684 -21.009   8.015  0.00  0.00    +0.152 C 
ENDROOT
BRANCH   1   2
ATOM      2  C   LIG    1       27.336 -21.777   8.162  0.00  0.00    +0.034 C 
BRANCH   2   3
ATOM      3  C   LIG    1       26.514 -21.707   6.853  0.00  0.00    +0.006 C 
BRANCH   3   4
ATOM      4  C   LIG    1       25.329 -22.679   6.663  0.00  0.00    -0.011 C 
BRANCH   4   5
ATOM      5  C   LIG    1       25.755 -24.136   6.940  0.00  0.00    -0.000 C 
ATOM      6  C   LIG    1       25.462 -25.138   5.829  0.00  0.00    +0.004 C 
ENDBRANCH   4   5
BRANCH   4   7
ATOM      7  C   LIG    1       24.076 -22.243   7.442  0.00  0.00    +0.003 C 
BRANCH   7   8
ATOM      8  C   LIG    1       22.969 -21.711   6.519  0.00  0.00    -0.000 C 
BRANCH   8  10
ATOM      9  C   LIG    1       22.359 -19.899   4.900  0.00  0.00    +0.004 C 
ATOM     10  C   LIG    1       23.240 -20.275   6.081  0.00  0.00    -0.003 C 
ENDBRANCH   8  10
ENDBRANCH   7   8
ENDBRANCH   4   7
ENDBRANCH   3   4
ENDBRANCH   2   3
ENDBRANCH   1   2
BRANCH   1  11
ATOM     11  C   LIG    1       28.780 -20.308   6.612  0.00  0.00    +0.037 C 
BRANCH  11  12
ATOM     12  C   LIG    1       29.504 -18.933   6.523  0.00  0.00    -0.015 C 
ATOM     13  C   LIG    1       29.154 -18.161   5.230  0.00  0.00    +0.007 C 
ATOM     14  C   LIG    1       31.024 -19.081   6.538  0.00  0.00    +0.007 C 
ENDBRANCH  11  12
ENDBRANCH   1  11
BRANCH   1  15
ATOM     15  O   LIG    1       29.755 -21.935   8.163  0.00  0.00    -0.212 OA
BRANCH  15  16
ATOM     16  S   LIG    1       30.938 -21.757   9.265  0.00  0.00    +0.208 S 
ATOM     17  O   LIG    1       32.216 -22.026   8.637  0.00  0.00    -0.118 OA
ATOM     18  O   LIG    1       30.525 -22.398  10.464  0.00  0.00    -0.118 OA
BRANCH  16  19
ATOM     19  O   LIG    1       30.886 -20.177   9.610  0.00  0.00    -0.231 OA
ATOM     20  H   LIG    1       31.519 -19.723   9.007  0.00  0.00    +0.247 HD
ENDBRANCH  16  19
ENDBRANCH  15  16
ENDBRANCH   1  15
TORSDOF 12
ENDMDL
MODEL 8
REMARK VINA RESULT:      -6.8      2.765      4.307
REMARK  Name = *****
REMARK                            x       y       z     vdW  Elec       q    Type
REMARK                         _______ _______ _______ _____ _____    ______ ____
ROOT
ATOM      1  C   LIG    1       27.720 -20.433   6.260  0.00  0.00    +0.152 C 
ENDROOT
BRANCH   1   2
ATOM      2  C   LIG    1       26.839 -19.821   5.129  0.00  0.00    +0.034 C 
BRANCH   2   3
ATOM      3  C   LIG    1       25.505 -20.591   4.989  0.00  0.00    +0.006 C 
BRANCH   3   4
ATOM      4  C   LIG    1       24.187 -19.876   5.358  0.00  0.00    -0.011 C 
BRANCH   4   5
ATOM      5  C   LIG    1       23.420 -19.435   4.094  0.00  0.00    -0.000 C 
ATOM      6  C   LIG    1       22.202 -18.550   4.330  0.00  0.00    +0.004 C 
ENDBRANCH   4   5
BRANCH   4   7
ATOM      7  C   LIG    1       23.332 -20.687   6.347  0.00  0.00    +0.003 C 
BRANCH   7   8
ATOM      8  C   LIG    1       22.935 -22.062   5.788  0.00  0.00    -0.000 C 
BRANCH   8  10
ATOM      9  C   LIG    1       23.466 -24.388   6.553  0.00  0.00    +0.004 C 
ATOM     10  C   LIG    1       22.751 -23.091   6.899  0.00  0.00    -0.003 C 
ENDBRANCH   8  10
ENDBRANCH   7   8
ENDBRANCH   4   7
ENDBRANCH   3   4
ENDBRANCH   2   3
ENDBRANCH   1   2
BRANCH   1  11
ATOM     11  C   LIG    1       26.997 -20.328   7.652  0.00  0.00    +0.037 C 
BRANCH  11  12
ATOM     12  C   LIG    1       26.584 -21.646   8.368  0.00  0.00    -0.015 C 
ATOM     13  C   LIG    1       26.493 -22.845   7.396  0.00  0.00    +0.007 C 
ATOM     14  C   LIG    1       25.218 -21.532   9.040  0.00  0.00    +0.007 C 
ENDBRANCH  11  12
ENDBRANCH   1  11
BRANCH   1  15
ATOM     15  O   LIG    1       28.955 -19.727   6.307  0.00  0.00    -0.212 OA
BRANCH  15  16
ATOM     16  S   LIG    1       30.035 -19.907   7.510  0.00  0.00    +0.208 S 
ATOM     17  O   LIG    1       29.966 -21.266   8.010  0.00  0.00    -0.118 OA
ATOM     18  O   LIG    1       29.941 -18.773   8.361  0.00  0.00    -0.118 OA
BRANCH  16  19
ATOM     19  O   LIG    1       31.458 -19.735   6.758  0.00  0.00    -0.231 OA
ATOM     20  H   LIG    1       31.946 -19.012   7.213  0.00  0.00    +0.247 HD
ENDBRANCH  16  19
ENDBRANCH  15  16
ENDBRANCH   1  15
TORSDOF 12
ENDMDL
MODEL 9
REMARK VINA RESULT:      -6.8      3.231      6.745
REMARK  Name = *****
REMARK                            x       y       z     vdW  Elec       q    Type
REMARK                         _______ _______ _______ _____ _____    ______ ____
ROOT
ATOM      1  C   LIG    1       26.681 -20.623   5.949  0.00  0.00    +0.152 C 
ENDROOT
BRANCH   1   2
ATOM      2  C   LIG    1       28.172 -20.175   5.987  0.00  0.00    +0.034 C 
BRANCH   2   3
ATOM      3  C   LIG    1       28.518 -19.515   7.342  0.00  0.00    +0.006 C 
BRANCH   3   4
ATOM      4  C   LIG    1       29.842 -19.893   8.041  0.00  0.00    -0.011 C 
BRANCH   4   5
ATOM      5  C   LIG    1       29.978 -21.424   8.184  0.00  0.00    -0.000 C 
ATOM      6  C   LIG    1       31.074 -21.910   9.125  0.00  0.00    +0.004 C 
ENDBRANCH   4   5
BRANCH   4   7
ATOM      7  C   LIG    1       31.065 -19.223   7.393  0.00  0.00    +0.003 C 
BRANCH   7   8
ATOM      8  C   LIG    1       31.837 -18.333   8.379  0.00  0.00    -0.000 C 
BRANCH   8  10
ATOM      9  C   LIG    1       30.565 -16.808   9.905  0.00  0.00    +0.004 C 
ATOM     10  C   LIG    1       31.113 -18.213   9.717  0.00  0.00    -0.003 C 
ENDBRANCH   8  10
ENDBRANCH   7   8
ENDBRANCH   4   7
ENDBRANCH   3   4
ENDBRANCH   2   3
ENDBRANCH   1   2
BRANCH   1  11
ATOM     11  C   LIG    1       25.910 -19.907   4.781  0.00  0.00    +0.037 C 
BRANCH  11  12
ATOM     12  C   LIG    1       24.572 -20.531   4.290  0.00  0.00    -0.015 C 
ATOM     13  C   LIG    1       23.335 -19.871   4.943  0.00  0.00    +0.007 C 
ATOM     14  C   LIG    1       24.481 -22.022   4.609  0.00  0.00    +0.007 C 
ENDBRANCH  11  12
ENDBRANCH   1  11
BRANCH   1  15
ATOM     15  O   LIG    1       26.074 -20.297   7.194  0.00  0.00    -0.212 OA
BRANCH  15  16
ATOM     16  S   LIG    1       25.594 -21.419   8.270  0.00  0.00    +0.208 S 
ATOM     17  O   LIG    1       25.820 -20.917   9.611  0.00  0.00    -0.118 OA
ATOM     18  O   LIG    1       26.075 -22.682   7.834  0.00  0.00    -0.118 OA
BRANCH  16  19
ATOM     19  O   LIG    1       23.994 -21.490   8.039  0.00  0.00    -0.231 OA
ATOM     20  H   LIG    1       23.793 -22.367   7.640  0.00  0.00    +0.247 HD
ENDBRANCH  16  19
ENDBRANCH  15  16
ENDBRANCH   1  15
TORSDOF 12
ENDMDL
