MODEL 1
REMARK VINA RESULT:      -6.9      0.000      0.000
REMARK  Name = *****
REMARK                            x       y       z     vdW  Elec       q    Type
REMARK                         _______ _______ _______ _____ _____    ______ ____
ROOT
ATOM      1  C   LIG    1       26.846 -20.360   6.022  0.00  0.00    +0.143 A 
ATOM      2  C   LIG    1       25.473 -20.535   5.790  0.00  0.00    +0.112 A 
ATOM      3  C   LIG    1       24.654 -20.756   6.920  0.00  0.00    +0.004 A 
ATOM      4  C   LIG    1       23.276 -20.924   6.725  0.00  0.00    +0.012 A 
ATOM      5  C   LIG    1       22.746 -20.867   5.442  0.00  0.00    +0.020 A 
ATOM      6  C   LIG    1       23.615 -20.651   4.394  0.00  0.00    +0.111 A 
ATOM      7  C   LIG    1       25.209 -20.796   8.212  0.00  0.00    +0.010 A 
ATOM      8  C   LIG    1       26.576 -20.612   8.403  0.00  0.00    +0.004 A 
ATOM      9  N   LIG    1       24.946 -20.491   4.543  0.00  0.00    -0.251 NA
ATOM     10  C   LIG    1       27.400 -20.393   7.306  0.00  0.00    +0.048 A 
ENDROOT
BRANCH   1  11
ATOM     11  O   LIG    1       27.681 -20.145   4.948  0.00  0.00    -0.505 OA
ATOM     12  H   LIG    1       27.463 -20.769   4.240  0.00  0.00    +0.292 HD
ENDBRANCH   1  11
TORSDOF 1
ENDMDL
MODEL 2
REMARK VINA RESULT:      -6.7      4.598      5.084
REMARK  Name = *****
REMARK                            x       y       z     vdW  Elec       q    Type
REMARK                         _______ _______ _______ _____ _____    ______ ____
ROOT
ATOM      1  C   LIG    1       23.315 -23.558   6.769  0.00  0.00    +0.143 A 
ATOM      2  C   LIG    1       24.130 -24.658   6.466  0.00  0.00    +0.112 A 
ATOM      3  C   LIG    1       25.518 -24.511   6.687  0.00  0.00    +0.004 A 
ATOM      4  C   LIG    1       26.360 -25.595   6.404  0.00  0.00    +0.012 A 
ATOM      5  C   LIG    1       25.823 -26.782   5.923  0.00  0.00    +0.020 A 
ATOM      6  C   LIG    1       24.458 -26.842   5.732  0.00  0.00    +0.111 A 
ATOM      7  C   LIG    1       26.041 -23.304   7.188  0.00  0.00    +0.010 A 
ATOM      8  C   LIG    1       25.199 -22.235   7.482  0.00  0.00    +0.004 A 
ATOM      9  N   LIG    1       23.618 -25.818   5.988  0.00  0.00    -0.251 NA
ATOM     10  C   LIG    1       23.831 -22.359   7.274  0.00  0.00    +0.048 A 
ENDROOT
BRANCH   1  11
ATOM     11  O   LIG    1       21.956 -23.658   6.566  0.00  0.00    -0.505 OA
ATOM     12  H   LIG    1       21.776 -23.720   5.616  0.00  0.00    +0.292 HD
ENDBRANCH   1  11
TORSDOF 1
ENDMDL
MODEL 3
REMARK VINA RESULT:      -6.7      1.866      2.544
REMARK  Name = *****
REMARK                            x       y       z     vdW  Elec       q    Type
REMARK                         _______ _______ _______ _____ _____    ______ ____
ROOT
ATOM      1  C   LIG    1       26.255 -20.566   8.175  0.00  0.00    +0.143 A 
ATOM      2  C   LIG    1       25.258 -20.631   7.189  0.00  0.00    +0.112 A 
ATOM      3  C   LIG    1       25.665 -20.442   5.850  0.00  0.00    +0.004 A 
ATOM      4  C   LIG    1       24.696 -20.512   4.840  0.00  0.00    +0.012 A 
ATOM      5  C   LIG    1       23.370 -20.766   5.168  0.00  0.00    +0.020 A 
ATOM      6  C   LIG    1       23.057 -20.935   6.500  0.00  0.00    +0.111 A 
ATOM      7  C   LIG    1       27.016 -20.199   5.537  0.00  0.00    +0.010 A 
ATOM      8  C   LIG    1       27.978 -20.148   6.542  0.00  0.00    +0.004 A 
ATOM      9  N   LIG    1       23.961 -20.870   7.499  0.00  0.00    -0.251 NA
ATOM     10  C   LIG    1       27.600 -20.332   7.867  0.00  0.00    +0.048 A 
ENDROOT
BRANCH   1  11
ATOM     11  O   LIG    1       25.901 -20.742   9.494  0.00  0.00    -0.505 OA
ATOM     12  H   LIG    1       26.675 -20.599  10.057  0.00  0.00    +0.292 HD
ENDBRANCH   1  11
TORSDOF 1
ENDMDL
MODEL 4
REMARK VINA RESULT:      -6.7      2.173      3.210
REMARK  Name = *****
REMARK                            x       y       z     vdW  Elec       q    Type
REMARK                         _______ _______ _______ _____ _____    ______ ____
ROOT
ATOM      1  C   LIG    1       25.125 -20.122   4.431  0.00  0.00    +0.143 A 
ATOM      2  C   LIG    1       24.576 -21.097   5.277  0.00  0.00    +0.112 A 
ATOM      3  C   LIG    1       23.190 -21.015   5.538  0.00  0.00    +0.004 A 
ATOM      4  C   LIG    1       22.607 -21.980   6.370  0.00  0.00    +0.012 A 
ATOM      5  C   LIG    1       23.390 -22.990   6.914  0.00  0.00    +0.020 A 
ATOM      6  C   LIG    1       24.736 -22.996   6.612  0.00  0.00    +0.111 A 
ATOM      7  C   LIG    1       22.411 -19.991   4.966  0.00  0.00    +0.010 A 
ATOM      8  C   LIG    1       22.991 -19.044   4.126  0.00  0.00    +0.004 A 
ATOM      9  N   LIG    1       25.332 -22.082   5.819  0.00  0.00    -0.251 NA
ATOM     10  C   LIG    1       24.353 -19.107   3.855  0.00  0.00    +0.048 A 
ENDROOT
BRANCH   1  11
ATOM     11  O   LIG    1       26.474 -20.164   4.152  0.00  0.00    -0.505 OA
ATOM     12  H   LIG    1       26.928 -20.676   4.837  0.00  0.00    +0.292 HD
ENDBRANCH   1  11
TORSDOF 1
ENDMDL
MODEL 5
REMARK VINA RESULT:      -6.6      2.452      4.442
REMARK  Name = *****
REMARK                            x       y       z     vdW  Elec       q    Type
REMARK                         _______ _______ _______ _____ _____    ______ ____
ROOT
ATOM      1  C   LIG    1       25.878 -20.702   8.164  0.00  0.00    +0.143 A 
ATOM      2  C   LIG    1       27.110 -20.306   7.621  0.00  0.00    +0.112 A 
ATOM      3  C   LIG    1       27.171 -20.137   6.220  0.00  0.00    +0.004 A 
ATOM      4  C   LIG    1       28.384 -19.731   5.647  0.00  0.00    +0.012 A 
ATOM      5  C   LIG    1       29.490 -19.502   6.455  0.00  0.00    +0.020 A 
ATOM      6  C   LIG    1       29.347 -19.694   7.813  0.00  0.00    +0.111 A 
ATOM      7  C   LIG    1       26.035 -20.361   5.420  0.00  0.00    +0.010 A 
ATOM      8  C   LIG    1       24.827 -20.748   5.995  0.00  0.00    +0.004 A 
ATOM      9  N   LIG    1       28.197 -20.088   8.399  0.00  0.00    -0.251 NA
ATOM     10  C   LIG    1       24.745 -20.919   7.372  0.00  0.00    +0.048 A 
ENDROOT
BRANCH   1  11
ATOM     11  O   LIG    1       25.776 -20.881   9.526  0.00  0.00    -0.505 OA
ATOM     12  H   LIG    1       26.149 -21.742   9.766  0.00  0.00    +0.292 HD
ENDBRANCH   1  11
TORSDOF 1
ENDMDL
MODEL 6
REMARK VINA RESULT:      -6.6      3.620      4.532
REMARK  Name = *****
REMARK                            x       y       z     vdW  Elec       q    Type
REMARK                         _______ _______ _______ _____ _____    ______ ____
ROOT
ATOM      1  C   LIG    1       23.413 -23.986   6.657  0.00  0.00    +0.143 A 
ATOM      2  C   LIG    1       24.292 -22.959   7.032  0.00  0.00    +0.112 A 
ATOM      3  C   LIG    1       25.669 -23.275   7.075  0.00  0.00    +0.004 A 
ATOM      4  C   LIG    1       26.576 -22.268   7.435  0.00  0.00    +0.012 A 
ATOM      5  C   LIG    1       26.113 -20.993   7.735  0.00  0.00    +0.020 A 
ATOM      6  C   LIG    1       24.753 -20.769   7.671  0.00  0.00    +0.111 A 
ATOM      7  C   LIG    1       26.119 -24.569   6.755  0.00  0.00    +0.010 A 
ATOM      8  C   LIG    1       25.216 -25.561   6.382  0.00  0.00    +0.004 A 
ATOM      9  N   LIG    1       23.852 -21.714   7.334  0.00  0.00    -0.251 NA
ATOM     10  C   LIG    1       23.857 -25.272   6.331  0.00  0.00    +0.048 A 
ENDROOT
BRANCH   1  11
ATOM     11  O   LIG    1       22.062 -23.721   6.604  0.00  0.00    -0.505 OA
ATOM     12  H   LIG    1       21.601 -24.270   7.254  0.00  0.00    +0.292 HD
ENDBRANCH   1  11
TORSDOF 1
ENDMDL
MODEL 7
REMARK VINA RESULT:      -6.6      1.119      3.329
REMARK  Name = *****
REMARK                            x       y       z     vdW  Elec       q    Type
REMARK                         _______ _______ _______ _____ _____    ______ ____
ROOT
ATOM      1  C   LIG    1       25.013 -20.342   4.653  0.00  0.00    +0.143 A 
ATOM      2  C   LIG    1       25.626 -20.456   5.910  0.00  0.00    +0.112 A 
ATOM      3  C   LIG    1       24.781 -20.688   7.019  0.00  0.00    +0.004 A 
ATOM      4  C   LIG    1       25.362 -20.818   8.288  0.00  0.00    +0.012 A 
ATOM      5  C   LIG    1       26.740 -20.722   8.432  0.00  0.00    +0.020 A 
ATOM      6  C   LIG    1       27.493 -20.492   7.299  0.00  0.00    +0.111 A 
ATOM      7  C   LIG    1       23.388 -20.795   6.850  0.00  0.00    +0.010 A 
ATOM      8  C   LIG    1       22.816 -20.682   5.585  0.00  0.00    +0.004 A 
ATOM      9  N   LIG    1       26.968 -20.356   6.064  0.00  0.00    -0.251 NA
ATOM     10  C   LIG    1       23.629 -20.455   4.481  0.00  0.00    +0.048 A 
ENDROOT
BRANCH   1  11
ATOM     11  O   LIG    1       25.800 -20.114   3.546  0.00  0.00    -0.505 OA
ATOM     12  H   LIG    1       26.494 -20.787   3.500  0.00  0.00    +0.292 HD
ENDBRANCH   1  11
TORSDOF 1
ENDMDL
MODEL 8
REMARK VINA RESULT:      -6.5      5.362      7.015
REMARK  Name = *****
REMARK                            x       y       z     vdW  Elec       q    Type
REMARK                         _______ _______ _______ _____ _____    ______ ____
ROOT
ATOM      1  C   LIG    1       31.167 -20.770   8.895  0.00  0.00    +0.143 A 
ATOM      2  C   LIG    1       31.119 -19.389   9.138  0.00  0.00    +0.112 A 
ATOM      3  C   LIG    1       30.026 -18.678   8.595  0.00  0.00    +0.004 A 
ATOM      4  C   LIG    1       29.942 -17.298   8.829  0.00  0.00    +0.012 A 
ATOM      5  C   LIG    1       30.920 -16.663   9.584  0.00  0.00    +0.020 A 
ATOM      6  C   LIG    1       31.956 -17.430  10.075  0.00  0.00    +0.111 A 
ATOM      7  C   LIG    1       29.039 -19.343   7.845  0.00  0.00    +0.010 A 
ATOM      8  C   LIG    1       29.117 -20.716   7.629  0.00  0.00    +0.004 A 
ATOM      9  N   LIG    1       32.072 -18.757   9.866  0.00  0.00    -0.251 NA
ATOM     10  C   LIG    1       30.183 -21.435   8.155  0.00  0.00    +0.048 A 
ENDROOT
BRANCH   1  11
ATOM     11  O   LIG    1       32.217 -21.501   9.404  0.00  0.00    -0.505 OA
ATOM     12  H   LIG    1       32.415 -22.238   8.809  0.00  0.00    +0.292 HD
ENDBRANCH   1  11
TORSDOF 1
ENDMDL
MODEL 9
REMARK VINA RESULT:      -6.4      2.871      4.116
REMARK  Name = *****
REMARK                            x       y       z     vdW  Elec       q    Type
REMARK                         _______ _______ _______ _____ _____    ______ ____
ROOT
ATOM      1  C   LIG    1       25.128 -24.226   6.669  0.00  0.00    +0.143 A 
ATOM      2  C   LIG    1       25.558 -22.967   7.115  0.00  0.00    +0.112 A 
ATOM      3  C   LIG    1       24.560 -22.003   7.379  0.00  0.00    +0.004 A 
ATOM      4  C   LIG    1       24.955 -20.738   7.836  0.00  0.00    +0.012 A 
ATOM      5  C   LIG    1       26.303 -20.459   8.024  0.00  0.00    +0.020 A 
ATOM      6  C   LIG    1       27.213 -21.456   7.740  0.00  0.00    +0.111 A 
ATOM      7  C   LIG    1       23.199 -22.310   7.195  0.00  0.00    +0.010 A 
ATOM      8  C   LIG    1       22.810 -23.573   6.756  0.00  0.00    +0.004 A 
ATOM      9  N   LIG    1       26.870 -22.681   7.294  0.00  0.00    -0.251 NA
ATOM     10  C   LIG    1       23.775 -24.537   6.492  0.00  0.00    +0.048 A 
ENDROOT
BRANCH   1  11
ATOM     11  O   LIG    1       26.069 -25.195   6.398  0.00  0.00    -0.505 OA
ATOM     12  H   LIG    1       25.627 -25.988   6.063  0.00  0.00    +0.292 HD
ENDBRANCH   1  11
TORSDOF 1
ENDMDL
