MODEL 1
REMARK VINA RESULT:      -9.6      0.000      0.000
REMARK  Name = *****
REMARK                            x       y       z     vdW  Elec       q    Type
REMARK                         _______ _______ _______ _____ _____    ______ ____
ROOT
ATOM      1  C   LIG    1       28.805 -19.805   6.451  0.00  0.00    -0.040 A 
ATOM      2  C   LIG    1       27.621 -19.562   5.746  0.00  0.00    +0.049 A 
ATOM      3  C   LIG    1       26.442 -20.256   6.053  0.00  0.00    +0.129 A 
ATOM      4  O   LIG    1       25.352 -19.889   5.313  0.00  0.00    -0.485 OA
ATOM      5  C   LIG    1       24.223 -20.793   5.319  0.00  0.00    +0.109 C 
ATOM      6  C   LIG    1       23.918 -21.247   6.775  0.00  0.00    +0.044 C 
ATOM      7  C   LIG    1       25.134 -21.939   7.427  0.00  0.00    +0.056 C 
ATOM      8  C   LIG    1       25.178 -23.427   7.136  0.00  0.00    -0.019 C 
ATOM      9  C   LIG    1       24.116 -24.153   6.733  0.00  0.00    -0.076 C 
ATOM     10  C   LIG    1       24.224 -25.623   6.443  0.00  0.00    +0.038 C 
ATOM     11  C   LIG    1       22.752 -23.545   6.543  0.00  0.00    +0.030 C 
ATOM     12  C   LIG    1       22.649 -22.090   7.000  0.00  0.00    +0.012 C 
ATOM     13  C   LIG    1       23.053 -19.945   4.783  0.00  0.00    +0.056 C 
ATOM     14  C   LIG    1       24.516 -21.880   4.274  0.00  0.00    +0.056 C 
ATOM     15  C   LIG    1       26.414 -21.208   7.076  0.00  0.00    +0.043 A 
ATOM     16  C   LIG    1       27.599 -21.418   7.799  0.00  0.00    +0.124 A 
ATOM     17  C   LIG    1       28.780 -20.731   7.498  0.00  0.00    +0.049 A 
ENDROOT
BRANCH  16  18
ATOM     18  O   LIG    1       27.590 -22.311   8.839  0.00  0.00    -0.506 OA
ATOM     19  H   LIG    1       27.802 -23.194   8.498  0.00  0.00    +0.292 HD
ENDBRANCH  16  18
BRANCH   1  20
ATOM     20  C   LIG    1       30.077 -19.066   6.104  0.00  0.00    +0.035 C 
BRANCH  20  21
ATOM     21  C   LIG    1       31.203 -19.343   7.105  0.00  0.00    +0.005 C 
BRANCH  21  22
ATOM     22  C   LIG    1       31.408 -18.172   8.075  0.00  0.00    +0.000 C 
BRANCH  22  24
ATOM     23  C   LIG    1       30.309 -17.386  10.219  0.00  0.00    +0.004 C 
ATOM     24  C   LIG    1       30.982 -18.545   9.497  0.00  0.00    -0.003 C 
ENDBRANCH  22  24
ENDBRANCH  21  22
ENDBRANCH  20  21
ENDBRANCH   1  20
TORSDOF 5
ENDMDL
MODEL 2
REMARK VINA RESULT:      -8.7      1.218      3.347
REMARK  Name = *****
REMARK                            x       y       z     vdW  Elec       q    Type
REMARK                         _______ _______ _______ _____ _____    ______ ____
ROOT
ATOM      1  C   LIG    1       28.746 -20.310   7.310  0.00  0.00    -0.040 A 
ATOM      2  C   LIG    1       27.703 -21.197   7.603  0.00  0.00    +0.049 A 
ATOM      3  C   LIG    1       26.560 -21.261   6.794  0.00  0.00    +0.129 A 
ATOM      4  O   LIG    1       25.641 -22.200   7.173  0.00  0.00    -0.485 OA
ATOM      5  C   LIG    1       24.311 -22.073   6.621  0.00  0.00    +0.109 C 
ATOM      6  C   LIG    1       24.398 -21.806   5.091  0.00  0.00    +0.044 C 
ATOM      7  C   LIG    1       25.208 -20.531   4.777  0.00  0.00    +0.056 C 
ATOM      8  C   LIG    1       24.348 -19.281   4.791  0.00  0.00    -0.019 C 
ATOM      9  C   LIG    1       23.005 -19.282   4.671  0.00  0.00    -0.076 C 
ATOM     10  C   LIG    1       22.204 -18.011   4.709  0.00  0.00    +0.038 C 
ATOM     11  C   LIG    1       22.215 -20.551   4.493  0.00  0.00    +0.030 C 
ATOM     12  C   LIG    1       23.076 -21.799   4.301  0.00  0.00    +0.012 C 
ATOM     13  C   LIG    1       23.661 -23.449   6.873  0.00  0.00    +0.056 C 
ATOM     14  C   LIG    1       23.562 -21.049   7.488  0.00  0.00    +0.056 C 
ATOM     15  C   LIG    1       26.430 -20.443   5.668  0.00  0.00    +0.043 A 
ATOM     16  C   LIG    1       27.497 -19.582   5.364  0.00  0.00    +0.124 A 
ATOM     17  C   LIG    1       28.640 -19.511   6.168  0.00  0.00    +0.049 A 
ENDROOT
BRANCH  16  18
ATOM     18  O   LIG    1       27.419 -18.804   4.240  0.00  0.00    -0.506 OA
ATOM     19  H   LIG    1       27.035 -19.328   3.519  0.00  0.00    +0.292 HD
ENDBRANCH  16  18
BRANCH   1  20
ATOM     20  C   LIG    1       29.967 -20.234   8.197  0.00  0.00    +0.035 C 
BRANCH  20  21
ATOM     21  C   LIG    1       31.056 -19.331   7.610  0.00  0.00    +0.005 C 
BRANCH  21  22
ATOM     22  C   LIG    1       31.535 -18.280   8.619  0.00  0.00    +0.000 C 
BRANCH  22  24
ATOM     23  C   LIG    1       30.391 -17.477  10.733  0.00  0.00    +0.004 C 
ATOM     24  C   LIG    1       30.360 -17.498   9.212  0.00  0.00    -0.003 C 
ENDBRANCH  22  24
ENDBRANCH  21  22
ENDBRANCH  20  21
ENDBRANCH   1  20
TORSDOF 5
ENDMDL
MODEL 3
REMARK VINA RESULT:      -7.9      5.106      8.983
REMARK  Name = *****
REMARK                            x       y       z     vdW  Elec       q    Type
REMARK                         _______ _______ _______ _____ _____    ______ ____
ROOT
ATOM      1  C   LIG    1       25.280 -26.583   6.206  0.00  0.00    -0.040 A 
ATOM      2  C   LIG    1       26.057 -26.960   7.308  0.00  0.00    +0.049 A 
ATOM      3  C   LIG    1       25.911 -28.223   7.898  0.00  0.00    +0.129 A 
ATOM      4  O   LIG    1       26.762 -28.473   8.938  0.00  0.00    -0.485 OA
ATOM      5  C   LIG    1       26.427 -29.580   9.806  0.00  0.00    +0.109 C 
ATOM      6  C   LIG    1       26.038 -30.820   8.952  0.00  0.00    +0.044 C 
ATOM      7  C   LIG    1       24.847 -30.522   8.017  0.00  0.00    +0.056 C 
ATOM      8  C   LIG    1       23.509 -30.759   8.691  0.00  0.00    -0.019 C 
ATOM      9  C   LIG    1       23.337 -31.517   9.792  0.00  0.00    -0.076 C 
ATOM     10  C   LIG    1       21.988 -31.701  10.427  0.00  0.00    +0.038 C 
ATOM     11  C   LIG    1       24.481 -32.229  10.465  0.00  0.00    +0.030 C 
ATOM     12  C   LIG    1       25.802 -32.145   9.701  0.00  0.00    +0.012 C 
ATOM     13  C   LIG    1       27.731 -29.867  10.577  0.00  0.00    +0.056 C 
ATOM     14  C   LIG    1       25.401 -29.058  10.823  0.00  0.00    +0.056 C 
ATOM     15  C   LIG    1       24.987 -29.147   7.398  0.00  0.00    +0.043 A 
ATOM     16  C   LIG    1       24.238 -28.771   6.272  0.00  0.00    +0.124 A 
ATOM     17  C   LIG    1       24.377 -27.511   5.679  0.00  0.00    +0.049 A 
ENDROOT
BRANCH  16  18
ATOM     18  O   LIG    1       23.359 -29.672   5.732  0.00  0.00    -0.506 OA
ATOM     19  H   LIG    1       22.937 -29.274   4.954  0.00  0.00    +0.292 HD
ENDBRANCH  16  18
BRANCH   1  20
ATOM     20  C   LIG    1       25.430 -25.213   5.587  0.00  0.00    +0.035 C 
BRANCH  20  21
ATOM     21  C   LIG    1       24.951 -24.097   6.521  0.00  0.00    +0.005 C 
BRANCH  21  22
ATOM     22  C   LIG    1       23.425 -24.099   6.680  0.00  0.00    +0.000 C 
BRANCH  22  24
ATOM     23  C   LIG    1       23.980 -21.701   7.281  0.00  0.00    +0.004 C 
ATOM     24  C   LIG    1       22.884 -22.683   6.895  0.00  0.00    -0.003 C 
ENDBRANCH  22  24
ENDBRANCH  21  22
ENDBRANCH  20  21
ENDBRANCH   1  20
TORSDOF 5
ENDMDL
MODEL 4
REMARK VINA RESULT:      -7.8      1.428      3.497
REMARK  Name = *****
REMARK                            x       y       z     vdW  Elec       q    Type
REMARK                         _______ _______ _______ _____ _____    ______ ____
ROOT
ATOM      1  C   LIG    1       29.393 -19.154   7.066  0.00  0.00    -0.040 A 
ATOM      2  C   LIG    1       28.599 -20.231   7.478  0.00  0.00    +0.049 A 
ATOM      3  C   LIG    1       27.465 -20.614   6.749  0.00  0.00    +0.129 A 
ATOM      4  O   LIG    1       26.807 -21.707   7.242  0.00  0.00    -0.485 OA
ATOM      5  C   LIG    1       25.460 -21.929   6.768  0.00  0.00    +0.109 C 
ATOM      6  C   LIG    1       25.410 -21.763   5.222  0.00  0.00    +0.044 C 
ATOM      7  C   LIG    1       25.886 -20.363   4.780  0.00  0.00    +0.056 C 
ATOM      8  C   LIG    1       24.762 -19.345   4.771  0.00  0.00    -0.019 C 
ATOM      9  C   LIG    1       23.452 -19.661   4.736  0.00  0.00    -0.076 C 
ATOM     10  C   LIG    1       22.381 -18.607   4.747  0.00  0.00    +0.038 C 
ATOM     11  C   LIG    1       22.970 -21.086   4.687  0.00  0.00    +0.030 C 
ATOM     12  C   LIG    1       24.086 -22.116   4.518  0.00  0.00    +0.012 C 
ATOM     13  C   LIG    1       25.159 -23.393   7.144  0.00  0.00    +0.056 C 
ATOM     14  C   LIG    1       24.536 -21.041   7.616  0.00  0.00    +0.056 C 
ATOM     15  C   LIG    1       27.096 -19.933   5.584  0.00  0.00    +0.043 A 
ATOM     16  C   LIG    1       27.918 -18.877   5.162  0.00  0.00    +0.124 A 
ATOM     17  C   LIG    1       29.051 -18.488   5.886  0.00  0.00    +0.049 A 
ENDROOT
BRANCH  16  18
ATOM     18  O   LIG    1       27.609 -18.222   3.999  0.00  0.00    -0.506 OA
ATOM     19  H   LIG    1       28.431 -18.007   3.530  0.00  0.00    +0.292 HD
ENDBRANCH  16  18
BRANCH   1  20
ATOM     20  C   LIG    1       30.604 -18.736   7.867  0.00  0.00    +0.035 C 
BRANCH  20  21
ATOM     21  C   LIG    1       30.270 -18.496   9.343  0.00  0.00    +0.005 C 
BRANCH  21  22
ATOM     22  C   LIG    1       30.655 -17.081   9.795  0.00  0.00    +0.000 C 
BRANCH  22  24
ATOM     23  C   LIG    1       31.638 -16.269  11.984  0.00  0.00    +0.004 C 
ATOM     24  C   LIG    1       31.865 -17.104  10.732  0.00  0.00    -0.003 C 
ENDBRANCH  22  24
ENDBRANCH  21  22
ENDBRANCH  20  21
ENDBRANCH   1  20
TORSDOF 5
ENDMDL
MODEL 5
REMARK VINA RESULT:      -6.7      5.454      9.038
REMARK  Name = *****
REMARK                            x       y       z     vdW  Elec       q    Type
REMARK                         _______ _______ _______ _____ _____    ______ ____
ROOT
ATOM      1  C   LIG    1       25.792 -27.185   6.597  0.00  0.00    -0.040 A 
ATOM      2  C   LIG    1       26.500 -27.360   7.791  0.00  0.00    +0.049 A 
ATOM      3  C   LIG    1       26.205 -28.423   8.657  0.00  0.00    +0.129 A 
ATOM      4  O   LIG    1       27.002 -28.498   9.766  0.00  0.00    -0.485 OA
ATOM      5  C   LIG    1       26.532 -29.323  10.855  0.00  0.00    +0.109 C 
ATOM      6  C   LIG    1       26.028 -30.687  10.304  0.00  0.00    +0.044 C 
ATOM      7  C   LIG    1       24.896 -30.506   9.271  0.00  0.00    +0.056 C 
ATOM      8  C   LIG    1       23.526 -30.436   9.920  0.00  0.00    -0.019 C 
ATOM      9  C   LIG    1       23.250 -30.885  11.161  0.00  0.00    -0.076 C 
ATOM     10  C   LIG    1       21.876 -30.774  11.758  0.00  0.00    +0.038 C 
ATOM     11  C   LIG    1       24.295 -31.524  12.035  0.00  0.00    +0.030 C 
ATOM     12  C   LIG    1       25.633 -31.762  11.335  0.00  0.00    +0.012 C 
ATOM     13  C   LIG    1       27.780 -29.546  11.732  0.00  0.00    +0.056 C 
ATOM     14  C   LIG    1       25.548 -28.470  11.671  0.00  0.00    +0.056 C 
ATOM     15  C   LIG    1       25.197 -29.341   8.350  0.00  0.00    +0.043 A 
ATOM     16  C   LIG    1       24.516 -29.175   7.133  0.00  0.00    +0.124 A 
ATOM     17  C   LIG    1       24.804 -28.116   6.265  0.00  0.00    +0.049 A 
ENDROOT
BRANCH  16  18
ATOM     18  O   LIG    1       23.556 -30.087   6.783  0.00  0.00    -0.506 OA
ATOM     19  H   LIG    1       22.819 -29.621   6.356  0.00  0.00    +0.292 HD
ENDBRANCH  16  18
BRANCH   1  20
ATOM     20  C   LIG    1       26.103 -26.026   5.678  0.00  0.00    +0.035 C 
BRANCH  20  21
ATOM     21  C   LIG    1       24.851 -25.224   5.309  0.00  0.00    +0.005 C 
BRANCH  21  22
ATOM     22  C   LIG    1       24.928 -23.778   5.818  0.00  0.00    +0.000 C 
BRANCH  22  24
ATOM     23  C   LIG    1       26.434 -22.400   7.320  0.00  0.00    +0.004 C 
ATOM     24  C   LIG    1       25.651 -23.696   7.164  0.00  0.00    -0.003 C 
ENDBRANCH  22  24
ENDBRANCH  21  22
ENDBRANCH  20  21
ENDBRANCH   1  20
TORSDOF 5
ENDMDL
MODEL 6
REMARK VINA RESULT:      -6.6      1.978      2.923
REMARK  Name = *****
REMARK                            x       y       z     vdW  Elec       q    Type
REMARK                         _______ _______ _______ _____ _____    ______ ____
ROOT
ATOM      1  C   LIG    1       28.104 -19.207   5.569  0.00  0.00    -0.040 A 
ATOM      2  C   LIG    1       26.807 -19.327   5.058  0.00  0.00    +0.049 A 
ATOM      3  C   LIG    1       25.916 -20.283   5.566  0.00  0.00    +0.129 A 
ATOM      4  O   LIG    1       24.669 -20.261   5.004  0.00  0.00    -0.485 OA
ATOM      5  C   LIG    1       23.838 -21.425   5.213  0.00  0.00    +0.109 C 
ATOM      6  C   LIG    1       23.886 -21.847   6.709  0.00  0.00    +0.044 C 
ATOM      7  C   LIG    1       25.326 -22.155   7.172  0.00  0.00    +0.056 C 
ATOM      8  C   LIG    1       25.721 -23.596   6.912  0.00  0.00    -0.019 C 
ATOM      9  C   LIG    1       24.844 -24.598   6.703  0.00  0.00    -0.076 C 
ATOM     10  C   LIG    1       25.297 -26.005   6.433  0.00  0.00    +0.038 C 
ATOM     11  C   LIG    1       23.355 -24.380   6.721  0.00  0.00    +0.030 C 
ATOM     12  C   LIG    1       22.936 -22.975   7.154  0.00  0.00    +0.012 C 
ATOM     13  C   LIG    1       22.417 -20.948   4.852  0.00  0.00    +0.056 C 
ATOM     14  C   LIG    1       24.251 -22.465   4.160  0.00  0.00    +0.056 C 
ATOM     15  C   LIG    1       26.296 -21.141   6.603  0.00  0.00    +0.043 A 
ATOM     16  C   LIG    1       27.588 -20.988   7.131  0.00  0.00    +0.124 A 
ATOM     17  C   LIG    1       28.484 -20.038   6.627  0.00  0.00    +0.049 A 
ENDROOT
BRANCH  16  18
ATOM     18  O   LIG    1       27.973 -21.782   8.178  0.00  0.00    -0.506 OA
ATOM     19  H   LIG    1       28.549 -22.488   7.844  0.00  0.00    +0.292 HD
ENDBRANCH  16  18
BRANCH   1  20
ATOM     20  C   LIG    1       29.066 -18.187   5.004  0.00  0.00    +0.035 C 
BRANCH  20  21
ATOM     21  C   LIG    1       28.414 -16.813   4.820  0.00  0.00    +0.005 C 
BRANCH  21  22
ATOM     22  C   LIG    1       27.397 -16.810   3.671  0.00  0.00    +0.000 C 
BRANCH  22  24
ATOM     23  C   LIG    1       27.676 -14.292   3.693  0.00  0.00    +0.004 C 
ATOM     24  C   LIG    1       26.703 -15.452   3.543  0.00  0.00    -0.003 C 
ENDBRANCH  22  24
ENDBRANCH  21  22
ENDBRANCH  20  21
ENDBRANCH   1  20
TORSDOF 5
ENDMDL
