MODEL 1
REMARK VINA RESULT:       0.6      0.000      0.000
REMARK  Name = *****
REMARK                            x       y       z     vdW  Elec       q    Type
REMARK                         _______ _______ _______ _____ _____    ______ ____
ROOT
ATOM      1  C   LIG    1       25.617 -19.119   4.480  0.00  0.00    +0.080 C 
ENDROOT
BRANCH   1   2
ATOM      2  C   LIG    1       25.974 -17.659   4.046  0.00  0.00    -0.030 A 
ATOM      3  C   LIG    1       27.294 -17.169   4.027  0.00  0.00    +0.005 A 
ATOM      4  C   LIG    1       27.578 -15.852   3.652  0.00  0.00    +0.000 A 
ATOM      5  C   LIG    1       26.550 -14.986   3.295  0.00  0.00    +0.000 A 
ATOM      6  C   LIG    1       25.238 -15.440   3.299  0.00  0.00    +0.000 A 
ATOM      7  C   LIG    1       24.959 -16.760   3.655  0.00  0.00    +0.005 A 
ENDBRANCH   1   2
BRANCH   1   8
ATOM      8  C   LIG    1       26.731 -19.818   5.321  0.00  0.00    -0.030 A 
ATOM      9  C   LIG    1       28.087 -19.451   5.219  0.00  0.00    +0.005 A 
ATOM     10  C   LIG    1       29.069 -20.069   6.015  0.00  0.00    +0.000 A 
ATOM     11  C   LIG    1       28.725 -21.067   6.922  0.00  0.00    +0.000 A 
ATOM     12  C   LIG    1       27.395 -21.429   7.062  0.00  0.00    +0.000 A 
ATOM     13  C   LIG    1       26.418 -20.796   6.291  0.00  0.00    +0.005 A 
ENDBRANCH   1   8
BRANCH   1  14
ATOM     14  C   LIG    1       25.338 -19.990   3.161  0.00  0.00    +0.148 C 
ATOM     15  O   LIG    1       25.687 -19.586   2.027  0.00  0.00    -0.296 OA
BRANCH  14  17
ATOM     16  C   LIG    1       23.492 -21.571   2.330  0.00  0.00    +0.012 C 
ATOM     17  C   LIG    1       24.667 -21.356   3.278  0.00  0.00    +0.072 C 
ENDBRANCH  14  17
ENDBRANCH   1  14
BRANCH   1  18
ATOM     18  C   LIG    1       24.201 -19.072   5.200  0.00  0.00    +0.042 C 
BRANCH  18  19
ATOM     19  C   LIG    1       22.854 -19.621   4.624  0.00  0.00    +0.054 C 
ATOM     20  C   LIG    1       21.829 -18.561   4.192  0.00  0.00    +0.024 C 
BRANCH  19  21
ATOM     21  N   LIG    1       22.175 -20.592   5.548  0.00  0.00    -0.306 NA
ATOM     22  C   LIG    1       23.087 -21.353   6.403  0.00  0.00    +0.105 C 
ATOM     23  C   LIG    1       21.258 -21.508   4.864  0.00  0.00    +0.105 C 
ENDBRANCH  19  21
ENDBRANCH  18  19
ENDBRANCH   1  18
TORSDOF 7
ENDMDL
MODEL 2
REMARK VINA RESULT:       2.0      1.959      4.913
REMARK  Name = *****
REMARK                            x       y       z     vdW  Elec       q    Type
REMARK                         _______ _______ _______ _____ _____    ______ ____
ROOT
ATOM      1  C   LIG    1       25.671 -18.787   3.699  0.00  0.00    +0.080 C 
ENDROOT
BRANCH   1   2
ATOM      2  C   LIG    1       26.953 -19.004   4.571  0.00  0.00    -0.030 A 
ATOM      3  C   LIG    1       27.115 -20.112   5.425  0.00  0.00    +0.005 A 
ATOM      4  C   LIG    1       28.265 -20.266   6.207  0.00  0.00    +0.000 A 
ATOM      5  C   LIG    1       29.279 -19.315   6.161  0.00  0.00    +0.000 A 
ATOM      6  C   LIG    1       29.150 -18.215   5.325  0.00  0.00    +0.000 A 
ATOM      7  C   LIG    1       28.011 -18.072   4.533  0.00  0.00    +0.005 A 
ENDBRANCH   1   2
BRANCH   1   8
ATOM      8  C   LIG    1       24.336 -19.039   4.466  0.00  0.00    -0.030 A 
ATOM      9  C   LIG    1       23.126 -18.425   4.086  0.00  0.00    +0.005 A 
ATOM     10  C   LIG    1       21.927 -18.698   4.769  0.00  0.00    +0.000 A 
ATOM     11  C   LIG    1       21.906 -19.581   5.846  0.00  0.00    +0.000 A 
ATOM     12  C   LIG    1       23.076 -20.219   6.224  0.00  0.00    +0.000 A 
ATOM     13  C   LIG    1       24.260 -19.968   5.528  0.00  0.00    +0.005 A 
ENDBRANCH   1   8
BRANCH   1  14
ATOM     14  C   LIG    1       25.740 -19.775   2.436  0.00  0.00    +0.148 C 
ATOM     15  O   LIG    1       26.811 -19.965   1.813  0.00  0.00    -0.296 OA
BRANCH  14  17
ATOM     16  C   LIG    1       23.989 -21.572   2.992  0.00  0.00    +0.012 C 
ATOM     17  C   LIG    1       24.490 -20.533   1.993  0.00  0.00    +0.072 C 
ENDBRANCH  14  17
ENDBRANCH   1  14
BRANCH   1  18
ATOM     18  C   LIG    1       25.776 -17.342   3.046  0.00  0.00    +0.042 C 
BRANCH  18  19
ATOM     19  C   LIG    1       25.832 -15.982   3.816  0.00  0.00    +0.054 C 
ATOM     20  C   LIG    1       24.478 -15.300   4.071  0.00  0.00    +0.024 C 
BRANCH  19  21
ATOM     21  N   LIG    1       26.755 -14.984   3.177  0.00  0.00    -0.306 NA
ATOM     22  C   LIG    1       27.838 -14.519   4.045  0.00  0.00    +0.105 C 
ATOM     23  C   LIG    1       26.061 -13.834   2.591  0.00  0.00    +0.105 C 
ENDBRANCH  19  21
ENDBRANCH  18  19
ENDBRANCH   1  18
TORSDOF 7
ENDMDL
MODEL 3
REMARK VINA RESULT:       2.7      1.539      5.007
REMARK  Name = *****
REMARK                            x       y       z     vdW  Elec       q    Type
REMARK                         _______ _______ _______ _____ _____    ______ ____
ROOT
ATOM      1  C   LIG    1       25.736 -19.057   4.006  0.00  0.00    +0.080 C 
ENDROOT
BRANCH   1   2
ATOM      2  C   LIG    1       24.438 -19.500   4.759  0.00  0.00    -0.030 A 
ATOM      3  C   LIG    1       24.451 -20.414   5.830  0.00  0.00    +0.005 A 
ATOM      4  C   LIG    1       23.269 -20.805   6.468  0.00  0.00    +0.000 A 
ATOM      5  C   LIG    1       22.043 -20.299   6.049  0.00  0.00    +0.000 A 
ATOM      6  C   LIG    1       21.999 -19.392   5.000  0.00  0.00    +0.000 A 
ATOM      7  C   LIG    1       23.180 -18.989   4.376  0.00  0.00    +0.005 A 
ENDBRANCH   1   2
BRANCH   1   8
ATOM      8  C   LIG    1       25.882 -17.511   3.855  0.00  0.00    -0.030 A 
ATOM      9  C   LIG    1       27.127 -16.895   3.615  0.00  0.00    +0.005 A 
ATOM     10  C   LIG    1       27.228 -15.503   3.444  0.00  0.00    +0.000 A 
ATOM     11  C   LIG    1       26.098 -14.693   3.514  0.00  0.00    +0.000 A 
ATOM     12  C   LIG    1       24.858 -15.274   3.723  0.00  0.00    +0.000 A 
ATOM     13  C   LIG    1       24.755 -16.659   3.866  0.00  0.00    +0.005 A 
ENDBRANCH   1   8
BRANCH   1  14
ATOM     14  C   LIG    1       25.732 -19.723   2.546  0.00  0.00    +0.148 C 
ATOM     15  O   LIG    1       26.749 -19.695   1.813  0.00  0.00    -0.296 OA
BRANCH  14  17
ATOM     16  C   LIG    1       23.991 -21.572   2.934  0.00  0.00    +0.012 C 
ATOM     17  C   LIG    1       24.482 -20.438   2.038  0.00  0.00    +0.072 C 
ENDBRANCH  14  17
ENDBRANCH   1  14
BRANCH   1  18
ATOM     18  C   LIG    1       26.969 -19.753   4.727  0.00  0.00    +0.042 C 
BRANCH  18  19
ATOM     19  C   LIG    1       27.832 -19.140   5.879  0.00  0.00    +0.054 C 
ATOM     20  C   LIG    1       29.168 -18.511   5.454  0.00  0.00    +0.024 C 
BRANCH  19  21
ATOM     21  N   LIG    1       28.096 -20.112   6.994  0.00  0.00    -0.306 NA
ATOM     22  C   LIG    1       29.475 -20.600   7.057  0.00  0.00    +0.105 C 
ATOM     23  C   LIG    1       27.168 -21.245   7.018  0.00  0.00    +0.105 C 
ENDBRANCH  19  21
ENDBRANCH  18  19
ENDBRANCH   1  18
TORSDOF 7
ENDMDL
MODEL 4
REMARK VINA RESULT:       2.8      1.733      5.384
REMARK  Name = *****
REMARK                            x       y       z     vdW  Elec       q    Type
REMARK                         _______ _______ _______ _____ _____    ______ ____
ROOT
ATOM      1  C   LIG    1       24.891 -18.925   4.171  0.00  0.00    +0.080 C 
ENDROOT
BRANCH   1   2
ATOM      2  C   LIG    1       25.769 -19.718   5.195  0.00  0.00    -0.030 A 
ATOM      3  C   LIG    1       27.176 -19.649   5.207  0.00  0.00    +0.005 A 
ATOM      4  C   LIG    1       27.933 -20.387   6.123  0.00  0.00    +0.000 A 
ATOM      5  C   LIG    1       27.306 -21.218   7.045  0.00  0.00    +0.000 A 
ATOM      6  C   LIG    1       25.921 -21.303   7.061  0.00  0.00    +0.000 A 
ATOM      7  C   LIG    1       25.167 -20.553   6.159  0.00  0.00    +0.005 A 
ENDBRANCH   1   2
BRANCH   1   8
ATOM      8  C   LIG    1       23.366 -19.242   4.270  0.00  0.00    -0.030 A 
ATOM      9  C   LIG    1       22.384 -18.366   3.766  0.00  0.00    +0.005 A 
ATOM     10  C   LIG    1       21.017 -18.690   3.832  0.00  0.00    +0.000 A 
ATOM     11  C   LIG    1       20.596 -19.887   4.405  0.00  0.00    +0.000 A 
ATOM     12  C   LIG    1       21.542 -20.779   4.885  0.00  0.00    +0.000 A 
ATOM     13  C   LIG    1       22.900 -20.468   4.794  0.00  0.00    +0.005 A 
ENDBRANCH   1   8
BRANCH   1  14
ATOM     14  C   LIG    1       25.397 -19.272   2.688  0.00  0.00    +0.148 C 
ATOM     15  O   LIG    1       26.231 -18.545   2.097  0.00  0.00    -0.296 OA
BRANCH  14  17
ATOM     16  C   LIG    1       24.274 -21.572   2.909  0.00  0.00    +0.012 C 
ATOM     17  C   LIG    1       24.889 -20.527   1.983  0.00  0.00    +0.072 C 
ENDBRANCH  14  17
ENDBRANCH   1  14
BRANCH   1  18
ATOM     18  C   LIG    1       25.240 -17.384   4.332  0.00  0.00    +0.042 C 
BRANCH  18  19
ATOM     19  C   LIG    1       26.247 -16.569   3.455  0.00  0.00    +0.054 C 
ATOM     20  C   LIG    1       27.628 -16.315   4.081  0.00  0.00    +0.024 C 
BRANCH  19  21
ATOM     21  N   LIG    1       25.687 -15.256   2.987  0.00  0.00    -0.306 NA
ATOM     22  C   LIG    1       26.698 -14.242   2.679  0.00  0.00    +0.105 C 
ATOM     23  C   LIG    1       24.679 -14.692   3.890  0.00  0.00    +0.105 C 
ENDBRANCH  19  21
ENDBRANCH  18  19
ENDBRANCH   1  18
TORSDOF 7
ENDMDL
