MODEL 1
REMARK VINA RESULT:      -4.1      0.000      0.000
REMARK  Name = *****
REMARK                            x       y       z     vdW  Elec       q    Type
REMARK                         _______ _______ _______ _____ _____    ______ ____
ROOT
ATOM      1  C   LIG    1       25.475 -18.512   3.336  0.00  0.00    +0.080 C 
ENDROOT
BRANCH   1   3
ATOM      2  C   LIG    1       26.742 -16.328   3.552  0.00  0.00    +0.140 A 
ATOM      3  C   LIG    1       25.511 -17.012   3.595  0.00  0.00    +0.020 A 
ATOM      4  C   LIG    1       24.353 -16.264   3.909  0.00  0.00    +0.066 A 
ATOM      5 CL   LIG    1       22.807 -17.046   4.060  0.00  0.00    -0.082 Cl
ATOM      6  C   LIG    1       24.443 -14.874   4.123  0.00  0.00    +0.061 A 
ATOM      7 CL   LIG    1       23.062 -13.894   4.491  0.00  0.00    -0.082 Cl
ATOM      8  C   LIG    1       25.673 -14.218   4.049  0.00  0.00    +0.045 A 
ATOM      9  C   LIG    1       26.820 -14.948   3.770  0.00  0.00    +0.084 A 
ATOM     10 CL   LIG    1       28.340 -14.138   3.701  0.00  0.00    -0.080 Cl
BRANCH   2  11
ATOM     11  O   LIG    1       27.883 -17.044   3.297  0.00  0.00    -0.505 OA
ATOM     12  H   LIG    1       27.623 -17.959   3.074  0.00  0.00    +0.292 HD
ENDBRANCH   2  11
ENDBRANCH   1   3
BRANCH   1  13
ATOM     13  C   LIG    1       25.524 -19.394   4.575  0.00  0.00    +0.020 A 
ATOM     14  C   LIG    1       24.369 -19.990   5.133  0.00  0.00    +0.066 A 
ATOM     15 CL   LIG    1       22.804 -19.732   4.417  0.00  0.00    -0.082 Cl
ATOM     16  C   LIG    1       24.473 -20.812   6.274  0.00  0.00    +0.061 A 
ATOM     17 CL   LIG    1       23.099 -21.572   7.006  0.00  0.00    -0.082 Cl
ATOM     18  C   LIG    1       25.712 -21.056   6.869  0.00  0.00    +0.045 A 
ATOM     19  C   LIG    1       26.853 -20.480   6.325  0.00  0.00    +0.084 A 
ATOM     20 CL   LIG    1       28.382 -20.787   7.062  0.00  0.00    -0.080 Cl
ATOM     21  C   LIG    1       26.762 -19.666   5.191  0.00  0.00    +0.140 A 
BRANCH  21  22
ATOM     22  O   LIG    1       27.898 -19.117   4.652  0.00  0.00    -0.505 OA
ATOM     23  H   LIG    1       27.654 -18.272   4.229  0.00  0.00    +0.292 HD
ENDBRANCH  21  22
ENDBRANCH   1  13
TORSDOF 4
ENDMDL
MODEL 2
REMARK VINA RESULT:      -4.1      0.067      5.349
REMARK  Name = *****
REMARK                            x       y       z     vdW  Elec       q    Type
REMARK                         _______ _______ _______ _____ _____    ______ ____
ROOT
ATOM      1  C   LIG    1       25.452 -18.531   3.363  0.00  0.00    +0.080 C 
ENDROOT
BRANCH   1   3
ATOM      2  C   LIG    1       26.751 -19.698   5.199  0.00  0.00    +0.140 A 
ATOM      3  C   LIG    1       25.509 -19.423   4.595  0.00  0.00    +0.020 A 
ATOM      4  C   LIG    1       24.357 -20.022   5.157  0.00  0.00    +0.066 A 
ATOM      5 CL   LIG    1       22.796 -19.797   4.425  0.00  0.00    -0.082 Cl
ATOM      6  C   LIG    1       24.466 -20.826   6.309  0.00  0.00    +0.061 A 
ATOM      7 CL   LIG    1       23.095 -21.572   7.061  0.00  0.00    -0.082 Cl
ATOM      8  C   LIG    1       25.709 -21.060   6.902  0.00  0.00    +0.045 A 
ATOM      9  C   LIG    1       26.848 -20.501   6.340  0.00  0.00    +0.084 A 
ATOM     10 CL   LIG    1       28.384 -20.811   7.062  0.00  0.00    -0.080 Cl
BRANCH   2  11
ATOM     11  O   LIG    1       27.885 -19.166   4.640  0.00  0.00    -0.505 OA
ATOM     12  H   LIG    1       27.787 -19.194   3.669  0.00  0.00    +0.292 HD
ENDBRANCH   2  11
ENDBRANCH   1   3
BRANCH   1  13
ATOM     13  C   LIG    1       25.487 -17.033   3.635  0.00  0.00    +0.020 A 
ATOM     14  C   LIG    1       24.328 -16.290   3.960  0.00  0.00    +0.066 A 
ATOM     15 CL   LIG    1       22.775 -17.069   4.059  0.00  0.00    -0.082 Cl
ATOM     16  C   LIG    1       24.419 -14.908   4.218  0.00  0.00    +0.061 A 
ATOM     17 CL   LIG    1       23.039 -13.940   4.621  0.00  0.00    -0.082 Cl
ATOM     18  C   LIG    1       25.648 -14.249   4.164  0.00  0.00    +0.045 A 
ATOM     19  C   LIG    1       26.794 -14.971   3.852  0.00  0.00    +0.084 A 
ATOM     20 CL   LIG    1       28.311 -14.153   3.789  0.00  0.00    -0.080 Cl
ATOM     21  C   LIG    1       26.716 -16.344   3.597  0.00  0.00    +0.140 A 
BRANCH  21  22
ATOM     22  O   LIG    1       27.856 -17.050   3.308  0.00  0.00    -0.505 OA
ATOM     23  H   LIG    1       28.582 -16.685   3.848  0.00  0.00    +0.292 HD
ENDBRANCH  21  22
ENDBRANCH   1  13
TORSDOF 4
ENDMDL
MODEL 3
REMARK VINA RESULT:      -2.5      1.333      5.893
REMARK  Name = *****
REMARK                            x       y       z     vdW  Elec       q    Type
REMARK                         _______ _______ _______ _____ _____    ______ ____
ROOT
ATOM      1  C   LIG    1       25.436 -18.273   3.154  0.00  0.00    +0.080 C 
ENDROOT
BRANCH   1   3
ATOM      2  C   LIG    1       24.175 -19.868   4.667  0.00  0.00    +0.140 A 
ATOM      3  C   LIG    1       25.397 -19.267   4.306  0.00  0.00    +0.020 A 
ATOM      4  C   LIG    1       26.544 -19.603   5.062  0.00  0.00    +0.066 A 
ATOM      5 CL   LIG    1       28.076 -18.848   4.732  0.00  0.00    -0.082 Cl
ATOM      6  C   LIG    1       26.454 -20.545   6.108  0.00  0.00    +0.061 A 
ATOM      7 CL   LIG    1       27.823 -21.018   7.059  0.00  0.00    -0.082 Cl
ATOM      8  C   LIG    1       25.234 -21.143   6.426  0.00  0.00    +0.045 A 
ATOM      9  C   LIG    1       24.097 -20.797   5.710  0.00  0.00    +0.084 A 
ATOM     10 CL   LIG    1       22.587 -21.522   6.121  0.00  0.00    -0.080 Cl
BRANCH   2  11
ATOM     11  O   LIG    1       23.042 -19.518   3.978  0.00  0.00    -0.505 OA
ATOM     12  H   LIG    1       22.524 -20.329   3.815  0.00  0.00    +0.292 HD
ENDBRANCH   2  11
ENDBRANCH   1   3
BRANCH   1  13
ATOM     13  C   LIG    1       25.457 -16.804   3.556  0.00  0.00    +0.020 A 
ATOM     14  C   LIG    1       24.299 -16.115   3.987  0.00  0.00    +0.066 A 
ATOM     15 CL   LIG    1       22.764 -16.928   4.073  0.00  0.00    -0.082 Cl
ATOM     16  C   LIG    1       24.378 -14.759   4.363  0.00  0.00    +0.061 A 
ATOM     17 CL   LIG    1       23.000 -13.856   4.899  0.00  0.00    -0.082 Cl
ATOM     18  C   LIG    1       25.594 -14.075   4.322  0.00  0.00    +0.045 A 
ATOM     19  C   LIG    1       26.738 -14.744   3.907  0.00  0.00    +0.084 A 
ATOM     20 CL   LIG    1       28.239 -13.896   3.861  0.00  0.00    -0.080 Cl
ATOM     21  C   LIG    1       26.672 -16.091   3.534  0.00  0.00    +0.140 A 
BRANCH  21  22
ATOM     22  O   LIG    1       27.812 -16.747   3.143  0.00  0.00    -0.505 OA
ATOM     23  H   LIG    1       28.091 -16.380   2.282  0.00  0.00    +0.292 HD
ENDBRANCH  21  22
ENDBRANCH   1  13
TORSDOF 4
ENDMDL
