MODEL 1
REMARK VINA RESULT:      -9.7      0.000      0.000
REMARK  Name = *****
REMARK                            x       y       z     vdW  Elec       q    Type
REMARK                         _______ _______ _______ _____ _____    ______ ____
ROOT
ATOM      1  C   LIG    1       27.541 -20.004   6.225  0.00  0.00    +0.158 C 
ENDROOT
BRANCH   1   2
ATOM      2  C   LIG    1       28.801 -19.804   7.056  0.00  0.00    -0.017 A 
ATOM      3  C   LIG    1       29.430 -20.889   7.686  0.00  0.00    +0.023 A 
ATOM      4  C   LIG    1       30.594 -20.719   8.469  0.00  0.00    +0.078 A 
ATOM      5  C   LIG    1       31.156 -19.436   8.578  0.00  0.00    +0.129 A 
ATOM      6  C   LIG    1       30.533 -18.345   7.972  0.00  0.00    +0.046 A 
ATOM      7  C   LIG    1       29.358 -18.527   7.238  0.00  0.00    +0.010 A 
BRANCH   4   8
ATOM      8  C   LIG    1       31.134 -21.917   9.177  0.00  0.00    +0.245 C 
ATOM      9  O   LIG    1       30.799 -22.185  10.335  0.00  0.00    -0.270 OA
ATOM     10  N   LIG    1       32.035 -22.706   8.522  0.00  0.00    -0.325 N 
ATOM     11  H   LIG    1       32.447 -23.491   8.994  0.00  0.00    +0.145 HD
ATOM     12  H   LIG    1       32.319 -22.469   7.574  0.00  0.00    +0.145 HD
ENDBRANCH   4   8
BRANCH   5  13
ATOM     13  O   LIG    1       32.310 -19.217   9.287  0.00  0.00    -0.506 OA
ATOM     14  H   LIG    1       33.022 -19.757   8.902  0.00  0.00    +0.292 HD
ENDBRANCH   5  13
ENDBRANCH   1   2
BRANCH   1  15
ATOM     15  O   LIG    1       27.901 -20.066   4.841  0.00  0.00    -0.386 OA
ATOM     16  H   LIG    1       27.401 -19.347   4.412  0.00  0.00    +0.210 HD
ENDBRANCH   1  15
BRANCH   1  17
ATOM     17  C   LIG    1       26.733 -21.282   6.617  0.00  0.00    +0.117 C 
BRANCH  17  18
ATOM     18  N   LIG    1       25.775 -21.033   7.724  0.00  0.00    -0.311 NA
ATOM     19  H   LIG    1       26.276 -20.833   8.589  0.00  0.00    +0.122 HD
BRANCH  18  21
ATOM     20  C   LIG    1       25.333 -23.384   7.182  0.00  0.00    +0.024 C 
ATOM     21  C   LIG    1       24.826 -22.148   7.944  0.00  0.00    +0.051 C 
BRANCH  21  22
ATOM     22  C   LIG    1       23.347 -21.862   7.573  0.00  0.00    +0.023 C 
BRANCH  22  23
ATOM     23  C   LIG    1       22.985 -22.165   6.115  0.00  0.00    +0.036 C 
BRANCH  23  24
ATOM     24  C   LIG    1       23.232 -20.992   5.197  0.00  0.00    -0.047 A 
ATOM     25  C   LIG    1       22.467 -19.824   5.317  0.00  0.00    +0.003 A 
ATOM     26  C   LIG    1       22.716 -18.729   4.490  0.00  0.00    +0.000 A 
ATOM     27  C   LIG    1       23.726 -18.792   3.531  0.00  0.00    +0.000 A 
ATOM     28  C   LIG    1       24.485 -19.953   3.397  0.00  0.00    +0.000 A 
ATOM     29  C   LIG    1       24.238 -21.050   4.224  0.00  0.00    +0.003 A 
ENDBRANCH  23  24
ENDBRANCH  22  23
ENDBRANCH  21  22
ENDBRANCH  18  21
ENDBRANCH  17  18
ENDBRANCH   1  17
TORSDOF 10
ENDMDL
MODEL 2
REMARK VINA RESULT:      -9.7      1.775      2.523
REMARK  Name = *****
REMARK                            x       y       z     vdW  Elec       q    Type
REMARK                         _______ _______ _______ _____ _____    ______ ____
ROOT
ATOM      1  C   LIG    1       27.071 -22.020   8.127  0.00  0.00    +0.158 C 
ENDROOT
BRANCH   1   2
ATOM      2  C   LIG    1       27.896 -20.957   7.416  0.00  0.00    -0.017 A 
ATOM      3  C   LIG    1       29.141 -20.553   7.922  0.00  0.00    +0.023 A 
ATOM      4  C   LIG    1       29.916 -19.560   7.280  0.00  0.00    +0.078 A 
ATOM      5  C   LIG    1       29.443 -19.001   6.081  0.00  0.00    +0.129 A 
ATOM      6  C   LIG    1       28.200 -19.380   5.575  0.00  0.00    +0.046 A 
ATOM      7  C   LIG    1       27.429 -20.332   6.249  0.00  0.00    +0.010 A 
BRANCH   4   8
ATOM      8  C   LIG    1       31.180 -19.129   7.946  0.00  0.00    +0.245 C 
ATOM      9  O   LIG    1       31.703 -18.040   7.690  0.00  0.00    -0.270 OA
ATOM     10  N   LIG    1       31.769 -19.982   8.835  0.00  0.00    -0.325 N 
ATOM     11  H   LIG    1       32.644 -19.732   9.261  0.00  0.00    +0.145 HD
ATOM     12  H   LIG    1       31.342 -20.884   9.028  0.00  0.00    +0.145 HD
ENDBRANCH   4   8
BRANCH   5  13
ATOM     13  O   LIG    1       30.171 -18.067   5.390  0.00  0.00    -0.506 OA
ATOM     14  H   LIG    1       30.794 -18.527   4.801  0.00  0.00    +0.292 HD
ENDBRANCH   5  13
ENDBRANCH   1   2
BRANCH   1  15
ATOM     15  O   LIG    1       26.124 -21.377   8.987  0.00  0.00    -0.386 OA
ATOM     16  H   LIG    1       26.642 -20.734   9.506  0.00  0.00    +0.210 HD
ENDBRANCH   1  15
BRANCH   1  17
ATOM     17  C   LIG    1       26.326 -22.985   7.152  0.00  0.00    +0.117 C 
BRANCH  17  18
ATOM     18  N   LIG    1       25.076 -23.533   7.736  0.00  0.00    -0.311 NA
ATOM     19  H   LIG    1       25.289 -24.289   8.387  0.00  0.00    +0.122 HD
BRANCH  18  21
ATOM     20  C   LIG    1       24.875 -24.352   5.433  0.00  0.00    +0.024 C 
ATOM     21  C   LIG    1       24.108 -24.007   6.721  0.00  0.00    +0.051 C 
BRANCH  21  22
ATOM     22  C   LIG    1       22.934 -23.046   6.402  0.00  0.00    +0.023 C 
BRANCH  22  23
ATOM     23  C   LIG    1       23.163 -21.593   6.838  0.00  0.00    +0.036 C 
BRANCH  23  24
ATOM     24  C   LIG    1       23.356 -20.658   5.669  0.00  0.00    -0.047 A 
ATOM     25  C   LIG    1       22.461 -19.602   5.450  0.00  0.00    +0.003 A 
ATOM     26  C   LIG    1       22.656 -18.720   4.387  0.00  0.00    +0.000 A 
ATOM     27  C   LIG    1       23.744 -18.887   3.530  0.00  0.00    +0.000 A 
ATOM     28  C   LIG    1       24.633 -19.940   3.734  0.00  0.00    +0.000 A 
ATOM     29  C   LIG    1       24.439 -20.825   4.797  0.00  0.00    +0.003 A 
ENDBRANCH  23  24
ENDBRANCH  22  23
ENDBRANCH  21  22
ENDBRANCH  18  21
ENDBRANCH  17  18
ENDBRANCH   1  17
TORSDOF 10
ENDMDL
MODEL 3
REMARK VINA RESULT:      -9.5      2.042      3.817
REMARK  Name = *****
REMARK                            x       y       z     vdW  Elec       q    Type
REMARK                         _______ _______ _______ _____ _____    ______ ____
ROOT
ATOM      1  C   LIG    1       26.716 -21.186   6.890  0.00  0.00    +0.158 C 
ENDROOT
BRANCH   1   2
ATOM      2  C   LIG    1       28.120 -20.600   6.936  0.00  0.00    -0.017 A 
ATOM      3  C   LIG    1       29.064 -21.064   7.865  0.00  0.00    +0.023 A 
ATOM      4  C   LIG    1       30.369 -20.525   7.929  0.00  0.00    +0.078 A 
ATOM      5  C   LIG    1       30.738 -19.532   7.006  0.00  0.00    +0.129 A 
ATOM      6  C   LIG    1       29.806 -19.049   6.089  0.00  0.00    +0.046 A 
ATOM      7  C   LIG    1       28.507 -19.565   6.071  0.00  0.00    +0.010 A 
BRANCH   4   8
ATOM      8  C   LIG    1       31.270 -21.016   9.013  0.00  0.00    +0.245 C 
ATOM      9  O   LIG    1       32.278 -20.385   9.346  0.00  0.00    -0.270 OA
ATOM     10  N   LIG    1       30.969 -22.202   9.620  0.00  0.00    -0.325 N 
ATOM     11  H   LIG    1       31.586 -22.575  10.320  0.00  0.00    +0.145 HD
ATOM     12  H   LIG    1       30.147 -22.724   9.328  0.00  0.00    +0.145 HD
ENDBRANCH   4   8
BRANCH   5  13
ATOM     13  O   LIG    1       32.004 -19.003   6.990  0.00  0.00    -0.506 OA
ATOM     14  H   LIG    1       32.320 -18.974   6.070  0.00  0.00    +0.292 HD
ENDBRANCH   5  13
ENDBRANCH   1   2
BRANCH   1  15
ATOM     15  O   LIG    1       26.099 -21.018   8.171  0.00  0.00    -0.386 OA
ATOM     16  H   LIG    1       26.827 -21.065   8.816  0.00  0.00    +0.210 HD
ENDBRANCH   1  15
BRANCH   1  17
ATOM     17  C   LIG    1       25.814 -20.553   5.783  0.00  0.00    +0.117 C 
BRANCH  17  18
ATOM     18  N   LIG    1       24.982 -21.562   5.080  0.00  0.00    -0.311 NA
ATOM     19  H   LIG    1       24.967 -21.374   4.078  0.00  0.00    +0.122 HD
BRANCH  18  21
ATOM     20  C   LIG    1       23.060 -20.216   5.794  0.00  0.00    +0.024 C 
ATOM     21  C   LIG    1       23.595 -21.644   5.593  0.00  0.00    +0.051 C 
BRANCH  21  22
ATOM     22  C   LIG    1       23.399 -22.475   6.887  0.00  0.00    +0.023 C 
BRANCH  22  23
ATOM     23  C   LIG    1       22.941 -23.920   6.655  0.00  0.00    +0.036 C 
BRANCH  23  24
ATOM     24  C   LIG    1       24.091 -24.855   6.365  0.00  0.00    -0.047 A 
ATOM     25  C   LIG    1       25.374 -24.573   6.851  0.00  0.00    +0.003 A 
ATOM     26  C   LIG    1       26.430 -25.453   6.609  0.00  0.00    +0.000 A 
ATOM     27  C   LIG    1       26.215 -26.618   5.873  0.00  0.00    +0.000 A 
ATOM     28  C   LIG    1       24.944 -26.901   5.376  0.00  0.00    +0.000 A 
ATOM     29  C   LIG    1       23.887 -26.023   5.617  0.00  0.00    +0.003 A 
ENDBRANCH  23  24
ENDBRANCH  22  23
ENDBRANCH  21  22
ENDBRANCH  18  21
ENDBRANCH  17  18
ENDBRANCH   1  17
TORSDOF 10
ENDMDL
MODEL 4
REMARK VINA RESULT:      -9.4      3.151      8.001
REMARK  Name = *****
REMARK                            x       y       z     vdW  Elec       q    Type
REMARK                         _______ _______ _______ _____ _____    ______ ____
ROOT
ATOM      1  C   LIG    1       26.600 -20.470   7.738  0.00  0.00    +0.158 C 
ENDROOT
BRANCH   1   2
ATOM      2  C   LIG    1       25.457 -21.424   7.416  0.00  0.00    -0.017 A 
ATOM      3  C   LIG    1       25.712 -22.730   6.971  0.00  0.00    +0.023 A 
ATOM      4  C   LIG    1       24.664 -23.625   6.658  0.00  0.00    +0.078 A 
ATOM      5  C   LIG    1       23.337 -23.205   6.843  0.00  0.00    +0.129 A 
ATOM      6  C   LIG    1       23.067 -21.904   7.267  0.00  0.00    +0.046 A 
ATOM      7  C   LIG    1       24.117 -21.020   7.530  0.00  0.00    +0.010 A 
BRANCH   4   8
ATOM      8  C   LIG    1       25.035 -24.959   6.102  0.00  0.00    +0.245 C 
ATOM      9  O   LIG    1       25.622 -25.801   6.789  0.00  0.00    -0.270 OA
ATOM     10  N   LIG    1       24.731 -25.227   4.798  0.00  0.00    -0.325 N 
ATOM     11  H   LIG    1       25.012 -26.101   4.390  0.00  0.00    +0.145 HD
ATOM     12  H   LIG    1       24.263 -24.523   4.234  0.00  0.00    +0.145 HD
ENDBRANCH   4   8
BRANCH   5  13
ATOM     13  O   LIG    1       22.279 -24.043   6.599  0.00  0.00    -0.506 OA
ATOM     14  H   LIG    1       21.451 -23.563   6.775  0.00  0.00    +0.292 HD
ENDBRANCH   5  13
ENDBRANCH   1   2
BRANCH   1  15
ATOM     15  O   LIG    1       26.614 -20.221   9.147  0.00  0.00    -0.386 OA
ATOM     16  H   LIG    1       25.975 -20.851   9.528  0.00  0.00    +0.210 HD
ENDBRANCH   1  15
BRANCH   1  17
ATOM     17  C   LIG    1       27.997 -20.996   7.281  0.00  0.00    +0.117 C 
BRANCH  17  18
ATOM     18  N   LIG    1       28.940 -21.169   8.414  0.00  0.00    -0.311 NA
ATOM     19  H   LIG    1       28.667 -20.574   9.197  0.00  0.00    +0.122 HD
BRANCH  18  21
ATOM     20  C   LIG    1       31.260 -21.581   9.094  0.00  0.00    +0.024 C 
ATOM     21  C   LIG    1       30.351 -20.903   8.054  0.00  0.00    +0.051 C 
BRANCH  21  22
ATOM     22  C   LIG    1       30.741 -19.410   7.897  0.00  0.00    +0.023 C 
BRANCH  22  23
ATOM     23  C   LIG    1       29.985 -18.452   8.824  0.00  0.00    +0.036 C 
BRANCH  23  24
ATOM     24  C   LIG    1       30.909 -17.629   9.689  0.00  0.00    -0.047 A 
ATOM     25  C   LIG    1       32.111 -17.130   9.169  0.00  0.00    +0.003 A 
ATOM     26  C   LIG    1       32.950 -16.345   9.960  0.00  0.00    +0.000 A 
ATOM     27  C   LIG    1       32.601 -16.055  11.278  0.00  0.00    +0.000 A 
ATOM     28  C   LIG    1       31.413 -16.556  11.808  0.00  0.00    +0.000 A 
ATOM     29  C   LIG    1       30.571 -17.342  11.019  0.00  0.00    +0.003 A 
ENDBRANCH  23  24
ENDBRANCH  22  23
ENDBRANCH  21  22
ENDBRANCH  18  21
ENDBRANCH  17  18
ENDBRANCH   1  17
TORSDOF 10
ENDMDL
MODEL 5
REMARK VINA RESULT:      -9.3      1.351      2.095
REMARK  Name = *****
REMARK                            x       y       z     vdW  Elec       q    Type
REMARK                         _______ _______ _______ _____ _____    ______ ____
ROOT
ATOM      1  C   LIG    1       27.527 -19.862   6.532  0.00  0.00    +0.158 C 
ENDROOT
BRANCH   1   2
ATOM      2  C   LIG    1       28.800 -20.147   7.316  0.00  0.00    -0.017 A 
ATOM      3  C   LIG    1       29.577 -19.101   7.836  0.00  0.00    +0.023 A 
ATOM      4  C   LIG    1       30.767 -19.348   8.557  0.00  0.00    +0.078 A 
ATOM      5  C   LIG    1       31.150 -20.678   8.797  0.00  0.00    +0.129 A 
ATOM      6  C   LIG    1       30.398 -21.728   8.272  0.00  0.00    +0.046 A 
ATOM      7  C   LIG    1       29.248 -21.462   7.523  0.00  0.00    +0.010 A 
BRANCH   4   8
ATOM      8  C   LIG    1       31.574 -18.169   8.987  0.00  0.00    +0.245 C 
ATOM      9  O   LIG    1       32.106 -17.419   8.162  0.00  0.00    -0.270 OA
ATOM     10  N   LIG    1       31.737 -17.946  10.324  0.00  0.00    -0.325 N 
ATOM     11  H   LIG    1       32.315 -17.185  10.636  0.00  0.00    +0.145 HD
ATOM     12  H   LIG    1       31.311 -18.577  10.997  0.00  0.00    +0.145 HD
ENDBRANCH   4   8
BRANCH   5  13
ATOM     13  O   LIG    1       32.270 -20.980   9.529  0.00  0.00    -0.506 OA
ATOM     14  H   LIG    1       32.100 -21.788  10.044  0.00  0.00    +0.292 HD
ENDBRANCH   5  13
ENDBRANCH   1   2
BRANCH   1  15
ATOM     15  O   LIG    1       27.731 -20.227   5.163  0.00  0.00    -0.386 OA
ATOM     16  H   LIG    1       28.253 -21.050   5.190  0.00  0.00    +0.210 HD
ENDBRANCH   1  15
BRANCH   1  17
ATOM     17  C   LIG    1       26.270 -20.600   7.093  0.00  0.00    +0.117 C 
BRANCH  17  18
ATOM     18  N   LIG    1       26.235 -22.035   6.711  0.00  0.00    -0.311 NA
ATOM     19  H   LIG    1       26.175 -22.132   5.698  0.00  0.00    +0.122 HD
BRANCH  18  21
ATOM     20  C   LIG    1       24.961 -24.128   6.615  0.00  0.00    +0.024 C 
ATOM     21  C   LIG    1       25.134 -22.789   7.352  0.00  0.00    +0.051 C 
BRANCH  21  22
ATOM     22  C   LIG    1       23.773 -22.052   7.446  0.00  0.00    +0.023 C 
BRANCH  22  23
ATOM     23  C   LIG    1       22.915 -22.131   6.178  0.00  0.00    +0.036 C 
BRANCH  23  24
ATOM     24  C   LIG    1       23.165 -20.980   5.233  0.00  0.00    -0.047 A 
ATOM     25  C   LIG    1       22.478 -19.769   5.394  0.00  0.00    +0.003 A 
ATOM     26  C   LIG    1       22.731 -18.695   4.539  0.00  0.00    +0.000 A 
ATOM     27  C   LIG    1       23.667 -18.823   3.514  0.00  0.00    +0.000 A 
ATOM     28  C   LIG    1       24.347 -20.027   3.339  0.00  0.00    +0.000 A 
ATOM     29  C   LIG    1       24.095 -21.103   4.193  0.00  0.00    +0.003 A 
ENDBRANCH  23  24
ENDBRANCH  22  23
ENDBRANCH  21  22
ENDBRANCH  18  21
ENDBRANCH  17  18
ENDBRANCH   1  17
TORSDOF 10
ENDMDL
MODEL 6
REMARK VINA RESULT:      -9.2      1.761      3.759
REMARK  Name = *****
REMARK                            x       y       z     vdW  Elec       q    Type
REMARK                         _______ _______ _______ _____ _____    ______ ____
ROOT
ATOM      1  C   LIG    1       27.668 -19.556   6.148  0.00  0.00    +0.158 C 
ENDROOT
BRANCH   1   2
ATOM      2  C   LIG    1       28.852 -19.934   7.027  0.00  0.00    -0.017 A 
ATOM      3  C   LIG    1       29.647 -18.947   7.630  0.00  0.00    +0.023 A 
ATOM      4  C   LIG    1       30.756 -19.280   8.440  0.00  0.00    +0.078 A 
ATOM      5  C   LIG    1       31.036 -20.636   8.682  0.00  0.00    +0.129 A 
ATOM      6  C   LIG    1       30.266 -21.628   8.075  0.00  0.00    +0.046 A 
ATOM      7  C   LIG    1       29.200 -21.278   7.242  0.00  0.00    +0.010 A 
BRANCH   4   8
ATOM      8  C   LIG    1       31.597 -18.162   8.959  0.00  0.00    +0.245 C 
ATOM      9  O   LIG    1       32.137 -17.356   8.194  0.00  0.00    -0.270 OA
ATOM     10  N   LIG    1       31.780 -18.058  10.308  0.00  0.00    -0.325 N 
ATOM     11  H   LIG    1       32.378 -17.341  10.677  0.00  0.00    +0.145 HD
ATOM     12  H   LIG    1       31.345 -18.735  10.930  0.00  0.00    +0.145 HD
ENDBRANCH   4   8
BRANCH   5  13
ATOM     13  O   LIG    1       32.072 -21.020   9.495  0.00  0.00    -0.506 OA
ATOM     14  H   LIG    1       32.325 -20.267  10.057  0.00  0.00    +0.292 HD
ENDBRANCH   5  13
ENDBRANCH   1   2
BRANCH   1  15
ATOM     15  O   LIG    1       28.152 -19.151   4.864  0.00  0.00    -0.386 OA
ATOM     16  H   LIG    1       27.686 -18.318   4.663  0.00  0.00    +0.210 HD
ENDBRANCH   1  15
BRANCH   1  17
ATOM     17  C   LIG    1       26.625 -20.706   5.980  0.00  0.00    +0.117 C 
BRANCH  17  18
ATOM     18  N   LIG    1       25.638 -20.427   4.907  0.00  0.00    -0.311 NA
ATOM     19  H   LIG    1       25.716 -19.460   4.595  0.00  0.00    +0.122 HD
BRANCH  18  21
ATOM     20  C   LIG    1       23.320 -19.672   4.644  0.00  0.00    +0.024 C 
ATOM     21  C   LIG    1       24.240 -20.713   5.303  0.00  0.00    +0.051 C 
BRANCH  21  22
ATOM     22  C   LIG    1       23.967 -20.777   6.828  0.00  0.00    +0.023 C 
BRANCH  22  23
ATOM     23  C   LIG    1       23.219 -22.034   7.291  0.00  0.00    +0.036 C 
BRANCH  23  24
ATOM     24  C   LIG    1       23.978 -23.304   6.994  0.00  0.00    -0.047 A 
ATOM     25  C   LIG    1       23.319 -24.413   6.447  0.00  0.00    +0.003 A 
ATOM     26  C   LIG    1       24.027 -25.577   6.145  0.00  0.00    +0.000 A 
ATOM     27  C   LIG    1       25.397 -25.647   6.393  0.00  0.00    +0.000 A 
ATOM     28  C   LIG    1       26.060 -24.553   6.948  0.00  0.00    +0.000 A 
ATOM     29  C   LIG    1       25.354 -23.387   7.250  0.00  0.00    +0.003 A 
ENDBRANCH  23  24
ENDBRANCH  22  23
ENDBRANCH  21  22
ENDBRANCH  18  21
ENDBRANCH  17  18
ENDBRANCH   1  17
TORSDOF 10
ENDMDL
MODEL 7
REMARK VINA RESULT:      -9.0      2.508      4.608
REMARK  Name = *****
REMARK                            x       y       z     vdW  Elec       q    Type
REMARK                         _______ _______ _______ _____ _____    ______ ____
ROOT
ATOM      1  C   LIG    1       27.462 -20.140   6.278  0.00  0.00    +0.158 C 
ENDROOT
BRANCH   1   2
ATOM      2  C   LIG    1       28.736 -19.926   7.083  0.00  0.00    -0.017 A 
ATOM      3  C   LIG    1       29.385 -21.003   7.706  0.00  0.00    +0.023 A 
ATOM      4  C   LIG    1       30.563 -20.821   8.465  0.00  0.00    +0.078 A 
ATOM      5  C   LIG    1       31.118 -19.533   8.556  0.00  0.00    +0.129 A 
ATOM      6  C   LIG    1       30.475 -18.450   7.957  0.00  0.00    +0.046 A 
ATOM      7  C   LIG    1       29.287 -18.645   7.247  0.00  0.00    +0.010 A 
BRANCH   4   8
ATOM      8  C   LIG    1       31.126 -22.011   9.168  0.00  0.00    +0.245 C 
ATOM      9  O   LIG    1       30.781 -22.301  10.318  0.00  0.00    -0.270 OA
ATOM     10  N   LIG    1       32.058 -22.768   8.519  0.00  0.00    -0.325 N 
ATOM     11  H   LIG    1       32.484 -23.546   8.989  0.00  0.00    +0.145 HD
ATOM     12  H   LIG    1       32.350 -22.513   7.578  0.00  0.00    +0.145 HD
ENDBRANCH   4   8
BRANCH   5  13
ATOM     13  O   LIG    1       32.284 -19.302   9.241  0.00  0.00    -0.506 OA
ATOM     14  H   LIG    1       32.883 -20.057   9.106  0.00  0.00    +0.292 HD
ENDBRANCH   5  13
ENDBRANCH   1   2
BRANCH   1  15
ATOM     15  O   LIG    1       27.772 -20.054   4.883  0.00  0.00    -0.386 OA
ATOM     16  H   LIG    1       28.741 -19.953   4.840  0.00  0.00    +0.210 HD
ENDBRANCH   1  15
BRANCH   1  17
ATOM     17  C   LIG    1       26.757 -21.501   6.578  0.00  0.00    +0.117 C 
BRANCH  17  18
ATOM     18  N   LIG    1       25.632 -21.777   5.649  0.00  0.00    -0.311 NA
ATOM     19  H   LIG    1       25.106 -20.923   5.464  0.00  0.00    +0.122 HD
BRANCH  18  21
ATOM     20  C   LIG    1       23.827 -22.245   7.242  0.00  0.00    +0.024 C 
ATOM     21  C   LIG    1       24.714 -22.834   6.132  0.00  0.00    +0.051 C 
BRANCH  21  22
ATOM     22  C   LIG    1       25.385 -24.143   6.623  0.00  0.00    +0.023 C 
BRANCH  22  23
ATOM     23  C   LIG    1       25.430 -25.266   5.580  0.00  0.00    +0.036 C 
BRANCH  23  24
ATOM     24  C   LIG    1       25.250 -26.635   6.191  0.00  0.00    -0.047 A 
ATOM     25  C   LIG    1       24.365 -27.557   5.617  0.00  0.00    +0.003 A 
ATOM     26  C   LIG    1       24.221 -28.833   6.164  0.00  0.00    +0.000 A 
ATOM     27  C   LIG    1       24.955 -29.197   7.292  0.00  0.00    +0.000 A 
ATOM     28  C   LIG    1       25.831 -28.283   7.876  0.00  0.00    +0.000 A 
ATOM     29  C   LIG    1       25.976 -27.006   7.330  0.00  0.00    +0.003 A 
ENDBRANCH  23  24
ENDBRANCH  22  23
ENDBRANCH  21  22
ENDBRANCH  18  21
ENDBRANCH  17  18
ENDBRANCH   1  17
TORSDOF 10
ENDMDL
MODEL 8
REMARK VINA RESULT:      -9.0      2.368      4.577
REMARK  Name = *****
REMARK                            x       y       z     vdW  Elec       q    Type
REMARK                         _______ _______ _______ _____ _____    ______ ____
ROOT
ATOM      1  C   LIG    1       25.549 -20.340   4.940  0.00  0.00    +0.158 C 
ENDROOT
BRANCH   1   2
ATOM      2  C   LIG    1       26.697 -20.582   5.909  0.00  0.00    -0.017 A 
ATOM      3  C   LIG    1       27.873 -19.820   5.838  0.00  0.00    +0.023 A 
ATOM      4  C   LIG    1       28.954 -20.037   6.723  0.00  0.00    +0.078 A 
ATOM      5  C   LIG    1       28.821 -21.011   7.727  0.00  0.00    +0.129 A 
ATOM      6  C   LIG    1       27.665 -21.789   7.800  0.00  0.00    +0.046 A 
ATOM      7  C   LIG    1       26.626 -21.587   6.887  0.00  0.00    +0.010 A 
BRANCH   4   8
ATOM      8  C   LIG    1       30.198 -19.243   6.507  0.00  0.00    +0.245 C 
ATOM      9  O   LIG    1       30.203 -18.241   5.784  0.00  0.00    -0.270 OA
ATOM     10  N   LIG    1       31.349 -19.661   7.110  0.00  0.00    -0.325 N 
ATOM     11  H   LIG    1       32.208 -19.168   6.942  0.00  0.00    +0.145 HD
ATOM     12  H   LIG    1       31.340 -20.496   7.690  0.00  0.00    +0.145 HD
ENDBRANCH   4   8
BRANCH   5  13
ATOM     13  O   LIG    1       29.817 -21.237   8.643  0.00  0.00    -0.506 OA
ATOM     14  H   LIG    1       30.323 -22.022   8.369  0.00  0.00    +0.292 HD
ENDBRANCH   5  13
ENDBRANCH   1   2
BRANCH   1  15
ATOM     15  O   LIG    1       26.080 -19.871   3.696  0.00  0.00    -0.386 OA
ATOM     16  H   LIG    1       25.533 -20.291   3.007  0.00  0.00    +0.210 HD
ENDBRANCH   1  15
BRANCH   1  17
ATOM     17  C   LIG    1       24.666 -21.604   4.693  0.00  0.00    +0.117 C 
BRANCH  17  18
ATOM     18  N   LIG    1       23.247 -21.393   5.076  0.00  0.00    -0.311 NA
ATOM     19  H   LIG    1       22.984 -20.417   4.940  0.00  0.00    +0.122 HD
BRANCH  18  21
ATOM     20  C   LIG    1       23.129 -20.584   7.389  0.00  0.00    +0.024 C 
ATOM     21  C   LIG    1       22.945 -21.801   6.467  0.00  0.00    +0.051 C 
BRANCH  21  22
ATOM     22  C   LIG    1       23.752 -23.009   7.010  0.00  0.00    +0.023 C 
BRANCH  22  23
ATOM     23  C   LIG    1       23.204 -24.380   6.597  0.00  0.00    +0.036 C 
BRANCH  23  24
ATOM     24  C   LIG    1       24.295 -25.357   6.229  0.00  0.00    -0.047 A 
ATOM     25  C   LIG    1       25.629 -25.088   6.564  0.00  0.00    +0.003 A 
ATOM     26  C   LIG    1       26.634 -26.005   6.251  0.00  0.00    +0.000 A 
ATOM     27  C   LIG    1       26.316 -27.194   5.596  0.00  0.00    +0.000 A 
ATOM     28  C   LIG    1       24.994 -27.465   5.250  0.00  0.00    +0.000 A 
ATOM     29  C   LIG    1       23.987 -26.549   5.562  0.00  0.00    +0.003 A 
ENDBRANCH  23  24
ENDBRANCH  22  23
ENDBRANCH  21  22
ENDBRANCH  18  21
ENDBRANCH  17  18
ENDBRANCH   1  17
TORSDOF 10
ENDMDL
MODEL 9
REMARK VINA RESULT:      -9.0      3.251      7.869
REMARK  Name = *****
REMARK                            x       y       z     vdW  Elec       q    Type
REMARK                         _______ _______ _______ _____ _____    ______ ____
ROOT
ATOM      1  C   LIG    1       26.170 -21.456   8.005  0.00  0.00    +0.158 C 
ENDROOT
BRANCH   1   2
ATOM      2  C   LIG    1       25.427 -22.651   7.423  0.00  0.00    -0.017 A 
ATOM      3  C   LIG    1       26.085 -23.870   7.199  0.00  0.00    +0.023 A 
ATOM      4  C   LIG    1       25.414 -24.985   6.649  0.00  0.00    +0.078 A 
ATOM      5  C   LIG    1       24.042 -24.878   6.366  0.00  0.00    +0.129 A 
ATOM      6  C   LIG    1       23.378 -23.668   6.567  0.00  0.00    +0.046 A 
ATOM      7  C   LIG    1       24.071 -22.563   7.070  0.00  0.00    +0.010 A 
BRANCH   4   8
ATOM      8  C   LIG    1       26.221 -26.206   6.360  0.00  0.00    +0.245 C 
ATOM      9  O   LIG    1       26.964 -26.267   5.375  0.00  0.00    -0.270 OA
ATOM     10  N   LIG    1       26.103 -27.277   7.199  0.00  0.00    -0.325 N 
ATOM     11  H   LIG    1       26.602 -28.126   6.997  0.00  0.00    +0.145 HD
ATOM     12  H   LIG    1       25.476 -27.226   7.998  0.00  0.00    +0.145 HD
ENDBRANCH   4   8
BRANCH   5  13
ATOM     13  O   LIG    1       23.327 -25.941   5.874  0.00  0.00    -0.506 OA
ATOM     14  H   LIG    1       23.008 -25.718   4.982  0.00  0.00    +0.292 HD
ENDBRANCH   5  13
ENDBRANCH   1   2
BRANCH   1  15
ATOM     15  O   LIG    1       25.800 -21.304   9.380  0.00  0.00    -0.386 OA
ATOM     16  H   LIG    1       25.056 -20.674   9.379  0.00  0.00    +0.210 HD
ENDBRANCH   1  15
BRANCH   1  17
ATOM     17  C   LIG    1       27.723 -21.570   7.886  0.00  0.00    +0.117 C 
BRANCH  17  18
ATOM     18  N   LIG    1       28.258 -20.843   6.708  0.00  0.00    -0.311 NA
ATOM     19  H   LIG    1       28.815 -21.469   6.126  0.00  0.00    +0.122 HD
BRANCH  18  21
ATOM     20  C   LIG    1       29.301 -18.822   5.791  0.00  0.00    +0.024 C 
ATOM     21  C   LIG    1       29.059 -19.650   7.064  0.00  0.00    +0.051 C 
BRANCH  21  22
ATOM     22  C   LIG    1       30.404 -19.927   7.785  0.00  0.00    +0.023 C 
BRANCH  22  23
ATOM     23  C   LIG    1       31.414 -18.774   7.718  0.00  0.00    +0.036 C 
BRANCH  23  24
ATOM     24  C   LIG    1       31.397 -17.913   8.958  0.00  0.00    -0.047 A 
ATOM     25  C   LIG    1       30.392 -18.075   9.920  0.00  0.00    +0.003 A 
ATOM     26  C   LIG    1       30.393 -17.300  11.080  0.00  0.00    +0.000 A 
ATOM     27  C   LIG    1       31.395 -16.352  11.287  0.00  0.00    +0.000 A 
ATOM     28  C   LIG    1       32.393 -16.176  10.330  0.00  0.00    +0.000 A 
ATOM     29  C   LIG    1       32.393 -16.951   9.168  0.00  0.00    +0.003 A 
ENDBRANCH  23  24
ENDBRANCH  22  23
ENDBRANCH  21  22
ENDBRANCH  18  21
ENDBRANCH  17  18
ENDBRANCH   1  17
TORSDOF 10
ENDMDL
