MODEL 1
REMARK VINA RESULT:      -4.7      0.000      0.000
REMARK  Name = *****
REMARK                            x       y       z     vdW  Elec       q    Type
REMARK                         _______ _______ _______ _____ _____    ______ ____
ROOT
ATOM      1  C   LIG    1       26.575 -17.253   3.398  0.00  0.00    +0.097 C 
ENDROOT
BRANCH   1   2
ATOM      2  N   LIG    1       25.612 -16.189   3.051  0.00  0.00    -0.302 NA
ATOM      3  H   LIG    1       25.658 -16.036   2.046  0.00  0.00    +0.123 HD
BRANCH   2   4
ATOM      4  C   LIG    1       25.919 -14.909   3.749  0.00  0.00    +0.173 C 
BRANCH   4   5
ATOM      5  C   LIG    1       24.621 -14.173   4.127  0.00  0.00    +0.325 C 
ATOM      6  O   LIG    1       23.521 -14.701   4.151  0.00  0.00    -0.249 OA
BRANCH   5   7
ATOM      7  O   LIG    1       24.858 -12.846   4.350  0.00  0.00    -0.464 OA
BRANCH   7   9
ATOM      8  C   LIG    1       24.105 -11.606   2.435  0.00  0.00    +0.048 C 
ATOM      9  C   LIG    1       23.843 -11.950   3.887  0.00  0.00    +0.229 C 
ENDBRANCH   7   9
ENDBRANCH   5   7
ENDBRANCH   4   5
BRANCH   4  10
ATOM     10  C   LIG    1       26.772 -13.965   2.873  0.00  0.00    +0.095 C 
BRANCH  10  11
ATOM     11  S   LIG    1       28.315 -13.385   3.649  0.00  0.00    -0.176 S 
ATOM     12  H   LIG    1       27.787 -12.349   4.312  0.00  0.00    +0.102 HD
ENDBRANCH  10  11
ENDBRANCH   4  10
ENDBRANCH   2   4
ENDBRANCH   1   2
BRANCH   1  13
ATOM     13  C   LIG    1       25.864 -18.612   3.530  0.00  0.00    +0.097 C 
BRANCH  13  14
ATOM     14  N   LIG    1       26.534 -19.482   4.507  0.00  0.00    -0.302 NA
ATOM     15  H   LIG    1       26.712 -18.938   5.356  0.00  0.00    +0.123 HD
BRANCH  14  16
ATOM     16  C   LIG    1       25.745 -20.704   4.823  0.00  0.00    +0.173 C 
BRANCH  16  17
ATOM     17  C   LIG    1       24.313 -20.556   4.309  0.00  0.00    +0.325 C 
ATOM     18  O   LIG    1       23.913 -20.970   3.221  0.00  0.00    -0.249 OA
BRANCH  17  19
ATOM     19  O   LIG    1       23.512 -20.044   5.288  0.00  0.00    -0.464 OA
BRANCH  19  20
ATOM     20  C   LIG    1       22.225 -19.578   4.859  0.00  0.00    +0.229 C 
ATOM     21  C   LIG    1       22.259 -18.102   4.536  0.00  0.00    +0.048 C 
ENDBRANCH  19  20
ENDBRANCH  17  19
ENDBRANCH  16  17
BRANCH  16  22
ATOM     22  C   LIG    1       25.742 -20.922   6.350  0.00  0.00    +0.095 C 
BRANCH  22  23
ATOM     23  S   LIG    1       27.422 -21.083   7.049  0.00  0.00    -0.176 S 
ATOM     24  H   LIG    1       27.239 -20.249   8.087  0.00  0.00    +0.102 HD
ENDBRANCH  22  23
ENDBRANCH  16  22
ENDBRANCH  14  16
ENDBRANCH  13  14
ENDBRANCH   1  13
TORSDOF 15
ENDMDL
MODEL 2
REMARK VINA RESULT:      -4.6      0.865      6.476
REMARK  Name = *****
REMARK                            x       y       z     vdW  Elec       q    Type
REMARK                         _______ _______ _______ _____ _____    ______ ____
ROOT
ATOM      1  C   LIG    1       25.476 -18.707   3.967  0.00  0.00    +0.097 C 
ENDROOT
BRANCH   1   2
ATOM      2  N   LIG    1       26.121 -20.035   3.955  0.00  0.00    -0.302 NA
ATOM      3  H   LIG    1       25.740 -20.566   3.175  0.00  0.00    +0.123 HD
BRANCH   2   4
ATOM      4  C   LIG    1       25.873 -20.787   5.217  0.00  0.00    +0.173 C 
BRANCH   4   5
ATOM      5  C   LIG    1       24.401 -20.648   5.649  0.00  0.00    +0.325 C 
ATOM      6  O   LIG    1       24.042 -20.488   6.804  0.00  0.00    -0.249 OA
BRANCH   5   7
ATOM      7  O   LIG    1       23.562 -20.807   4.582  0.00  0.00    -0.464 OA
BRANCH   7   9
ATOM      8  C   LIG    1       22.113 -18.895   4.468  0.00  0.00    +0.048 C 
ATOM      9  C   LIG    1       22.215 -20.373   4.784  0.00  0.00    +0.229 C 
ENDBRANCH   7   9
ENDBRANCH   5   7
ENDBRANCH   4   5
BRANCH   4  10
ATOM     10  C   LIG    1       26.765 -20.284   6.373  0.00  0.00    +0.095 C 
BRANCH  10  11
ATOM     11  S   LIG    1       28.478 -19.881   5.900  0.00  0.00    -0.176 S 
ATOM     12  H   LIG    1       28.193 -19.293   4.731  0.00  0.00    +0.102 HD
ENDBRANCH  10  11
ENDBRANCH   4  10
ENDBRANCH   2   4
ENDBRANCH   1   2
BRANCH   1  13
ATOM     13  C   LIG    1       26.460 -17.617   3.503  0.00  0.00    +0.097 C 
BRANCH  13  14
ATOM     14  N   LIG    1       25.757 -16.458   2.935  0.00  0.00    -0.302 NA
ATOM     15  H   LIG    1       24.752 -16.656   2.939  0.00  0.00    +0.123 HD
BRANCH  14  16
ATOM     16  C   LIG    1       26.045 -15.196   3.670  0.00  0.00    +0.173 C 
BRANCH  16  17
ATOM     17  C   LIG    1       24.741 -14.508   4.071  0.00  0.00    +0.325 C 
ATOM     18  O   LIG    1       23.641 -15.059   4.108  0.00  0.00    -0.249 OA
BRANCH  17  19
ATOM     19  O   LIG    1       24.994 -13.248   4.530  0.00  0.00    -0.464 OA
BRANCH  19  20
ATOM     20  C   LIG    1       24.015 -12.256   4.194  0.00  0.00    +0.229 C 
ATOM     21  C   LIG    1       24.046 -11.936   2.717  0.00  0.00    +0.048 C 
ENDBRANCH  19  20
ENDBRANCH  17  19
ENDBRANCH  16  17
BRANCH  16  22
ATOM     22  C   LIG    1       26.880 -14.266   2.766  0.00  0.00    +0.095 C 
BRANCH  22  23
ATOM     23  S   LIG    1       28.273 -13.479   3.648  0.00  0.00    -0.176 S 
ATOM     24  H   LIG    1       28.922 -13.042   2.554  0.00  0.00    +0.102 HD
ENDBRANCH  22  23
ENDBRANCH  16  22
ENDBRANCH  14  16
ENDBRANCH  13  14
ENDBRANCH   1  13
TORSDOF 15
ENDMDL
MODEL 3
REMARK VINA RESULT:      -4.4      2.192      2.577
REMARK  Name = *****
REMARK                            x       y       z     vdW  Elec       q    Type
REMARK                         _______ _______ _______ _____ _____    ______ ____
ROOT
ATOM      1  C   LIG    1       25.756 -18.327   3.404  0.00  0.00    +0.097 C 
ENDROOT
BRANCH   1   2
ATOM      2  N   LIG    1       26.597 -17.115   3.322  0.00  0.00    -0.302 NA
ATOM      3  H   LIG    1       27.024 -16.965   4.234  0.00  0.00    +0.123 HD
BRANCH   2   4
ATOM      4  C   LIG    1       25.803 -15.909   2.955  0.00  0.00    +0.173 C 
BRANCH   4   5
ATOM      5  C   LIG    1       26.726 -14.691   2.768  0.00  0.00    +0.325 C 
ATOM      6  O   LIG    1       26.667 -13.933   1.814  0.00  0.00    -0.249 OA
BRANCH   5   7
ATOM      7  O   LIG    1       27.659 -14.627   3.763  0.00  0.00    -0.464 OA
BRANCH   7   9
ATOM      8  C   LIG    1       27.143 -13.335   5.721  0.00  0.00    +0.048 C 
ATOM      9  C   LIG    1       27.830 -13.344   4.371  0.00  0.00    +0.229 C 
ENDBRANCH   7   9
ENDBRANCH   5   7
ENDBRANCH   4   5
BRANCH   4  10
ATOM     10  C   LIG    1       24.754 -15.559   4.034  0.00  0.00    +0.095 C 
BRANCH  10  11
ATOM     11  S   LIG    1       23.984 -13.918   3.850  0.00  0.00    -0.176 S 
ATOM     12  H   LIG    1       23.771 -13.983   2.530  0.00  0.00    +0.102 HD
ENDBRANCH  10  11
ENDBRANCH   4  10
ENDBRANCH   2   4
ENDBRANCH   1   2
BRANCH   1  13
ATOM     13  C   LIG    1       26.260 -19.269   4.512  0.00  0.00    +0.097 C 
BRANCH  13  14
ATOM     14  N   LIG    1       25.730 -20.630   4.349  0.00  0.00    -0.302 NA
ATOM     15  H   LIG    1       26.422 -21.187   3.838  0.00  0.00    +0.123 HD
BRANCH  14  16
ATOM     16  C   LIG    1       25.395 -21.274   5.648  0.00  0.00    +0.173 C 
BRANCH  16  17
ATOM     17  C   LIG    1       23.899 -21.145   5.931  0.00  0.00    +0.325 C 
ATOM     18  O   LIG    1       23.401 -21.088   7.056  0.00  0.00    -0.249 OA
BRANCH  17  19
ATOM     19  O   LIG    1       23.214 -20.947   4.768  0.00  0.00    -0.464 OA
BRANCH  19  20
ATOM     20  C   LIG    1       22.031 -20.143   4.871  0.00  0.00    +0.229 C 
ATOM     21  C   LIG    1       22.323 -18.697   4.542  0.00  0.00    +0.048 C 
ENDBRANCH  19  20
ENDBRANCH  17  19
ENDBRANCH  16  17
BRANCH  16  22
ATOM     22  C   LIG    1       26.209 -20.599   6.771  0.00  0.00    +0.095 C 
BRANCH  22  23
ATOM     23  S   LIG    1       27.824 -21.401   7.062  0.00  0.00    -0.176 S 
ATOM     24  H   LIG    1       27.765 -21.385   8.405  0.00  0.00    +0.102 HD
ENDBRANCH  22  23
ENDBRANCH  16  22
ENDBRANCH  14  16
ENDBRANCH  13  14
ENDBRANCH   1  13
TORSDOF 15
ENDMDL
MODEL 4
REMARK VINA RESULT:      -4.4      1.577      2.235
REMARK  Name = *****
REMARK                            x       y       z     vdW  Elec       q    Type
REMARK                         _______ _______ _______ _____ _____    ______ ____
ROOT
ATOM      1  C   LIG    1       26.141 -16.614   3.224  0.00  0.00    +0.097 C 
ENDROOT
BRANCH   1   2
ATOM      2  N   LIG    1       25.060 -15.707   3.659  0.00  0.00    -0.302 NA
ATOM      3  H   LIG    1       24.215 -15.953   3.147  0.00  0.00    +0.123 HD
BRANCH   2   4
ATOM      4  C   LIG    1       25.388 -14.279   3.391  0.00  0.00    +0.173 C 
BRANCH   4   5
ATOM      5  C   LIG    1       25.997 -13.620   4.642  0.00  0.00    +0.325 C 
ATOM      6  O   LIG    1       25.397 -12.836   5.359  0.00  0.00    -0.249 OA
BRANCH   5   7
ATOM      7  O   LIG    1       27.310 -13.968   4.789  0.00  0.00    -0.464 OA
BRANCH   7   9
ATOM      8  C   LIG    1       29.043 -12.473   4.060  0.00  0.00    +0.048 C 
ATOM      9  C   LIG    1       28.162 -13.648   3.686  0.00  0.00    +0.229 C 
ENDBRANCH   7   9
ENDBRANCH   5   7
ENDBRANCH   4   5
BRANCH   4  10
ATOM     10  C   LIG    1       24.140 -13.468   2.976  0.00  0.00    +0.095 C 
BRANCH  10  11
ATOM     11  S   LIG    1       24.489 -11.975   1.991  0.00  0.00    -0.176 S 
ATOM     12  H   LIG    1       23.866 -11.101   2.790  0.00  0.00    +0.102 HD
ENDBRANCH  10  11
ENDBRANCH   4  10
ENDBRANCH   2   4
ENDBRANCH   1   2
BRANCH   1  13
ATOM     13  C   LIG    1       25.690 -18.084   3.311  0.00  0.00    +0.097 C 
BRANCH  13  14
ATOM     14  N   LIG    1       26.537 -18.857   4.231  0.00  0.00    -0.302 NA
ATOM     15  H   LIG    1       26.651 -18.319   5.095  0.00  0.00    +0.123 HD
BRANCH  14  16
ATOM     16  C   LIG    1       25.982 -20.206   4.523  0.00  0.00    +0.173 C 
BRANCH  16  17
ATOM     17  C   LIG    1       24.494 -20.252   4.177  0.00  0.00    +0.325 C 
ATOM     18  O   LIG    1       24.036 -20.649   3.106  0.00  0.00    -0.249 OA
BRANCH  17  19
ATOM     19  O   LIG    1       23.745 -19.940   5.274  0.00  0.00    -0.464 OA
BRANCH  19  20
ATOM     20  C   LIG    1       22.366 -19.640   5.021  0.00  0.00    +0.229 C 
ATOM     21  C   LIG    1       22.195 -18.215   4.548  0.00  0.00    +0.048 C 
ENDBRANCH  19  20
ENDBRANCH  17  19
ENDBRANCH  16  17
BRANCH  16  22
ATOM     22  C   LIG    1       26.190 -20.524   6.019  0.00  0.00    +0.095 C 
BRANCH  22  23
ATOM     23  S   LIG    1       27.904 -20.230   6.577  0.00  0.00    -0.176 S 
ATOM     24  H   LIG    1       27.623 -19.214   7.411  0.00  0.00    +0.102 HD
ENDBRANCH  22  23
ENDBRANCH  16  22
ENDBRANCH  14  16
ENDBRANCH  13  14
ENDBRANCH   1  13
TORSDOF 15
ENDMDL
MODEL 5
REMARK VINA RESULT:      -4.2      2.586      7.397
REMARK  Name = *****
REMARK                            x       y       z     vdW  Elec       q    Type
REMARK                         _______ _______ _______ _____ _____    ______ ____
ROOT
ATOM      1  C   LIG    1       25.326 -18.228   3.289  0.00  0.00    +0.097 C 
ENDROOT
BRANCH   1   2
ATOM      2  N   LIG    1       26.224 -19.201   3.943  0.00  0.00    -0.302 NA
ATOM      3  H   LIG    1       26.470 -19.914   3.259  0.00  0.00    +0.123 HD
BRANCH   2   4
ATOM      4  C   LIG    1       25.576 -19.858   5.113  0.00  0.00    +0.173 C 
BRANCH   4   5
ATOM      5  C   LIG    1       26.612 -20.657   5.926  0.00  0.00    +0.325 C 
ATOM      6  O   LIG    1       26.321 -21.452   6.805  0.00  0.00    -0.249 OA
BRANCH   5   7
ATOM      7  O   LIG    1       27.885 -20.295   5.585  0.00  0.00    -0.464 OA
BRANCH   7   9
ATOM      8  C   LIG    1       29.473 -18.530   5.952  0.00  0.00    +0.048 C 
ATOM      9  C   LIG    1       28.624 -19.607   6.598  0.00  0.00    +0.229 C 
ENDBRANCH   7   9
ENDBRANCH   5   7
ENDBRANCH   4   5
BRANCH   4  10
ATOM     10  C   LIG    1       24.451 -20.825   4.681  0.00  0.00    +0.095 C 
BRANCH  10  11
ATOM     11  S   LIG    1       22.777 -20.339   5.216  0.00  0.00    -0.176 S 
ATOM     12  H   LIG    1       22.101 -21.048   4.304  0.00  0.00    +0.102 HD
ENDBRANCH  10  11
ENDBRANCH   4  10
ENDBRANCH   2   4
ENDBRANCH   1   2
BRANCH   1  13
ATOM     13  C   LIG    1       25.950 -16.821   3.291  0.00  0.00    +0.097 C 
BRANCH  13  14
ATOM     14  N   LIG    1       24.996 -15.805   3.759  0.00  0.00    -0.302 NA
ATOM     15  H   LIG    1       24.903 -15.893   4.775  0.00  0.00    +0.123 HD
BRANCH  14  16
ATOM     16  C   LIG    1       25.403 -14.423   3.387  0.00  0.00    +0.173 C 
BRANCH  16  17
ATOM     17  C   LIG    1       26.158 -13.765   4.541  0.00  0.00    +0.325 C 
ATOM     18  O   LIG    1       25.646 -13.030   5.386  0.00  0.00    -0.249 OA
BRANCH  17  19
ATOM     19  O   LIG    1       27.440 -14.231   4.592  0.00  0.00    -0.464 OA
BRANCH  19  20
ATOM     20  C   LIG    1       28.344 -13.672   3.630  0.00  0.00    +0.229 C 
ATOM     21  C   LIG    1       28.976 -12.401   4.149  0.00  0.00    +0.048 C 
ENDBRANCH  19  20
ENDBRANCH  17  19
ENDBRANCH  16  17
BRANCH  16  22
ATOM     22  C   LIG    1       24.143 -13.602   3.041  0.00  0.00    +0.095 C 
BRANCH  22  23
ATOM     23  S   LIG    1       24.512 -12.120   2.038  0.00  0.00    -0.176 S 
ATOM     24  H   LIG    1       23.699 -11.279   2.701  0.00  0.00    +0.102 HD
ENDBRANCH  22  23
ENDBRANCH  16  22
ENDBRANCH  14  16
ENDBRANCH  13  14
ENDBRANCH   1  13
TORSDOF 15
ENDMDL
MODEL 6
REMARK VINA RESULT:      -4.1      2.530      7.451
REMARK  Name = *****
REMARK                            x       y       z     vdW  Elec       q    Type
REMARK                         _______ _______ _______ _____ _____    ______ ____
ROOT
ATOM      1  C   LIG    1       23.140 -16.652   4.130  0.00  0.00    +0.097 C 
ENDROOT
BRANCH   1   2
ATOM      2  N   LIG    1       22.353 -17.722   4.775  0.00  0.00    -0.302 NA
ATOM      3  H   LIG    1       22.623 -17.765   5.756  0.00  0.00    +0.123 HD
BRANCH   2   4
ATOM      4  C   LIG    1       22.598 -19.050   4.148  0.00  0.00    +0.173 C 
BRANCH   4   5
ATOM      5  C   LIG    1       22.296 -20.183   5.146  0.00  0.00    +0.325 C 
ATOM      6  O   LIG    1       21.572 -21.134   4.898  0.00  0.00    -0.249 OA
BRANCH   5   7
ATOM      7  O   LIG    1       22.878 -19.937   6.357  0.00  0.00    -0.464 OA
BRANCH   7   9
ATOM      8  C   LIG    1       24.999 -20.818   7.062  0.00  0.00    +0.048 C 
ATOM      9  C   LIG    1       23.505 -21.059   6.982  0.00  0.00    +0.229 C 
ENDBRANCH   7   9
ENDBRANCH   5   7
ENDBRANCH   4   5
BRANCH   4  10
ATOM     10  C   LIG    1       24.060 -19.202   3.672  0.00  0.00    +0.095 C 
BRANCH  10  11
ATOM     11  S   LIG    1       24.540 -20.896   3.201  0.00  0.00    -0.176 S 
ATOM     12  H   LIG    1       24.305 -20.775   1.889  0.00  0.00    +0.102 HD
ENDBRANCH  10  11
ENDBRANCH   4  10
ENDBRANCH   2   4
ENDBRANCH   1   2
BRANCH   1  13
ATOM     13  C   LIG    1       22.778 -15.275   4.718  0.00  0.00    +0.097 C 
BRANCH  13  14
ATOM     14  N   LIG    1       23.941 -14.377   4.751  0.00  0.00    -0.302 NA
ATOM     15  H   LIG    1       24.738 -14.894   5.133  0.00  0.00    +0.123 HD
BRANCH  14  16
ATOM     16  C   LIG    1       24.272 -13.819   3.412  0.00  0.00    +0.173 C 
BRANCH  16  17
ATOM     17  C   LIG    1       25.743 -14.070   3.083  0.00  0.00    +0.325 C 
ATOM     18  O   LIG    1       26.168 -14.394   1.974  0.00  0.00    -0.249 OA
BRANCH  17  19
ATOM     19  O   LIG    1       26.528 -13.733   4.148  0.00  0.00    -0.464 OA
BRANCH  19  20
ATOM     20  C   LIG    1       27.918 -14.066   4.026  0.00  0.00    +0.229 C 
ATOM     21  C   LIG    1       28.777 -12.823   4.003  0.00  0.00    +0.048 C 
ENDBRANCH  19  20
ENDBRANCH  17  19
ENDBRANCH  16  17
BRANCH  16  22
ATOM     22  C   LIG    1       23.978 -12.304   3.410  0.00  0.00    +0.095 C 
BRANCH  22  23
ATOM     23  S   LIG    1       24.363 -11.506   1.813  0.00  0.00    -0.176 S 
ATOM     24  H   LIG    1       23.116 -11.079   1.549  0.00  0.00    +0.102 HD
ENDBRANCH  22  23
ENDBRANCH  16  22
ENDBRANCH  14  16
ENDBRANCH  13  14
ENDBRANCH   1  13
TORSDOF 15
ENDMDL
MODEL 7
REMARK VINA RESULT:      -4.1      2.063      6.783
REMARK  Name = *****
REMARK                            x       y       z     vdW  Elec       q    Type
REMARK                         _______ _______ _______ _____ _____    ______ ____
ROOT
ATOM      1  C   LIG    1       26.377 -19.066   4.279  0.00  0.00    +0.097 C 
ENDROOT
BRANCH   1   2
ATOM      2  N   LIG    1       25.696 -20.365   4.110  0.00  0.00    -0.302 NA
ATOM      3  H   LIG    1       24.803 -20.198   3.651  0.00  0.00    +0.123 HD
BRANCH   2   4
ATOM      4  C   LIG    1       25.449 -21.040   5.415  0.00  0.00    +0.173 C 
BRANCH   4   5
ATOM      5  C   LIG    1       23.953 -20.993   5.773  0.00  0.00    +0.325 C 
ATOM      6  O   LIG    1       23.516 -21.163   6.900  0.00  0.00    -0.249 OA
BRANCH   5   7
ATOM      7  O   LIG    1       23.188 -20.819   4.654  0.00  0.00    -0.464 OA
BRANCH   7   9
ATOM      8  C   LIG    1       22.353 -18.575   4.450  0.00  0.00    +0.048 C 
ATOM      9  C   LIG    1       22.022 -20.007   4.822  0.00  0.00    +0.229 C 
ENDBRANCH   7   9
ENDBRANCH   5   7
ENDBRANCH   4   5
BRANCH   4  10
ATOM     10  C   LIG    1       26.243 -20.380   6.564  0.00  0.00    +0.095 C 
BRANCH  10  11
ATOM     11  S   LIG    1       27.753 -21.270   7.062  0.00  0.00    -0.176 S 
ATOM     12  H   LIG    1       27.158 -22.185   7.836  0.00  0.00    +0.102 HD
ENDBRANCH  10  11
ENDBRANCH   4  10
ENDBRANCH   2   4
ENDBRANCH   1   2
BRANCH   1  13
ATOM     13  C   LIG    1       25.755 -17.999   3.360  0.00  0.00    +0.097 C 
BRANCH  13  14
ATOM     14  N   LIG    1       26.582 -16.785   3.301  0.00  0.00    -0.302 NA
ATOM     15  H   LIG    1       27.341 -16.943   2.631  0.00  0.00    +0.123 HD
BRANCH  14  16
ATOM     16  C   LIG    1       25.799 -15.575   2.930  0.00  0.00    +0.173 C 
BRANCH  16  17
ATOM     17  C   LIG    1       26.731 -14.379   2.742  0.00  0.00    +0.325 C 
ATOM     18  O   LIG    1       26.487 -13.406   2.028  0.00  0.00    -0.249 OA
BRANCH  17  19
ATOM     19  O   LIG    1       27.794 -14.471   3.593  0.00  0.00    -0.464 OA
BRANCH  19  20
ATOM     20  C   LIG    1       28.003 -13.342   4.452  0.00  0.00    +0.229 C 
ATOM     21  C   LIG    1       26.992 -13.316   5.575  0.00  0.00    +0.048 C 
ENDBRANCH  19  20
ENDBRANCH  17  19
ENDBRANCH  16  17
BRANCH  16  22
ATOM     22  C   LIG    1       24.772 -15.278   4.043  0.00  0.00    +0.095 C 
BRANCH  22  23
ATOM     23  S   LIG    1       23.854 -13.723   3.767  0.00  0.00    -0.176 S 
ATOM     24  H   LIG    1       22.622 -14.251   3.870  0.00  0.00    +0.102 HD
ENDBRANCH  22  23
ENDBRANCH  16  22
ENDBRANCH  14  16
ENDBRANCH  13  14
ENDBRANCH   1  13
TORSDOF 15
ENDMDL
MODEL 8
REMARK VINA RESULT:      -4.0      1.280      1.820
REMARK  Name = *****
REMARK                            x       y       z     vdW  Elec       q    Type
REMARK                         _______ _______ _______ _____ _____    ______ ____
ROOT
ATOM      1  C   LIG    1       26.965 -16.777   3.664  0.00  0.00    +0.097 C 
ENDROOT
BRANCH   1   2
ATOM      2  N   LIG    1       26.692 -15.483   3.007  0.00  0.00    -0.302 NA
ATOM      3  H   LIG    1       27.580 -15.085   2.710  0.00  0.00    +0.123 HD
BRANCH   2   4
ATOM      4  C   LIG    1       26.014 -14.524   3.924  0.00  0.00    +0.173 C 
BRANCH   4   5
ATOM      5  C   LIG    1       25.062 -13.605   3.137  0.00  0.00    +0.325 C 
ATOM      6  O   LIG    1       25.436 -12.702   2.406  0.00  0.00    -0.249 OA
BRANCH   5   7
ATOM      7  O   LIG    1       23.758 -13.886   3.430  0.00  0.00    -0.464 OA
BRANCH   7   9
ATOM      8  C   LIG    1       22.793 -15.830   4.460  0.00  0.00    +0.048 C 
ATOM      9  C   LIG    1       23.530 -14.526   4.688  0.00  0.00    +0.229 C 
ENDBRANCH   7   9
ENDBRANCH   5   7
ENDBRANCH   4   5
BRANCH   4  10
ATOM     10  C   LIG    1       27.027 -13.637   4.681  0.00  0.00    +0.095 C 
BRANCH  10  11
ATOM     11  S   LIG    1       28.536 -13.227   3.746  0.00  0.00    -0.176 S 
ATOM     12  H   LIG    1       28.080 -12.104   3.180  0.00  0.00    +0.102 HD
ENDBRANCH  10  11
ENDBRANCH   4  10
ENDBRANCH   2   4
ENDBRANCH   1   2
BRANCH   1  13
ATOM     13  C   LIG    1       26.049 -17.880   3.104  0.00  0.00    +0.097 C 
BRANCH  13  14
ATOM     14  N   LIG    1       25.317 -18.573   4.174  0.00  0.00    -0.302 NA
ATOM     15  H   LIG    1       24.313 -18.466   4.000  0.00  0.00    +0.123 HD
BRANCH  14  16
ATOM     16  C   LIG    1       25.680 -20.012   4.279  0.00  0.00    +0.173 C 
BRANCH  16  17
ATOM     17  C   LIG    1       24.444 -20.886   4.068  0.00  0.00    +0.325 C 
ATOM     18  O   LIG    1       24.142 -21.428   3.005  0.00  0.00    -0.249 OA
BRANCH  17  19
ATOM     19  O   LIG    1       23.814 -21.106   5.258  0.00  0.00    -0.464 OA
BRANCH  19  20
ATOM     20  C   LIG    1       22.407 -20.831   5.278  0.00  0.00    +0.229 C 
ATOM     21  C   LIG    1       22.125 -19.398   4.887  0.00  0.00    +0.048 C 
ENDBRANCH  19  20
ENDBRANCH  17  19
ENDBRANCH  16  17
BRANCH  16  22
ATOM     22  C   LIG    1       26.289 -20.278   5.672  0.00  0.00    +0.095 C 
BRANCH  22  23
ATOM     23  S   LIG    1       28.052 -19.811   5.779  0.00  0.00    -0.176 S 
ATOM     24  H   LIG    1       28.544 -20.943   5.247  0.00  0.00    +0.102 HD
ENDBRANCH  22  23
ENDBRANCH  16  22
ENDBRANCH  14  16
ENDBRANCH  13  14
ENDBRANCH   1  13
TORSDOF 15
ENDMDL
MODEL 9
REMARK VINA RESULT:      -3.9      1.277      6.646
REMARK  Name = *****
REMARK                            x       y       z     vdW  Elec       q    Type
REMARK                         _______ _______ _______ _____ _____    ______ ____
ROOT
ATOM      1  C   LIG    1       25.999 -17.895   3.105  0.00  0.00    +0.097 C 
ENDROOT
BRANCH   1   2
ATOM      2  N   LIG    1       25.294 -18.584   4.204  0.00  0.00    -0.302 NA
ATOM      3  H   LIG    1       25.525 -18.108   5.075  0.00  0.00    +0.123 HD
BRANCH   2   4
ATOM      4  C   LIG    1       25.694 -20.014   4.315  0.00  0.00    +0.173 C 
BRANCH   4   5
ATOM      5  C   LIG    1       24.475 -20.933   4.116  0.00  0.00    +0.325 C 
ATOM      6  O   LIG    1       24.092 -21.332   3.028  0.00  0.00    -0.249 OA
BRANCH   5   7
ATOM      7  O   LIG    1       23.842 -21.170   5.304  0.00  0.00    -0.464 OA
BRANCH   7   9
ATOM      8  C   LIG    1       22.232 -19.397   5.121  0.00  0.00    +0.048 C 
ATOM      9  C   LIG    1       22.441 -20.883   5.327  0.00  0.00    +0.229 C 
ENDBRANCH   7   9
ENDBRANCH   5   7
ENDBRANCH   4   5
BRANCH   4  10
ATOM     10  C   LIG    1       26.321 -20.334   5.690  0.00  0.00    +0.095 C 
BRANCH  10  11
ATOM     11  S   LIG    1       28.081 -19.890   5.850  0.00  0.00    -0.176 S 
ATOM     12  H   LIG    1       27.928 -18.565   5.745  0.00  0.00    +0.102 HD
ENDBRANCH  10  11
ENDBRANCH   4  10
ENDBRANCH   2   4
ENDBRANCH   1   2
BRANCH   1  13
ATOM     13  C   LIG    1       26.675 -16.607   3.609  0.00  0.00    +0.097 C 
BRANCH  13  14
ATOM     14  N   LIG    1       26.403 -15.468   2.721  0.00  0.00    -0.302 NA
ATOM     15  H   LIG    1       25.496 -15.619   2.271  0.00  0.00    +0.123 HD
BRANCH  14  16
ATOM     16  C   LIG    1       26.424 -14.165   3.437  0.00  0.00    +0.173 C 
BRANCH  16  17
ATOM     17  C   LIG    1       25.317 -13.253   2.907  0.00  0.00    +0.325 C 
ATOM     18  O   LIG    1       25.506 -12.239   2.235  0.00  0.00    -0.249 OA
BRANCH  17  19
ATOM     19  O   LIG    1       24.093 -13.806   3.151  0.00  0.00    -0.464 OA
BRANCH  19  20
ATOM     20  C   LIG    1       23.843 -14.190   4.509  0.00  0.00    +0.229 C 
ATOM     21  C   LIG    1       23.054 -15.477   4.576  0.00  0.00    +0.048 C 
ENDBRANCH  19  20
ENDBRANCH  17  19
ENDBRANCH  16  17
BRANCH  16  22
ATOM     22  C   LIG    1       27.801 -13.500   3.236  0.00  0.00    +0.095 C 
BRANCH  22  23
ATOM     23  S   LIG    1       28.394 -12.627   4.728  0.00  0.00    -0.176 S 
ATOM     24  H   LIG    1       28.430 -13.703   5.532  0.00  0.00    +0.102 HD
ENDBRANCH  22  23
ENDBRANCH  16  22
ENDBRANCH  14  16
ENDBRANCH  13  14
ENDBRANCH   1  13
TORSDOF 15
ENDMDL
