MODEL 1
REMARK VINA RESULT:      -5.7      0.000      0.000
REMARK  Name = *****
REMARK                            x       y       z     vdW  Elec       q    Type
REMARK                         _______ _______ _______ _____ _____    ______ ____
ROOT
ATOM      1  C   LIG    1       24.509 -23.246   6.434  0.00  0.00    +0.175 C 
ENDROOT
BRANCH   1   2
ATOM      2  N   LIG    1       24.812 -23.018   4.963  0.00  0.00    -0.311 NA
ATOM      3  H   LIG    1       25.549 -22.307   4.912  0.00  0.00    +0.119 HD
ATOM      4  H   LIG    1       25.301 -23.858   4.621  0.00  0.00    +0.119 HD
ENDBRANCH   1   2
BRANCH   1   5
ATOM      5  C   LIG    1       25.706 -23.811   7.224  0.00  0.00    +0.371 C 
ATOM      6  F   LIG    1       26.581 -22.809   7.515  0.00  0.00    -0.207 F 
ATOM      7  F   LIG    1       26.406 -24.665   6.426  0.00  0.00    -0.207 F 
ENDBRANCH   1   5
BRANCH   1   8
ATOM      8  C   LIG    1       23.436 -24.349   6.527  0.00  0.00    +0.331 C 
ATOM      9  O   LIG    1       23.651 -25.541   6.458  0.00  0.00    -0.249 OA
BRANCH   8  10
ATOM     10  O   LIG    1       22.190 -23.826   6.708  0.00  0.00    -0.479 OA
ATOM     11  H   LIG    1       21.547 -24.550   6.516  0.00  0.00    +0.295 HD
ENDBRANCH   8  10
ENDBRANCH   1   8
BRANCH   1  12
ATOM     12  C   LIG    1       23.927 -21.966   7.079  0.00  0.00    +0.040 C 
BRANCH  12  13
ATOM     13  C   LIG    1       24.083 -20.669   6.266  0.00  0.00    +0.017 C 
BRANCH  13  14
ATOM     14  C   LIG    1       22.760 -20.192   5.660  0.00  0.00    +0.078 C 
BRANCH  14  15
ATOM     15  N   LIG    1       22.062 -21.287   5.000  0.00  0.00    -0.330 NA
ATOM     16  H   LIG    1       22.689 -22.083   4.888  0.00  0.00    +0.118 HD
ATOM     17  H   LIG    1       21.296 -21.609   5.590  0.00  0.00    +0.118 HD
ENDBRANCH  14  15
ENDBRANCH  13  14
ENDBRANCH  12  13
ENDBRANCH   1  12
TORSDOF 8
ENDMDL
MODEL 2
REMARK VINA RESULT:      -5.6      6.785      7.436
REMARK  Name = *****
REMARK                            x       y       z     vdW  Elec       q    Type
REMARK                         _______ _______ _______ _____ _____    ______ ____
ROOT
ATOM      1  C   LIG    1       30.782 -19.600   8.120  0.00  0.00    +0.175 C 
ENDROOT
BRANCH   1   2
ATOM      2  N   LIG    1       31.556 -19.634   6.812  0.00  0.00    -0.311 NA
ATOM      3  H   LIG    1       31.152 -20.382   6.240  0.00  0.00    +0.119 HD
ATOM      4  H   LIG    1       31.291 -18.791   6.282  0.00  0.00    +0.119 HD
ENDBRANCH   1   2
BRANCH   1   5
ATOM      5  C   LIG    1       31.205 -18.446   9.050  0.00  0.00    +0.371 C 
ATOM      6  F   LIG    1       30.184 -17.553   9.172  0.00  0.00    -0.207 F 
ATOM      7  F   LIG    1       32.214 -17.744   8.462  0.00  0.00    -0.207 F 
ENDBRANCH   1   5
BRANCH   1   8
ATOM      8  C   LIG    1       31.137 -20.875   8.909  0.00  0.00    +0.331 C 
ATOM      9  O   LIG    1       32.232 -21.140   9.355  0.00  0.00    -0.249 OA
BRANCH   8  10
ATOM     10  O   LIG    1       30.053 -21.690   9.062  0.00  0.00    -0.479 OA
ATOM     11  H   LIG    1       30.117 -22.080   9.967  0.00  0.00    +0.295 HD
ENDBRANCH   8  10
ENDBRANCH   1   8
BRANCH   1  12
ATOM     12  C   LIG    1       29.259 -19.616   7.855  0.00  0.00    +0.040 C 
BRANCH  12  13
ATOM     13  C   LIG    1       28.829 -19.652   6.378  0.00  0.00    +0.017 C 
BRANCH  13  14
ATOM     14  C   LIG    1       27.448 -20.283   6.181  0.00  0.00    +0.078 C 
BRANCH  14  15
ATOM     15  N   LIG    1       26.953 -20.050   4.831  0.00  0.00    -0.330 NA
ATOM     16  H   LIG    1       27.616 -19.477   4.310  0.00  0.00    +0.118 HD
ATOM     17  H   LIG    1       26.891 -20.937   4.332  0.00  0.00    +0.118 HD
ENDBRANCH  14  15
ENDBRANCH  13  14
ENDBRANCH  12  13
ENDBRANCH   1  12
TORSDOF 8
ENDMDL
MODEL 3
REMARK VINA RESULT:      -5.5      2.133      2.888
REMARK  Name = *****
REMARK                            x       y       z     vdW  Elec       q    Type
REMARK                         _______ _______ _______ _____ _____    ______ ____
ROOT
ATOM      1  C   LIG    1       24.876 -23.227   6.379  0.00  0.00    +0.175 C 
ENDROOT
BRANCH   1   2
ATOM      2  N   LIG    1       25.080 -22.313   5.181  0.00  0.00    -0.311 NA
ATOM      3  H   LIG    1       25.068 -22.905   4.344  0.00  0.00    +0.119 HD
ATOM      4  H   LIG    1       24.215 -21.765   5.069  0.00  0.00    +0.119 HD
ENDBRANCH   1   2
BRANCH   1   5
ATOM      5  C   LIG    1       24.801 -24.719   6.003  0.00  0.00    +0.371 C 
ATOM      6  F   LIG    1       25.675 -25.432   6.766  0.00  0.00    -0.207 F 
ATOM      7  F   LIG    1       25.242 -24.881   4.724  0.00  0.00    -0.207 F 
ENDBRANCH   1   5
BRANCH   1   8
ATOM      8  C   LIG    1       23.490 -22.915   6.977  0.00  0.00    +0.331 C 
ATOM      9  O   LIG    1       23.226 -21.954   7.667  0.00  0.00    -0.249 OA
BRANCH   8  10
ATOM     10  O   LIG    1       22.568 -23.858   6.628  0.00  0.00    -0.479 OA
ATOM     11  H   LIG    1       22.063 -23.493   5.862  0.00  0.00    +0.295 HD
ENDBRANCH   8  10
ENDBRANCH   1   8
BRANCH   1  12
ATOM     12  C   LIG    1       25.935 -22.945   7.470  0.00  0.00    +0.040 C 
BRANCH  12  13
ATOM     13  C   LIG    1       26.866 -21.747   7.216  0.00  0.00    +0.017 C 
BRANCH  13  14
ATOM     14  C   LIG    1       26.485 -20.519   8.047  0.00  0.00    +0.078 C 
BRANCH  14  15
ATOM     15  N   LIG    1       25.776 -20.906   9.259  0.00  0.00    -0.330 NA
ATOM     16  H   LIG    1       25.520 -20.077   9.794  0.00  0.00    +0.118 HD
ATOM     17  H   LIG    1       24.902 -21.367   9.012  0.00  0.00    +0.118 HD
ENDBRANCH  14  15
ENDBRANCH  13  14
ENDBRANCH  12  13
ENDBRANCH   1  12
TORSDOF 8
ENDMDL
MODEL 4
REMARK VINA RESULT:      -5.5      8.307      8.932
REMARK  Name = *****
REMARK                            x       y       z     vdW  Elec       q    Type
REMARK                         _______ _______ _______ _____ _____    ______ ____
ROOT
ATOM      1  C   LIG    1       30.444 -19.028   8.723  0.00  0.00    +0.175 C 
ENDROOT
BRANCH   1   2
ATOM      2  N   LIG    1       30.937 -19.979   9.801  0.00  0.00    -0.311 NA
ATOM      3  H   LIG    1       30.327 -19.855  10.616  0.00  0.00    +0.119 HD
ATOM      4  H   LIG    1       30.695 -20.933   9.496  0.00  0.00    +0.119 HD
ENDBRANCH   1   2
BRANCH   1   5
ATOM      5  C   LIG    1       29.348 -19.638   7.826  0.00  0.00    +0.371 C 
ATOM      6  F   LIG    1       28.124 -19.429   8.387  0.00  0.00    -0.207 F 
ATOM      7  F   LIG    1       29.493 -20.992   7.799  0.00  0.00    -0.207 F 
ENDBRANCH   1   5
BRANCH   1   8
ATOM      8  C   LIG    1       31.618 -18.761   7.760  0.00  0.00    +0.331 C 
ATOM      9  O   LIG    1       31.970 -19.498   6.864  0.00  0.00    -0.249 OA
BRANCH   8  10
ATOM     10  O   LIG    1       32.228 -17.570   8.029  0.00  0.00    -0.479 OA
ATOM     11  H   LIG    1       33.123 -17.784   8.387  0.00  0.00    +0.295 HD
ENDBRANCH   8  10
ENDBRANCH   1   8
BRANCH   1  12
ATOM     12  C   LIG    1       30.019 -17.675   9.338  0.00  0.00    +0.040 C 
BRANCH  12  13
ATOM     13  C   LIG    1       30.212 -17.532  10.858  0.00  0.00    +0.017 C 
BRANCH  13  14
ATOM     14  C   LIG    1       31.410 -16.649  11.219  0.00  0.00    +0.078 C 
BRANCH  14  15
ATOM     15  N   LIG    1       32.666 -17.353  10.992  0.00  0.00    -0.330 NA
ATOM     16  H   LIG    1       32.489 -18.236  10.514  0.00  0.00    +0.118 HD
ATOM     17  H   LIG    1       33.257 -16.805  10.368  0.00  0.00    +0.118 HD
ENDBRANCH  14  15
ENDBRANCH  13  14
ENDBRANCH  12  13
ENDBRANCH   1  12
TORSDOF 8
ENDMDL
MODEL 5
REMARK VINA RESULT:      -5.5      3.794      4.735
REMARK  Name = *****
REMARK                            x       y       z     vdW  Elec       q    Type
REMARK                         _______ _______ _______ _____ _____    ______ ____
ROOT
ATOM      1  C   LIG    1       24.229 -20.926   5.162  0.00  0.00    +0.175 C 
ENDROOT
BRANCH   1   2
ATOM      2  N   LIG    1       24.509 -22.345   4.695  0.00  0.00    -0.311 NA
ATOM      3  H   LIG    1       24.690 -22.302   3.687  0.00  0.00    +0.119 HD
ATOM      4  H   LIG    1       25.432 -22.609   5.068  0.00  0.00    +0.119 HD
ENDBRANCH   1   2
BRANCH   1   5
ATOM      5  C   LIG    1       22.769 -20.485   4.934  0.00  0.00    +0.371 C 
ATOM      6  F   LIG    1       22.460 -19.461   5.777  0.00  0.00    -0.207 F 
ATOM      7  F   LIG    1       21.934 -21.500   5.295  0.00  0.00    -0.207 F 
ENDBRANCH   1   5
BRANCH   1   8
ATOM      8  C   LIG    1       25.057 -19.970   4.281  0.00  0.00    +0.331 C 
ATOM      9  O   LIG    1       24.601 -19.086   3.587  0.00  0.00    -0.249 OA
BRANCH   8  10
ATOM     10  O   LIG    1       26.393 -20.228   4.376  0.00  0.00    -0.479 OA
ATOM     11  H   LIG    1       26.666 -19.981   5.292  0.00  0.00    +0.295 HD
ENDBRANCH   8  10
ENDBRANCH   1   8
BRANCH   1  12
ATOM     12  C   LIG    1       24.683 -20.732   6.627  0.00  0.00    +0.040 C 
BRANCH  12  13
ATOM     13  C   LIG    1       24.775 -22.007   7.482  0.00  0.00    +0.017 C 
BRANCH  13  14
ATOM     14  C   LIG    1       25.915 -21.951   8.503  0.00  0.00    +0.078 C 
BRANCH  14  15
ATOM     15  N   LIG    1       25.913 -20.682   9.219  0.00  0.00    -0.330 NA
ATOM     16  H   LIG    1       24.987 -20.257   9.175  0.00  0.00    +0.118 HD
ATOM     17  H   LIG    1       26.104 -20.846  10.207  0.00  0.00    +0.118 HD
ENDBRANCH  14  15
ENDBRANCH  13  14
ENDBRANCH  12  13
ENDBRANCH   1  12
TORSDOF 8
ENDMDL
MODEL 6
REMARK VINA RESULT:      -5.4      7.755      8.480
REMARK  Name = *****
REMARK                            x       y       z     vdW  Elec       q    Type
REMARK                         _______ _______ _______ _____ _____    ______ ____
ROOT
ATOM      1  C   LIG    1       30.025 -19.227   8.052  0.00  0.00    +0.175 C 
ENDROOT
BRANCH   1   2
ATOM      2  N   LIG    1       28.626 -19.566   8.540  0.00  0.00    -0.311 NA
ATOM      3  H   LIG    1       28.698 -19.785   9.538  0.00  0.00    +0.119 HD
ATOM      4  H   LIG    1       28.089 -18.686   8.552  0.00  0.00    +0.119 HD
ENDBRANCH   1   2
BRANCH   1   5
ATOM      5  C   LIG    1       30.160 -19.256   6.517  0.00  0.00    +0.371 C 
ATOM      6  F   LIG    1       31.476 -19.217   6.169  0.00  0.00    -0.207 F 
ATOM      7  F   LIG    1       29.627 -18.115   5.999  0.00  0.00    -0.207 F 
ENDBRANCH   1   5
BRANCH   1   8
ATOM      8  C   LIG    1       30.974 -20.339   8.540  0.00  0.00    +0.331 C 
ATOM      9  O   LIG    1       32.009 -20.159   9.144  0.00  0.00    -0.249 OA
BRANCH   8  10
ATOM     10  O   LIG    1       30.506 -21.578   8.215  0.00  0.00    -0.479 OA
ATOM     11  H   LIG    1       30.463 -22.095   9.055  0.00  0.00    +0.295 HD
ENDBRANCH   8  10
ENDBRANCH   1   8
BRANCH   1  12
ATOM     12  C   LIG    1       30.509 -17.891   8.662  0.00  0.00    +0.040 C 
BRANCH  12  13
ATOM     13  C   LIG    1       30.007 -17.574  10.081  0.00  0.00    +0.017 C 
BRANCH  13  14
ATOM     14  C   LIG    1       31.130 -17.104  11.011  0.00  0.00    +0.078 C 
BRANCH  14  15
ATOM     15  N   LIG    1       32.424 -17.602  10.562  0.00  0.00    -0.330 NA
ATOM     16  H   LIG    1       32.653 -18.467  11.050  0.00  0.00    +0.118 HD
ATOM     17  H   LIG    1       32.374 -17.838   9.572  0.00  0.00    +0.118 HD
ENDBRANCH  14  15
ENDBRANCH  13  14
ENDBRANCH  12  13
ENDBRANCH   1  12
TORSDOF 8
ENDMDL
MODEL 7
REMARK VINA RESULT:      -5.4      3.207      4.243
REMARK  Name = *****
REMARK                            x       y       z     vdW  Elec       q    Type
REMARK                         _______ _______ _______ _____ _____    ______ ____
ROOT
ATOM      1  C   LIG    1       24.513 -21.531   5.778  0.00  0.00    +0.175 C 
ENDROOT
BRANCH   1   2
ATOM      2  N   LIG    1       24.457 -22.082   4.362  0.00  0.00    -0.311 NA
ATOM      3  H   LIG    1       24.973 -22.967   4.362  0.00  0.00    +0.119 HD
ATOM      4  H   LIG    1       23.490 -22.397   4.199  0.00  0.00    +0.119 HD
ENDBRANCH   1   2
BRANCH   1   5
ATOM      5  C   LIG    1       23.390 -20.520   6.084  0.00  0.00    +0.371 C 
ATOM      6  F   LIG    1       23.145 -20.494   7.423  0.00  0.00    -0.207 F 
ATOM      7  F   LIG    1       22.227 -20.960   5.525  0.00  0.00    -0.207 F 
ENDBRANCH   1   5
BRANCH   1   8
ATOM      8  C   LIG    1       25.810 -20.710   5.912  0.00  0.00    +0.331 C 
ATOM      9  O   LIG    1       26.312 -20.360   6.959  0.00  0.00    -0.249 OA
BRANCH   8  10
ATOM     10  O   LIG    1       26.351 -20.421   4.693  0.00  0.00    -0.479 OA
ATOM     11  H   LIG    1       26.186 -19.461   4.530  0.00  0.00    +0.295 HD
ENDBRANCH   8  10
ENDBRANCH   1   8
BRANCH   1  12
ATOM     12  C   LIG    1       24.571 -22.680   6.811  0.00  0.00    +0.040 C 
BRANCH  12  13
ATOM     13  C   LIG    1       23.473 -23.751   6.694  0.00  0.00    +0.017 C 
BRANCH  13  14
ATOM     14  C   LIG    1       24.027 -25.120   6.291  0.00  0.00    +0.078 C 
BRANCH  14  15
ATOM     15  N   LIG    1       24.610 -25.076   4.956  0.00  0.00    -0.330 NA
ATOM     16  H   LIG    1       24.127 -24.382   4.387  0.00  0.00    +0.118 HD
ATOM     17  H   LIG    1       25.580 -24.770   5.017  0.00  0.00    +0.118 HD
ENDBRANCH  14  15
ENDBRANCH  13  14
ENDBRANCH  12  13
ENDBRANCH   1  12
TORSDOF 8
ENDMDL
MODEL 8
REMARK VINA RESULT:      -5.4      2.699      3.447
REMARK  Name = *****
REMARK                            x       y       z     vdW  Elec       q    Type
REMARK                         _______ _______ _______ _____ _____    ______ ____
ROOT
ATOM      1  C   LIG    1       24.299 -22.830   6.397  0.00  0.00    +0.175 C 
ENDROOT
BRANCH   1   2
ATOM      2  N   LIG    1       24.703 -22.848   4.932  0.00  0.00    -0.311 NA
ATOM      3  H   LIG    1       25.631 -23.279   4.880  0.00  0.00    +0.119 HD
ATOM      4  H   LIG    1       24.113 -23.551   4.465  0.00  0.00    +0.119 HD
ENDBRANCH   1   2
BRANCH   1   5
ATOM      5  C   LIG    1       23.445 -24.045   6.810  0.00  0.00    +0.371 C 
ATOM      6  F   LIG    1       23.706 -25.094   5.982  0.00  0.00    -0.207 F 
ATOM      7  F   LIG    1       22.129 -23.757   6.604  0.00  0.00    -0.207 F 
ENDBRANCH   1   5
BRANCH   1   8
ATOM      8  C   LIG    1       23.368 -21.620   6.613  0.00  0.00    +0.331 C 
ATOM      9  O   LIG    1       22.835 -20.982   5.731  0.00  0.00    -0.249 OA
BRANCH   8  10
ATOM     10  O   LIG    1       23.201 -21.344   7.938  0.00  0.00    -0.479 OA
ATOM     11  H   LIG    1       22.286 -21.632   8.175  0.00  0.00    +0.295 HD
ENDBRANCH   8  10
ENDBRANCH   1   8
BRANCH   1  12
ATOM     12  C   LIG    1       25.536 -22.642   7.305  0.00  0.00    +0.040 C 
BRANCH  12  13
ATOM     13  C   LIG    1       26.496 -21.505   6.915  0.00  0.00    +0.017 C 
BRANCH  13  14
ATOM     14  C   LIG    1       26.693 -20.488   8.042  0.00  0.00    +0.078 C 
BRANCH  14  15
ATOM     15  N   LIG    1       25.890 -20.836   9.207  0.00  0.00    -0.330 NA
ATOM     16  H   LIG    1       25.889 -20.064   9.873  0.00  0.00    +0.118 HD
ATOM     17  H   LIG    1       24.919 -20.970   8.926  0.00  0.00    +0.118 HD
ENDBRANCH  14  15
ENDBRANCH  13  14
ENDBRANCH  12  13
ENDBRANCH   1  12
TORSDOF 8
ENDMDL
MODEL 9
REMARK VINA RESULT:      -5.3      3.310      3.993
REMARK  Name = *****
REMARK                            x       y       z     vdW  Elec       q    Type
REMARK                         _______ _______ _______ _____ _____    ______ ____
ROOT
ATOM      1  C   LIG    1       23.921 -21.200   6.310  0.00  0.00    +0.175 C 
ENDROOT
BRANCH   1   2
ATOM      2  N   LIG    1       23.439 -21.160   7.751  0.00  0.00    -0.311 NA
ATOM      3  H   LIG    1       22.436 -21.370   7.740  0.00  0.00    +0.119 HD
ATOM      4  H   LIG    1       23.827 -21.991   8.222  0.00  0.00    +0.119 HD
ENDBRANCH   1   2
BRANCH   1   5
ATOM      5  C   LIG    1       22.904 -20.616   5.310  0.00  0.00    +0.371 C 
ATOM      6  F   LIG    1       22.439 -19.421   5.769  0.00  0.00    -0.207 F 
ATOM      7  F   LIG    1       21.807 -21.423   5.264  0.00  0.00    -0.207 F 
ENDBRANCH   1   5
BRANCH   1   8
ATOM      8  C   LIG    1       24.052 -22.680   5.898  0.00  0.00    +0.331 C 
ATOM      9  O   LIG    1       23.707 -23.626   6.573  0.00  0.00    -0.249 OA
BRANCH   8  10
ATOM     10  O   LIG    1       24.605 -22.810   4.658  0.00  0.00    -0.479 OA
ATOM     11  H   LIG    1       25.072 -23.680   4.645  0.00  0.00    +0.295 HD
ENDBRANCH   8  10
ENDBRANCH   1   8
BRANCH   1  12
ATOM     12  C   LIG    1       25.317 -20.548   6.181  0.00  0.00    +0.040 C 
BRANCH  12  13
ATOM     13  C   LIG    1       26.455 -21.226   6.962  0.00  0.00    +0.017 C 
BRANCH  13  14
ATOM     14  C   LIG    1       26.903 -20.410   8.178  0.00  0.00    +0.078 C 
BRANCH  14  15
ATOM     15  N   LIG    1       25.976 -20.577   9.290  0.00  0.00    -0.330 NA
ATOM     16  H   LIG    1       25.777 -19.673   9.716  0.00  0.00    +0.118 HD
ATOM     17  H   LIG    1       25.085 -20.930   8.942  0.00  0.00    +0.118 HD
ENDBRANCH  14  15
ENDBRANCH  13  14
ENDBRANCH  12  13
ENDBRANCH   1  12
TORSDOF 8
ENDMDL
