MODEL 1
REMARK VINA RESULT:     -11.1      0.000      0.000
REMARK  Name = *****
REMARK                            x       y       z     vdW  Elec       q    Type
REMARK                         _______ _______ _______ _____ _____    ______ ____
ROOT
ATOM      1  O   LIG    1       25.492 -20.258   8.917  0.00  0.00    -0.275 OA
ATOM      2  C   LIG    1       25.840 -21.064   8.082  0.00  0.00    +0.226 C 
ATOM      3  N   LIG    1       25.419 -21.336   6.826  0.00  0.00    -0.263 N 
ATOM      4  C   LIG    1       26.316 -22.473   6.593  0.00  0.00    +0.123 C 
ATOM      5  C   LIG    1       26.982 -22.096   7.965  0.00  0.00    +0.101 C 
ENDROOT
BRANCH   3   6
ATOM      6  C   LIG    1       24.586 -20.635   5.959  0.00  0.00    +0.037 A 
ATOM      7  C   LIG    1       25.089 -20.125   4.757  0.00  0.00    +0.026 A 
ATOM      8  C   LIG    1       24.274 -19.356   3.923  0.00  0.00    +0.040 A 
ATOM      9  C   LIG    1       22.957 -19.104   4.290  0.00  0.00    +0.123 A 
ATOM     10  F   LIG    1       22.182 -18.354   3.497  0.00  0.00    -0.205 F 
ATOM     11  C   LIG    1       22.436 -19.615   5.470  0.00  0.00    +0.040 A 
ATOM     12  C   LIG    1       23.250 -20.386   6.301  0.00  0.00    +0.026 A 
ENDBRANCH   3   6
BRANCH   4  13
ATOM     13  C   LIG    1       25.628 -23.913   6.469  0.00  0.00    -0.026 A 
ATOM     14  C   LIG    1       26.382 -25.106   6.415  0.00  0.00    +0.009 A 
ATOM     15  C   LIG    1       25.781 -26.364   6.306  0.00  0.00    +0.045 A 
ATOM     16  C   LIG    1       24.402 -26.463   6.246  0.00  0.00    +0.117 A 
ATOM     17  C   LIG    1       23.613 -25.322   6.302  0.00  0.00    +0.045 A 
ATOM     18  C   LIG    1       24.225 -24.065   6.413  0.00  0.00    +0.009 A 
BRANCH  16  19
ATOM     19  O   LIG    1       23.857 -27.706   6.131  0.00  0.00    -0.507 OA
ATOM     20  H   LIG    1       23.295 -27.876   6.905  0.00  0.00    +0.292 HD
ENDBRANCH  16  19
ENDBRANCH   4  13
BRANCH   5  21
ATOM     21  C   LIG    1       28.388 -21.490   7.895  0.00  0.00    +0.018 C 
BRANCH  21  22
ATOM     22  C   LIG    1       28.328 -19.956   7.957  0.00  0.00    +0.037 C 
BRANCH  22  23
ATOM     23  C   LIG    1       29.592 -19.286   7.398  0.00  0.00    +0.144 C 
BRANCH  23  24
ATOM     24  C   LIG    1       30.322 -18.446   8.433  0.00  0.00    -0.019 A 
ATOM     25  C   LIG    1       29.672 -18.041   9.612  0.00  0.00    +0.009 A 
ATOM     26  C   LIG    1       30.341 -17.259  10.559  0.00  0.00    +0.039 A 
ATOM     27  C   LIG    1       31.658 -16.879  10.331  0.00  0.00    +0.123 A 
ATOM     28  F   LIG    1       32.296 -16.129  11.239  0.00  0.00    -0.205 F 
ATOM     29  C   LIG    1       32.320 -17.263   9.172  0.00  0.00    +0.039 A 
ATOM     30  C   LIG    1       31.654 -18.045   8.226  0.00  0.00    +0.009 A 
ENDBRANCH  23  24
BRANCH  23  31
ATOM     31  O   LIG    1       30.464 -20.295   6.888  0.00  0.00    -0.387 OA
ATOM     32  H   LIG    1       31.221 -19.850   6.470  0.00  0.00    +0.210 HD
ENDBRANCH  23  31
ENDBRANCH  22  23
ENDBRANCH  21  22
ENDBRANCH   5  21
TORSDOF 8
ENDMDL
MODEL 2
REMARK VINA RESULT:     -11.1      3.302      8.419
REMARK  Name = *****
REMARK                            x       y       z     vdW  Elec       q    Type
REMARK                         _______ _______ _______ _____ _____    ______ ____
ROOT
ATOM      1  O   LIG    1       26.176 -22.187   9.281  0.00  0.00    -0.275 OA
ATOM      2  C   LIG    1       25.915 -22.183   8.098  0.00  0.00    +0.226 C 
ATOM      3  N   LIG    1       26.468 -21.565   7.029  0.00  0.00    -0.263 N 
ATOM      4  C   LIG    1       25.499 -22.047   6.039  0.00  0.00    +0.123 C 
ATOM      5  C   LIG    1       24.919 -22.940   7.194  0.00  0.00    +0.101 C 
ENDROOT
BRANCH   3   6
ATOM      6  C   LIG    1       27.677 -20.893   6.875  0.00  0.00    +0.037 A 
ATOM      7  C   LIG    1       28.766 -21.205   7.698  0.00  0.00    +0.026 A 
ATOM      8  C   LIG    1       29.955 -20.480   7.596  0.00  0.00    +0.040 A 
ATOM      9  C   LIG    1       30.054 -19.449   6.668  0.00  0.00    +0.123 A 
ATOM     10  F   LIG    1       31.190 -18.745   6.582  0.00  0.00    -0.205 F 
ATOM     11  C   LIG    1       28.992 -19.138   5.833  0.00  0.00    +0.040 A 
ATOM     12  C   LIG    1       27.805 -19.864   5.933  0.00  0.00    +0.026 A 
ENDBRANCH   3   6
BRANCH   4  13
ATOM     13  C   LIG    1       24.533 -20.947   5.391  0.00  0.00    -0.026 A 
ATOM     14  C   LIG    1       23.342 -20.525   6.022  0.00  0.00    +0.009 A 
ATOM     15  C   LIG    1       22.497 -19.565   5.457  0.00  0.00    +0.045 A 
ATOM     16  C   LIG    1       22.823 -18.999   4.236  0.00  0.00    +0.117 A 
ATOM     17  C   LIG    1       23.985 -19.372   3.577  0.00  0.00    +0.045 A 
ATOM     18  C   LIG    1       24.827 -20.335   4.153  0.00  0.00    +0.009 A 
BRANCH  16  19
ATOM     19  O   LIG    1       21.968 -18.074   3.716  0.00  0.00    -0.507 OA
ATOM     20  H   LIG    1       22.315 -17.773   2.860  0.00  0.00    +0.292 HD
ENDBRANCH  16  19
ENDBRANCH   4  13
BRANCH   5  21
ATOM     21  C   LIG    1       25.175 -24.447   7.082  0.00  0.00    +0.018 C 
BRANCH  21  22
ATOM     22  C   LIG    1       25.048 -24.917   5.623  0.00  0.00    +0.037 C 
BRANCH  22  23
ATOM     23  C   LIG    1       25.899 -26.161   5.322  0.00  0.00    +0.144 C 
BRANCH  23  24
ATOM     24  C   LIG    1       25.387 -27.409   6.022  0.00  0.00    -0.019 A 
ATOM     25  C   LIG    1       24.450 -28.247   5.394  0.00  0.00    +0.009 A 
ATOM     26  C   LIG    1       23.971 -29.390   6.043  0.00  0.00    +0.039 A 
ATOM     27  C   LIG    1       24.424 -29.696   7.320  0.00  0.00    +0.123 A 
ATOM     28  F   LIG    1       23.963 -30.789   7.941  0.00  0.00    -0.205 F 
ATOM     29  C   LIG    1       25.346 -28.881   7.964  0.00  0.00    +0.039 A 
ATOM     30  C   LIG    1       25.827 -27.740   7.316  0.00  0.00    +0.009 A 
ENDBRANCH  23  24
BRANCH  23  31
ATOM     31  O   LIG    1       25.927 -26.372   3.910  0.00  0.00    -0.387 OA
ATOM     32  H   LIG    1       25.408 -25.663   3.493  0.00  0.00    +0.210 HD
ENDBRANCH  23  31
ENDBRANCH  22  23
ENDBRANCH  21  22
ENDBRANCH   5  21
TORSDOF 8
ENDMDL
MODEL 3
REMARK VINA RESULT:     -10.4      3.360      8.416
REMARK  Name = *****
REMARK                            x       y       z     vdW  Elec       q    Type
REMARK                         _______ _______ _______ _____ _____    ______ ____
ROOT
ATOM      1  O   LIG    1       24.795 -23.742   4.149  0.00  0.00    -0.275 OA
ATOM      2  C   LIG    1       25.191 -23.152   5.130  0.00  0.00    +0.226 C 
ATOM      3  N   LIG    1       25.036 -21.883   5.572  0.00  0.00    -0.263 N 
ATOM      4  C   LIG    1       25.890 -22.015   6.758  0.00  0.00    +0.123 C 
ATOM      5  C   LIG    1       25.960 -23.546   6.409  0.00  0.00    +0.101 C 
ENDROOT
BRANCH   3   6
ATOM      6  C   LIG    1       24.176 -20.865   5.173  0.00  0.00    +0.037 A 
ATOM      7  C   LIG    1       24.423 -20.156   3.991  0.00  0.00    +0.026 A 
ATOM      8  C   LIG    1       23.604 -19.085   3.629  0.00  0.00    +0.040 A 
ATOM      9  C   LIG    1       22.537 -18.728   4.446  0.00  0.00    +0.123 A 
ATOM     10  F   LIG    1       21.762 -17.691   4.104  0.00  0.00    -0.205 F 
ATOM     11  C   LIG    1       22.266 -19.429   5.611  0.00  0.00    +0.040 A 
ATOM     12  C   LIG    1       23.082 -20.502   5.972  0.00  0.00    +0.026 A 
ENDBRANCH   3   6
BRANCH   4  13
ATOM     13  C   LIG    1       27.258 -21.185   6.750  0.00  0.00    -0.026 A 
ATOM     14  C   LIG    1       27.508 -20.156   5.816  0.00  0.00    +0.009 A 
ATOM     15  C   LIG    1       28.704 -19.431   5.806  0.00  0.00    +0.045 A 
ATOM     16  C   LIG    1       29.688 -19.718   6.737  0.00  0.00    +0.117 A 
ATOM     17  C   LIG    1       29.490 -20.715   7.682  0.00  0.00    +0.045 A 
ATOM     18  C   LIG    1       28.287 -21.436   7.683  0.00  0.00    +0.009 A 
BRANCH  16  19
ATOM     19  O   LIG    1       30.841 -18.995   6.688  0.00  0.00    -0.507 OA
ATOM     20  H   LIG    1       30.849 -18.471   5.870  0.00  0.00    +0.292 HD
ENDBRANCH  16  19
ENDBRANCH   4  13
BRANCH   5  21
ATOM     21  C   LIG    1       25.202 -24.493   7.346  0.00  0.00    +0.018 C 
BRANCH  21  22
ATOM     22  C   LIG    1       25.731 -25.930   7.218  0.00  0.00    +0.037 C 
BRANCH  22  23
ATOM     23  C   LIG    1       25.081 -26.704   6.060  0.00  0.00    +0.144 C 
BRANCH  23  24
ATOM     24  C   LIG    1       25.079 -28.207   6.284  0.00  0.00    -0.019 A 
ATOM     25  C   LIG    1       24.909 -28.738   7.575  0.00  0.00    +0.009 A 
ATOM     26  C   LIG    1       24.919 -30.121   7.781  0.00  0.00    +0.039 A 
ATOM     27  C   LIG    1       25.100 -30.976   6.701  0.00  0.00    +0.123 A 
ATOM     28  F   LIG    1       25.111 -32.301   6.901  0.00  0.00    -0.205 F 
ATOM     29  C   LIG    1       25.275 -30.476   5.417  0.00  0.00    +0.039 A 
ATOM     30  C   LIG    1       25.264 -29.095   5.209  0.00  0.00    +0.009 A 
ENDBRANCH  23  24
BRANCH  23  31
ATOM     31  O   LIG    1       23.743 -26.237   5.885  0.00  0.00    -0.387 OA
ATOM     32  H   LIG    1       23.143 -26.907   6.255  0.00  0.00    +0.210 HD
ENDBRANCH  23  31
ENDBRANCH  22  23
ENDBRANCH  21  22
ENDBRANCH   5  21
TORSDOF 8
ENDMDL
MODEL 4
REMARK VINA RESULT:     -10.2      3.240      7.019
REMARK  Name = *****
REMARK                            x       y       z     vdW  Elec       q    Type
REMARK                         _______ _______ _______ _____ _____    ______ ____
ROOT
ATOM      1  O   LIG    1       22.739 -22.614   7.625  0.00  0.00    -0.275 OA
ATOM      2  C   LIG    1       23.551 -22.093   6.892  0.00  0.00    +0.226 C 
ATOM      3  N   LIG    1       24.633 -22.559   6.229  0.00  0.00    -0.263 N 
ATOM      4  C   LIG    1       25.054 -21.269   5.671  0.00  0.00    +0.123 C 
ATOM      5  C   LIG    1       23.714 -20.696   6.256  0.00  0.00    +0.101 C 
ENDROOT
BRANCH   3   6
ATOM      6  C   LIG    1       25.068 -23.855   5.968  0.00  0.00    +0.037 A 
ATOM      7  C   LIG    1       24.811 -24.449   4.727  0.00  0.00    +0.026 A 
ATOM      8  C   LIG    1       25.180 -25.775   4.492  0.00  0.00    +0.040 A 
ATOM      9  C   LIG    1       25.811 -26.502   5.495  0.00  0.00    +0.123 A 
ATOM     10  F   LIG    1       26.150 -27.778   5.272  0.00  0.00    -0.205 F 
ATOM     11  C   LIG    1       26.090 -25.925   6.725  0.00  0.00    +0.040 A 
ATOM     12  C   LIG    1       25.724 -24.599   6.959  0.00  0.00    +0.026 A 
ENDBRANCH   3   6
BRANCH   4  13
ATOM     13  C   LIG    1       26.429 -20.665   6.227  0.00  0.00    -0.026 A 
ATOM     14  C   LIG    1       26.841 -20.841   7.566  0.00  0.00    +0.009 A 
ATOM     15  C   LIG    1       28.041 -20.313   8.053  0.00  0.00    +0.045 A 
ATOM     16  C   LIG    1       28.865 -19.590   7.207  0.00  0.00    +0.117 A 
ATOM     17  C   LIG    1       28.511 -19.394   5.880  0.00  0.00    +0.045 A 
ATOM     18  C   LIG    1       27.306 -19.929   5.401  0.00  0.00    +0.009 A 
BRANCH  16  19
ATOM     19  O   LIG    1       30.021 -19.085   7.724  0.00  0.00    -0.507 OA
ATOM     20  H   LIG    1       30.185 -18.212   7.332  0.00  0.00    +0.292 HD
ENDBRANCH  16  19
ENDBRANCH   4  13
BRANCH   5  21
ATOM     21  C   LIG    1       22.630 -20.326   5.237  0.00  0.00    +0.018 C 
BRANCH  21  22
ATOM     22  C   LIG    1       22.565 -18.803   5.035  0.00  0.00    +0.037 C 
BRANCH  22  23
ATOM     23  C   LIG    1       23.111 -18.359   3.669  0.00  0.00    +0.144 C 
BRANCH  23  24
ATOM     24  C   LIG    1       23.916 -17.072   3.746  0.00  0.00    -0.019 A 
ATOM     25  C   LIG    1       25.283 -17.063   3.420  0.00  0.00    +0.009 A 
ATOM     26  C   LIG    1       26.025 -15.880   3.501  0.00  0.00    +0.039 A 
ATOM     27  C   LIG    1       25.406 -14.707   3.911  0.00  0.00    +0.123 A 
ATOM     28  F   LIG    1       26.118 -13.575   3.989  0.00  0.00    -0.205 F 
ATOM     29  C   LIG    1       24.057 -14.691   4.243  0.00  0.00    +0.039 A 
ATOM     30  C   LIG    1       23.314 -15.870   4.161  0.00  0.00    +0.009 A 
ENDBRANCH  23  24
BRANCH  23  31
ATOM     31  O   LIG    1       23.919 -19.406   3.131  0.00  0.00    -0.387 OA
ATOM     32  H   LIG    1       24.028 -20.083   3.821  0.00  0.00    +0.210 HD
ENDBRANCH  23  31
ENDBRANCH  22  23
ENDBRANCH  21  22
ENDBRANCH   5  21
TORSDOF 8
ENDMDL
MODEL 5
REMARK VINA RESULT:      -8.9      3.220      8.618
REMARK  Name = *****
REMARK                            x       y       z     vdW  Elec       q    Type
REMARK                         _______ _______ _______ _____ _____    ______ ____
ROOT
ATOM      1  O   LIG    1       25.963 -21.152   9.654  0.00  0.00    -0.275 OA
ATOM      2  C   LIG    1       26.270 -21.261   8.487  0.00  0.00    +0.226 C 
ATOM      3  N   LIG    1       27.355 -20.879   7.776  0.00  0.00    -0.263 N 
ATOM      4  C   LIG    1       26.863 -21.330   6.469  0.00  0.00    +0.123 C 
ATOM      5  C   LIG    1       25.662 -21.966   7.257  0.00  0.00    +0.101 C 
ENDROOT
BRANCH   3   6
ATOM      6  C   LIG    1       28.609 -20.427   8.175  0.00  0.00    +0.037 A 
ATOM      7  C   LIG    1       28.835 -19.060   8.374  0.00  0.00    +0.026 A 
ATOM      8  C   LIG    1       30.111 -18.598   8.701  0.00  0.00    +0.040 A 
ATOM      9  C   LIG    1       31.157 -19.504   8.834  0.00  0.00    +0.123 A 
ATOM     10  F   LIG    1       32.383 -19.058   9.133  0.00  0.00    -0.205 F 
ATOM     11  C   LIG    1       30.948 -20.864   8.660  0.00  0.00    +0.040 A 
ATOM     12  C   LIG    1       29.672 -21.326   8.335  0.00  0.00    +0.026 A 
ENDBRANCH   3   6
BRANCH   4  13
ATOM     13  C   LIG    1       26.530 -20.187   5.398  0.00  0.00    -0.026 A 
ATOM     14  C   LIG    1       25.292 -20.127   4.721  0.00  0.00    +0.009 A 
ATOM     15  C   LIG    1       25.001 -19.130   3.785  0.00  0.00    +0.045 A 
ATOM     16  C   LIG    1       25.947 -18.161   3.498  0.00  0.00    +0.117 A 
ATOM     17  C   LIG    1       27.177 -18.170   4.140  0.00  0.00    +0.045 A 
ATOM     18  C   LIG    1       27.459 -19.173   5.078  0.00  0.00    +0.009 A 
BRANCH  16  19
ATOM     19  O   LIG    1       25.627 -17.213   2.573  0.00  0.00    -0.507 OA
ATOM     20  H   LIG    1       24.672 -17.041   2.618  0.00  0.00    +0.292 HD
ENDBRANCH  16  19
ENDBRANCH   4  13
BRANCH   5  21
ATOM     21  C   LIG    1       25.639 -23.496   7.342  0.00  0.00    +0.018 C 
BRANCH  21  22
ATOM     22  C   LIG    1       24.702 -24.091   6.278  0.00  0.00    +0.037 C 
BRANCH  22  23
ATOM     23  C   LIG    1       25.375 -25.183   5.433  0.00  0.00    +0.144 C 
BRANCH  23  24
ATOM     24  C   LIG    1       25.221 -26.570   6.033  0.00  0.00    -0.019 A 
ATOM     25  C   LIG    1       24.319 -27.494   5.478  0.00  0.00    +0.009 A 
ATOM     26  C   LIG    1       24.170 -28.767   6.037  0.00  0.00    +0.039 A 
ATOM     27  C   LIG    1       24.919 -29.120   7.153  0.00  0.00    +0.123 A 
ATOM     28  F   LIG    1       24.774 -30.339   7.688  0.00  0.00    -0.205 F 
ATOM     29  C   LIG    1       25.814 -28.224   7.723  0.00  0.00    +0.039 A 
ATOM     30  C   LIG    1       25.965 -26.953   7.165  0.00  0.00    +0.009 A 
ENDBRANCH  23  24
BRANCH  23  31
ATOM     31  O   LIG    1       24.822 -25.159   4.117  0.00  0.00    -0.387 OA
ATOM     32  H   LIG    1       24.039 -25.736   4.113  0.00  0.00    +0.210 HD
ENDBRANCH  23  31
ENDBRANCH  22  23
ENDBRANCH  21  22
ENDBRANCH   5  21
TORSDOF 8
ENDMDL
MODEL 6
REMARK VINA RESULT:      -8.8      2.255      7.907
REMARK  Name = *****
REMARK                            x       y       z     vdW  Elec       q    Type
REMARK                         _______ _______ _______ _____ _____    ______ ____
ROOT
ATOM      1  O   LIG    1       26.257 -21.161   9.270  0.00  0.00    -0.275 OA
ATOM      2  C   LIG    1       26.577 -21.146   8.102  0.00  0.00    +0.226 C 
ATOM      3  N   LIG    1       27.665 -20.679   7.446  0.00  0.00    -0.263 N 
ATOM      4  C   LIG    1       27.193 -21.000   6.094  0.00  0.00    +0.123 C 
ATOM      5  C   LIG    1       25.993 -21.730   6.798  0.00  0.00    +0.101 C 
ENDROOT
BRANCH   3   6
ATOM      6  C   LIG    1       28.907 -20.253   7.905  0.00  0.00    +0.037 A 
ATOM      7  C   LIG    1       29.899 -21.189   8.222  0.00  0.00    +0.026 A 
ATOM      8  C   LIG    1       31.119 -20.767   8.755  0.00  0.00    +0.040 A 
ATOM      9  C   LIG    1       31.347 -19.412   8.964  0.00  0.00    +0.123 A 
ATOM     10  F   LIG    1       32.511 -19.010   9.489  0.00  0.00    -0.205 F 
ATOM     11  C   LIG    1       30.383 -18.469   8.639  0.00  0.00    +0.040 A 
ATOM     12  C   LIG    1       29.165 -18.890   8.104  0.00  0.00    +0.026 A 
ENDBRANCH   3   6
BRANCH   4  13
ATOM     13  C   LIG    1       26.856 -19.759   5.141  0.00  0.00    -0.026 A 
ATOM     14  C   LIG    1       27.728 -18.656   5.005  0.00  0.00    +0.009 A 
ATOM     15  C   LIG    1       27.433 -17.570   4.173  0.00  0.00    +0.045 A 
ATOM     16  C   LIG    1       26.251 -17.559   3.453  0.00  0.00    +0.117 A 
ATOM     17  C   LIG    1       25.363 -18.621   3.545  0.00  0.00    +0.045 A 
ATOM     18  C   LIG    1       25.668 -19.705   4.381  0.00  0.00    +0.009 A 
BRANCH  16  19
ATOM     19  O   LIG    1       25.999 -16.479   2.662  0.00  0.00    -0.507 OA
ATOM     20  H   LIG    1       26.563 -15.742   2.948  0.00  0.00    +0.292 HD
ENDBRANCH  16  19
ENDBRANCH   4  13
BRANCH   5  21
ATOM     21  C   LIG    1       25.992 -23.261   6.726  0.00  0.00    +0.018 C 
BRANCH  21  22
ATOM     22  C   LIG    1       24.675 -23.780   6.125  0.00  0.00    +0.037 C 
BRANCH  22  23
ATOM     23  C   LIG    1       23.433 -23.191   6.812  0.00  0.00    +0.144 C 
BRANCH  23  24
ATOM     24  C   LIG    1       23.002 -21.863   6.213  0.00  0.00    -0.019 A 
ATOM     25  C   LIG    1       22.367 -21.817   4.960  0.00  0.00    +0.009 A 
ATOM     26  C   LIG    1       21.980 -20.593   4.404  0.00  0.00    +0.039 A 
ATOM     27  C   LIG    1       22.229 -19.414   5.096  0.00  0.00    +0.123 A 
ATOM     28  F   LIG    1       21.859 -18.243   4.561  0.00  0.00    -0.205 F 
ATOM     29  C   LIG    1       22.859 -19.433   6.333  0.00  0.00    +0.039 A 
ATOM     30  C   LIG    1       23.245 -20.655   6.891  0.00  0.00    +0.009 A 
ENDBRANCH  23  24
BRANCH  23  31
ATOM     31  O   LIG    1       22.365 -24.134   6.724  0.00  0.00    -0.387 OA
ATOM     32  H   LIG    1       21.891 -24.127   7.573  0.00  0.00    +0.210 HD
ENDBRANCH  23  31
ENDBRANCH  22  23
ENDBRANCH  21  22
ENDBRANCH   5  21
TORSDOF 8
ENDMDL
MODEL 7
REMARK VINA RESULT:      -8.7      7.129     10.437
REMARK  Name = *****
REMARK                            x       y       z     vdW  Elec       q    Type
REMARK                         _______ _______ _______ _____ _____    ______ ____
ROOT
ATOM      1  O   LIG    1       27.132 -31.419   9.238  0.00  0.00    -0.275 OA
ATOM      2  C   LIG    1       26.231 -30.832   8.680  0.00  0.00    +0.226 C 
ATOM      3  N   LIG    1       25.806 -30.794   7.397  0.00  0.00    -0.263 N 
ATOM      4  C   LIG    1       24.745 -29.801   7.603  0.00  0.00    +0.123 C 
ATOM      5  C   LIG    1       25.059 -29.937   9.137  0.00  0.00    +0.101 C 
ENDROOT
BRANCH   3   6
ATOM      6  C   LIG    1       26.111 -31.593   6.299  0.00  0.00    +0.037 A 
ATOM      7  C   LIG    1       27.038 -32.634   6.422  0.00  0.00    +0.026 A 
ATOM      8  C   LIG    1       27.402 -33.388   5.304  0.00  0.00    +0.040 A 
ATOM      9  C   LIG    1       26.833 -33.103   4.068  0.00  0.00    +0.123 A 
ATOM     10  F   LIG    1       27.194 -33.817   2.995  0.00  0.00    -0.205 F 
ATOM     11  C   LIG    1       25.899 -32.087   3.931  0.00  0.00    +0.040 A 
ATOM     12  C   LIG    1       25.534 -31.336   5.048  0.00  0.00    +0.026 A 
ENDBRANCH   3   6
BRANCH   4  13
ATOM     13  C   LIG    1       24.964 -28.370   6.921  0.00  0.00    -0.026 A 
ATOM     14  C   LIG    1       25.906 -27.438   7.411  0.00  0.00    +0.009 A 
ATOM     15  C   LIG    1       26.097 -26.187   6.816  0.00  0.00    +0.045 A 
ATOM     16  C   LIG    1       25.345 -25.832   5.709  0.00  0.00    +0.117 A 
ATOM     17  C   LIG    1       24.411 -26.712   5.183  0.00  0.00    +0.045 A 
ATOM     18  C   LIG    1       24.228 -27.966   5.786  0.00  0.00    +0.009 A 
BRANCH  16  19
ATOM     19  O   LIG    1       25.557 -24.600   5.166  0.00  0.00    -0.507 OA
ATOM     20  H   LIG    1       24.737 -24.083   5.232  0.00  0.00    +0.292 HD
ENDBRANCH  16  19
ENDBRANCH   4  13
BRANCH   5  21
ATOM     21  C   LIG    1       24.002 -30.649   9.987  0.00  0.00    +0.018 C 
BRANCH  21  22
ATOM     22  C   LIG    1       23.732 -29.876  11.288  0.00  0.00    +0.037 C 
BRANCH  22  23
ATOM     23  C   LIG    1       25.014 -29.581  12.082  0.00  0.00    +0.144 C 
BRANCH  23  24
ATOM     24  C   LIG    1       25.071 -28.153  12.600  0.00  0.00    -0.019 A 
ATOM     25  C   LIG    1       26.264 -27.413  12.527  0.00  0.00    +0.009 A 
ATOM     26  C   LIG    1       26.317 -26.103  13.014  0.00  0.00    +0.039 A 
ATOM     27  C   LIG    1       25.183 -25.531  13.576  0.00  0.00    +0.123 A 
ATOM     28  F   LIG    1       25.237 -24.276  14.043  0.00  0.00    -0.205 F 
ATOM     29  C   LIG    1       23.994 -26.243  13.663  0.00  0.00    +0.039 A 
ATOM     30  C   LIG    1       23.938 -27.550  13.176  0.00  0.00    +0.009 A 
ENDBRANCH  23  24
BRANCH  23  31
ATOM     31  O   LIG    1       25.105 -30.497  13.172  0.00  0.00    -0.387 OA
ATOM     32  H   LIG    1       25.878 -30.247  13.708  0.00  0.00    +0.210 HD
ENDBRANCH  23  31
ENDBRANCH  22  23
ENDBRANCH  21  22
ENDBRANCH   5  21
TORSDOF 8
ENDMDL
MODEL 8
REMARK VINA RESULT:      -8.7      5.730      9.297
REMARK  Name = *****
REMARK                            x       y       z     vdW  Elec       q    Type
REMARK                         _______ _______ _______ _____ _____    ______ ____
ROOT
ATOM      1  O   LIG    1       27.162 -28.876   9.620  0.00  0.00    -0.275 OA
ATOM      2  C   LIG    1       26.269 -29.052   8.822  0.00  0.00    +0.226 C 
ATOM      3  N   LIG    1       25.141 -29.798   8.845  0.00  0.00    -0.263 N 
ATOM      4  C   LIG    1       24.707 -29.485   7.478  0.00  0.00    +0.123 C 
ATOM      5  C   LIG    1       25.892 -28.453   7.450  0.00  0.00    +0.101 C 
ENDROOT
BRANCH   3   6
ATOM      6  C   LIG    1       24.489 -30.454   9.884  0.00  0.00    +0.037 A 
ATOM      7  C   LIG    1       25.122 -31.501  10.564  0.00  0.00    +0.026 A 
ATOM      8  C   LIG    1       24.440 -32.209  11.556  0.00  0.00    +0.040 A 
ATOM      9  C   LIG    1       23.130 -31.865  11.870  0.00  0.00    +0.123 A 
ATOM     10  F   LIG    1       22.474 -32.555  12.810  0.00  0.00    -0.205 F 
ATOM     11  C   LIG    1       22.493 -30.819  11.219  0.00  0.00    +0.040 A 
ATOM     12  C   LIG    1       23.174 -30.110  10.230  0.00  0.00    +0.026 A 
ENDBRANCH   3   6
BRANCH   4  13
ATOM     13  C   LIG    1       24.741 -30.689   6.424  0.00  0.00    -0.026 A 
ATOM     14  C   LIG    1       25.726 -30.780   5.416  0.00  0.00    +0.009 A 
ATOM     15  C   LIG    1       25.756 -31.831   4.494  0.00  0.00    +0.045 A 
ATOM     16  C   LIG    1       24.794 -32.824   4.555  0.00  0.00    +0.117 A 
ATOM     17  C   LIG    1       23.807 -32.787   5.530  0.00  0.00    +0.045 A 
ATOM     18  C   LIG    1       23.787 -31.729   6.451  0.00  0.00    +0.009 A 
BRANCH  16  19
ATOM     19  O   LIG    1       24.853 -33.825   3.633  0.00  0.00    -0.507 OA
ATOM     20  H   LIG    1       25.580 -33.640   3.016  0.00  0.00    +0.292 HD
ENDBRANCH  16  19
ENDBRANCH   4  13
BRANCH   5  21
ATOM     21  C   LIG    1       25.505 -26.971   7.481  0.00  0.00    +0.018 C 
BRANCH  21  22
ATOM     22  C   LIG    1       25.798 -26.299   6.130  0.00  0.00    +0.037 C 
BRANCH  22  23
ATOM     23  C   LIG    1       24.737 -25.258   5.740  0.00  0.00    +0.144 C 
BRANCH  23  24
ATOM     24  C   LIG    1       24.881 -23.955   6.508  0.00  0.00    -0.019 A 
ATOM     25  C   LIG    1       23.758 -23.148   6.764  0.00  0.00    +0.009 A 
ATOM     26  C   LIG    1       23.893 -21.943   7.462  0.00  0.00    +0.039 A 
ATOM     27  C   LIG    1       25.147 -21.540   7.903  0.00  0.00    +0.123 A 
ATOM     28  F   LIG    1       25.274 -20.386   8.570  0.00  0.00    -0.205 F 
ATOM     29  C   LIG    1       26.272 -22.317   7.659  0.00  0.00    +0.039 A 
ATOM     30  C   LIG    1       26.139 -23.521   6.964  0.00  0.00    +0.009 A 
ENDBRANCH  23  24
BRANCH  23  31
ATOM     31  O   LIG    1       24.827 -25.008   4.338  0.00  0.00    -0.387 OA
ATOM     32  H   LIG    1       24.090 -24.423   4.091  0.00  0.00    +0.210 HD
ENDBRANCH  23  31
ENDBRANCH  22  23
ENDBRANCH  21  22
ENDBRANCH   5  21
TORSDOF 8
ENDMDL
MODEL 9
REMARK VINA RESULT:      -8.7      3.081      6.947
REMARK  Name = *****
REMARK                            x       y       z     vdW  Elec       q    Type
REMARK                         _______ _______ _______ _____ _____    ______ ____
ROOT
ATOM      1  O   LIG    1       23.297 -22.526   8.312  0.00  0.00    -0.275 OA
ATOM      2  C   LIG    1       24.068 -22.042   7.512  0.00  0.00    +0.226 C 
ATOM      3  N   LIG    1       24.977 -22.575   6.664  0.00  0.00    -0.263 N 
ATOM      4  C   LIG    1       25.495 -21.300   6.154  0.00  0.00    +0.123 C 
ATOM      5  C   LIG    1       24.336 -20.622   6.971  0.00  0.00    +0.101 C 
ENDROOT
BRANCH   3   6
ATOM      6  C   LIG    1       25.190 -23.884   6.242  0.00  0.00    +0.037 A 
ATOM      7  C   LIG    1       25.817 -24.804   7.091  0.00  0.00    +0.026 A 
ATOM      8  C   LIG    1       26.099 -26.096   6.641  0.00  0.00    +0.040 A 
ATOM      9  C   LIG    1       25.750 -26.466   5.348  0.00  0.00    +0.123 A 
ATOM     10  F   LIG    1       26.035 -27.700   4.914  0.00  0.00    -0.205 F 
ATOM     11  C   LIG    1       25.113 -25.573   4.499  0.00  0.00    +0.040 A 
ATOM     12  C   LIG    1       24.828 -24.284   4.949  0.00  0.00    +0.026 A 
ENDBRANCH   3   6
BRANCH   4  13
ATOM     13  C   LIG    1       27.001 -20.931   6.550  0.00  0.00    -0.026 A 
ATOM     14  C   LIG    1       27.741 -19.945   5.861  0.00  0.00    +0.009 A 
ATOM     15  C   LIG    1       29.057 -19.623   6.205  0.00  0.00    +0.045 A 
ATOM     16  C   LIG    1       29.673 -20.284   7.255  0.00  0.00    +0.117 A 
ATOM     17  C   LIG    1       28.989 -21.256   7.970  0.00  0.00    +0.045 A 
ATOM     18  C   LIG    1       27.669 -21.571   7.617  0.00  0.00    +0.009 A 
BRANCH  16  19
ATOM     19  O   LIG    1       30.959 -19.946   7.552  0.00  0.00    -0.507 OA
ATOM     20  H   LIG    1       31.557 -20.441   6.968  0.00  0.00    +0.292 HD
ENDBRANCH  16  19
ENDBRANCH   4  13
BRANCH   5  21
ATOM     21  C   LIG    1       23.189 -20.021   6.152  0.00  0.00    +0.018 C 
BRANCH  21  22
ATOM     22  C   LIG    1       22.713 -21.005   5.072  0.00  0.00    +0.037 C 
BRANCH  22  23
ATOM     23  C   LIG    1       23.108 -20.568   3.652  0.00  0.00    +0.144 C 
BRANCH  23  24
ATOM     24  C   LIG    1       23.845 -19.240   3.628  0.00  0.00    -0.019 A 
ATOM     25  C   LIG    1       23.169 -18.041   3.915  0.00  0.00    +0.009 A 
ATOM     26  C   LIG    1       23.846 -16.818   3.881  0.00  0.00    +0.039 A 
ATOM     27  C   LIG    1       25.197 -16.788   3.560  0.00  0.00    +0.123 A 
ATOM     28  F   LIG    1       25.844 -15.615   3.528  0.00  0.00    -0.205 F 
ATOM     29  C   LIG    1       25.887 -17.958   3.269  0.00  0.00    +0.039 A 
ATOM     30  C   LIG    1       25.213 -19.181   3.303  0.00  0.00    +0.009 A 
ENDBRANCH  23  24
BRANCH  23  31
ATOM     31  O   LIG    1       23.919 -21.586   3.064  0.00  0.00    -0.387 OA
ATOM     32  H   LIG    1       24.763 -21.609   3.546  0.00  0.00    +0.210 HD
ENDBRANCH  23  31
ENDBRANCH  22  23
ENDBRANCH  21  22
ENDBRANCH   5  21
TORSDOF 8
ENDMDL
