MODEL 1
REMARK VINA RESULT:      -0.3      0.000      0.000
REMARK  Name = *****
REMARK                            x       y       z     vdW  Elec       q    Type
REMARK                         _______ _______ _______ _____ _____    ______ ____
ROOT
ATOM      1  C   LIG    1       23.639 -13.621   5.649  0.00  0.00    +0.158 C 
ATOM      2  N   LIG    1       23.656 -14.030   4.216  0.00  0.00    -0.198 N 
ATOM      3  S   LIG    1       24.211 -12.788   3.164  0.00  0.00    +0.076 S 
ATOM      4  O   LIG    1       23.956 -11.494   3.757  0.00  0.00    -0.150 OA
ATOM      5  O   LIG    1       23.827 -13.123   1.812  0.00  0.00    -0.150 OA
ATOM      6  C   LIG    1       25.917 -12.962   3.179  0.00  0.00    +0.126 A 
ATOM      7  C   LIG    1       26.419 -14.218   3.435  0.00  0.00    +0.082 A 
ATOM      8  S   LIG    1       28.134 -14.169   3.423  0.00  0.00    -0.092 S 
ATOM      9  C   LIG    1       28.160 -12.488   3.073  0.00  0.00    +0.048 A 
ATOM     10  C   LIG    1       25.638 -15.393   3.663  0.00  0.00    +0.160 C 
ATOM     11  C   LIG    1       26.892 -11.957   2.967  0.00  0.00    +0.037 A 
ATOM     12  C   LIG    1       24.320 -15.315   3.970  0.00  0.00    +0.155 C 
ENDROOT
BRANCH  12  13
ATOM     13  C   LIG    1       23.506 -16.568   4.143  0.00  0.00    +0.269 C 
ATOM     14  N   LIG    1       24.264 -17.704   3.982  0.00  0.00    -0.265 N 
ATOM     15  H   LIG    1       25.250 -17.568   3.796  0.00  0.00    +0.157 HD
ATOM     16  O   LIG    1       22.314 -16.477   4.418  0.00  0.00    -0.268 OA
BRANCH  14  17
ATOM     17  C   LIG    1       23.801 -19.017   4.110  0.00  0.00    +0.125 A 
ATOM     18  N   LIG    1       24.431 -20.028   3.490  0.00  0.00    -0.240 NA
ATOM     19  C   LIG    1       23.932 -21.275   3.642  0.00  0.00    +0.113 A 
ATOM     20  C   LIG    1       22.818 -21.568   4.406  0.00  0.00    +0.020 A 
ATOM     21  C   LIG    1       22.177 -20.518   5.049  0.00  0.00    +0.005 A 
ATOM     22  C   LIG    1       22.672 -19.224   4.899  0.00  0.00    +0.044 A 
ENDBRANCH  14  17
ENDBRANCH  12  13
BRANCH  10  23
ATOM     23  O   LIG    1       26.322 -16.582   3.487  0.00  0.00    -0.504 OA
ATOM     24  H   LIG    1       27.161 -16.395   3.006  0.00  0.00    +0.292 HD
ENDBRANCH  10  23
TORSDOF 3
ENDMDL
MODEL 2
REMARK VINA RESULT:       0.8      1.371      1.539
REMARK  Name = *****
REMARK                            x       y       z     vdW  Elec       q    Type
REMARK                         _______ _______ _______ _____ _____    ______ ____
ROOT
ATOM      1  C   LIG    1       23.794 -14.774   5.484  0.00  0.00    +0.158 C 
ATOM      2  N   LIG    1       24.091 -14.951   4.034  0.00  0.00    -0.198 N 
ATOM      3  S   LIG    1       24.480 -13.477   3.237  0.00  0.00    +0.076 S 
ATOM      4  O   LIG    1       23.862 -12.369   3.931  0.00  0.00    -0.150 OA
ATOM      5  O   LIG    1       24.362 -13.678   1.812  0.00  0.00    -0.150 OA
ATOM      6  C   LIG    1       26.164 -13.292   3.505  0.00  0.00    +0.126 A 
ATOM      7  C   LIG    1       26.901 -14.441   3.689  0.00  0.00    +0.082 A 
ATOM      8  S   LIG    1       28.547 -14.035   3.958  0.00  0.00    -0.092 S 
ATOM      9  C   LIG    1       28.234 -12.352   3.817  0.00  0.00    +0.048 A 
ATOM     10  C   LIG    1       26.385 -15.773   3.649  0.00  0.00    +0.160 C 
ATOM     11  C   LIG    1       26.904 -12.087   3.572  0.00  0.00    +0.037 A 
ATOM     12  C   LIG    1       25.056 -16.018   3.748  0.00  0.00    +0.155 C 
ENDROOT
BRANCH  12  13
ATOM     13  C   LIG    1       24.534 -17.424   3.640  0.00  0.00    +0.269 C 
ATOM     14  N   LIG    1       23.410 -17.620   4.407  0.00  0.00    -0.265 N 
ATOM     15  H   LIG    1       23.065 -16.817   4.917  0.00  0.00    +0.157 HD
ATOM     16  O   LIG    1       25.107 -18.223   2.905  0.00  0.00    -0.268 OA
BRANCH  14  17
ATOM     17  C   LIG    1       22.680 -18.809   4.493  0.00  0.00    +0.125 A 
ATOM     18  N   LIG    1       21.479 -18.919   3.900  0.00  0.00    -0.240 NA
ATOM     19  C   LIG    1       20.815 -20.088   4.025  0.00  0.00    +0.113 A 
ATOM     20  C   LIG    1       21.304 -21.179   4.720  0.00  0.00    +0.020 A 
ATOM     21  C   LIG    1       22.548 -21.060   5.324  0.00  0.00    +0.005 A 
ATOM     22  C   LIG    1       23.246 -19.859   5.212  0.00  0.00    +0.044 A 
ENDBRANCH  14  17
ENDBRANCH  12  13
BRANCH  10  23
ATOM     23  O   LIG    1       27.339 -16.754   3.446  0.00  0.00    -0.504 OA
ATOM     24  H   LIG    1       28.128 -16.546   3.999  0.00  0.00    +0.292 HD
ENDBRANCH  10  23
TORSDOF 3
ENDMDL
MODEL 3
REMARK VINA RESULT:       1.4      1.616      2.714
REMARK  Name = *****
REMARK                            x       y       z     vdW  Elec       q    Type
REMARK                         _______ _______ _______ _____ _____    ______ ____
ROOT
ATOM      1  C   LIG    1       26.371 -16.649   2.964  0.00  0.00    +0.158 C 
ATOM      2  N   LIG    1       25.819 -15.830   4.080  0.00  0.00    -0.198 N 
ATOM      3  S   LIG    1       26.742 -14.416   4.403  0.00  0.00    +0.076 S 
ATOM      4  O   LIG    1       28.114 -14.623   3.993  0.00  0.00    -0.150 OA
ATOM      5  O   LIG    1       26.379 -13.916   5.708  0.00  0.00    -0.150 OA
ATOM      6  C   LIG    1       26.116 -13.252   3.310  0.00  0.00    +0.126 A 
ATOM      7  C   LIG    1       24.807 -13.404   2.913  0.00  0.00    +0.082 A 
ATOM      8  S   LIG    1       24.388 -12.155   1.812  0.00  0.00    -0.092 S 
ATOM      9  C   LIG    1       25.951 -11.449   1.901  0.00  0.00    +0.048 A 
ATOM     10  C   LIG    1       23.919 -14.433   3.354  0.00  0.00    +0.160 C 
ATOM     11  C   LIG    1       26.790 -12.142   2.747  0.00  0.00    +0.037 A 
ATOM     12  C   LIG    1       24.384 -15.552   3.963  0.00  0.00    +0.155 C 
ENDROOT
BRANCH  12  13
ATOM     13  C   LIG    1       23.424 -16.590   4.475  0.00  0.00    +0.269 C 
ATOM     14  N   LIG    1       23.782 -17.861   4.090  0.00  0.00    -0.265 N 
ATOM     15  H   LIG    1       24.633 -17.947   3.548  0.00  0.00    +0.157 HD
ATOM     16  O   LIG    1       22.473 -16.241   5.167  0.00  0.00    -0.268 OA
BRANCH  14  17
ATOM     17  C   LIG    1       23.107 -19.036   4.434  0.00  0.00    +0.125 A 
ATOM     18  N   LIG    1       23.704 -19.970   5.194  0.00  0.00    -0.240 NA
ATOM     19  C   LIG    1       23.007 -21.090   5.485  0.00  0.00    +0.113 A 
ATOM     20  C   LIG    1       21.714 -21.324   5.055  0.00  0.00    +0.020 A 
ATOM     21  C   LIG    1       21.103 -20.351   4.277  0.00  0.00    +0.005 A 
ATOM     22  C   LIG    1       21.808 -19.191   3.960  0.00  0.00    +0.044 A 
ENDBRANCH  14  17
ENDBRANCH  12  13
BRANCH  10  23
ATOM     23  O   LIG    1       22.577 -14.158   3.162  0.00  0.00    -0.504 OA
ATOM     24  H   LIG    1       22.471 -13.688   2.302  0.00  0.00    +0.292 HD
ENDBRANCH  10  23
TORSDOF 3
ENDMDL
