MODEL 1
REMARK VINA RESULT:      -0.9      0.000      0.000
REMARK  Name = *****
REMARK                            x       y       z     vdW  Elec       q    Type
REMARK                         _______ _______ _______ _____ _____    ______ ____
ROOT
ATOM      1  C   LIG    1       26.257 -16.469   3.532  0.00  0.00    +0.063 C 
ATOM      2  C   LIG    1       25.236 -17.573   3.870  0.00  0.00    -0.030 A 
ATOM      3  C   LIG    1       25.667 -18.922   4.041  0.00  0.00    -0.020 A 
ATOM      4  C   LIG    1       24.718 -19.914   4.379  0.00  0.00    +0.089 A 
ATOM      5  C   LIG    1       23.370 -19.581   4.529  0.00  0.00    +0.177 A 
ATOM      6  C   LIG    1       22.955 -18.273   4.349  0.00  0.00    +0.160 A 
ATOM      7 CL   LIG    1       25.157 -21.572   4.645  0.00  0.00    -0.079 Cl
ATOM      8  C   LIG    1       27.135 -19.263   3.866  0.00  0.00    +0.052 C 
ATOM      9  C   LIG    1       28.013 -18.636   4.954  0.00  0.00    +0.085 C 
ATOM     10  N   LIG    1       28.424 -17.264   4.656  0.00  0.00    -0.315 NA
ATOM     11  H   LIG    1       29.108 -16.972   5.355  0.00  0.00    +0.122 HD
ATOM     12  C   LIG    1       23.866 -17.277   4.026  0.00  0.00    +0.053 A 
ATOM     13  C   LIG    1       27.312 -16.298   4.667  0.00  0.00    +0.093 C 
ENDROOT
BRANCH   1  17
ATOM     14  C   LIG    1       24.485 -12.653   2.479  0.00  0.00    +0.117 A 
ATOM     15  C   LIG    1       25.696 -13.019   1.904  0.00  0.00    +0.045 A 
ATOM     16  C   LIG    1       26.277 -14.246   2.232  0.00  0.00    +0.008 A 
ATOM     17  C   LIG    1       25.645 -15.119   3.136  0.00  0.00    -0.038 A 
ATOM     18  C   LIG    1       24.425 -14.719   3.713  0.00  0.00    +0.008 A 
ATOM     19  C   LIG    1       23.845 -13.492   3.383  0.00  0.00    +0.045 A 
BRANCH  14  20
ATOM     20  O   LIG    1       23.955 -11.447   2.129  0.00  0.00    -0.507 OA
ATOM     21  H   LIG    1       23.081 -11.362   2.544  0.00  0.00    +0.292 HD
ENDBRANCH  14  20
ENDBRANCH   1  17
BRANCH   6  22
ATOM     22  O   LIG    1       21.637 -17.946   4.495  0.00  0.00    -0.503 OA
ATOM     23  H   LIG    1       21.156 -18.590   3.937  0.00  0.00    +0.292 HD
ENDBRANCH   6  22
BRANCH   5  24
ATOM     24  O   LIG    1       22.407 -20.503   4.855  0.00  0.00    -0.502 OA
ATOM     25  H   LIG    1       22.448 -21.202   4.173  0.00  0.00    +0.292 HD
ENDBRANCH   5  24
TORSDOF 4
ENDMDL
MODEL 2
REMARK VINA RESULT:      -0.1      3.531      6.476
REMARK  Name = *****
REMARK                            x       y       z     vdW  Elec       q    Type
REMARK                         _______ _______ _______ _____ _____    ______ ____
ROOT
ATOM      1  C   LIG    1       24.065 -15.940   3.678  0.00  0.00    +0.063 C 
ATOM      2  C   LIG    1       25.509 -15.405   3.674  0.00  0.00    -0.030 A 
ATOM      3  C   LIG    1       25.777 -14.065   3.261  0.00  0.00    -0.020 A 
ATOM      4  C   LIG    1       27.106 -13.584   3.292  0.00  0.00    +0.089 A 
ATOM      5  C   LIG    1       28.149 -14.416   3.707  0.00  0.00    +0.177 A 
ATOM      6  C   LIG    1       27.886 -15.718   4.093  0.00  0.00    +0.160 A 
ATOM      7 CL   LIG    1       27.520 -11.959   2.847  0.00  0.00    -0.079 Cl
ATOM      8  C   LIG    1       24.630 -13.182   2.808  0.00  0.00    +0.052 C 
ATOM      9  C   LIG    1       23.665 -12.848   3.949  0.00  0.00    +0.085 C 
ATOM     10  N   LIG    1       22.634 -13.865   4.161  0.00  0.00    -0.315 NA
ATOM     11  H   LIG    1       21.960 -13.507   4.839  0.00  0.00    +0.122 HD
ATOM     12  C   LIG    1       26.590 -16.214   4.081  0.00  0.00    +0.053 A 
ATOM     13  C   LIG    1       23.161 -15.143   4.667  0.00  0.00    +0.093 C 
ENDROOT
BRANCH   1  17
ATOM     14  C   LIG    1       23.619 -20.207   4.317  0.00  0.00    +0.117 A 
ATOM     15  C   LIG    1       24.794 -19.726   3.754  0.00  0.00    +0.045 A 
ATOM     16  C   LIG    1       24.952 -18.355   3.544  0.00  0.00    +0.008 A 
ATOM     17  C   LIG    1       23.935 -17.453   3.904  0.00  0.00    -0.038 A 
ATOM     18  C   LIG    1       22.750 -17.967   4.462  0.00  0.00    +0.008 A 
ATOM     19  C   LIG    1       22.594 -19.339   4.672  0.00  0.00    +0.045 A 
BRANCH  14  20
ATOM     20  O   LIG    1       23.509 -21.553   4.504  0.00  0.00    -0.507 OA
ATOM     21  H   LIG    1       22.567 -21.790   4.490  0.00  0.00    +0.292 HD
ENDBRANCH  14  20
ENDBRANCH   1  17
BRANCH   6  22
ATOM     22  O   LIG    1       28.905 -16.532   4.498  0.00  0.00    -0.503 OA
ATOM     23  H   LIG    1       29.711 -15.982   4.420  0.00  0.00    +0.292 HD
ENDBRANCH   6  22
BRANCH   5  24
ATOM     24  O   LIG    1       29.457 -14.001   3.756  0.00  0.00    -0.502 OA
ATOM     25  H   LIG    1       29.995 -14.733   3.394  0.00  0.00    +0.292 HD
ENDBRANCH   5  24
TORSDOF 4
ENDMDL
MODEL 3
REMARK VINA RESULT:       1.5      1.799      2.387
REMARK  Name = *****
REMARK                            x       y       z     vdW  Elec       q    Type
REMARK                         _______ _______ _______ _____ _____    ______ ____
ROOT
ATOM      1  C   LIG    1       26.637 -16.985   3.608  0.00  0.00    +0.063 C 
ATOM      2  C   LIG    1       25.135 -17.257   3.812  0.00  0.00    -0.030 A 
ATOM      3  C   LIG    1       24.632 -18.591   3.755  0.00  0.00    -0.020 A 
ATOM      4  C   LIG    1       23.255 -18.821   3.975  0.00  0.00    +0.089 A 
ATOM      5  C   LIG    1       22.391 -17.753   4.228  0.00  0.00    +0.177 A 
ATOM      6  C   LIG    1       22.881 -16.459   4.269  0.00  0.00    +0.160 A 
ATOM      7 CL   LIG    1       22.563 -20.412   3.964  0.00  0.00    -0.079 Cl
ATOM      8  C   LIG    1       25.587 -19.735   3.472  0.00  0.00    +0.052 C 
ATOM      9  C   LIG    1       26.592 -19.951   4.606  0.00  0.00    +0.085 C 
ATOM     10  N   LIG    1       27.779 -19.100   4.508  0.00  0.00    -0.315 NA
ATOM     11  H   LIG    1       28.451 -19.399   5.215  0.00  0.00    +0.122 HD
ATOM     12  C   LIG    1       24.230 -16.205   4.067  0.00  0.00    +0.053 A 
ATOM     13  C   LIG    1       27.499 -17.670   4.712  0.00  0.00    +0.093 C 
ENDROOT
BRANCH   1  17
ATOM     14  C   LIG    1       27.773 -12.820   3.184  0.00  0.00    +0.117 A 
ATOM     15  C   LIG    1       26.679 -13.299   2.473  0.00  0.00    +0.045 A 
ATOM     16  C   LIG    1       26.301 -14.638   2.601  0.00  0.00    +0.008 A 
ATOM     17  C   LIG    1       27.013 -15.505   3.449  0.00  0.00    -0.038 A 
ATOM     18  C   LIG    1       28.123 -14.998   4.149  0.00  0.00    +0.008 A 
ATOM     19  C   LIG    1       28.500 -13.658   4.020  0.00  0.00    +0.045 A 
BRANCH  14  20
ATOM     20  O   LIG    1       28.105 -11.507   3.028  0.00  0.00    -0.507 OA
ATOM     21  H   LIG    1       27.660 -10.992   3.720  0.00  0.00    +0.292 HD
ENDBRANCH  14  20
ENDBRANCH   1  17
BRANCH   6  22
ATOM     22  O   LIG    1       22.037 -15.415   4.516  0.00  0.00    -0.503 OA
ATOM     23  H   LIG    1       22.498 -14.630   4.157  0.00  0.00    +0.292 HD
ENDBRANCH   6  22
BRANCH   5  24
ATOM     24  O   LIG    1       21.046 -17.919   4.447  0.00  0.00    -0.502 OA
ATOM     25  H   LIG    1       20.586 -17.387   3.768  0.00  0.00    +0.292 HD
ENDBRANCH   5  24
TORSDOF 4
ENDMDL
MODEL 4
REMARK VINA RESULT:       1.8      2.856      3.735
REMARK  Name = *****
REMARK                            x       y       z     vdW  Elec       q    Type
REMARK                         _______ _______ _______ _____ _____    ______ ____
ROOT
ATOM      1  C   LIG    1       24.592 -17.501   4.014  0.00  0.00    +0.063 C 
ATOM      2  C   LIG    1       25.853 -18.173   4.590  0.00  0.00    -0.030 A 
ATOM      3  C   LIG    1       25.753 -19.421   5.275  0.00  0.00    -0.020 A 
ATOM      4  C   LIG    1       26.926 -20.035   5.770  0.00  0.00    +0.089 A 
ATOM      5  C   LIG    1       28.169 -19.419   5.606  0.00  0.00    +0.177 A 
ATOM      6  C   LIG    1       28.260 -18.203   4.953  0.00  0.00    +0.160 A 
ATOM      7 CL   LIG    1       26.904 -21.569   6.580  0.00  0.00    -0.079 Cl
ATOM      8  C   LIG    1       24.391 -20.068   5.448  0.00  0.00    +0.052 C 
ATOM      9  C   LIG    1       23.789 -20.525   4.117  0.00  0.00    +0.085 C 
ATOM     10  N   LIG    1       23.060 -19.470   3.411  0.00  0.00    -0.315 NA
ATOM     11  H   LIG    1       22.581 -19.886   2.612  0.00  0.00    +0.122 HD
ATOM     12  C   LIG    1       27.126 -17.582   4.449  0.00  0.00    +0.053 A 
ATOM     13  C   LIG    1       23.922 -18.384   2.917  0.00  0.00    +0.093 C 
ENDROOT
BRANCH   1  17
ATOM     14  C   LIG    1       25.106 -13.407   2.677  0.00  0.00    +0.117 A 
ATOM     15  C   LIG    1       26.101 -14.338   2.404  0.00  0.00    +0.045 A 
ATOM     16  C   LIG    1       25.948 -15.660   2.827  0.00  0.00    +0.008 A 
ATOM     17  C   LIG    1       24.793 -16.061   3.522  0.00  0.00    -0.038 A 
ATOM     18  C   LIG    1       23.806 -15.096   3.795  0.00  0.00    +0.008 A 
ATOM     19  C   LIG    1       23.960 -13.774   3.371  0.00  0.00    +0.045 A 
BRANCH  14  20
ATOM     20  O   LIG    1       25.298 -12.128   2.245  0.00  0.00    -0.507 OA
ATOM     21  H   LIG    1       25.045 -12.077   1.309  0.00  0.00    +0.292 HD
ENDBRANCH  14  20
ENDBRANCH   1  17
BRANCH   6  22
ATOM     22  O   LIG    1       29.475 -17.600   4.792  0.00  0.00    -0.503 OA
ATOM     23  H   LIG    1       29.544 -16.971   5.539  0.00  0.00    +0.292 HD
ENDBRANCH   6  22
BRANCH   5  24
ATOM     24  O   LIG    1       29.339 -19.970   6.068  0.00  0.00    -0.502 OA
ATOM     25  H   LIG    1       29.175 -20.236   6.994  0.00  0.00    +0.292 HD
ENDBRANCH   5  24
TORSDOF 4
ENDMDL
