MODEL 1
REMARK VINA RESULT:      -9.2      0.000      0.000
REMARK  Name = *****
REMARK                            x       y       z     vdW  Elec       q    Type
REMARK                         _______ _______ _______ _____ _____    ______ ____
ROOT
ATOM      1  C   LIG    1       28.541 -19.949   6.409  0.00  0.00    +0.162 A 
ATOM      2  C   LIG    1       28.170 -20.271   7.742  0.00  0.00    +0.162 A 
ATOM      3  C   LIG    1       26.834 -20.504   8.062  0.00  0.00    +0.061 A 
ATOM      4  C   LIG    1       25.928 -20.520   7.026  0.00  0.00    +0.025 A 
ATOM      5  C   LIG    1       24.542 -20.977   7.068  0.00  0.00    +0.167 C 
ATOM      6  C   LIG    1       24.156 -21.395   5.660  0.00  0.00    +0.065 C 
ATOM      7  C   LIG    1       25.070 -20.463   4.809  0.00  0.00    +0.047 C 
ATOM      8  O   LIG    1       23.876 -21.047   8.069  0.00  0.00    -0.292 OA
ATOM      9  C   LIG    1       26.264 -20.278   5.700  0.00  0.00    -0.033 A 
ATOM     10  C   LIG    1       27.570 -19.948   5.384  0.00  0.00    +0.053 A 
ENDROOT
BRANCH   1  12
ATOM     11  C   LIG    1       30.407 -18.467   6.264  0.00  0.00    +0.277 C 
ATOM     12  O   LIG    1       29.823 -19.731   5.959  0.00  0.00    -0.491 OA
ENDBRANCH   1  12
BRANCH   2  13
ATOM     13  O   LIG    1       29.149 -20.360   8.694  0.00  0.00    -0.491 OA
ATOM     14  C   LIG    1       30.052 -21.455   8.592  0.00  0.00    +0.277 C 
ENDBRANCH   2  13
BRANCH   6  15
ATOM     15  C   LIG    1       24.491 -22.884   5.388  0.00  0.00    +0.015 C 
BRANCH  15  16
ATOM     16  C   LIG    1       24.458 -23.833   6.612  0.00  0.00    -0.008 C 
ATOM     17  C   LIG    1       23.509 -25.028   6.457  0.00  0.00    +0.019 C 
ATOM     18  C   LIG    1       24.057 -26.133   5.545  0.00  0.00    +0.085 C 
ATOM     19  N   LIG    1       25.424 -26.591   5.838  0.00  0.00    -0.298 NA
ATOM     20  C   LIG    1       26.334 -25.436   5.953  0.00  0.00    +0.085 C 
ATOM     21  C   LIG    1       25.860 -24.371   6.953  0.00  0.00    +0.019 C 
BRANCH  19  22
ATOM     22  C   LIG    1       25.550 -27.474   7.012  0.00  0.00    +0.119 C 
BRANCH  22  23
ATOM     23  C   LIG    1       25.072 -28.905   6.851  0.00  0.00    -0.033 A 
ATOM     24  C   LIG    1       24.471 -29.560   7.940  0.00  0.00    +0.005 A 
ATOM     25  C   LIG    1       24.102 -30.905   7.855  0.00  0.00    +0.000 A 
ATOM     26  C   LIG    1       24.337 -31.616   6.682  0.00  0.00    +0.000 A 
ATOM     27  C   LIG    1       24.933 -30.983   5.593  0.00  0.00    +0.000 A 
ATOM     28  C   LIG    1       25.296 -29.633   5.675  0.00  0.00    +0.005 A 
ENDBRANCH  22  23
ENDBRANCH  19  22
ENDBRANCH  15  16
ENDBRANCH   6  15
TORSDOF 6
ENDMDL
MODEL 2
REMARK VINA RESULT:      -8.7      1.984      3.886
REMARK  Name = *****
REMARK                            x       y       z     vdW  Elec       q    Type
REMARK                         _______ _______ _______ _____ _____    ______ ____
ROOT
ATOM      1  C   LIG    1       23.684 -19.907   4.937  0.00  0.00    +0.162 A 
ATOM      2  C   LIG    1       24.974 -19.610   4.422  0.00  0.00    +0.162 A 
ATOM      3  C   LIG    1       26.115 -20.045   5.096  0.00  0.00    +0.061 A 
ATOM      4  C   LIG    1       25.933 -20.852   6.195  0.00  0.00    +0.025 A 
ATOM      5  C   LIG    1       26.949 -21.621   6.907  0.00  0.00    +0.167 C 
ATOM      6  C   LIG    1       26.248 -22.784   7.589  0.00  0.00    +0.065 C 
ATOM      7  C   LIG    1       24.833 -22.179   7.834  0.00  0.00    +0.047 C 
ATOM      8  O   LIG    1       28.129 -21.378   6.888  0.00  0.00    -0.292 OA
ATOM      9  C   LIG    1       24.687 -21.219   6.688  0.00  0.00    -0.033 A 
ATOM     10  C   LIG    1       23.547 -20.714   6.088  0.00  0.00    +0.053 A 
ENDROOT
BRANCH   1  12
ATOM     11  C   LIG    1       22.069 -18.210   4.480  0.00  0.00    +0.277 C 
ATOM     12  O   LIG    1       22.485 -19.567   4.353  0.00  0.00    -0.491 OA
ENDBRANCH   1  12
BRANCH   2  13
ATOM     13  O   LIG    1       25.070 -18.909   3.252  0.00  0.00    -0.491 OA
ATOM     14  C   LIG    1       25.875 -17.736   3.266  0.00  0.00    +0.277 C 
ENDBRANCH   2  13
BRANCH   6  15
ATOM     15  C   LIG    1       26.157 -24.025   6.663  0.00  0.00    +0.015 C 
BRANCH  15  16
ATOM     16  C   LIG    1       25.165 -25.134   7.092  0.00  0.00    -0.008 C 
ATOM     17  C   LIG    1       24.006 -25.354   6.111  0.00  0.00    +0.019 C 
ATOM     18  C   LIG    1       24.408 -26.124   4.847  0.00  0.00    +0.085 C 
ATOM     19  N   LIG    1       25.148 -27.376   5.064  0.00  0.00    -0.298 NA
ATOM     20  C   LIG    1       26.279 -27.147   5.981  0.00  0.00    +0.085 C 
ATOM     21  C   LIG    1       25.877 -26.482   7.306  0.00  0.00    +0.019 C 
BRANCH  19  22
ATOM     22  C   LIG    1       24.330 -28.516   5.518  0.00  0.00    +0.119 C 
BRANCH  22  23
ATOM     23  C   LIG    1       25.073 -29.728   6.049  0.00  0.00    -0.033 A 
ATOM     24  C   LIG    1       25.645 -30.640   5.145  0.00  0.00    +0.005 A 
ATOM     25  C   LIG    1       26.257 -31.811   5.597  0.00  0.00    +0.000 A 
ATOM     26  C   LIG    1       26.297 -32.093   6.960  0.00  0.00    +0.000 A 
ATOM     27  C   LIG    1       25.732 -31.201   7.870  0.00  0.00    +0.000 A 
ATOM     28  C   LIG    1       25.126 -30.022   7.418  0.00  0.00    +0.005 A 
ENDBRANCH  22  23
ENDBRANCH  19  22
ENDBRANCH  15  16
ENDBRANCH   6  15
TORSDOF 6
ENDMDL
MODEL 3
REMARK VINA RESULT:      -8.2      3.252      8.486
REMARK  Name = *****
REMARK                            x       y       z     vdW  Elec       q    Type
REMARK                         _______ _______ _______ _____ _____    ______ ____
ROOT
ATOM      1  C   LIG    1       24.897 -29.739   9.038  0.00  0.00    +0.162 A 
ATOM      2  C   LIG    1       26.085 -29.010   9.313  0.00  0.00    +0.162 A 
ATOM      3  C   LIG    1       26.608 -28.135   8.361  0.00  0.00    +0.061 A 
ATOM      4  C   LIG    1       25.872 -27.932   7.216  0.00  0.00    +0.025 A 
ATOM      5  C   LIG    1       26.077 -26.901   6.204  0.00  0.00    +0.167 C 
ATOM      6  C   LIG    1       24.743 -26.662   5.517  0.00  0.00    +0.065 C 
ATOM      7  C   LIG    1       24.076 -28.063   5.663  0.00  0.00    +0.047 C 
ATOM      8  O   LIG    1       27.119 -26.326   6.014  0.00  0.00    -0.292 OA
ATOM      9  C   LIG    1       24.671 -28.574   6.943  0.00  0.00    -0.033 A 
ATOM     10  C   LIG    1       24.192 -29.519   7.834  0.00  0.00    +0.053 A 
ENDROOT
BRANCH   1  12
ATOM     11  C   LIG    1       22.840 -30.545   9.940  0.00  0.00    +0.277 C 
ATOM     12  O   LIG    1       24.263 -30.603   9.901  0.00  0.00    -0.491 OA
ENDBRANCH   1  12
BRANCH   2  13
ATOM     13  O   LIG    1       26.691 -29.173  10.529  0.00  0.00    -0.491 OA
ATOM     14  C   LIG    1       26.847 -28.011  11.334  0.00  0.00    +0.277 C 
ENDBRANCH   2  13
BRANCH   6  15
ATOM     15  C   LIG    1       23.904 -25.581   6.248  0.00  0.00    +0.015 C 
BRANCH  15  16
ATOM     16  C   LIG    1       23.968 -24.148   5.663  0.00  0.00    -0.008 C 
ATOM     17  C   LIG    1       23.000 -23.156   6.321  0.00  0.00    +0.019 C 
ATOM     18  C   LIG    1       23.459 -22.673   7.703  0.00  0.00    +0.085 C 
ATOM     19  N   LIG    1       24.842 -22.180   7.785  0.00  0.00    -0.298 NA
ATOM     20  C   LIG    1       25.768 -23.154   7.179  0.00  0.00    +0.085 C 
ATOM     21  C   LIG    1       25.389 -23.562   5.747  0.00  0.00    +0.019 C 
BRANCH  19  22
ATOM     22  C   LIG    1       25.061 -20.834   7.223  0.00  0.00    +0.119 C 
BRANCH  22  23
ATOM     23  C   LIG    1       26.497 -20.424   6.957  0.00  0.00    -0.033 A 
ATOM     24  C   LIG    1       27.391 -20.295   8.033  0.00  0.00    +0.005 A 
ATOM     25  C   LIG    1       28.694 -19.833   7.834  0.00  0.00    +0.000 A 
ATOM     26  C   LIG    1       29.119 -19.483   6.555  0.00  0.00    +0.000 A 
ATOM     27  C   LIG    1       28.245 -19.603   5.476  0.00  0.00    +0.000 A 
ATOM     28  C   LIG    1       26.941 -20.074   5.674  0.00  0.00    +0.005 A 
ENDBRANCH  22  23
ENDBRANCH  19  22
ENDBRANCH  15  16
ENDBRANCH   6  15
TORSDOF 6
ENDMDL
MODEL 4
REMARK VINA RESULT:      -8.1      2.271      4.034
REMARK  Name = *****
REMARK                            x       y       z     vdW  Elec       q    Type
REMARK                         _______ _______ _______ _____ _____    ______ ____
ROOT
ATOM      1  C   LIG    1       23.686 -19.677   4.509  0.00  0.00    +0.162 A 
ATOM      2  C   LIG    1       25.080 -19.736   4.241  0.00  0.00    +0.162 A 
ATOM      3  C   LIG    1       25.917 -20.509   5.045  0.00  0.00    +0.061 A 
ATOM      4  C   LIG    1       25.324 -21.282   6.017  0.00  0.00    +0.025 A 
ATOM      5  C   LIG    1       25.945 -22.341   6.806  0.00  0.00    +0.167 C 
ATOM      6  C   LIG    1       24.842 -23.287   7.250  0.00  0.00    +0.065 C 
ATOM      7  C   LIG    1       23.625 -22.317   7.319  0.00  0.00    +0.047 C 
ATOM      8  O   LIG    1       27.130 -22.443   7.002  0.00  0.00    -0.292 OA
ATOM      9  C   LIG    1       23.958 -21.302   6.264  0.00  0.00    -0.033 A 
ATOM     10  C   LIG    1       23.127 -20.466   5.538  0.00  0.00    +0.053 A 
ENDROOT
BRANCH   1  12
ATOM     11  C   LIG    1       21.985 -18.004   4.468  0.00  0.00    +0.277 C 
ATOM     12  O   LIG    1       22.752 -18.983   3.774  0.00  0.00    -0.491 OA
ENDBRANCH   1  12
BRANCH   2  13
ATOM     13  O   LIG    1       25.575 -19.036   3.175  0.00  0.00    -0.491 OA
ATOM     14  C   LIG    1       25.833 -17.651   3.374  0.00  0.00    +0.277 C 
ENDBRANCH   2  13
BRANCH   6  15
ATOM     15  C   LIG    1       24.589 -24.406   6.206  0.00  0.00    +0.015 C 
BRANCH  15  16
ATOM     16  C   LIG    1       25.723 -25.444   6.018  0.00  0.00    -0.008 C 
ATOM     17  C   LIG    1       25.833 -26.468   7.155  0.00  0.00    +0.019 C 
ATOM     18  C   LIG    1       24.753 -27.556   7.109  0.00  0.00    +0.085 C 
ATOM     19  N   LIG    1       24.578 -28.234   5.816  0.00  0.00    -0.298 NA
ATOM     20  C   LIG    1       24.440 -27.242   4.734  0.00  0.00    +0.085 C 
ATOM     21  C   LIG    1       25.578 -26.211   4.691  0.00  0.00    +0.019 C 
BRANCH  19  22
ATOM     22  C   LIG    1       25.616 -29.227   5.483  0.00  0.00    +0.119 C 
BRANCH  22  23
ATOM     23  C   LIG    1       25.203 -30.687   5.497  0.00  0.00    -0.033 A 
ATOM     24  C   LIG    1       25.909 -31.614   4.711  0.00  0.00    +0.005 A 
ATOM     25  C   LIG    1       25.499 -32.947   4.630  0.00  0.00    +0.000 A 
ATOM     26  C   LIG    1       24.371 -33.370   5.327  0.00  0.00    +0.000 A 
ATOM     27  C   LIG    1       23.657 -32.464   6.109  0.00  0.00    +0.000 A 
ATOM     28  C   LIG    1       24.072 -31.129   6.197  0.00  0.00    +0.005 A 
ENDBRANCH  22  23
ENDBRANCH  19  22
ENDBRANCH  15  16
ENDBRANCH   6  15
TORSDOF 6
ENDMDL
MODEL 5
REMARK VINA RESULT:      -7.9      3.362      8.513
REMARK  Name = *****
REMARK                            x       y       z     vdW  Elec       q    Type
REMARK                         _______ _______ _______ _____ _____    ______ ____
ROOT
ATOM      1  C   LIG    1       24.871 -29.656   9.174  0.00  0.00    +0.162 A 
ATOM      2  C   LIG    1       26.105 -28.988   9.395  0.00  0.00    +0.162 A 
ATOM      3  C   LIG    1       26.670 -28.205   8.389  0.00  0.00    +0.061 A 
ATOM      4  C   LIG    1       25.934 -28.024   7.240  0.00  0.00    +0.025 A 
ATOM      5  C   LIG    1       26.191 -27.069   6.166  0.00  0.00    +0.167 C 
ATOM      6  C   LIG    1       24.866 -26.789   5.477  0.00  0.00    +0.065 C 
ATOM      7  C   LIG    1       24.115 -28.134   5.711  0.00  0.00    +0.047 C 
ATOM      8  O   LIG    1       27.264 -26.573   5.933  0.00  0.00    -0.292 OA
ATOM      9  C   LIG    1       24.693 -28.605   7.015  0.00  0.00    -0.033 A 
ATOM     10  C   LIG    1       24.167 -29.463   7.965  0.00  0.00    +0.053 A 
ENDROOT
BRANCH   1  12
ATOM     11  C   LIG    1       22.816 -30.673   9.834  0.00  0.00    +0.277 C 
ATOM     12  O   LIG    1       24.195 -30.426  10.092  0.00  0.00    -0.491 OA
ENDBRANCH   1  12
BRANCH   2  13
ATOM     13  O   LIG    1       26.714 -29.117  10.613  0.00  0.00    -0.491 OA
ATOM     14  C   LIG    1       26.848 -27.937  11.397  0.00  0.00    +0.277 C 
ENDBRANCH   2  13
BRANCH   6  15
ATOM     15  C   LIG    1       24.105 -25.616   6.149  0.00  0.00    +0.015 C 
BRANCH  15  16
ATOM     16  C   LIG    1       24.414 -24.197   5.612  0.00  0.00    -0.008 C 
ATOM     17  C   LIG    1       23.274 -23.188   5.806  0.00  0.00    +0.019 C 
ATOM     18  C   LIG    1       23.144 -22.676   7.246  0.00  0.00    +0.085 C 
ATOM     19  N   LIG    1       24.383 -22.184   7.868  0.00  0.00    -0.298 NA
ATOM     20  C   LIG    1       25.464 -23.174   7.706  0.00  0.00    +0.085 C 
ATOM     21  C   LIG    1       25.688 -23.612   6.250  0.00  0.00    +0.019 C 
BRANCH  19  22
ATOM     22  C   LIG    1       24.824 -20.852   7.417  0.00  0.00    +0.119 C 
BRANCH  22  23
ATOM     23  C   LIG    1       24.261 -20.349   6.100  0.00  0.00    -0.033 A 
ATOM     24  C   LIG    1       25.097 -20.274   4.973  0.00  0.00    +0.005 A 
ATOM     25  C   LIG    1       24.636 -19.733   3.771  0.00  0.00    +0.000 A 
ATOM     26  C   LIG    1       23.334 -19.250   3.681  0.00  0.00    +0.000 A 
ATOM     27  C   LIG    1       22.491 -19.315   4.790  0.00  0.00    +0.000 A 
ATOM     28  C   LIG    1       22.950 -19.865   5.993  0.00  0.00    +0.005 A 
ENDBRANCH  22  23
ENDBRANCH  19  22
ENDBRANCH  15  16
ENDBRANCH   6  15
TORSDOF 6
ENDMDL
MODEL 6
REMARK VINA RESULT:      -7.9      1.260      1.891
REMARK  Name = *****
REMARK                            x       y       z     vdW  Elec       q    Type
REMARK                         _______ _______ _______ _____ _____    ______ ____
ROOT
ATOM      1  C   LIG    1       28.474 -19.701   6.297  0.00  0.00    +0.162 A 
ATOM      2  C   LIG    1       28.665 -20.074   7.654  0.00  0.00    +0.162 A 
ATOM      3  C   LIG    1       27.649 -20.724   8.354  0.00  0.00    +0.061 A 
ATOM      4  C   LIG    1       26.522 -21.079   7.648  0.00  0.00    +0.025 A 
ATOM      5  C   LIG    1       25.448 -21.966   8.084  0.00  0.00    +0.167 C 
ATOM      6  C   LIG    1       24.798 -22.543   6.839  0.00  0.00    +0.065 C 
ATOM      7  C   LIG    1       25.043 -21.397   5.813  0.00  0.00    +0.047 C 
ATOM      8  O   LIG    1       25.189 -22.213   9.235  0.00  0.00    -0.292 OA
ATOM      9  C   LIG    1       26.327 -20.792   6.304  0.00  0.00    -0.033 A 
ATOM     10  C   LIG    1       27.286 -20.061   5.623  0.00  0.00    +0.053 A 
ENDROOT
BRANCH   1  12
ATOM     11  C   LIG    1       29.051 -17.822   4.943  0.00  0.00    +0.277 C 
ATOM     12  O   LIG    1       29.405 -19.090   5.489  0.00  0.00    -0.491 OA
ENDBRANCH   1  12
BRANCH   2  13
ATOM     13  O   LIG    1       29.866 -19.798   8.249  0.00  0.00    -0.491 OA
ATOM     14  C   LIG    1       30.032 -18.494   8.794  0.00  0.00    +0.277 C 
ENDBRANCH   2  13
BRANCH   6  15
ATOM     15  C   LIG    1       25.497 -23.848   6.376  0.00  0.00    +0.015 C 
BRANCH  15  16
ATOM     16  C   LIG    1       24.627 -24.853   5.582  0.00  0.00    -0.008 C 
ATOM     17  C   LIG    1       25.363 -25.551   4.431  0.00  0.00    +0.019 C 
ATOM     18  C   LIG    1       26.318 -26.658   4.895  0.00  0.00    +0.085 C 
ATOM     19  N   LIG    1       25.753 -27.648   5.825  0.00  0.00    -0.298 NA
ATOM     20  C   LIG    1       25.076 -26.967   6.944  0.00  0.00    +0.085 C 
ATOM     21  C   LIG    1       24.028 -25.935   6.499  0.00  0.00    +0.019 C 
BRANCH  19  22
ATOM     22  C   LIG    1       24.863 -28.650   5.209  0.00  0.00    +0.119 C 
BRANCH  22  23
ATOM     23  C   LIG    1       24.950 -30.068   5.743  0.00  0.00    -0.033 A 
ATOM     24  C   LIG    1       25.670 -31.036   5.022  0.00  0.00    +0.005 A 
ATOM     25  C   LIG    1       25.695 -32.369   5.436  0.00  0.00    +0.000 A 
ATOM     26  C   LIG    1       24.991 -32.756   6.573  0.00  0.00    +0.000 A 
ATOM     27  C   LIG    1       24.270 -31.810   7.299  0.00  0.00    +0.000 A 
ATOM     28  C   LIG    1       24.251 -30.471   6.889  0.00  0.00    +0.005 A 
ENDBRANCH  22  23
ENDBRANCH  19  22
ENDBRANCH  15  16
ENDBRANCH   6  15
TORSDOF 6
ENDMDL
MODEL 7
REMARK VINA RESULT:      -7.8      4.056      9.515
REMARK  Name = *****
REMARK                            x       y       z     vdW  Elec       q    Type
REMARK                         _______ _______ _______ _____ _____    ______ ____
ROOT
ATOM      1  C   LIG    1       22.671 -30.483  10.712  0.00  0.00    +0.162 A 
ATOM      2  C   LIG    1       23.641 -30.045  11.653  0.00  0.00    +0.162 A 
ATOM      3  C   LIG    1       24.925 -29.702  11.229  0.00  0.00    +0.061 A 
ATOM      4  C   LIG    1       25.164 -29.700   9.874  0.00  0.00    +0.025 A 
ATOM      5  C   LIG    1       26.327 -29.151   9.181  0.00  0.00    +0.167 C 
ATOM      6  C   LIG    1       25.896 -28.809   7.766  0.00  0.00    +0.065 C 
ATOM      7  C   LIG    1       24.765 -29.855   7.534  0.00  0.00    +0.047 C 
ATOM      8  O   LIG    1       27.403 -28.967   9.692  0.00  0.00    -0.292 OA
ATOM      9  C   LIG    1       24.220 -30.056   8.920  0.00  0.00    -0.033 A 
ATOM     10  C   LIG    1       22.974 -30.493   9.333  0.00  0.00    +0.053 A 
ENDROOT
BRANCH   1  12
ATOM     11  C   LIG    1       20.878 -32.036  10.443  0.00  0.00    +0.277 C 
ATOM     12  O   LIG    1       21.366 -30.816  10.995  0.00  0.00    -0.491 OA
ENDBRANCH   1  12
BRANCH   2  13
ATOM     13  O   LIG    1       23.285 -29.953  12.970  0.00  0.00    -0.491 OA
ATOM     14  C   LIG    1       24.034 -29.055  13.781  0.00  0.00    +0.277 C 
ENDBRANCH   2  13
BRANCH   6  15
ATOM     15  C   LIG    1       25.333 -27.367   7.668  0.00  0.00    +0.015 C 
BRANCH  15  16
ATOM     16  C   LIG    1       25.413 -26.688   6.279  0.00  0.00    -0.008 C 
ATOM     17  C   LIG    1       24.071 -26.159   5.757  0.00  0.00    +0.019 C 
ATOM     18  C   LIG    1       23.620 -24.857   6.430  0.00  0.00    +0.085 C 
ATOM     19  N   LIG    1       24.618 -23.778   6.478  0.00  0.00    -0.298 NA
ATOM     20  C   LIG    1       25.895 -24.288   7.011  0.00  0.00    +0.085 C 
ATOM     21  C   LIG    1       26.424 -25.526   6.271  0.00  0.00    +0.019 C 
BRANCH  19  22
ATOM     22  C   LIG    1       24.831 -23.065   5.204  0.00  0.00    +0.119 C 
BRANCH  22  23
ATOM     23  C   LIG    1       24.194 -21.695   5.066  0.00  0.00    -0.033 A 
ATOM     24  C   LIG    1       23.424 -21.180   6.123  0.00  0.00    +0.005 A 
ATOM     25  C   LIG    1       22.750 -19.964   5.995  0.00  0.00    +0.000 A 
ATOM     26  C   LIG    1       22.827 -19.249   4.803  0.00  0.00    +0.000 A 
ATOM     27  C   LIG    1       23.585 -19.746   3.744  0.00  0.00    +0.000 A 
ATOM     28  C   LIG    1       24.268 -20.961   3.874  0.00  0.00    +0.005 A 
ENDBRANCH  22  23
ENDBRANCH  19  22
ENDBRANCH  15  16
ENDBRANCH   6  15
TORSDOF 6
ENDMDL
MODEL 8
REMARK VINA RESULT:      -7.7      4.218      9.029
REMARK  Name = *****
REMARK                            x       y       z     vdW  Elec       q    Type
REMARK                         _______ _______ _______ _____ _____    ______ ____
ROOT
ATOM      1  C   LIG    1       24.795 -30.292  10.111  0.00  0.00    +0.162 A 
ATOM      2  C   LIG    1       26.108 -30.768   9.849  0.00  0.00    +0.162 A 
ATOM      3  C   LIG    1       26.467 -31.165   8.562  0.00  0.00    +0.061 A 
ATOM      4  C   LIG    1       25.544 -30.970   7.559  0.00  0.00    +0.025 A 
ATOM      5  C   LIG    1       25.766 -31.071   6.120  0.00  0.00    +0.167 C 
ATOM      6  C   LIG    1       24.725 -30.202   5.435  0.00  0.00    +0.065 C 
ATOM      7  C   LIG    1       23.554 -30.272   6.459  0.00  0.00    +0.047 C 
ATOM      8  O   LIG    1       26.659 -31.697   5.608  0.00  0.00    -0.292 OA
ATOM      9  C   LIG    1       24.276 -30.444   7.765  0.00  0.00    -0.033 A 
ATOM     10  C   LIG    1       23.872 -30.138   9.054  0.00  0.00    +0.053 A 
ENDROOT
BRANCH   1  12
ATOM     11  C   LIG    1       22.923 -29.923  11.545  0.00  0.00    +0.277 C 
ATOM     12  O   LIG    1       24.329 -29.840  11.324  0.00  0.00    -0.491 OA
ENDBRANCH   1  12
BRANCH   2  13
ATOM     13  O   LIG    1       27.009 -30.813  10.877  0.00  0.00    -0.491 OA
ATOM     14  C   LIG    1       27.771 -29.636  11.121  0.00  0.00    +0.277 C 
ENDBRANCH   2  13
BRANCH   6  15
ATOM     15  C   LIG    1       25.216 -28.740   5.266  0.00  0.00    +0.015 C 
BRANCH  15  16
ATOM     16  C   LIG    1       24.845 -27.753   6.400  0.00  0.00    -0.008 C 
ATOM     17  C   LIG    1       26.046 -27.228   7.197  0.00  0.00    +0.019 C 
ATOM     18  C   LIG    1       26.857 -26.158   6.454  0.00  0.00    +0.085 C 
ATOM     19  N   LIG    1       26.083 -25.043   5.888  0.00  0.00    -0.298 NA
ATOM     20  C   LIG    1       24.949 -25.558   5.097  0.00  0.00    +0.085 C 
ATOM     21  C   LIG    1       24.056 -26.544   5.866  0.00  0.00    +0.019 C 
BRANCH  19  22
ATOM     22  C   LIG    1       25.623 -24.040   6.867  0.00  0.00    +0.119 C 
BRANCH  22  23
ATOM     23  C   LIG    1       24.807 -22.878   6.330  0.00  0.00    -0.033 A 
ATOM     24  C   LIG    1       25.457 -21.824   5.667  0.00  0.00    +0.005 A 
ATOM     25  C   LIG    1       24.749 -20.698   5.240  0.00  0.00    +0.000 A 
ATOM     26  C   LIG    1       23.381 -20.605   5.481  0.00  0.00    +0.000 A 
ATOM     27  C   LIG    1       22.721 -21.641   6.140  0.00  0.00    +0.000 A 
ATOM     28  C   LIG    1       23.428 -22.774   6.561  0.00  0.00    +0.005 A 
ENDBRANCH  22  23
ENDBRANCH  19  22
ENDBRANCH  15  16
ENDBRANCH   6  15
TORSDOF 6
ENDMDL
MODEL 9
REMARK VINA RESULT:      -7.7      4.543      9.703
REMARK  Name = *****
REMARK                            x       y       z     vdW  Elec       q    Type
REMARK                         _______ _______ _______ _____ _____    ______ ____
ROOT
ATOM      1  C   LIG    1       24.107 -31.780   9.995  0.00  0.00    +0.162 A 
ATOM      2  C   LIG    1       25.494 -31.923  10.268  0.00  0.00    +0.162 A 
ATOM      3  C   LIG    1       26.384 -32.228   9.239  0.00  0.00    +0.061 A 
ATOM      4  C   LIG    1       25.882 -32.269   7.958  0.00  0.00    +0.025 A 
ATOM      5  C   LIG    1       26.638 -32.321   6.711  0.00  0.00    +0.167 C 
ATOM      6  C   LIG    1       25.760 -31.736   5.619  0.00  0.00    +0.065 C 
ATOM      7  C   LIG    1       24.340 -32.083   6.157  0.00  0.00    +0.047 C 
ATOM      8  O   LIG    1       27.774 -32.714   6.617  0.00  0.00    -0.292 OA
ATOM      9  C   LIG    1       24.544 -32.067   7.645  0.00  0.00    -0.033 A 
ATOM     10  C   LIG    1       23.634 -31.861   8.667  0.00  0.00    +0.053 A 
ENDROOT
BRANCH   1  12
ATOM     11  C   LIG    1       22.360 -30.285  10.634  0.00  0.00    +0.277 C 
ATOM     12  O   LIG    1       23.135 -31.448  10.910  0.00  0.00    -0.491 OA
ENDBRANCH   1  12
BRANCH   2  13
ATOM     13  O   LIG    1       25.934 -31.741  11.550  0.00  0.00    -0.491 OA
ATOM     14  C   LIG    1       26.218 -30.406  11.953  0.00  0.00    +0.277 C 
ENDBRANCH   2  13
BRANCH   6  15
ATOM     15  C   LIG    1       25.938 -30.200   5.499  0.00  0.00    +0.015 C 
BRANCH  15  16
ATOM     16  C   LIG    1       24.676 -29.338   5.753  0.00  0.00    -0.008 C 
ATOM     17  C   LIG    1       24.675 -28.606   7.101  0.00  0.00    +0.019 C 
ATOM     18  C   LIG    1       25.591 -27.375   7.133  0.00  0.00    +0.085 C 
ATOM     19  N   LIG    1       25.427 -26.422   6.025  0.00  0.00    -0.298 NA
ATOM     20  C   LIG    1       25.462 -27.131   4.733  0.00  0.00    +0.085 C 
ATOM     21  C   LIG    1       24.465 -28.296   4.639  0.00  0.00    +0.019 C 
BRANCH  19  22
ATOM     22  C   LIG    1       24.235 -25.558   6.114  0.00  0.00    +0.119 C 
BRANCH  22  23
ATOM     23  C   LIG    1       24.428 -24.177   6.714  0.00  0.00    -0.033 A 
ATOM     24  C   LIG    1       23.332 -23.304   6.807  0.00  0.00    +0.005 A 
ATOM     25  C   LIG    1       23.492 -21.996   7.270  0.00  0.00    +0.000 A 
ATOM     26  C   LIG    1       24.755 -21.540   7.638  0.00  0.00    +0.000 A 
ATOM     27  C   LIG    1       25.854 -22.392   7.550  0.00  0.00    +0.000 A 
ATOM     28  C   LIG    1       25.693 -23.706   7.093  0.00  0.00    +0.005 A 
ENDBRANCH  22  23
ENDBRANCH  19  22
ENDBRANCH  15  16
ENDBRANCH   6  15
TORSDOF 6
ENDMDL
