MODEL 1
REMARK VINA RESULT:      -3.7      0.000      0.000
REMARK  Name = *****
REMARK                            x       y       z     vdW  Elec       q    Type
REMARK                         _______ _______ _______ _____ _____    ______ ____
ROOT
ATOM      1  N   LIG    1       24.984 -17.412   3.458  0.00  0.00    -0.284 N 
ATOM      2  H   LIG    1       25.343 -17.500   2.518  0.00  0.00    +0.155 HD
ATOM      3  C   LIG    1       24.663 -16.110   3.833  0.00  0.00    +0.234 C 
ATOM      4  O   LIG    1       23.799 -15.827   4.664  0.00  0.00    -0.274 OA
ENDROOT
BRANCH   1   7
ATOM      5  C   LIG    1       21.981 -17.747   3.779  0.00  0.00    +0.045 C 
ATOM      6  C   LIG    1       23.018 -18.786   4.117  0.00  0.00    -0.029 A 
ATOM      7  C   LIG    1       24.411 -18.581   4.022  0.00  0.00    +0.039 A 
ATOM      8  C   LIG    1       25.293 -19.559   4.543  0.00  0.00    -0.029 A 
ATOM      9  C   LIG    1       26.790 -19.379   4.547  0.00  0.00    +0.045 C 
ATOM     10  C   LIG    1       24.776 -20.765   5.046  0.00  0.00    +0.005 A 
ATOM     11  C   LIG    1       23.406 -21.000   5.056  0.00  0.00    +0.001 A 
ATOM     12  C   LIG    1       22.536 -20.015   4.603  0.00  0.00    +0.005 A 
ENDBRANCH   1   7
BRANCH   3  13
ATOM     13  C   LIG    1       25.457 -15.042   3.020  0.00  0.00    +0.143 C 
ATOM     14  N   LIG    1       25.171 -13.631   3.382  0.00  0.00    -0.295 NA
ATOM     15  C   LIG    1       23.777 -13.250   3.169  0.00  0.00    +0.105 C 
ATOM     16  C   LIG    1       25.622 -13.284   4.736  0.00  0.00    +0.085 C 
ATOM     17  C   LIG    1       27.126 -13.515   4.886  0.00  0.00    +0.015 C 
ATOM     18  C   LIG    1       27.528 -14.930   4.487  0.00  0.00    +0.003 C 
ATOM     19  C   LIG    1       26.974 -15.282   3.109  0.00  0.00    +0.028 C 
ENDBRANCH   3  13
TORSDOF 2
ENDMDL
MODEL 2
REMARK VINA RESULT:      -3.3      1.211      2.204
REMARK  Name = *****
REMARK                            x       y       z     vdW  Elec       q    Type
REMARK                         _______ _______ _______ _____ _____    ______ ____
ROOT
ATOM      1  N   LIG    1       24.442 -16.831   3.405  0.00  0.00    -0.284 N 
ATOM      2  H   LIG    1       23.712 -16.133   3.421  0.00  0.00    +0.155 HD
ATOM      3  C   LIG    1       25.735 -16.314   3.458  0.00  0.00    +0.234 C 
ATOM      4  O   LIG    1       26.698 -16.918   3.934  0.00  0.00    -0.274 OA
ENDROOT
BRANCH   1   7
ATOM      5  C   LIG    1       25.999 -19.301   2.566  0.00  0.00    +0.045 C 
ATOM      6  C   LIG    1       24.822 -19.287   3.505  0.00  0.00    -0.029 A 
ATOM      7  C   LIG    1       24.073 -18.134   3.827  0.00  0.00    +0.039 A 
ATOM      8  C   LIG    1       22.875 -18.269   4.570  0.00  0.00    -0.029 A 
ATOM      9  C   LIG    1       21.983 -17.097   4.887  0.00  0.00    +0.045 C 
ATOM     10  C   LIG    1       22.506 -19.530   5.070  0.00  0.00    +0.005 A 
ATOM     11  C   LIG    1       23.294 -20.648   4.828  0.00  0.00    +0.001 A 
ATOM     12  C   LIG    1       24.436 -20.528   4.044  0.00  0.00    +0.005 A 
ENDBRANCH   1   7
BRANCH   3  13
ATOM     13  C   LIG    1       25.814 -14.850   2.930  0.00  0.00    +0.143 C 
ATOM     14  N   LIG    1       25.153 -13.832   3.785  0.00  0.00    -0.295 NA
ATOM     15  C   LIG    1       23.718 -14.056   3.944  0.00  0.00    +0.105 C 
ATOM     16  C   LIG    1       25.816 -13.655   5.082  0.00  0.00    +0.085 C 
ATOM     17  C   LIG    1       27.276 -13.238   4.896  0.00  0.00    +0.015 C 
ATOM     18  C   LIG    1       28.032 -14.200   3.987  0.00  0.00    +0.003 C 
ATOM     19  C   LIG    1       27.271 -14.421   2.682  0.00  0.00    +0.028 C 
ENDBRANCH   3  13
TORSDOF 2
ENDMDL
MODEL 3
REMARK VINA RESULT:      -3.2      0.348      2.079
REMARK  Name = *****
REMARK                            x       y       z     vdW  Elec       q    Type
REMARK                         _______ _______ _______ _____ _____    ______ ____
ROOT
ATOM      1  N   LIG    1       24.794 -17.531   3.573  0.00  0.00    -0.284 N 
ATOM      2  H   LIG    1       25.122 -17.663   2.627  0.00  0.00    +0.155 HD
ATOM      3  C   LIG    1       24.520 -16.207   3.908  0.00  0.00    +0.234 C 
ATOM      4  O   LIG    1       23.690 -15.870   4.754  0.00  0.00    -0.274 OA
ENDROOT
BRANCH   1   7
ATOM      5  C   LIG    1       26.473 -19.778   4.741  0.00  0.00    +0.045 C 
ATOM      6  C   LIG    1       24.971 -19.684   4.808  0.00  0.00    -0.029 A 
ATOM      7  C   LIG    1       24.209 -18.662   4.198  0.00  0.00    +0.039 A 
ATOM      8  C   LIG    1       22.798 -18.775   4.165  0.00  0.00    -0.029 A 
ATOM      9  C   LIG    1       21.922 -17.766   3.468  0.00  0.00    +0.045 C 
ATOM     10  C   LIG    1       22.170 -19.840   4.832  0.00  0.00    +0.005 A 
ATOM     11  C   LIG    1       22.920 -20.795   5.508  0.00  0.00    +0.001 A 
ATOM     12  C   LIG    1       24.308 -20.722   5.487  0.00  0.00    +0.005 A 
ENDBRANCH   1   7
BRANCH   3  13
ATOM     13  C   LIG    1       25.316 -15.192   3.032  0.00  0.00    +0.143 C 
ATOM     14  N   LIG    1       25.086 -13.762   3.356  0.00  0.00    -0.295 NA
ATOM     15  C   LIG    1       23.698 -13.345   3.178  0.00  0.00    +0.105 C 
ATOM     16  C   LIG    1       25.596 -13.385   4.679  0.00  0.00    +0.085 C 
ATOM     17  C   LIG    1       27.096 -13.658   4.785  0.00  0.00    +0.015 C 
ATOM     18  C   LIG    1       27.441 -15.097   4.422  0.00  0.00    +0.003 C 
ATOM     19  C   LIG    1       26.828 -15.477   3.077  0.00  0.00    +0.028 C 
ENDBRANCH   3  13
TORSDOF 2
ENDMDL
MODEL 4
REMARK VINA RESULT:      -2.9      1.571      2.693
REMARK  Name = *****
REMARK                            x       y       z     vdW  Elec       q    Type
REMARK                         _______ _______ _______ _____ _____    ______ ____
ROOT
ATOM      1  N   LIG    1       24.577 -15.829   4.324  0.00  0.00    -0.284 N 
ATOM      2  H   LIG    1       25.586 -15.876   4.351  0.00  0.00    +0.155 HD
ATOM      3  C   LIG    1       24.068 -14.603   3.903  0.00  0.00    +0.234 C 
ATOM      4  O   LIG    1       22.982 -14.467   3.336  0.00  0.00    -0.274 OA
ENDROOT
BRANCH   1   7
ATOM      5  C   LIG    1       21.779 -16.232   5.438  0.00  0.00    +0.045 C 
ATOM      6  C   LIG    1       22.569 -17.257   4.668  0.00  0.00    -0.029 A 
ATOM      7  C   LIG    1       23.895 -17.068   4.219  0.00  0.00    +0.039 A 
ATOM      8  C   LIG    1       24.604 -18.165   3.671  0.00  0.00    -0.029 A 
ATOM      9  C   LIG    1       26.045 -18.063   3.241  0.00  0.00    +0.045 C 
ATOM     10  C   LIG    1       23.948 -19.393   3.481  0.00  0.00    +0.005 A 
ATOM     11  C   LIG    1       22.614 -19.548   3.842  0.00  0.00    +0.001 A 
ATOM     12  C   LIG    1       21.936 -18.492   4.438  0.00  0.00    +0.005 A 
ENDBRANCH   1   7
BRANCH   3  13
ATOM     13  C   LIG    1       25.063 -13.428   4.147  0.00  0.00    +0.143 C 
ATOM     14  N   LIG    1       26.061 -13.211   3.069  0.00  0.00    -0.295 NA
ATOM     15  C   LIG    1       26.939 -14.358   2.856  0.00  0.00    +0.105 C 
ATOM     16  C   LIG    1       25.457 -12.755   1.812  0.00  0.00    +0.085 C 
ATOM     17  C   LIG    1       24.692 -11.447   2.017  0.00  0.00    +0.015 C 
ATOM     18  C   LIG    1       23.671 -11.555   3.144  0.00  0.00    +0.003 C 
ATOM     19  C   LIG    1       24.319 -12.107   4.410  0.00  0.00    +0.028 C 
ENDBRANCH   3  13
TORSDOF 2
ENDMDL
MODEL 5
REMARK VINA RESULT:      -2.6      1.386      2.978
REMARK  Name = *****
REMARK                            x       y       z     vdW  Elec       q    Type
REMARK                         _______ _______ _______ _____ _____    ______ ____
ROOT
ATOM      1  N   LIG    1       24.165 -16.548   4.259  0.00  0.00    -0.284 N 
ATOM      2  H   LIG    1       23.845 -16.256   5.171  0.00  0.00    +0.155 HD
ATOM      3  C   LIG    1       24.970 -15.617   3.605  0.00  0.00    +0.234 C 
ATOM      4  O   LIG    1       25.836 -15.916   2.781  0.00  0.00    -0.274 OA
ENDROOT
BRANCH   1   7
ATOM      5  C   LIG    1       26.736 -18.037   3.622  0.00  0.00    +0.045 C 
ATOM      6  C   LIG    1       25.379 -18.669   3.792  0.00  0.00    -0.029 A 
ATOM      7  C   LIG    1       24.188 -17.946   4.021  0.00  0.00    +0.039 A 
ATOM      8  C   LIG    1       22.946 -18.625   3.977  0.00  0.00    -0.029 A 
ATOM      9  C   LIG    1       21.628 -17.913   4.136  0.00  0.00    +0.045 C 
ATOM     10  C   LIG    1       22.922 -20.021   3.815  0.00  0.00    +0.005 A 
ATOM     11  C   LIG    1       24.104 -20.740   3.680  0.00  0.00    +0.001 A 
ATOM     12  C   LIG    1       25.320 -20.068   3.659  0.00  0.00    +0.005 A 
ENDBRANCH   1   7
BRANCH   3  13
ATOM     13  C   LIG    1       24.715 -14.160   4.096  0.00  0.00    +0.143 C 
ATOM     14  N   LIG    1       25.934 -13.330   4.271  0.00  0.00    -0.295 NA
ATOM     15  C   LIG    1       26.859 -13.865   5.266  0.00  0.00    +0.105 C 
ATOM     16  C   LIG    1       26.616 -13.040   3.004  0.00  0.00    +0.085 C 
ATOM     17  C   LIG    1       25.683 -12.311   2.036  0.00  0.00    +0.015 C 
ATOM     18  C   LIG    1       24.375 -13.065   1.829  0.00  0.00    +0.003 C 
ATOM     19  C   LIG    1       23.736 -13.418   3.169  0.00  0.00    +0.028 C 
ENDBRANCH   3  13
TORSDOF 2
ENDMDL
MODEL 6
REMARK VINA RESULT:      -2.6      1.594      2.151
REMARK  Name = *****
REMARK                            x       y       z     vdW  Elec       q    Type
REMARK                         _______ _______ _______ _____ _____    ______ ____
ROOT
ATOM      1  N   LIG    1       24.649 -15.279   4.012  0.00  0.00    -0.284 N 
ATOM      2  H   LIG    1       25.657 -15.314   4.055  0.00  0.00    +0.155 HD
ATOM      3  C   LIG    1       24.137 -14.160   3.358  0.00  0.00    +0.234 C 
ATOM      4  O   LIG    1       23.056 -14.144   2.768  0.00  0.00    -0.274 OA
ENDROOT
BRANCH   1   7
ATOM      5  C   LIG    1       21.992 -15.527   5.465  0.00  0.00    +0.045 C 
ATOM      6  C   LIG    1       22.706 -16.646   4.753  0.00  0.00    -0.029 A 
ATOM      7  C   LIG    1       23.973 -16.520   4.142  0.00  0.00    +0.039 A 
ATOM      8  C   LIG    1       24.632 -17.680   3.667  0.00  0.00    -0.029 A 
ATOM      9  C   LIG    1       26.017 -17.638   3.074  0.00  0.00    +0.045 C 
ATOM     10  C   LIG    1       23.974 -18.921   3.710  0.00  0.00    +0.005 A 
ATOM     11  C   LIG    1       22.689 -19.025   4.230  0.00  0.00    +0.001 A 
ATOM     12  C   LIG    1       22.066 -17.898   4.755  0.00  0.00    +0.005 A 
ENDBRANCH   1   7
BRANCH   3  13
ATOM     13  C   LIG    1       25.125 -12.954   3.379  0.00  0.00    +0.143 C 
ATOM     14  N   LIG    1       25.524 -12.488   4.731  0.00  0.00    -0.295 NA
ATOM     15  C   LIG    1       24.400 -12.017   5.535  0.00  0.00    +0.105 C 
ATOM     16  C   LIG    1       26.334 -13.472   5.460  0.00  0.00    +0.085 C 
ATOM     17  C   LIG    1       27.605 -13.816   4.685  0.00  0.00    +0.015 C 
ATOM     18  C   LIG    1       27.301 -14.262   3.259  0.00  0.00    +0.003 C 
ATOM     19  C   LIG    1       26.393 -13.253   2.560  0.00  0.00    +0.028 C 
ENDBRANCH   3  13
TORSDOF 2
ENDMDL
MODEL 7
REMARK VINA RESULT:      -2.2      1.970      6.107
REMARK  Name = *****
REMARK                            x       y       z     vdW  Elec       q    Type
REMARK                         _______ _______ _______ _____ _____    ______ ____
ROOT
ATOM      1  N   LIG    1       24.437 -18.378   3.869  0.00  0.00    -0.284 N 
ATOM      2  H   LIG    1       23.854 -18.787   3.153  0.00  0.00    +0.155 HD
ATOM      3  C   LIG    1       25.396 -19.242   4.394  0.00  0.00    +0.234 C 
ATOM      4  O   LIG    1       26.473 -18.870   4.864  0.00  0.00    -0.274 OA
ENDROOT
BRANCH   1   7
ATOM      5  C   LIG    1       27.041 -16.949   3.227  0.00  0.00    +0.045 C 
ATOM      6  C   LIG    1       25.719 -16.279   3.500  0.00  0.00    -0.029 A 
ATOM      7  C   LIG    1       24.539 -16.963   3.863  0.00  0.00    +0.039 A 
ATOM      8  C   LIG    1       23.406 -16.222   4.279  0.00  0.00    -0.029 A 
ATOM      9  C   LIG    1       22.137 -16.880   4.753  0.00  0.00    +0.045 C 
ATOM     10  C   LIG    1       23.436 -14.818   4.221  0.00  0.00    +0.005 A 
ATOM     11  C   LIG    1       24.570 -14.149   3.777  0.00  0.00    +0.001 A 
ATOM     12  C   LIG    1       25.704 -14.874   3.430  0.00  0.00    +0.005 A 
ENDBRANCH   1   7
BRANCH   3  13
ATOM     13  C   LIG    1       24.997 -20.741   4.241  0.00  0.00    +0.143 C 
ATOM     14  N   LIG    1       24.926 -21.508   5.510  0.00  0.00    -0.295 NA
ATOM     15  C   LIG    1       26.201 -21.570   6.220  0.00  0.00    +0.105 C 
ATOM     16  C   LIG    1       23.841 -21.061   6.391  0.00  0.00    +0.085 C 
ATOM     17  C   LIG    1       22.486 -21.179   5.692  0.00  0.00    +0.015 C 
ATOM     18  C   LIG    1       22.474 -20.460   4.348  0.00  0.00    +0.003 C 
ATOM     19  C   LIG    1       23.661 -20.892   3.492  0.00  0.00    +0.028 C 
ENDBRANCH   3  13
TORSDOF 2
ENDMDL
MODEL 8
REMARK VINA RESULT:      -2.1      1.605      5.862
REMARK  Name = *****
REMARK                            x       y       z     vdW  Elec       q    Type
REMARK                         _______ _______ _______ _____ _____    ______ ____
ROOT
ATOM      1  N   LIG    1       24.736 -16.938   3.574  0.00  0.00    -0.284 N 
ATOM      2  H   LIG    1       24.064 -17.295   2.909  0.00  0.00    +0.155 HD
ATOM      3  C   LIG    1       25.818 -17.783   3.810  0.00  0.00    +0.234 C 
ATOM      4  O   LIG    1       26.935 -17.390   4.151  0.00  0.00    -0.274 OA
ENDROOT
BRANCH   1   7
ATOM      5  C   LIG    1       27.128 -15.237   2.792  0.00  0.00    +0.045 C 
ATOM      6  C   LIG    1       25.824 -14.714   3.336  0.00  0.00    -0.029 A 
ATOM      7  C   LIG    1       24.752 -15.531   3.755  0.00  0.00    +0.039 A 
ATOM      8  C   LIG    1       23.651 -14.942   4.424  0.00  0.00    -0.029 A 
ATOM      9  C   LIG    1       22.505 -15.755   4.968  0.00  0.00    +0.045 C 
ATOM     10  C   LIG    1       23.589 -13.545   4.563  0.00  0.00    +0.005 A 
ATOM     11  C   LIG    1       24.605 -12.736   4.068  0.00  0.00    +0.001 A 
ATOM     12  C   LIG    1       25.717 -13.318   3.469  0.00  0.00    +0.005 A 
ENDBRANCH   1   7
BRANCH   3  13
ATOM     13  C   LIG    1       25.487 -19.276   3.509  0.00  0.00    +0.143 C 
ATOM     14  N   LIG    1       25.687 -20.209   4.646  0.00  0.00    -0.295 NA
ATOM     15  C   LIG    1       27.068 -20.259   5.116  0.00  0.00    +0.105 C 
ATOM     16  C   LIG    1       24.750 -19.975   5.751  0.00  0.00    +0.085 C 
ATOM     17  C   LIG    1       23.302 -20.111   5.278  0.00  0.00    +0.015 C 
ATOM     18  C   LIG    1       23.010 -19.222   4.075  0.00  0.00    +0.003 C 
ATOM     19  C   LIG    1       24.051 -19.436   2.979  0.00  0.00    +0.028 C 
ENDBRANCH   3  13
TORSDOF 2
ENDMDL
MODEL 9
REMARK VINA RESULT:      -1.9      1.959      5.622
REMARK  Name = *****
REMARK                            x       y       z     vdW  Elec       q    Type
REMARK                         _______ _______ _______ _____ _____    ______ ____
ROOT
ATOM      1  N   LIG    1       24.690 -18.247   4.376  0.00  0.00    -0.284 N 
ATOM      2  H   LIG    1       24.939 -18.508   5.320  0.00  0.00    +0.155 HD
ATOM      3  C   LIG    1       24.114 -19.271   3.628  0.00  0.00    +0.234 C 
ATOM      4  O   LIG    1       23.317 -19.085   2.706  0.00  0.00    -0.274 OA
ENDROOT
BRANCH   1   7
ATOM      5  C   LIG    1       21.978 -16.921   4.723  0.00  0.00    +0.045 C 
ATOM      6  C   LIG    1       23.258 -16.213   4.361  0.00  0.00    -0.029 A 
ATOM      7  C   LIG    1       24.492 -16.862   4.140  0.00  0.00    +0.039 A 
ATOM      8  C   LIG    1       25.582 -16.121   3.623  0.00  0.00    -0.029 A 
ATOM      9  C   LIG    1       26.907 -16.757   3.289  0.00  0.00    +0.045 C 
ATOM     10  C   LIG    1       25.456 -14.733   3.440  0.00  0.00    +0.005 A 
ATOM     11  C   LIG    1       24.266 -14.083   3.745  0.00  0.00    +0.001 A 
ATOM     12  C   LIG    1       23.175 -14.818   4.192  0.00  0.00    +0.005 A 
ENDBRANCH   1   7
BRANCH   3  13
ATOM     13  C   LIG    1       24.518 -20.686   4.143  0.00  0.00    +0.143 C 
ATOM     14  N   LIG    1       25.357 -20.696   5.368  0.00  0.00    -0.295 NA
ATOM     15  C   LIG    1       26.640 -20.021   5.194  0.00  0.00    +0.105 C 
ATOM     16  C   LIG    1       24.646 -20.205   6.554  0.00  0.00    +0.085 C 
ATOM     17  C   LIG    1       23.399 -21.044   6.830  0.00  0.00    +0.015 C 
ATOM     18  C   LIG    1       22.491 -21.134   5.609  0.00  0.00    +0.003 C 
ATOM     19  C   LIG    1       23.282 -21.572   4.379  0.00  0.00    +0.028 C 
ENDBRANCH   3  13
TORSDOF 2
ENDMDL
