MODEL 1
REMARK VINA RESULT:      -3.3      0.000      0.000
REMARK  Name = *****
REMARK                            x       y       z     vdW  Elec       q    Type
REMARK                         _______ _______ _______ _____ _____    ______ ____
ROOT
ATOM      1  C   LIG    1       24.549 -20.285   4.894  0.00  0.00    +0.271 C 
ENDROOT
BRANCH   1   3
ATOM      2  O   LIG    1       25.916 -17.817   3.041  0.00  0.00    -0.255 OA
ATOM      3  P   LIG    1       25.290 -18.947   3.889  0.00  0.00    +0.371 P 
BRANCH   3   4
ATOM      4  O   LIG    1       25.807 -20.057   2.789  0.00  0.00    -0.322 OA
ATOM      5  H   LIG    1       25.957 -19.585   1.944  0.00  0.00    +0.220 HD
ENDBRANCH   3   4
BRANCH   3   6
ATOM      6  O   LIG    1       23.817 -18.678   3.194  0.00  0.00    -0.322 OA
ATOM      7  H   LIG    1       23.961 -18.719   2.224  0.00  0.00    +0.220 HD
ENDBRANCH   3   6
ENDBRANCH   1   3
BRANCH   1   8
ATOM      8  P   LIG    1       22.720 -20.236   5.100  0.00  0.00    +0.371 P 
ATOM      9  O   LIG    1       22.057 -18.913   5.205  0.00  0.00    -0.255 OA
BRANCH   8  10
ATOM     10  O   LIG    1       22.307 -21.184   6.326  0.00  0.00    -0.322 OA
ATOM     11  H   LIG    1       22.376 -20.735   7.190  0.00  0.00    +0.220 HD
ENDBRANCH   8  10
BRANCH   8  12
ATOM     12  O   LIG    1       22.099 -21.087   3.875  0.00  0.00    -0.322 OA
ATOM     13  H   LIG    1       22.668 -21.820   3.579  0.00  0.00    +0.220 HD
ENDBRANCH   8  12
ENDBRANCH   1   8
BRANCH   1  14
ATOM     14  O   LIG    1       24.757 -21.571   4.205  0.00  0.00    -0.367 OA
ATOM     15  H   LIG    1       23.995 -22.118   4.504  0.00  0.00    +0.212 HD
ENDBRANCH   1  14
BRANCH   1  16
ATOM     16  C   LIG    1       25.233 -20.466   6.286  0.00  0.00    +0.097 C 
BRANCH  16  17
ATOM     17  C   LIG    1       26.741 -20.445   6.382  0.00  0.00    -0.025 A 
ATOM     18  C   LIG    1       27.454 -21.545   6.851  0.00  0.00    +0.114 A 
ATOM     19  N   LIG    1       28.798 -21.572   7.020  0.00  0.00    -0.263 NA
ATOM     20  C   LIG    1       29.475 -20.440   6.732  0.00  0.00    +0.111 A 
ATOM     21  C   LIG    1       28.868 -19.285   6.276  0.00  0.00    +0.020 A 
ATOM     22  C   LIG    1       27.483 -19.291   6.107  0.00  0.00    +0.007 A 
ENDBRANCH  16  17
ENDBRANCH   1  16
TORSDOF 9
ENDMDL
MODEL 2
REMARK VINA RESULT:      -2.7      5.812      6.854
REMARK  Name = *****
REMARK                            x       y       z     vdW  Elec       q    Type
REMARK                         _______ _______ _______ _____ _____    ______ ____
ROOT
ATOM      1  C   LIG    1       25.899 -13.809   3.260  0.00  0.00    +0.271 C 
ENDROOT
BRANCH   1   3
ATOM      2  O   LIG    1       28.867 -12.620   4.340  0.00  0.00    -0.255 OA
ATOM      3  P   LIG    1       27.509 -13.164   3.846  0.00  0.00    +0.371 P 
BRANCH   3   4
ATOM      4  O   LIG    1       26.979 -13.249   5.402  0.00  0.00    -0.322 OA
ATOM      5  H   LIG    1       27.504 -13.941   5.854  0.00  0.00    +0.220 HD
ENDBRANCH   3   4
BRANCH   3   6
ATOM      6  O   LIG    1       28.124 -14.694   3.782  0.00  0.00    -0.322 OA
ATOM      7  H   LIG    1       29.021 -14.612   3.391  0.00  0.00    +0.220 HD
ENDBRANCH   3   6
ENDBRANCH   1   3
BRANCH   1   8
ATOM      8  P   LIG    1       24.686 -12.559   2.663  0.00  0.00    +0.371 P 
ATOM      9  O   LIG    1       25.178 -11.448   1.814  0.00  0.00    -0.255 OA
BRANCH   8  10
ATOM     10  O   LIG    1       23.853 -12.000   3.916  0.00  0.00    -0.322 OA
ATOM     11  H   LIG    1       23.270 -11.255   3.678  0.00  0.00    +0.220 HD
ENDBRANCH   8  10
BRANCH   8  12
ATOM     12  O   LIG    1       23.520 -13.381   1.904  0.00  0.00    -0.322 OA
ATOM     13  H   LIG    1       23.416 -14.296   2.220  0.00  0.00    +0.220 HD
ENDBRANCH   8  12
ENDBRANCH   1   8
BRANCH   1  14
ATOM     14  O   LIG    1       26.123 -14.633   2.059  0.00  0.00    -0.367 OA
ATOM     15  H   LIG    1       27.019 -15.015   2.205  0.00  0.00    +0.212 HD
ENDBRANCH   1  14
BRANCH   1  16
ATOM     16  C   LIG    1       25.210 -14.771   4.278  0.00  0.00    +0.097 C 
BRANCH  16  17
ATOM     17  C   LIG    1       24.992 -16.219   3.902  0.00  0.00    -0.025 A 
ATOM     18  C   LIG    1       23.749 -16.829   4.053  0.00  0.00    +0.114 A 
ATOM     19  N   LIG    1       23.501 -18.135   3.794  0.00  0.00    -0.263 NA
ATOM     20  C   LIG    1       24.543 -18.889   3.386  0.00  0.00    +0.111 A 
ATOM     21  C   LIG    1       25.822 -18.392   3.218  0.00  0.00    +0.020 A 
ATOM     22  C   LIG    1       26.045 -17.042   3.487  0.00  0.00    +0.007 A 
ENDBRANCH  16  17
ENDBRANCH   1  16
TORSDOF 9
ENDMDL
MODEL 3
REMARK VINA RESULT:      -2.5      5.162      6.687
REMARK  Name = *****
REMARK                            x       y       z     vdW  Elec       q    Type
REMARK                         _______ _______ _______ _____ _____    ______ ____
ROOT
ATOM      1  C   LIG    1       25.631 -14.318   3.607  0.00  0.00    +0.271 C 
ENDROOT
BRANCH   1   3
ATOM      2  O   LIG    1       24.150 -11.778   1.950  0.00  0.00    -0.255 OA
ATOM      3  P   LIG    1       24.828 -12.941   2.709  0.00  0.00    +0.371 P 
BRANCH   3   4
ATOM      4  O   LIG    1       23.380 -13.717   2.808  0.00  0.00    -0.322 OA
ATOM      5  H   LIG    1       22.960 -13.670   1.924  0.00  0.00    +0.220 HD
ENDBRANCH   3   4
BRANCH   3   6
ATOM      6  O   LIG    1       24.688 -12.117   4.132  0.00  0.00    -0.322 OA
ATOM      7  H   LIG    1       23.747 -12.193   4.401  0.00  0.00    +0.220 HD
ENDBRANCH   3   6
ENDBRANCH   1   3
BRANCH   1   8
ATOM      8  P   LIG    1       27.256 -13.947   4.389  0.00  0.00    +0.371 P 
ATOM      9  O   LIG    1       27.268 -13.395   5.765  0.00  0.00    -0.255 OA
BRANCH   8  10
ATOM     10  O   LIG    1       28.117 -13.029   3.394  0.00  0.00    -0.322 OA
ATOM     11  H   LIG    1       27.575 -12.357   2.939  0.00  0.00    +0.220 HD
ENDBRANCH   8  10
BRANCH   8  12
ATOM     12  O   LIG    1       28.119 -15.311   4.317  0.00  0.00    -0.322 OA
ATOM     13  H   LIG    1       28.749 -15.338   3.574  0.00  0.00    +0.220 HD
ENDBRANCH   8  12
ENDBRANCH   1   8
BRANCH   1  14
ATOM     14  O   LIG    1       24.797 -14.683   4.767  0.00  0.00    -0.367 OA
ATOM     15  H   LIG    1       25.204 -15.520   5.089  0.00  0.00    +0.212 HD
ENDBRANCH   1  14
BRANCH   1  16
ATOM     16  C   LIG    1       25.735 -15.629   2.767  0.00  0.00    +0.097 C 
BRANCH  16  17
ATOM     17  C   LIG    1       25.187 -16.920   3.331  0.00  0.00    -0.025 A 
ATOM     18  C   LIG    1       25.962 -18.076   3.383  0.00  0.00    +0.114 A 
ATOM     19  N   LIG    1       25.515 -19.278   3.818  0.00  0.00    -0.263 NA
ATOM     20  C   LIG    1       24.223 -19.351   4.201  0.00  0.00    +0.111 A 
ATOM     21  C   LIG    1       23.360 -18.271   4.176  0.00  0.00    +0.020 A 
ATOM     22  C   LIG    1       23.851 -17.045   3.728  0.00  0.00    +0.007 A 
ENDBRANCH  16  17
ENDBRANCH   1  16
TORSDOF 9
ENDMDL
MODEL 4
REMARK VINA RESULT:      -2.2      5.511      6.777
REMARK  Name = *****
REMARK                            x       y       z     vdW  Elec       q    Type
REMARK                         _______ _______ _______ _____ _____    ______ ____
ROOT
ATOM      1  C   LIG    1       25.417 -14.109   3.560  0.00  0.00    +0.271 C 
ENDROOT
BRANCH   1   3
ATOM      2  O   LIG    1       27.987 -13.457   5.648  0.00  0.00    -0.255 OA
ATOM      3  P   LIG    1       26.811 -13.756   4.692  0.00  0.00    +0.371 P 
BRANCH   3   4
ATOM      4  O   LIG    1       27.614 -12.999   3.471  0.00  0.00    -0.322 OA
ATOM      5  H   LIG    1       27.009 -12.325   3.096  0.00  0.00    +0.220 HD
ENDBRANCH   3   4
BRANCH   3   6
ATOM      6  O   LIG    1       26.007 -12.420   5.235  0.00  0.00    -0.322 OA
ATOM      7  H   LIG    1       26.641 -11.673   5.167  0.00  0.00    +0.220 HD
ENDBRANCH   3   6
ENDBRANCH   1   3
BRANCH   1   8
ATOM      8  P   LIG    1       24.623 -12.653   2.760  0.00  0.00    +0.371 P 
ATOM      9  O   LIG    1       25.481 -11.706   2.008  0.00  0.00    -0.255 OA
BRANCH   8  10
ATOM     10  O   LIG    1       23.733 -11.881   3.849  0.00  0.00    -0.322 OA
ATOM     11  H   LIG    1       22.940 -12.385   4.114  0.00  0.00    +0.220 HD
ENDBRANCH   8  10
BRANCH   8  12
ATOM     12  O   LIG    1       23.452 -13.234   1.812  0.00  0.00    -0.322 OA
ATOM     13  H   LIG    1       23.716 -13.339   0.880  0.00  0.00    +0.220 HD
ENDBRANCH   8  12
ENDBRANCH   1   8
BRANCH   1  14
ATOM     14  O   LIG    1       25.923 -14.870   2.403  0.00  0.00    -0.367 OA
ATOM     15  H   LIG    1       26.033 -14.183   1.706  0.00  0.00    +0.212 HD
ENDBRANCH   1  14
BRANCH   1  16
ATOM     16  C   LIG    1       24.324 -15.028   4.190  0.00  0.00    +0.097 C 
BRANCH  16  17
ATOM     17  C   LIG    1       24.404 -16.524   3.991  0.00  0.00    -0.025 A 
ATOM     18  C   LIG    1       25.579 -17.138   3.565  0.00  0.00    +0.114 A 
ATOM     19  N   LIG    1       25.702 -18.462   3.309  0.00  0.00    -0.263 NA
ATOM     20  C   LIG    1       24.596 -19.221   3.457  0.00  0.00    +0.111 A 
ATOM     21  C   LIG    1       23.374 -18.715   3.858  0.00  0.00    +0.020 A 
ATOM     22  C   LIG    1       23.280 -17.348   4.120  0.00  0.00    +0.007 A 
ENDBRANCH  16  17
ENDBRANCH   1  16
TORSDOF 9
ENDMDL
MODEL 5
REMARK VINA RESULT:      -2.1      4.862      6.658
REMARK  Name = *****
REMARK                            x       y       z     vdW  Elec       q    Type
REMARK                         _______ _______ _______ _____ _____    ______ ____
ROOT
ATOM      1  C   LIG    1       26.733 -14.453   4.061  0.00  0.00    +0.271 C 
ENDROOT
BRANCH   1   3
ATOM      2  O   LIG    1       23.425 -13.923   3.657  0.00  0.00    -0.255 OA
ATOM      3  P   LIG    1       24.939 -14.165   3.842  0.00  0.00    +0.371 P 
BRANCH   3   4
ATOM      4  O   LIG    1       25.070 -12.731   4.639  0.00  0.00    -0.322 OA
ATOM      5  H   LIG    1       25.339 -12.055   3.983  0.00  0.00    +0.220 HD
ENDBRANCH   3   4
BRANCH   3   6
ATOM      6  O   LIG    1       25.238 -13.562   2.335  0.00  0.00    -0.322 OA
ATOM      7  H   LIG    1       26.023 -12.979   2.424  0.00  0.00    +0.220 HD
ENDBRANCH   3   6
ENDBRANCH   1   3
BRANCH   1   8
ATOM      8  P   LIG    1       27.837 -13.015   3.738  0.00  0.00    +0.371 P 
ATOM      9  O   LIG    1       27.382 -11.976   2.782  0.00  0.00    -0.255 OA
BRANCH   8  10
ATOM     10  O   LIG    1       29.297 -13.554   3.349  0.00  0.00    -0.322 OA
ATOM     11  H   LIG    1       29.345 -13.881   2.430  0.00  0.00    +0.220 HD
ENDBRANCH   8  10
BRANCH   8  12
ATOM     12  O   LIG    1       28.164 -12.357   5.177  0.00  0.00    -0.322 OA
ATOM     13  H   LIG    1       28.289 -11.392   5.149  0.00  0.00    +0.220 HD
ENDBRANCH   8  12
ENDBRANCH   1   8
BRANCH   1  14
ATOM     14  O   LIG    1       27.001 -14.746   5.480  0.00  0.00    -0.367 OA
ATOM     15  H   LIG    1       27.957 -14.538   5.582  0.00  0.00    +0.212 HD
ENDBRANCH   1  14
BRANCH   1  16
ATOM     16  C   LIG    1       27.259 -15.705   3.292  0.00  0.00    +0.097 C 
BRANCH  16  17
ATOM     17  C   LIG    1       26.820 -17.084   3.728  0.00  0.00    -0.025 A 
ATOM     18  C   LIG    1       27.652 -17.907   4.482  0.00  0.00    +0.114 A 
ATOM     19  N   LIG    1       27.347 -19.173   4.853  0.00  0.00    -0.263 NA
ATOM     20  C   LIG    1       26.162 -19.665   4.436  0.00  0.00    +0.111 A 
ATOM     21  C   LIG    1       25.265 -18.944   3.670  0.00  0.00    +0.020 A 
ATOM     22  C   LIG    1       25.606 -17.641   3.308  0.00  0.00    +0.007 A 
ENDBRANCH  16  17
ENDBRANCH   1  16
TORSDOF 9
ENDMDL
MODEL 6
REMARK VINA RESULT:      -1.8      3.650      4.720
REMARK  Name = *****
REMARK                            x       y       z     vdW  Elec       q    Type
REMARK                         _______ _______ _______ _____ _____    ______ ____
ROOT
ATOM      1  C   LIG    1       24.826 -19.132   3.814  0.00  0.00    +0.271 C 
ENDROOT
BRANCH   1   3
ATOM      2  O   LIG    1       21.954 -17.670   4.816  0.00  0.00    -0.255 OA
ATOM      3  P   LIG    1       23.269 -18.339   4.358  0.00  0.00    +0.371 P 
BRANCH   3   4
ATOM      4  O   LIG    1       22.506 -18.914   3.017  0.00  0.00    -0.322 OA
ATOM      5  H   LIG    1       22.932 -18.501   2.237  0.00  0.00    +0.220 HD
ENDBRANCH   3   4
BRANCH   3   6
ATOM      6  O   LIG    1       22.959 -19.647   5.315  0.00  0.00    -0.322 OA
ATOM      7  H   LIG    1       22.497 -19.301   6.110  0.00  0.00    +0.220 HD
ENDBRANCH   3   6
ENDBRANCH   1   3
BRANCH   1   8
ATOM      8  P   LIG    1       25.806 -19.988   5.117  0.00  0.00    +0.371 P 
ATOM      9  O   LIG    1       25.523 -19.668   6.537  0.00  0.00    -0.255 OA
BRANCH   8  10
ATOM     10  O   LIG    1       27.368 -19.819   4.791  0.00  0.00    -0.322 OA
ATOM     11  H   LIG    1       27.535 -19.188   4.066  0.00  0.00    +0.220 HD
ENDBRANCH   8  10
BRANCH   8  12
ATOM     12  O   LIG    1       25.640 -21.572   4.848  0.00  0.00    -0.322 OA
ATOM     13  H   LIG    1       26.110 -22.131   5.492  0.00  0.00    +0.220 HD
ENDBRANCH   8  12
ENDBRANCH   1   8
BRANCH   1  14
ATOM     14  O   LIG    1       24.505 -20.230   2.885  0.00  0.00    -0.367 OA
ATOM     15  H   LIG    1       25.067 -20.973   3.204  0.00  0.00    +0.212 HD
ENDBRANCH   1  14
BRANCH   1  16
ATOM     16  C   LIG    1       25.754 -18.180   2.996  0.00  0.00    +0.097 C 
BRANCH  16  17
ATOM     17  C   LIG    1       25.934 -16.748   3.446  0.00  0.00    -0.025 A 
ATOM     18  C   LIG    1       24.847 -15.892   3.598  0.00  0.00    +0.114 A 
ATOM     19  N   LIG    1       24.943 -14.585   3.939  0.00  0.00    -0.263 NA
ATOM     20  C   LIG    1       26.185 -14.087   4.116  0.00  0.00    +0.111 A 
ATOM     21  C   LIG    1       27.335 -14.841   3.976  0.00  0.00    +0.020 A 
ATOM     22  C   LIG    1       27.203 -16.186   3.629  0.00  0.00    +0.007 A 
ENDBRANCH  16  17
ENDBRANCH   1  16
TORSDOF 9
ENDMDL
MODEL 7
REMARK VINA RESULT:      -1.1      4.043      5.169
REMARK  Name = *****
REMARK                            x       y       z     vdW  Elec       q    Type
REMARK                         _______ _______ _______ _____ _____    ______ ____
ROOT
ATOM      1  C   LIG    1       25.113 -18.784   3.850  0.00  0.00    +0.271 C 
ENDROOT
BRANCH   1   3
ATOM      2  O   LIG    1       21.876 -17.920   4.263  0.00  0.00    -0.255 OA
ATOM      3  P   LIG    1       23.358 -18.315   4.074  0.00  0.00    +0.371 P 
BRANCH   3   4
ATOM      4  O   LIG    1       22.947 -19.217   2.760  0.00  0.00    -0.322 OA
ATOM      5  H   LIG    1       22.904 -20.153   3.048  0.00  0.00    +0.220 HD
ENDBRANCH   3   4
BRANCH   3   6
ATOM      6  O   LIG    1       23.195 -19.527   5.183  0.00  0.00    -0.322 OA
ATOM      7  H   LIG    1       22.262 -19.830   5.122  0.00  0.00    +0.220 HD
ENDBRANCH   3   6
ENDBRANCH   1   3
BRANCH   1   8
ATOM      8  P   LIG    1       25.698 -20.243   4.808  0.00  0.00    +0.371 P 
ATOM      9  O   LIG    1       25.118 -21.572   4.495  0.00  0.00    -0.255 OA
BRANCH   8  10
ATOM     10  O   LIG    1       25.582 -19.920   6.375  0.00  0.00    -0.322 OA
ATOM     11  H   LIG    1       24.772 -19.422   6.598  0.00  0.00    +0.220 HD
ENDBRANCH   8  10
BRANCH   8  12
ATOM     12  O   LIG    1       27.306 -20.275   4.654  0.00  0.00    -0.322 OA
ATOM     13  H   LIG    1       27.618 -20.812   3.904  0.00  0.00    +0.220 HD
ENDBRANCH   8  12
ENDBRANCH   1   8
BRANCH   1  14
ATOM     14  O   LIG    1       25.318 -19.216   2.456  0.00  0.00    -0.367 OA
ATOM     15  H   LIG    1       24.985 -18.455   1.928  0.00  0.00    +0.212 HD
ENDBRANCH   1  14
BRANCH   1  16
ATOM     16  C   LIG    1       26.102 -17.592   4.045  0.00  0.00    +0.097 C 
BRANCH  16  17
ATOM     17  C   LIG    1       25.705 -16.211   3.575  0.00  0.00    -0.025 A 
ATOM     18  C   LIG    1       26.516 -15.476   2.715  0.00  0.00    +0.114 A 
ATOM     19  N   LIG    1       26.251 -14.213   2.305  0.00  0.00    -0.263 NA
ATOM     20  C   LIG    1       25.134 -13.632   2.791  0.00  0.00    +0.111 A 
ATOM     21  C   LIG    1       24.266 -14.262   3.663  0.00  0.00    +0.020 A 
ATOM     22  C   LIG    1       24.564 -15.565   4.063  0.00  0.00    +0.007 A 
ENDBRANCH  16  17
ENDBRANCH   1  16
TORSDOF 9
ENDMDL
MODEL 8
REMARK VINA RESULT:      -0.9      5.488      6.783
REMARK  Name = *****
REMARK                            x       y       z     vdW  Elec       q    Type
REMARK                         _______ _______ _______ _____ _____    ______ ____
ROOT
ATOM      1  C   LIG    1       24.362 -14.157   3.714  0.00  0.00    +0.271 C 
ENDROOT
BRANCH   1   3
ATOM      2  O   LIG    1       27.252 -15.758   3.025  0.00  0.00    -0.255 OA
ATOM      3  P   LIG    1       25.929 -15.025   3.340  0.00  0.00    +0.371 P 
BRANCH   3   4
ATOM      4  O   LIG    1       26.188 -14.014   2.068  0.00  0.00    -0.322 OA
ATOM      5  H   LIG    1       26.242 -14.566   1.260  0.00  0.00    +0.220 HD
ENDBRANCH   3   4
BRANCH   3   6
ATOM      6  O   LIG    1       26.693 -14.093   4.469  0.00  0.00    -0.322 OA
ATOM      7  H   LIG    1       25.997 -13.795   5.094  0.00  0.00    +0.220 HD
ENDBRANCH   3   6
ENDBRANCH   1   3
BRANCH   1   8
ATOM      8  P   LIG    1       24.513 -12.465   4.425  0.00  0.00    +0.371 P 
ATOM      9  O   LIG    1       25.613 -12.199   5.384  0.00  0.00    -0.255 OA
BRANCH   8  10
ATOM     10  O   LIG    1       23.097 -12.029   5.039  0.00  0.00    -0.322 OA
ATOM     11  H   LIG    1       23.138 -11.861   5.999  0.00  0.00    +0.220 HD
ENDBRANCH   8  10
BRANCH   8  12
ATOM     12  O   LIG    1       24.593 -11.449   3.172  0.00  0.00    -0.322 OA
ATOM     13  H   LIG    1       23.768 -11.395   2.657  0.00  0.00    +0.220 HD
ENDBRANCH   8  12
ENDBRANCH   1   8
BRANCH   1  14
ATOM     14  O   LIG    1       23.641 -13.909   2.453  0.00  0.00    -0.367 OA
ATOM     15  H   LIG    1       24.278 -13.374   1.925  0.00  0.00    +0.212 HD
ENDBRANCH   1  14
BRANCH   1  16
ATOM     16  C   LIG    1       23.373 -15.006   4.574  0.00  0.00    +0.097 C 
BRANCH  16  17
ATOM     17  C   LIG    1       23.250 -16.490   4.319  0.00  0.00    -0.025 A 
ATOM     18  C   LIG    1       22.100 -17.194   4.666  0.00  0.00    +0.114 A 
ATOM     19  N   LIG    1       21.948 -18.532   4.522  0.00  0.00    -0.263 NA
ATOM     20  C   LIG    1       22.999 -19.219   4.029  0.00  0.00    +0.111 A 
ATOM     21  C   LIG    1       24.194 -18.626   3.666  0.00  0.00    +0.020 A 
ATOM     22  C   LIG    1       24.319 -17.246   3.822  0.00  0.00    +0.007 A 
ENDBRANCH  16  17
ENDBRANCH   1  16
TORSDOF 9
ENDMDL
MODEL 9
REMARK VINA RESULT:      -0.8      3.471      4.462
REMARK  Name = *****
REMARK                            x       y       z     vdW  Elec       q    Type
REMARK                         _______ _______ _______ _____ _____    ______ ____
ROOT
ATOM      1  C   LIG    1       24.905 -19.350   4.402  0.00  0.00    +0.271 C 
ENDROOT
BRANCH   1   3
ATOM      2  O   LIG    1       26.874 -20.645   6.818  0.00  0.00    -0.255 OA
ATOM      3  P   LIG    1       25.973 -20.052   5.712  0.00  0.00    +0.371 P 
BRANCH   3   4
ATOM      4  O   LIG    1       25.515 -21.571   5.275  0.00  0.00    -0.322 OA
ATOM      5  H   LIG    1       26.030 -22.202   5.819  0.00  0.00    +0.220 HD
ENDBRANCH   3   4
BRANCH   3   6
ATOM      6  O   LIG    1       27.264 -19.952   4.689  0.00  0.00    -0.322 OA
ATOM      7  H   LIG    1       27.970 -19.482   5.184  0.00  0.00    +0.220 HD
ENDBRANCH   3   6
ENDBRANCH   1   3
BRANCH   1   8
ATOM      8  P   LIG    1       23.697 -20.503   3.626  0.00  0.00    +0.371 P 
ATOM      9  O   LIG    1       24.209 -21.547   2.706  0.00  0.00    -0.255 OA
BRANCH   8  10
ATOM     10  O   LIG    1       22.530 -19.648   2.933  0.00  0.00    -0.322 OA
ATOM     11  H   LIG    1       22.856 -18.815   2.542  0.00  0.00    +0.220 HD
ENDBRANCH   8  10
BRANCH   8  12
ATOM     12  O   LIG    1       22.863 -21.173   4.837  0.00  0.00    -0.322 OA
ATOM     13  H   LIG    1       22.015 -20.729   5.022  0.00  0.00    +0.220 HD
ENDBRANCH   8  12
ENDBRANCH   1   8
BRANCH   1  14
ATOM     14  O   LIG    1       24.029 -18.325   4.997  0.00  0.00    -0.367 OA
ATOM     15  H   LIG    1       24.613 -17.875   5.650  0.00  0.00    +0.212 HD
ENDBRANCH   1  14
BRANCH   1  16
ATOM     16  C   LIG    1       25.702 -18.595   3.292  0.00  0.00    +0.097 C 
BRANCH  16  17
ATOM     17  C   LIG    1       25.945 -17.109   3.432  0.00  0.00    -0.025 A 
ATOM     18  C   LIG    1       27.223 -16.600   3.644  0.00  0.00    +0.114 A 
ATOM     19  N   LIG    1       27.503 -15.289   3.838  0.00  0.00    -0.263 NA
ATOM     20  C   LIG    1       26.459 -14.434   3.848  0.00  0.00    +0.111 A 
ATOM     21  C   LIG    1       25.148 -14.831   3.664  0.00  0.00    +0.020 A 
ATOM     22  C   LIG    1       24.892 -16.187   3.462  0.00  0.00    +0.007 A 
ENDBRANCH  16  17
ENDBRANCH   1  16
TORSDOF 9
ENDMDL
