MODEL 1
REMARK VINA RESULT:      -9.3      0.000      0.000
REMARK  Name = *****
REMARK                            x       y       z     vdW  Elec       q    Type
REMARK                         _______ _______ _______ _____ _____    ______ ____
ROOT
ATOM      1  C   LIG    1       29.960 -21.414   8.561  0.00  0.00    +0.020 C 
ATOM      2  C   LIG    1       29.147 -20.377   7.713  0.00  0.00    +0.011 C 
ATOM      3  C   LIG    1       27.809 -21.111   7.330  0.00  0.00    +0.006 C 
ATOM      4  C   LIG    1       27.003 -21.508   8.581  0.00  0.00    +0.009 C 
ATOM      5  C   LIG    1       25.577 -21.015   8.635  0.00  0.00    +0.048 C 
ATOM      6  C   LIG    1       24.818 -21.312   7.343  0.00  0.00    +0.114 C 
ATOM      7  C   LIG    1       25.484 -20.609   6.139  0.00  0.00    +0.037 C 
ATOM      8  C   LIG    1       24.983 -21.240   4.820  0.00  0.00    +0.019 C 
ATOM      9  C   LIG    1       24.800 -22.740   4.823  0.00  0.00    +0.121 C 
ATOM     10  C   LIG    1       24.475 -23.418   6.124  0.00  0.00    +0.308 C 
ATOM     11  O   LIG    1       24.066 -24.577   6.171  0.00  0.00    -0.251 OA
ATOM     12  O   LIG    1       24.811 -22.742   7.245  0.00  0.00    -0.458 OA
ATOM     13  C   LIG    1       23.362 -20.844   7.570  0.00  0.00    +0.056 C 
ATOM     14  C   LIG    1       27.043 -20.540   6.121  0.00  0.00    +0.000 C 
ATOM     15  C   LIG    1       27.603 -19.168   5.674  0.00  0.00    +0.008 C 
ATOM     16  C   LIG    1       29.112 -19.282   5.375  0.00  0.00    +0.032 C 
ATOM     17  C   LIG    1       29.949 -19.933   6.478  0.00  0.00    -0.056 C 
ATOM     18  C   LIG    1       31.161 -19.369   6.711  0.00  0.00    +0.051 C 
ATOM     19  C   LIG    1       31.206 -18.414   7.894  0.00  0.00    +0.179 C 
ATOM     20  O   LIG    1       32.246 -17.939   8.309  0.00  0.00    -0.288 OA
ATOM     21  C   LIG    1       29.888 -18.140   8.553  0.00  0.00    +0.047 C 
ATOM     22  C   LIG    1       28.929 -19.085   8.509  0.00  0.00    -0.012 C 
ENDROOT
TORSDOF 0
ENDMDL
MODEL 2
REMARK VINA RESULT:      -7.4      1.822      6.337
REMARK  Name = *****
REMARK                            x       y       z     vdW  Elec       q    Type
REMARK                         _______ _______ _______ _____ _____    ______ ____
ROOT
ATOM      1  C   LIG    1       23.504 -20.305   7.939  0.00  0.00    +0.020 C 
ATOM      2  C   LIG    1       24.417 -20.687   6.724  0.00  0.00    +0.011 C 
ATOM      3  C   LIG    1       25.870 -20.256   7.145  0.00  0.00    +0.006 C 
ATOM      4  C   LIG    1       26.340 -21.007   8.406  0.00  0.00    +0.009 C 
ATOM      5  C   LIG    1       27.646 -21.755   8.285  0.00  0.00    +0.048 C 
ATOM      6  C   LIG    1       28.751 -20.887   7.687  0.00  0.00    +0.114 C 
ATOM      7  C   LIG    1       28.375 -20.420   6.262  0.00  0.00    +0.037 C 
ATOM      8  C   LIG    1       29.272 -19.232   5.845  0.00  0.00    +0.019 C 
ATOM      9  C   LIG    1       29.585 -18.220   6.923  0.00  0.00    +0.121 C 
ATOM     10  C   LIG    1       29.606 -18.682   8.353  0.00  0.00    +0.308 C 
ATOM     11  O   LIG    1       30.092 -17.998   9.252  0.00  0.00    -0.251 OA
ATOM     12  O   LIG    1       28.918 -19.814   8.621  0.00  0.00    -0.458 OA
ATOM     13  C   LIG    1       30.041 -21.740   7.707  0.00  0.00    +0.056 C 
ATOM     14  C   LIG    1       26.880 -20.059   5.997  0.00  0.00    +0.000 C 
ATOM     15  C   LIG    1       26.337 -20.591   4.649  0.00  0.00    +0.008 C 
ATOM     16  C   LIG    1       24.984 -19.927   4.322  0.00  0.00    +0.032 C 
ATOM     17  C   LIG    1       23.943 -19.981   5.442  0.00  0.00    -0.056 C 
ATOM     18  C   LIG    1       22.666 -20.224   5.051  0.00  0.00    +0.051 C 
ATOM     19  C   LIG    1       22.213 -21.668   5.206  0.00  0.00    +0.179 C 
ATOM     20  O   LIG    1       21.060 -22.012   5.027  0.00  0.00    -0.288 OA
ATOM     21  C   LIG    1       23.271 -22.633   5.648  0.00  0.00    +0.047 C 
ATOM     22  C   LIG    1       24.289 -22.181   6.404  0.00  0.00    -0.012 C 
ENDROOT
TORSDOF 0
ENDMDL
MODEL 3
REMARK VINA RESULT:      -6.3      9.528     12.005
REMARK  Name = *****
REMARK                            x       y       z     vdW  Elec       q    Type
REMARK                         _______ _______ _______ _____ _____    ______ ____
ROOT
ATOM      1  C   LIG    1       21.217 -29.447  14.441  0.00  0.00    +0.020 C 
ATOM      2  C   LIG    1       21.947 -28.111  14.070  0.00  0.00    +0.011 C 
ATOM      3  C   LIG    1       23.454 -28.507  13.855  0.00  0.00    +0.006 C 
ATOM      4  C   LIG    1       23.614 -29.523  12.709  0.00  0.00    +0.009 C 
ATOM      5  C   LIG    1       24.571 -29.135  11.606  0.00  0.00    +0.048 C 
ATOM      6  C   LIG    1       25.918 -28.668  12.154  0.00  0.00    +0.114 C 
ATOM      7  C   LIG    1       25.746 -27.422  13.051  0.00  0.00    +0.037 C 
ATOM      8  C   LIG    1       27.011 -27.220  13.918  0.00  0.00    +0.019 C 
ATOM      9  C   LIG    1       27.651 -28.473  14.466  0.00  0.00    +0.121 C 
ATOM     10  C   LIG    1       27.493 -29.754  13.696  0.00  0.00    +0.308 C 
ATOM     11  O   LIG    1       28.182 -30.746  13.931  0.00  0.00    -0.251 OA
ATOM     12  O   LIG    1       26.445 -29.808  12.844  0.00  0.00    -0.458 OA
ATOM     13  C   LIG    1       26.821 -28.395  10.929  0.00  0.00    +0.056 C 
ATOM     14  C   LIG    1       24.480 -27.361  13.960  0.00  0.00    +0.000 C 
ATOM     15  C   LIG    1       23.797 -25.973  13.992  0.00  0.00    +0.008 C 
ATOM     16  C   LIG    1       22.771 -25.911  15.141  0.00  0.00    +0.032 C 
ATOM     17  C   LIG    1       21.767 -27.064  15.184  0.00  0.00    -0.056 C 
ATOM     18  C   LIG    1       20.491 -26.727  15.500  0.00  0.00    +0.051 C 
ATOM     19  C   LIG    1       19.554 -26.582  14.311  0.00  0.00    +0.179 C 
ATOM     20  O   LIG    1       18.355 -26.418  14.443  0.00  0.00    -0.288 OA
ATOM     21  C   LIG    1       20.196 -26.709  12.963  0.00  0.00    +0.047 C 
ATOM     22  C   LIG    1       21.301 -27.469  12.838  0.00  0.00    -0.012 C 
ENDROOT
TORSDOF 0
ENDMDL
