MODEL 1
REMARK VINA RESULT:      -5.1      0.000      0.000
REMARK  Name = *****
REMARK                            x       y       z     vdW  Elec       q    Type
REMARK                         _______ _______ _______ _____ _____    ______ ____
ROOT
ATOM      1  C   LIG    1       22.602 -16.880   4.596  0.00  0.00    +0.167 C 
ATOM      2  O   LIG    1       21.767 -16.298   5.298  0.00  0.00    -0.292 OA
ENDROOT
BRANCH   1   7
ATOM      3  C   LIG    1       27.267 -13.919   2.854  0.00  0.00    +0.044 C 
ATOM      4  C   LIG    1       26.061 -14.694   3.297  0.00  0.00    -0.050 A 
ATOM      5  C   LIG    1       26.058 -16.091   3.248  0.00  0.00    +0.004 A 
ATOM      6  C   LIG    1       24.937 -16.812   3.661  0.00  0.00    +0.012 A 
ATOM      7  C   LIG    1       23.812 -16.140   4.156  0.00  0.00    +0.018 A 
ATOM      8  C   LIG    1       23.814 -14.744   4.217  0.00  0.00    +0.012 A 
ATOM      9  C   LIG    1       24.935 -14.024   3.795  0.00  0.00    +0.004 A 
ENDBRANCH   1   7
BRANCH   1  10
ATOM     10  C   LIG    1       22.425 -18.326   4.157  0.00  0.00    +0.071 C 
ATOM     11  C   LIG    1       21.038 -18.483   3.519  0.00  0.00    +0.017 C 
BRANCH  10  12
ATOM     12  C   LIG    1       22.597 -19.256   5.372  0.00  0.00    +0.095 C 
BRANCH  12  13
ATOM     13  N   LIG    1       23.022 -20.643   5.074  0.00  0.00    -0.302 NA
ATOM     14  C   LIG    1       24.211 -20.651   4.201  0.00  0.00    +0.084 C 
ATOM     15  C   LIG    1       25.500 -20.228   4.915  0.00  0.00    +0.015 C 
ATOM     16  C   LIG    1       25.734 -21.029   6.194  0.00  0.00    +0.002 C 
ATOM     17  C   LIG    1       24.480 -21.079   7.062  0.00  0.00    +0.015 C 
ATOM     18  C   LIG    1       23.265 -21.503   6.239  0.00  0.00    +0.084 C 
ENDBRANCH  12  13
ENDBRANCH  10  12
ENDBRANCH   1  10
TORSDOF 4
ENDMDL
MODEL 2
REMARK VINA RESULT:      -4.3      1.883      2.897
REMARK  Name = *****
REMARK                            x       y       z     vdW  Elec       q    Type
REMARK                         _______ _______ _______ _____ _____    ______ ____
ROOT
ATOM      1  C   LIG    1       26.155 -17.028   3.536  0.00  0.00    +0.167 C 
ATOM      2  O   LIG    1       27.365 -17.155   3.748  0.00  0.00    -0.292 OA
ENDROOT
BRANCH   1   7
ATOM      3  C   LIG    1       24.046 -11.667   2.914  0.00  0.00    +0.044 C 
ATOM      4  C   LIG    1       24.589 -13.056   3.086  0.00  0.00    -0.050 A 
ATOM      5  C   LIG    1       23.928 -13.979   3.903  0.00  0.00    +0.004 A 
ATOM      6  C   LIG    1       24.431 -15.271   4.062  0.00  0.00    +0.012 A 
ATOM      7  C   LIG    1       25.591 -15.662   3.381  0.00  0.00    +0.018 A 
ATOM      8  C   LIG    1       26.249 -14.746   2.555  0.00  0.00    +0.012 A 
ATOM      9  C   LIG    1       25.747 -13.451   2.404  0.00  0.00    +0.004 A 
ENDBRANCH   1   7
BRANCH   1  10
ATOM     10  C   LIG    1       25.219 -18.224   3.439  0.00  0.00    +0.071 C 
ATOM     11  C   LIG    1       23.776 -17.742   3.646  0.00  0.00    +0.017 C 
BRANCH  10  12
ATOM     12  C   LIG    1       25.619 -19.275   4.490  0.00  0.00    +0.095 C 
BRANCH  12  13
ATOM     13  N   LIG    1       24.932 -20.583   4.397  0.00  0.00    -0.302 NA
ATOM     14  C   LIG    1       25.407 -21.501   5.450  0.00  0.00    +0.084 C 
ATOM     15  C   LIG    1       24.901 -21.143   6.852  0.00  0.00    +0.015 C 
ATOM     16  C   LIG    1       23.382 -20.982   6.887  0.00  0.00    +0.002 C 
ATOM     17  C   LIG    1       22.886 -20.090   5.753  0.00  0.00    +0.015 C 
ATOM     18  C   LIG    1       23.465 -20.540   4.412  0.00  0.00    +0.084 C 
ENDBRANCH  12  13
ENDBRANCH  10  12
ENDBRANCH   1  10
TORSDOF 4
ENDMDL
MODEL 3
REMARK VINA RESULT:      -3.2      1.566      2.552
REMARK  Name = *****
REMARK                            x       y       z     vdW  Elec       q    Type
REMARK                         _______ _______ _______ _____ _____    ______ ____
ROOT
ATOM      1  C   LIG    1       24.683 -17.463   3.630  0.00  0.00    +0.167 C 
ATOM      2  O   LIG    1       23.474 -17.429   3.884  0.00  0.00    -0.292 OA
ENDROOT
BRANCH   1   7
ATOM      3  C   LIG    1       27.805 -12.588   3.842  0.00  0.00    +0.044 C 
ATOM      4  C   LIG    1       26.988 -13.845   3.794  0.00  0.00    -0.050 A 
ATOM      5  C   LIG    1       25.591 -13.786   3.819  0.00  0.00    +0.004 A 
ATOM      6  C   LIG    1       24.832 -14.955   3.773  0.00  0.00    +0.012 A 
ATOM      7  C   LIG    1       25.464 -16.201   3.674  0.00  0.00    +0.018 A 
ATOM      8  C   LIG    1       26.860 -16.266   3.638  0.00  0.00    +0.012 A 
ATOM      9  C   LIG    1       27.618 -15.093   3.692  0.00  0.00    +0.004 A 
ENDBRANCH   1   7
BRANCH   1  10
ATOM     10  C   LIG    1       25.396 -18.756   3.262  0.00  0.00    +0.071 C 
ATOM     11  C   LIG    1       24.513 -19.550   2.290  0.00  0.00    +0.017 C 
BRANCH  10  12
ATOM     12  C   LIG    1       25.694 -19.560   4.540  0.00  0.00    +0.095 C 
BRANCH  12  13
ATOM     13  N   LIG    1       25.129 -20.928   4.595  0.00  0.00    -0.302 NA
ATOM     14  C   LIG    1       25.434 -21.569   5.888  0.00  0.00    +0.084 C 
ATOM     15  C   LIG    1       24.626 -21.003   7.062  0.00  0.00    +0.015 C 
ATOM     16  C   LIG    1       23.126 -21.002   6.773  0.00  0.00    +0.002 C 
ATOM     17  C   LIG    1       22.818 -20.403   5.404  0.00  0.00    +0.015 C 
ATOM     18  C   LIG    1       23.691 -21.039   4.323  0.00  0.00    +0.084 C 
ENDBRANCH  12  13
ENDBRANCH  10  12
ENDBRANCH   1  10
TORSDOF 4
ENDMDL
MODEL 4
REMARK VINA RESULT:      -3.2      2.439      6.519
REMARK  Name = *****
REMARK                            x       y       z     vdW  Elec       q    Type
REMARK                         _______ _______ _______ _____ _____    ______ ____
ROOT
ATOM      1  C   LIG    1       25.770 -18.480   2.937  0.00  0.00    +0.167 C 
ATOM      2  O   LIG    1       25.871 -18.983   1.813  0.00  0.00    -0.292 OA
ENDROOT
BRANCH   1   7
ATOM      3  C   LIG    1       22.988 -21.451   7.061  0.00  0.00    +0.044 C 
ATOM      4  C   LIG    1       23.699 -20.683   5.985  0.00  0.00    -0.050 A 
ATOM      5  C   LIG    1       22.986 -19.846   5.121  0.00  0.00    +0.004 A 
ATOM      6  C   LIG    1       23.647 -19.130   4.123  0.00  0.00    +0.012 A 
ATOM      7  C   LIG    1       25.039 -19.223   3.995  0.00  0.00    +0.018 A 
ATOM      8  C   LIG    1       25.758 -20.050   4.863  0.00  0.00    +0.012 A 
ATOM      9  C   LIG    1       25.092 -20.772   5.857  0.00  0.00    +0.004 A 
ENDBRANCH   1   7
BRANCH   1  10
ATOM     10  C   LIG    1       26.358 -17.117   3.271  0.00  0.00    +0.071 C 
ATOM     11  C   LIG    1       27.347 -17.275   4.433  0.00  0.00    +0.017 C 
BRANCH  10  12
ATOM     12  C   LIG    1       25.222 -16.140   3.625  0.00  0.00    +0.095 C 
BRANCH  12  13
ATOM     13  N   LIG    1       25.635 -14.844   4.208  0.00  0.00    -0.302 NA
ATOM     14  C   LIG    1       26.684 -14.210   3.386  0.00  0.00    +0.084 C 
ATOM     15  C   LIG    1       26.166 -13.642   2.059  0.00  0.00    +0.015 C 
ATOM     16  C   LIG    1       24.971 -12.713   2.263  0.00  0.00    +0.002 C 
ATOM     17  C   LIG    1       23.920 -13.342   3.173  0.00  0.00    +0.015 C 
ATOM     18  C   LIG    1       24.558 -13.877   4.454  0.00  0.00    +0.084 C 
ENDBRANCH  12  13
ENDBRANCH  10  12
ENDBRANCH   1  10
TORSDOF 4
ENDMDL
MODEL 5
REMARK VINA RESULT:      -3.1      2.595      6.379
REMARK  Name = *****
REMARK                            x       y       z     vdW  Elec       q    Type
REMARK                         _______ _______ _______ _____ _____    ______ ____
ROOT
ATOM      1  C   LIG    1       24.822 -16.572   3.633  0.00  0.00    +0.167 C 
ATOM      2  O   LIG    1       25.804 -16.648   2.886  0.00  0.00    -0.292 OA
ENDROOT
BRANCH   1   7
ATOM      3  C   LIG    1       22.073 -21.478   5.025  0.00  0.00    +0.044 C 
ATOM      4  C   LIG    1       22.775 -20.204   4.659  0.00  0.00    -0.050 A 
ATOM      5  C   LIG    1       22.078 -18.992   4.632  0.00  0.00    +0.004 A 
ATOM      6  C   LIG    1       22.731 -17.806   4.294  0.00  0.00    +0.012 A 
ATOM      7  C   LIG    1       24.101 -17.816   4.004  0.00  0.00    +0.018 A 
ATOM      8  C   LIG    1       24.805 -19.023   4.040  0.00  0.00    +0.012 A 
ATOM      9  C   LIG    1       24.147 -20.210   4.372  0.00  0.00    +0.004 A 
ENDBRANCH   1   7
BRANCH   1  10
ATOM     10  C   LIG    1       24.319 -15.242   4.176  0.00  0.00    +0.071 C 
ATOM     11  C   LIG    1       22.905 -15.441   4.740  0.00  0.00    +0.017 C 
BRANCH  10  12
ATOM     12  C   LIG    1       24.337 -14.189   3.053  0.00  0.00    +0.095 C 
BRANCH  12  13
ATOM     13  N   LIG    1       25.068 -12.936   3.347  0.00  0.00    -0.302 NA
ATOM     14  C   LIG    1       25.463 -12.880   4.767  0.00  0.00    +0.084 C 
ATOM     15  C   LIG    1       26.609 -13.834   5.125  0.00  0.00    +0.015 C 
ATOM     16  C   LIG    1       27.810 -13.656   4.199  0.00  0.00    +0.002 C 
ATOM     17  C   LIG    1       27.390 -13.642   2.732  0.00  0.00    +0.015 C 
ATOM     18  C   LIG    1       26.239 -12.664   2.504  0.00  0.00    +0.084 C 
ENDBRANCH  12  13
ENDBRANCH  10  12
ENDBRANCH   1  10
TORSDOF 4
ENDMDL
MODEL 6
REMARK VINA RESULT:      -3.1      1.288      1.733
REMARK  Name = *****
REMARK                            x       y       z     vdW  Elec       q    Type
REMARK                         _______ _______ _______ _____ _____    ______ ____
ROOT
ATOM      1  C   LIG    1       23.473 -15.532   4.463  0.00  0.00    +0.167 C 
ATOM      2  O   LIG    1       22.633 -14.910   5.123  0.00  0.00    -0.292 OA
ENDROOT
BRANCH   1   7
ATOM      3  C   LIG    1       28.670 -13.092   3.682  0.00  0.00    +0.044 C 
ATOM      4  C   LIG    1       27.324 -13.726   3.873  0.00  0.00    -0.050 A 
ATOM      5  C   LIG    1       26.955 -14.848   3.123  0.00  0.00    +0.004 A 
ATOM      6  C   LIG    1       25.704 -15.439   3.301  0.00  0.00    +0.012 A 
ATOM      7  C   LIG    1       24.815 -14.929   4.256  0.00  0.00    +0.018 A 
ATOM      8  C   LIG    1       25.182 -13.814   5.016  0.00  0.00    +0.012 A 
ATOM      9  C   LIG    1       26.434 -13.220   4.829  0.00  0.00    +0.004 A 
ENDBRANCH   1   7
BRANCH   1  10
ATOM     10  C   LIG    1       23.176 -16.890   3.846  0.00  0.00    +0.071 C 
ATOM     11  C   LIG    1       21.850 -17.413   4.415  0.00  0.00    +0.017 C 
BRANCH  10  12
ATOM     12  C   LIG    1       24.338 -17.855   4.142  0.00  0.00    +0.095 C 
BRANCH  12  13
ATOM     13  N   LIG    1       24.142 -19.260   3.718  0.00  0.00    -0.302 NA
ATOM     14  C   LIG    1       25.429 -19.980   3.680  0.00  0.00    +0.084 C 
ATOM     15  C   LIG    1       25.997 -20.299   5.068  0.00  0.00    +0.015 C 
ATOM     16  C   LIG    1       24.977 -21.014   5.951  0.00  0.00    +0.002 C 
ATOM     17  C   LIG    1       23.625 -20.307   5.932  0.00  0.00    +0.015 C 
ATOM     18  C   LIG    1       23.171 -20.037   4.499  0.00  0.00    +0.084 C 
ENDBRANCH  12  13
ENDBRANCH  10  12
ENDBRANCH   1  10
TORSDOF 4
ENDMDL
MODEL 7
REMARK VINA RESULT:      -2.9      2.649      6.635
REMARK  Name = *****
REMARK                            x       y       z     vdW  Elec       q    Type
REMARK                         _______ _______ _______ _____ _____    ______ ____
ROOT
ATOM      1  C   LIG    1       25.157 -17.216   3.597  0.00  0.00    +0.167 C 
ATOM      2  O   LIG    1       26.171 -17.450   2.930  0.00  0.00    -0.292 OA
ENDROOT
BRANCH   1   7
ATOM      3  C   LIG    1       21.704 -21.572   5.232  0.00  0.00    +0.044 C 
ATOM      4  C   LIG    1       22.606 -20.447   4.816  0.00  0.00    -0.050 A 
ATOM      5  C   LIG    1       23.994 -20.619   4.802  0.00  0.00    +0.004 A 
ATOM      6  C   LIG    1       24.833 -19.575   4.414  0.00  0.00    +0.012 A 
ATOM      7  C   LIG    1       24.289 -18.349   4.008  0.00  0.00    +0.018 A 
ATOM      8  C   LIG    1       22.902 -18.175   4.011  0.00  0.00    +0.012 A 
ATOM      9  C   LIG    1       22.064 -19.222   4.407  0.00  0.00    +0.004 A 
ENDBRANCH   1   7
BRANCH   1  10
ATOM     10  C   LIG    1       24.759 -15.804   4.000  0.00  0.00    +0.071 C 
ATOM     11  C   LIG    1       23.249 -15.772   4.271  0.00  0.00    +0.017 C 
BRANCH  10  12
ATOM     12  C   LIG    1       25.154 -14.821   2.883  0.00  0.00    +0.095 C 
BRANCH  12  13
ATOM     13  N   LIG    1       25.857 -13.592   3.315  0.00  0.00    -0.302 NA
ATOM     14  C   LIG    1       25.717 -12.525   2.305  0.00  0.00    +0.084 C 
ATOM     15  C   LIG    1       24.314 -11.908   2.252  0.00  0.00    +0.015 C 
ATOM     16  C   LIG    1       23.842 -11.447   3.629  0.00  0.00    +0.002 C 
ATOM     17  C   LIG    1       24.053 -12.526   4.686  0.00  0.00    +0.015 C 
ATOM     18  C   LIG    1       25.481 -13.067   4.634  0.00  0.00    +0.084 C 
ENDBRANCH  12  13
ENDBRANCH  10  12
ENDBRANCH   1  10
TORSDOF 4
ENDMDL
MODEL 8
REMARK VINA RESULT:      -2.8      2.892      6.504
REMARK  Name = *****
REMARK                            x       y       z     vdW  Elec       q    Type
REMARK                         _______ _______ _______ _____ _____    ______ ____
ROOT
ATOM      1  C   LIG    1       27.488 -19.537   5.182  0.00  0.00    +0.167 C 
ATOM      2  O   LIG    1       28.219 -20.271   5.856  0.00  0.00    -0.292 OA
ENDROOT
BRANCH   1   7
ATOM      3  C   LIG    1       21.869 -20.900   4.804  0.00  0.00    +0.044 C 
ATOM      4  C   LIG    1       23.326 -20.550   4.891  0.00  0.00    -0.050 A 
ATOM      5  C   LIG    1       23.990 -19.999   3.790  0.00  0.00    +0.004 A 
ATOM      6  C   LIG    1       25.343 -19.671   3.871  0.00  0.00    +0.012 A 
ATOM      7  C   LIG    1       26.044 -19.869   5.067  0.00  0.00    +0.018 A 
ATOM      8  C   LIG    1       25.383 -20.410   6.174  0.00  0.00    +0.012 A 
ATOM      9  C   LIG    1       24.028 -20.743   6.087  0.00  0.00    +0.004 A 
ENDBRANCH   1   7
BRANCH   1  10
ATOM     10  C   LIG    1       28.020 -18.313   4.452  0.00  0.00    +0.071 C 
ATOM     11  C   LIG    1       29.357 -17.902   5.083  0.00  0.00    +0.017 C 
BRANCH  10  12
ATOM     12  C   LIG    1       26.984 -17.176   4.533  0.00  0.00    +0.095 C 
BRANCH  12  13
ATOM     13  N   LIG    1       27.087 -16.126   3.495  0.00  0.00    -0.302 NA
ATOM     14  C   LIG    1       25.756 -15.791   2.954  0.00  0.00    +0.084 C 
ATOM     15  C   LIG    1       24.882 -14.987   3.924  0.00  0.00    +0.015 C 
ATOM     16  C   LIG    1       25.605 -13.748   4.449  0.00  0.00    +0.002 C 
ATOM     17  C   LIG    1       27.009 -14.085   4.943  0.00  0.00    +0.015 C 
ATOM     18  C   LIG    1       27.775 -14.892   3.896  0.00  0.00    +0.084 C 
ENDBRANCH  12  13
ENDBRANCH  10  12
ENDBRANCH   1  10
TORSDOF 4
ENDMDL
MODEL 9
REMARK VINA RESULT:      -2.4      2.909      6.675
REMARK  Name = *****
REMARK                            x       y       z     vdW  Elec       q    Type
REMARK                         _______ _______ _______ _____ _____    ______ ____
ROOT
ATOM      1  C   LIG    1       27.232 -16.416   3.920  0.00  0.00    +0.167 C 
ATOM      2  O   LIG    1       28.377 -16.371   4.383  0.00  0.00    -0.292 OA
ENDROOT
BRANCH   1   7
ATOM      3  C   LIG    1       24.214 -21.356   4.155  0.00  0.00    +0.044 C 
ATOM      4  C   LIG    1       25.000 -20.079   4.105  0.00  0.00    -0.050 A 
ATOM      5  C   LIG    1       26.244 -19.985   4.737  0.00  0.00    +0.004 A 
ATOM      6  C   LIG    1       26.975 -18.799   4.689  0.00  0.00    +0.012 A 
ATOM      7  C   LIG    1       26.480 -17.695   3.983  0.00  0.00    +0.018 A 
ATOM      8  C   LIG    1       25.242 -17.786   3.340  0.00  0.00    +0.012 A 
ATOM      9  C   LIG    1       24.508 -18.975   3.396  0.00  0.00    +0.004 A 
ENDBRANCH   1   7
BRANCH   1  10
ATOM     10  C   LIG    1       26.571 -15.206   3.276  0.00  0.00    +0.071 C 
ATOM     11  C   LIG    1       27.663 -14.260   2.761  0.00  0.00    +0.017 C 
BRANCH  10  12
ATOM     12  C   LIG    1       25.660 -14.512   4.305  0.00  0.00    +0.095 C 
BRANCH  12  13
ATOM     13  N   LIG    1       24.250 -14.313   3.897  0.00  0.00    -0.302 NA
ATOM     14  C   LIG    1       23.557 -13.407   4.831  0.00  0.00    +0.084 C 
ATOM     15  C   LIG    1       23.981 -11.940   4.695  0.00  0.00    +0.015 C 
ATOM     16  C   LIG    1       23.879 -11.448   3.253  0.00  0.00    +0.002 C 
ATOM     17  C   LIG    1       24.535 -12.423   2.280  0.00  0.00    +0.015 C 
ATOM     18  C   LIG    1       24.040 -13.848   2.520  0.00  0.00    +0.084 C 
ENDBRANCH  12  13
ENDBRANCH  10  12
ENDBRANCH   1  10
TORSDOF 4
ENDMDL
