MODEL 1
REMARK VINA RESULT:      -1.1      0.000      0.000
REMARK  Name = *****
REMARK                            x       y       z     vdW  Elec       q    Type
REMARK                         _______ _______ _______ _____ _____    ______ ____
ROOT
ATOM      1  C   LIG    1       22.038 -19.388   4.428  0.00  0.00    +0.001 A 
ATOM      2  C   LIG    1       23.118 -20.237   4.657  0.00  0.00    +0.017 A 
ATOM      3  C   LIG    1       24.436 -19.754   4.599  0.00  0.00    +0.034 A 
ATOM      4  S   LIG    1       25.735 -20.942   4.882  0.00  0.00    -0.086 S 
ATOM      5  C   LIG    1       27.136 -19.878   5.161  0.00  0.00    +0.034 A 
ATOM      6  C   LIG    1       27.140 -18.514   4.820  0.00  0.00    +0.048 A 
ATOM      7  N   LIG    1       26.013 -17.885   4.220  0.00  0.00    -0.298 N 
ATOM      8  C   LIG    1       28.294 -17.766   5.127  0.00  0.00    +0.024 A 
ATOM      9  C   LIG    1       29.422 -18.364   5.699  0.00  0.00    +0.002 A 
ATOM     10  C   LIG    1       29.420 -19.720   5.982  0.00  0.00    +0.001 A 
ATOM     11  C   LIG    1       28.281 -20.477   5.718  0.00  0.00    +0.017 A 
ATOM     12  C   LIG    1       24.691 -18.406   4.280  0.00  0.00    +0.048 A 
ATOM     13  C   LIG    1       23.579 -17.565   4.080  0.00  0.00    +0.024 A 
ATOM     14  C   LIG    1       22.269 -18.050   4.145  0.00  0.00    +0.002 A 
ENDROOT
BRANCH   7  15
ATOM     15  C   LIG    1       26.320 -17.035   3.035  0.00  0.00    +0.116 C 
BRANCH  15  16
ATOM     16  C   LIG    1       25.737 -15.607   3.135  0.00  0.00    +0.024 C 
ATOM     17  C   LIG    1       25.946 -14.904   4.498  0.00  0.00    -0.003 C 
ATOM     18  C   LIG    1       27.409 -14.454   4.627  0.00  0.00    +0.019 C 
ATOM     19  C   LIG    1       27.718 -13.419   3.534  0.00  0.00    +0.085 C 
ATOM     20  N   LIG    1       26.617 -13.325   2.549  0.00  0.00    -0.302 NA
ATOM     21  C   LIG    1       25.414 -12.805   3.241  0.00  0.00    +0.085 C 
ATOM     22  C   LIG    1       25.073 -13.637   4.486  0.00  0.00    +0.019 C 
ATOM     23  C   LIG    1       26.332 -14.688   2.037  0.00  0.00    +0.089 C 
ENDBRANCH  15  16
ENDBRANCH   7  15
TORSDOF 2
ENDMDL
MODEL 2
REMARK VINA RESULT:      -0.4      0.693      1.483
REMARK  Name = *****
REMARK                            x       y       z     vdW  Elec       q    Type
REMARK                         _______ _______ _______ _____ _____    ______ ____
ROOT
ATOM      1  C   LIG    1       21.931 -19.377   4.408  0.00  0.00    +0.001 A 
ATOM      2  C   LIG    1       23.013 -20.236   4.588  0.00  0.00    +0.017 A 
ATOM      3  C   LIG    1       24.331 -19.753   4.534  0.00  0.00    +0.034 A 
ATOM      4  S   LIG    1       25.631 -20.953   4.751  0.00  0.00    -0.086 S 
ATOM      5  C   LIG    1       27.037 -19.904   5.057  0.00  0.00    +0.034 A 
ATOM      6  C   LIG    1       27.039 -18.526   4.773  0.00  0.00    +0.048 A 
ATOM      7  N   LIG    1       25.906 -17.871   4.213  0.00  0.00    -0.298 N 
ATOM      8  C   LIG    1       28.199 -17.793   5.096  0.00  0.00    +0.024 A 
ATOM      9  C   LIG    1       29.333 -18.416   5.630  0.00  0.00    +0.002 A 
ATOM     10  C   LIG    1       29.331 -19.783   5.855  0.00  0.00    +0.001 A 
ATOM     11  C   LIG    1       28.188 -20.527   5.574  0.00  0.00    +0.017 A 
ATOM     12  C   LIG    1       24.585 -18.393   4.268  0.00  0.00    +0.048 A 
ATOM     13  C   LIG    1       23.472 -17.543   4.117  0.00  0.00    +0.024 A 
ATOM     14  C   LIG    1       22.161 -18.029   4.178  0.00  0.00    +0.002 A 
ENDROOT
BRANCH   7  15
ATOM     15  C   LIG    1       26.200 -16.973   3.061  0.00  0.00    +0.116 C 
BRANCH  15  16
ATOM     16  C   LIG    1       26.801 -15.612   3.481  0.00  0.00    +0.024 C 
ATOM     17  C   LIG    1       26.829 -14.534   2.370  0.00  0.00    -0.003 C 
ATOM     18  C   LIG    1       25.411 -13.986   2.148  0.00  0.00    +0.019 C 
ATOM     19  C   LIG    1       24.928 -13.296   3.433  0.00  0.00    +0.085 C 
ATOM     20  N   LIG    1       25.847 -13.552   4.564  0.00  0.00    -0.302 NA
ATOM     21  C   LIG    1       27.152 -12.921   4.258  0.00  0.00    +0.085 C 
ATOM     22  C   LIG    1       27.694 -13.375   2.894  0.00  0.00    +0.019 C 
ATOM     23  C   LIG    1       26.034 -15.018   4.691  0.00  0.00    +0.089 C 
ENDBRANCH  15  16
ENDBRANCH   7  15
TORSDOF 2
ENDMDL
MODEL 3
REMARK VINA RESULT:      -0.1      2.032      5.956
REMARK  Name = *****
REMARK                            x       y       z     vdW  Elec       q    Type
REMARK                         _______ _______ _______ _____ _____    ______ ____
ROOT
ATOM      1  C   LIG    1       29.074 -20.720   7.052  0.00  0.00    +0.001 A 
ATOM      2  C   LIG    1       29.435 -19.573   6.349  0.00  0.00    +0.017 A 
ATOM      3  C   LIG    1       28.516 -18.929   5.504  0.00  0.00    +0.034 A 
ATOM      4  S   LIG    1       29.104 -17.487   4.637  0.00  0.00    -0.086 S 
ATOM      5  C   LIG    1       27.576 -16.762   4.076  0.00  0.00    +0.034 A 
ATOM      6  C   LIG    1       26.358 -17.465   4.056  0.00  0.00    +0.048 A 
ATOM      7  N   LIG    1       26.264 -18.819   4.484  0.00  0.00    -0.298 N 
ATOM      8  C   LIG    1       25.209 -16.771   3.628  0.00  0.00    +0.024 A 
ATOM      9  C   LIG    1       25.278 -15.446   3.184  0.00  0.00    +0.002 A 
ATOM     10  C   LIG    1       26.495 -14.785   3.162  0.00  0.00    +0.001 A 
ATOM     11  C   LIG    1       27.642 -15.436   3.610  0.00  0.00    +0.017 A 
ATOM     12  C   LIG    1       27.219 -19.450   5.327  0.00  0.00    +0.048 A 
ATOM     13  C   LIG    1       26.873 -20.596   6.070  0.00  0.00    +0.024 A 
ATOM     14  C   LIG    1       27.791 -21.229   6.916  0.00  0.00    +0.002 A 
ENDROOT
BRANCH   7  15
ATOM     15  C   LIG    1       25.516 -19.722   3.565  0.00  0.00    +0.116 C 
BRANCH  15  16
ATOM     16  C   LIG    1       24.422 -20.553   4.275  0.00  0.00    +0.024 C 
ATOM     17  C   LIG    1       23.777 -19.875   5.508  0.00  0.00    -0.003 C 
ATOM     18  C   LIG    1       22.817 -18.768   5.046  0.00  0.00    +0.019 C 
ATOM     19  C   LIG    1       21.677 -19.396   4.229  0.00  0.00    +0.085 C 
ATOM     20  N   LIG    1       21.945 -20.820   3.929  0.00  0.00    -0.302 NA
ATOM     21  C   LIG    1       21.960 -21.572   5.206  0.00  0.00    +0.085 C 
ATOM     22  C   LIG    1       22.934 -20.949   6.218  0.00  0.00    +0.019 C 
ATOM     23  C   LIG    1       23.281 -20.920   3.292  0.00  0.00    +0.089 C 
ENDBRANCH  15  16
ENDBRANCH   7  15
TORSDOF 2
ENDMDL
MODEL 4
REMARK VINA RESULT:       0.5      1.458      4.257
REMARK  Name = *****
REMARK                            x       y       z     vdW  Elec       q    Type
REMARK                         _______ _______ _______ _____ _____    ______ ____
ROOT
ATOM      1  C   LIG    1       29.379 -19.317   6.532  0.00  0.00    +0.001 A 
ATOM      2  C   LIG    1       28.139 -19.691   7.044  0.00  0.00    +0.017 A 
ATOM      3  C   LIG    1       26.986 -19.642   6.243  0.00  0.00    +0.034 A 
ATOM      4  S   LIG    1       25.453 -20.117   7.018  0.00  0.00    -0.086 S 
ATOM      5  C   LIG    1       24.393 -20.341   5.605  0.00  0.00    +0.034 A 
ATOM      6  C   LIG    1       24.711 -19.849   4.326  0.00  0.00    +0.048 A 
ATOM      7  N   LIG    1       25.912 -19.129   4.073  0.00  0.00    -0.298 N 
ATOM      8  C   LIG    1       23.810 -20.124   3.277  0.00  0.00    +0.024 A 
ATOM      9  C   LIG    1       22.613 -20.813   3.502  0.00  0.00    +0.002 A 
ATOM     10  C   LIG    1       22.292 -21.246   4.778  0.00  0.00    +0.001 A 
ATOM     11  C   LIG    1       23.179 -21.015   5.828  0.00  0.00    +0.017 A 
ATOM     12  C   LIG    1       27.058 -19.185   4.912  0.00  0.00    +0.048 A 
ATOM     13  C   LIG    1       28.329 -18.839   4.413  0.00  0.00    +0.024 A 
ATOM     14  C   LIG    1       29.475 -18.897   5.214  0.00  0.00    +0.002 A 
ENDROOT
BRANCH   7  15
ATOM     15  C   LIG    1       25.743 -17.872   3.291  0.00  0.00    +0.116 C 
BRANCH  15  16
ATOM     16  C   LIG    1       25.902 -16.592   4.143  0.00  0.00    +0.024 C 
ATOM     17  C   LIG    1       27.032 -15.636   3.690  0.00  0.00    -0.003 C 
ATOM     18  C   LIG    1       26.597 -14.890   2.419  0.00  0.00    +0.019 C 
ATOM     19  C   LIG    1       25.371 -14.020   2.737  0.00  0.00    +0.085 C 
ATOM     20  N   LIG    1       24.828 -14.319   4.082  0.00  0.00    -0.302 NA
ATOM     21  C   LIG    1       25.843 -13.934   5.091  0.00  0.00    +0.085 C 
ATOM     22  C   LIG    1       27.203 -14.588   4.803  0.00  0.00    +0.019 C 
ATOM     23  C   LIG    1       24.582 -15.779   4.172  0.00  0.00    +0.089 C 
ENDBRANCH  15  16
ENDBRANCH   7  15
TORSDOF 2
ENDMDL
