MODEL 1
REMARK VINA RESULT:      -1.3      0.000      0.000
REMARK  Name = *****
REMARK                            x       y       z     vdW  Elec       q    Type
REMARK                         _______ _______ _______ _____ _____    ______ ____
ROOT
ATOM      1  O   LIG    1       24.167 -15.992   4.388  0.00  0.00    -0.461 OA
ENDROOT
BRANCH   1   6
ATOM      2  N   LIG    1       26.769 -13.012   3.518  0.00  0.00    +0.247 N 
ATOM      3  C   LIG    1       25.993 -12.148   2.508  0.00  0.00    +0.193 C 
ATOM      4  C   LIG    1       26.898 -14.507   3.097  0.00  0.00    +0.070 C 
ATOM      5  C   LIG    1       25.548 -15.022   2.587  0.00  0.00    +0.099 C 
ATOM      6  C   LIG    1       24.382 -14.825   3.576  0.00  0.00    +0.187 C 
ATOM      7  C   LIG    1       24.537 -13.644   4.554  0.00  0.00    +0.099 C 
ATOM      8  C   LIG    1       27.284 -15.240   4.392  0.00  0.00    +0.060 C 
ATOM      9  C   LIG    1       26.741 -14.386   5.530  0.00  0.00    +0.060 C 
ATOM     10  C   LIG    1       25.991 -13.238   4.850  0.00  0.00    +0.070 C 
BRANCH   2  12
ATOM     11  C   LIG    1       29.336 -13.211   3.183  0.00  0.00    +0.063 C 
ATOM     12  C   LIG    1       28.204 -12.348   3.755  0.00  0.00    +0.060 C 
ATOM     13  C   LIG    1       28.488 -12.081   5.243  0.00  0.00    +0.063 C 
ENDBRANCH   2  12
ENDBRANCH   1   6
BRANCH   1  14
ATOM     14  C   LIG    1       22.864 -16.305   4.658  0.00  0.00    +0.317 C 
ATOM     15  O   LIG    1       22.151 -15.645   5.421  0.00  0.00    -0.250 OA
BRANCH  14  16
ATOM     16  C   LIG    1       22.461 -17.559   3.902  0.00  0.00    +0.153 C 
BRANCH  16  17
ATOM     17  C   LIG    1       23.228 -18.788   4.371  0.00  0.00    -0.032 A 
ATOM     18  C   LIG    1       24.427 -19.172   3.751  0.00  0.00    +0.004 A 
ATOM     19  C   LIG    1       25.127 -20.298   4.199  0.00  0.00    +0.000 A 
ATOM     20  C   LIG    1       24.640 -21.046   5.269  0.00  0.00    +0.000 A 
ATOM     21  C   LIG    1       23.457 -20.673   5.896  0.00  0.00    +0.000 A 
ATOM     22  C   LIG    1       22.756 -19.555   5.450  0.00  0.00    +0.004 A 
ENDBRANCH  16  17
BRANCH  16  23
ATOM     23  C   LIG    1       20.945 -17.747   4.017  0.00  0.00    +0.175 C 
BRANCH  23  24
ATOM     24  O   LIG    1       20.439 -18.488   2.905  0.00  0.00    -0.394 OA
ATOM     25  H   LIG    1       21.203 -18.923   2.486  0.00  0.00    +0.209 HD
ENDBRANCH  23  24
ENDBRANCH  16  23
ENDBRANCH  14  16
ENDBRANCH   1  14
TORSDOF 7
ENDMDL
MODEL 2
REMARK VINA RESULT:      -0.4      1.192      2.221
REMARK  Name = *****
REMARK                            x       y       z     vdW  Elec       q    Type
REMARK                         _______ _______ _______ _____ _____    ______ ____
ROOT
ATOM      1  O   LIG    1       24.466 -16.473   3.377  0.00  0.00    -0.461 OA
ENDROOT
BRANCH   1   6
ATOM      2  N   LIG    1       27.118 -13.611   4.469  0.00  0.00    +0.247 N 
ATOM      3  C   LIG    1       27.126 -13.705   6.005  0.00  0.00    +0.193 C 
ATOM      4  C   LIG    1       25.701 -13.379   3.862  0.00  0.00    +0.070 C 
ATOM      5  C   LIG    1       24.687 -14.306   4.539  0.00  0.00    +0.099 C 
ATOM      6  C   LIG    1       25.068 -15.800   4.496  0.00  0.00    +0.187 C 
ATOM      7  C   LIG    1       26.579 -16.094   4.412  0.00  0.00    +0.099 C 
ATOM      8  C   LIG    1       25.850 -13.758   2.380  0.00  0.00    +0.060 C 
ATOM      9  C   LIG    1       27.002 -14.752   2.319  0.00  0.00    +0.060 C 
ATOM     10  C   LIG    1       27.419 -14.975   3.775  0.00  0.00    +0.070 C 
BRANCH   2  12
ATOM     11  C   LIG    1       29.239 -12.998   3.105  0.00  0.00    +0.063 C 
ATOM     12  C   LIG    1       28.136 -12.462   4.026  0.00  0.00    +0.060 C 
ATOM     13  C   LIG    1       28.792 -11.764   5.230  0.00  0.00    +0.063 C 
ENDBRANCH   2  12
ENDBRANCH   1   6
BRANCH   1  14
ATOM     14  C   LIG    1       24.766 -17.799   3.240  0.00  0.00    +0.317 C 
ATOM     15  O   LIG    1       25.838 -18.210   2.784  0.00  0.00    -0.250 OA
BRANCH  14  16
ATOM     16  C   LIG    1       23.600 -18.649   3.713  0.00  0.00    +0.153 C 
BRANCH  16  17
ATOM     17  C   LIG    1       23.998 -19.610   4.825  0.00  0.00    -0.032 A 
ATOM     18  C   LIG    1       25.317 -20.075   4.939  0.00  0.00    +0.004 A 
ATOM     19  C   LIG    1       25.673 -20.950   5.972  0.00  0.00    +0.000 A 
ATOM     20  C   LIG    1       24.719 -21.363   6.901  0.00  0.00    +0.000 A 
ATOM     21  C   LIG    1       23.410 -20.905   6.802  0.00  0.00    +0.000 A 
ATOM     22  C   LIG    1       23.053 -20.037   5.772  0.00  0.00    +0.004 A 
ENDBRANCH  16  17
BRANCH  16  23
ATOM     23  C   LIG    1       22.449 -17.729   4.132  0.00  0.00    +0.175 C 
BRANCH  23  24
ATOM     24  O   LIG    1       21.188 -18.284   3.749  0.00  0.00    -0.394 OA
ATOM     25  H   LIG    1       21.146 -19.177   4.134  0.00  0.00    +0.209 HD
ENDBRANCH  23  24
ENDBRANCH  16  23
ENDBRANCH  14  16
ENDBRANCH   1  14
TORSDOF 7
ENDMDL
MODEL 3
REMARK VINA RESULT:      -0.3      2.518      4.402
REMARK  Name = *****
REMARK                            x       y       z     vdW  Elec       q    Type
REMARK                         _______ _______ _______ _____ _____    ______ ____
ROOT
ATOM      1  O   LIG    1       27.100 -16.890   4.413  0.00  0.00    -0.461 OA
ENDROOT
BRANCH   1   6
ATOM      2  N   LIG    1       26.074 -13.095   3.437  0.00  0.00    +0.247 N 
ATOM      3  C   LIG    1       27.414 -12.461   3.027  0.00  0.00    +0.193 C 
ATOM      4  C   LIG    1       26.083 -13.714   4.868  0.00  0.00    +0.070 C 
ATOM      5  C   LIG    1       27.365 -14.527   5.074  0.00  0.00    +0.099 C 
ATOM      6  C   LIG    1       27.606 -15.609   4.002  0.00  0.00    +0.187 C 
ATOM      7  C   LIG    1       26.983 -15.324   2.622  0.00  0.00    +0.099 C 
ATOM      8  C   LIG    1       24.861 -14.645   4.893  0.00  0.00    +0.060 C 
ATOM      9  C   LIG    1       24.614 -15.046   3.445  0.00  0.00    +0.060 C 
ATOM     10  C   LIG    1       25.752 -14.401   2.649  0.00  0.00    +0.070 C 
BRANCH   2  12
ATOM     11  C   LIG    1       23.943 -12.026   4.465  0.00  0.00    +0.063 C 
ATOM     12  C   LIG    1       24.926 -11.994   3.287  0.00  0.00    +0.060 C 
ATOM     13  C   LIG    1       24.134 -12.146   1.977  0.00  0.00    +0.063 C 
ENDBRANCH   2  12
ENDBRANCH   1   6
BRANCH   1  14
ATOM     14  C   LIG    1       28.036 -17.842   4.708  0.00  0.00    +0.317 C 
ATOM     15  O   LIG    1       29.210 -17.779   4.331  0.00  0.00    -0.250 OA
BRANCH  14  16
ATOM     16  C   LIG    1       27.410 -18.950   5.536  0.00  0.00    +0.153 C 
BRANCH  16  17
ATOM     17  C   LIG    1       26.217 -19.589   4.838  0.00  0.00    -0.032 A 
ATOM     18  C   LIG    1       25.654 -20.782   5.317  0.00  0.00    +0.004 A 
ATOM     19  C   LIG    1       24.550 -21.352   4.673  0.00  0.00    +0.000 A 
ATOM     20  C   LIG    1       23.997 -20.736   3.552  0.00  0.00    +0.000 A 
ATOM     21  C   LIG    1       24.542 -19.550   3.072  0.00  0.00    +0.000 A 
ATOM     22  C   LIG    1       25.642 -18.983   3.709  0.00  0.00    +0.004 A 
ENDBRANCH  16  17
BRANCH  16  23
ATOM     23  C   LIG    1       28.489 -19.979   5.890  0.00  0.00    +0.175 C 
BRANCH  23  24
ATOM     24  O   LIG    1       29.475 -19.406   6.752  0.00  0.00    -0.394 OA
ATOM     25  H   LIG    1       29.014 -19.141   7.567  0.00  0.00    +0.209 HD
ENDBRANCH  23  24
ENDBRANCH  16  23
ENDBRANCH  14  16
ENDBRANCH   1  14
TORSDOF 7
ENDMDL
MODEL 4
REMARK VINA RESULT:      -0.2      2.646      7.322
REMARK  Name = *****
REMARK                            x       y       z     vdW  Elec       q    Type
REMARK                         _______ _______ _______ _____ _____    ______ ____
ROOT
ATOM      1  O   LIG    1       25.152 -16.938   3.584  0.00  0.00    -0.461 OA
ENDROOT
BRANCH   1   6
ATOM      2  N   LIG    1       23.739 -20.656   4.352  0.00  0.00    +0.247 N 
ATOM      3  C   LIG    1       24.737 -21.572   3.622  0.00  0.00    +0.193 C 
ATOM      4  C   LIG    1       23.079 -19.586   3.431  0.00  0.00    +0.070 C 
ATOM      5  C   LIG    1       24.144 -18.937   2.542  0.00  0.00    +0.099 C 
ATOM      6  C   LIG    1       25.336 -18.339   3.318  0.00  0.00    +0.187 C 
ATOM      7  C   LIG    1       25.637 -18.998   4.677  0.00  0.00    +0.099 C 
ATOM      8  C   LIG    1       22.500 -18.545   4.404  0.00  0.00    +0.060 C 
ATOM      9  C   LIG    1       23.345 -18.643   5.667  0.00  0.00    +0.060 C 
ATOM     10  C   LIG    1       24.430 -19.675   5.348  0.00  0.00    +0.070 C 
BRANCH   2  12
ATOM     11  C   LIG    1       21.212 -21.149   4.688  0.00  0.00    +0.063 C 
ATOM     12  C   LIG    1       22.639 -21.572   5.062  0.00  0.00    +0.060 C 
ATOM     13  C   LIG    1       22.770 -21.565   6.595  0.00  0.00    +0.063 C 
ENDBRANCH   2  12
ENDBRANCH   1   6
BRANCH   1  14
ATOM     14  C   LIG    1       26.278 -16.164   3.543  0.00  0.00    +0.317 C 
ATOM     15  O   LIG    1       27.323 -16.455   4.133  0.00  0.00    -0.250 OA
BRANCH  14  16
ATOM     16  C   LIG    1       26.032 -14.930   2.693  0.00  0.00    +0.153 C 
BRANCH  16  17
ATOM     17  C   LIG    1       25.264 -13.853   3.447  0.00  0.00    -0.032 A 
ATOM     18  C   LIG    1       25.400 -13.707   4.836  0.00  0.00    +0.004 A 
ATOM     19  C   LIG    1       24.696 -12.705   5.515  0.00  0.00    +0.000 A 
ATOM     20  C   LIG    1       23.857 -11.840   4.814  0.00  0.00    +0.000 A 
ATOM     21  C   LIG    1       23.720 -11.971   3.437  0.00  0.00    +0.000 A 
ATOM     22  C   LIG    1       24.416 -12.968   2.760  0.00  0.00    +0.004 A 
ENDBRANCH  16  17
BRANCH  16  23
ATOM     23  C   LIG    1       27.373 -14.416   2.160  0.00  0.00    +0.175 C 
BRANCH  23  24
ATOM     24  O   LIG    1       28.053 -13.645   3.153  0.00  0.00    -0.394 OA
ATOM     25  H   LIG    1       27.430 -13.528   3.893  0.00  0.00    +0.209 HD
ENDBRANCH  23  24
ENDBRANCH  16  23
ENDBRANCH  14  16
ENDBRANCH   1  14
TORSDOF 7
ENDMDL
MODEL 5
REMARK VINA RESULT:       0.1      2.091      3.650
REMARK  Name = *****
REMARK                            x       y       z     vdW  Elec       q    Type
REMARK                         _______ _______ _______ _____ _____    ______ ____
ROOT
ATOM      1  O   LIG    1       25.273 -17.169   3.536  0.00  0.00    -0.461 OA
ENDROOT
BRANCH   1   6
ATOM      2  N   LIG    1       25.597 -13.132   3.463  0.00  0.00    +0.247 N 
ATOM      3  C   LIG    1       27.094 -12.902   3.188  0.00  0.00    +0.193 C 
ATOM      4  C   LIG    1       25.317 -14.016   4.715  0.00  0.00    +0.070 C 
ATOM      5  C   LIG    1       26.250 -15.231   4.713  0.00  0.00    +0.099 C 
ATOM      6  C   LIG    1       26.192 -16.070   3.420  0.00  0.00    +0.187 C 
ATOM      7  C   LIG    1       25.782 -15.300   2.150  0.00  0.00    +0.099 C 
ATOM      8  C   LIG    1       23.859 -14.474   4.546  0.00  0.00    +0.060 C 
ATOM      9  C   LIG    1       23.586 -14.443   3.048  0.00  0.00    +0.060 C 
ATOM     10  C   LIG    1       24.918 -14.052   2.403  0.00  0.00    +0.070 C 
BRANCH   2  12
ATOM     11  C   LIG    1       24.154 -11.544   4.925  0.00  0.00    +0.063 C 
ATOM     12  C   LIG    1       24.881 -11.709   3.584  0.00  0.00    +0.060 C 
ATOM     13  C   LIG    1       23.878 -11.458   2.443  0.00  0.00    +0.063 C 
ENDBRANCH   2  12
ENDBRANCH   1   6
BRANCH   1  14
ATOM     14  C   LIG    1       25.742 -18.391   3.142  0.00  0.00    +0.317 C 
ATOM     15  O   LIG    1       26.523 -18.546   2.198  0.00  0.00    -0.250 OA
BRANCH  14  16
ATOM     16  C   LIG    1       25.156 -19.482   4.020  0.00  0.00    +0.153 C 
BRANCH  16  17
ATOM     17  C   LIG    1       26.132 -19.948   5.092  0.00  0.00    -0.032 A 
ATOM     18  C   LIG    1       25.760 -20.918   6.036  0.00  0.00    +0.004 A 
ATOM     19  C   LIG    1       26.670 -21.345   7.009  0.00  0.00    +0.000 A 
ATOM     20  C   LIG    1       27.959 -20.814   7.046  0.00  0.00    +0.000 A 
ATOM     21  C   LIG    1       28.341 -19.857   6.112  0.00  0.00    +0.000 A 
ATOM     22  C   LIG    1       27.436 -19.428   5.145  0.00  0.00    +0.004 A 
ENDBRANCH  16  17
BRANCH  16  23
ATOM     23  C   LIG    1       23.837 -18.987   4.619  0.00  0.00    +0.175 C 
BRANCH  23  24
ATOM     24  O   LIG    1       22.842 -20.013   4.576  0.00  0.00    -0.394 OA
ATOM     25  H   LIG    1       23.279 -20.839   4.850  0.00  0.00    +0.209 HD
ENDBRANCH  23  24
ENDBRANCH  16  23
ENDBRANCH  14  16
ENDBRANCH   1  14
TORSDOF 7
ENDMDL
MODEL 6
REMARK VINA RESULT:       0.5      2.650      7.141
REMARK  Name = *****
REMARK                            x       y       z     vdW  Elec       q    Type
REMARK                         _______ _______ _______ _____ _____    ______ ____
ROOT
ATOM      1  O   LIG    1       25.888 -17.067   3.369  0.00  0.00    -0.461 OA
ENDROOT
BRANCH   1   6
ATOM      2  N   LIG    1       23.848 -20.477   4.158  0.00  0.00    +0.247 N 
ATOM      3  C   LIG    1       24.735 -21.571   3.539  0.00  0.00    +0.193 C 
ATOM      4  C   LIG    1       23.433 -19.360   3.153  0.00  0.00    +0.070 C 
ATOM      5  C   LIG    1       24.648 -18.929   2.326  0.00  0.00    +0.099 C 
ATOM      6  C   LIG    1       25.863 -18.490   3.168  0.00  0.00    +0.187 C 
ATOM      7  C   LIG    1       25.960 -19.124   4.569  0.00  0.00    +0.099 C 
ATOM      8  C   LIG    1       22.963 -18.197   4.041  0.00  0.00    +0.060 C 
ATOM      9  C   LIG    1       23.691 -18.367   5.368  0.00  0.00    +0.060 C 
ATOM     10  C   LIG    1       24.616 -19.571   5.169  0.00  0.00    +0.070 C 
BRANCH   2  12
ATOM     11  C   LIG    1       21.264 -20.475   4.409  0.00  0.00    +0.063 C 
ATOM     12  C   LIG    1       22.568 -21.174   4.814  0.00  0.00    +0.060 C 
ATOM     13  C   LIG    1       22.649 -21.221   6.350  0.00  0.00    +0.063 C 
ENDBRANCH   2  12
ENDBRANCH   1   6
BRANCH   1  14
ATOM     14  C   LIG    1       27.083 -16.536   3.768  0.00  0.00    +0.317 C 
ATOM     15  O   LIG    1       27.908 -17.155   4.446  0.00  0.00    -0.250 OA
BRANCH  14  16
ATOM     16  C   LIG    1       27.212 -15.109   3.267  0.00  0.00    +0.153 C 
BRANCH  16  17
ATOM     17  C   LIG    1       25.878 -14.374   3.261  0.00  0.00    -0.032 A 
ATOM     18  C   LIG    1       25.520 -13.535   2.195  0.00  0.00    +0.004 A 
ATOM     19  C   LIG    1       24.286 -12.875   2.197  0.00  0.00    +0.000 A 
ATOM     20  C   LIG    1       23.400 -13.049   3.259  0.00  0.00    +0.000 A 
ATOM     21  C   LIG    1       23.741 -13.882   4.318  0.00  0.00    +0.000 A 
ATOM     22  C   LIG    1       24.969 -14.538   4.320  0.00  0.00    +0.004 A 
ENDBRANCH  16  17
BRANCH  16  23
ATOM     23  C   LIG    1       28.268 -14.379   4.103  0.00  0.00    +0.175 C 
BRANCH  23  24
ATOM     24  O   LIG    1       28.812 -13.272   3.381  0.00  0.00    -0.394 OA
ATOM     25  H   LIG    1       28.062 -12.815   2.961  0.00  0.00    +0.209 HD
ENDBRANCH  23  24
ENDBRANCH  16  23
ENDBRANCH  14  16
ENDBRANCH   1  14
TORSDOF 7
ENDMDL
MODEL 7
REMARK VINA RESULT:       1.1      1.813      3.328
REMARK  Name = *****
REMARK                            x       y       z     vdW  Elec       q    Type
REMARK                         _______ _______ _______ _____ _____    ______ ____
ROOT
ATOM      1  O   LIG    1       25.367 -16.954   3.009  0.00  0.00    -0.461 OA
ENDROOT
BRANCH   1   6
ATOM      2  N   LIG    1       27.154 -13.662   4.554  0.00  0.00    +0.247 N 
ATOM      3  C   LIG    1       27.101 -13.911   6.072  0.00  0.00    +0.193 C 
ATOM      4  C   LIG    1       25.761 -13.720   3.859  0.00  0.00    +0.070 C 
ATOM      5  C   LIG    1       24.975 -14.932   4.370  0.00  0.00    +0.099 C 
ATOM      6  C   LIG    1       25.719 -16.275   4.227  0.00  0.00    +0.187 C 
ATOM      7  C   LIG    1       27.257 -16.182   4.238  0.00  0.00    +0.099 C 
ATOM      8  C   LIG    1       26.081 -13.894   2.366  0.00  0.00    +0.060 C 
ATOM      9  C   LIG    1       27.447 -14.566   2.310  0.00  0.00    +0.060 C 
ATOM     10  C   LIG    1       27.825 -14.831   3.770  0.00  0.00    +0.070 C 
BRANCH   2  12
ATOM     11  C   LIG    1       28.653 -12.251   2.973  0.00  0.00    +0.063 C 
ATOM     12  C   LIG    1       27.876 -12.261   4.296  0.00  0.00    +0.060 C 
ATOM     13  C   LIG    1       28.835 -11.875   5.436  0.00  0.00    +0.063 C 
ENDBRANCH   2  12
ENDBRANCH   1   6
BRANCH   1  14
ATOM     14  C   LIG    1       25.529 -18.311   3.009  0.00  0.00    +0.317 C 
ATOM     15  O   LIG    1       25.952 -18.944   2.036  0.00  0.00    -0.250 OA
BRANCH  14  16
ATOM     16  C   LIG    1       25.106 -18.887   4.348  0.00  0.00    +0.153 C 
BRANCH  16  17
ATOM     17  C   LIG    1       23.647 -19.324   4.355  0.00  0.00    -0.032 A 
ATOM     18  C   LIG    1       23.280 -20.610   4.779  0.00  0.00    +0.004 A 
ATOM     19  C   LIG    1       21.934 -20.994   4.791  0.00  0.00    +0.000 A 
ATOM     20  C   LIG    1       20.945 -20.100   4.384  0.00  0.00    +0.000 A 
ATOM     21  C   LIG    1       21.296 -18.821   3.967  0.00  0.00    +0.000 A 
ATOM     22  C   LIG    1       22.635 -18.437   3.951  0.00  0.00    +0.004 A 
ENDBRANCH  16  17
BRANCH  16  23
ATOM     23  C   LIG    1       26.051 -20.033   4.720  0.00  0.00    +0.175 C 
BRANCH  23  24
ATOM     24  O   LIG    1       27.407 -19.582   4.758  0.00  0.00    -0.394 OA
ATOM     25  H   LIG    1       27.929 -20.217   4.235  0.00  0.00    +0.209 HD
ENDBRANCH  23  24
ENDBRANCH  16  23
ENDBRANCH  14  16
ENDBRANCH   1  14
TORSDOF 7
ENDMDL
