MODEL 1
REMARK VINA RESULT:       0.8      0.000      0.000
REMARK  Name = *****
REMARK                            x       y       z     vdW  Elec       q    Type
REMARK                         _______ _______ _______ _____ _____    ______ ____
ROOT
ATOM      1  C   LIG    1       26.734 -18.069   4.263  0.00  0.00    +0.092 A 
ATOM      2  C   LIG    1       25.779 -17.158   3.735  0.00  0.00    +0.044 A 
ATOM      3  I   LIG    1       23.804 -17.935   3.307  0.00  0.00    -0.041 I 
ATOM      4  C   LIG    1       26.085 -15.789   3.499  0.00  0.00    -0.018 A 
ATOM      5  C   LIG    1       27.367 -15.344   3.886  0.00  0.00    +0.019 A 
ATOM      6  I   LIG    1       28.050 -13.362   3.630  0.00  0.00    -0.043 I 
ATOM      7  C   LIG    1       28.297 -16.218   4.467  0.00  0.00    +0.031 A 
ATOM      8  C   LIG    1       27.986 -17.567   4.646  0.00  0.00    +0.041 A 
ATOM      9  I   LIG    1       29.475 -18.789   5.491  0.00  0.00    -0.042 I 
ENDROOT
BRANCH   1  11
ATOM     10  C   LIG    1       25.711 -19.764   5.409  0.00  0.00    +0.184 C 
ATOM     11  N   LIG    1       26.425 -19.442   4.379  0.00  0.00    -0.238 NA
BRANCH  10  13
ATOM     12  C   LIG    1       24.074 -21.571   5.463  0.00  0.00    +0.130 C 
ATOM     13  N   LIG    1       25.386 -21.041   5.810  0.00  0.00    -0.327 N 
ATOM     14  C   LIG    1       25.959 -21.549   7.050  0.00  0.00    +0.130 C 
ENDBRANCH  10  13
ENDBRANCH   1  11
BRANCH   4  15
ATOM     15  C   LIG    1       25.115 -14.880   2.762  0.00  0.00    +0.048 C 
BRANCH  15  16
ATOM     16  C   LIG    1       24.330 -14.022   3.753  0.00  0.00    +0.125 C 
BRANCH  16  17
ATOM     17  C   LIG    1       24.152 -12.623   3.239  0.00  0.00    +0.305 C 
ATOM     18  O   LIG    1       23.880 -11.664   3.954  0.00  0.00    -0.251 OA
BRANCH  17  19
ATOM     19  O   LIG    1       24.301 -12.508   1.903  0.00  0.00    -0.481 OA
ATOM     20  H   LIG    1       24.058 -11.633   1.539  0.00  0.00    +0.295 HD
ENDBRANCH  17  19
ENDBRANCH  16  17
ENDBRANCH  15  16
ENDBRANCH   4  15
TORSDOF 6
ENDMDL
MODEL 2
REMARK VINA RESULT:       1.7      4.074      6.766
REMARK  Name = *****
REMARK                            x       y       z     vdW  Elec       q    Type
REMARK                         _______ _______ _______ _____ _____    ______ ____
ROOT
ATOM      1  C   LIG    1       25.648 -15.969   3.701  0.00  0.00    +0.092 A 
ATOM      2  C   LIG    1       25.684 -17.379   3.876  0.00  0.00    +0.044 A 
ATOM      3  I   LIG    1       27.632 -18.304   4.060  0.00  0.00    -0.041 I 
ATOM      4  C   LIG    1       24.501 -18.166   3.940  0.00  0.00    -0.018 A 
ATOM      5  C   LIG    1       23.270 -17.475   3.899  0.00  0.00    +0.019 A 
ATOM      6  I   LIG    1       21.385 -18.427   3.971  0.00  0.00    -0.043 I 
ATOM      7  C   LIG    1       23.222 -16.079   3.790  0.00  0.00    +0.031 A 
ATOM      8  C   LIG    1       24.398 -15.335   3.685  0.00  0.00    +0.041 A 
ATOM      9  I   LIG    1       24.198 -13.250   3.487  0.00  0.00    -0.042 I 
ENDROOT
BRANCH   1  11
ATOM     10  C   LIG    1       27.126 -14.407   4.483  0.00  0.00    +0.184 C 
ATOM     11  N   LIG    1       26.846 -15.239   3.532  0.00  0.00    -0.238 NA
BRANCH  10  13
ATOM     12  C   LIG    1       28.213 -12.510   5.563  0.00  0.00    +0.130 C 
ATOM     13  N   LIG    1       28.160 -13.498   4.493  0.00  0.00    -0.327 N 
ATOM     14  C   LIG    1       28.727 -13.072   3.219  0.00  0.00    +0.130 C 
ENDBRANCH  10  13
ENDBRANCH   1  11
BRANCH   4  15
ATOM     15  C   LIG    1       24.562 -19.685   3.937  0.00  0.00    +0.048 C 
BRANCH  15  16
ATOM     16  C   LIG    1       24.799 -20.211   5.352  0.00  0.00    +0.125 C 
BRANCH  16  17
ATOM     17  C   LIG    1       23.584 -20.919   5.879  0.00  0.00    +0.305 C 
ATOM     18  O   LIG    1       23.259 -20.925   7.062  0.00  0.00    -0.251 OA
BRANCH  17  19
ATOM     19  O   LIG    1       22.878 -21.572   4.933  0.00  0.00    -0.481 OA
ATOM     20  H   LIG    1       21.920 -21.642   5.114  0.00  0.00    +0.295 HD
ENDBRANCH  17  19
ENDBRANCH  16  17
ENDBRANCH  15  16
ENDBRANCH   4  15
TORSDOF 6
ENDMDL
MODEL 3
REMARK VINA RESULT:       2.2      4.282      6.756
REMARK  Name = *****
REMARK                            x       y       z     vdW  Elec       q    Type
REMARK                         _______ _______ _______ _____ _____    ______ ____
ROOT
ATOM      1  C   LIG    1       24.722 -15.738   4.114  0.00  0.00    +0.092 A 
ATOM      2  C   LIG    1       23.598 -16.583   4.320  0.00  0.00    +0.044 A 
ATOM      3  I   LIG    1       21.781 -15.654   5.043  0.00  0.00    -0.041 I 
ATOM      4  C   LIG    1       23.642 -17.981   4.061  0.00  0.00    -0.018 A 
ATOM      5  C   LIG    1       24.837 -18.493   3.510  0.00  0.00    +0.019 A 
ATOM      6  I   LIG    1       25.139 -20.531   3.047  0.00  0.00    -0.043 I 
ATOM      7  C   LIG    1       25.930 -17.658   3.242  0.00  0.00    +0.031 A 
ATOM      8  C   LIG    1       25.875 -16.297   3.547  0.00  0.00    +0.041 A 
ATOM      9  I   LIG    1       27.593 -15.154   3.137  0.00  0.00    -0.042 I 
ENDROOT
BRANCH   1  11
ATOM     10  C   LIG    1       24.157 -13.580   3.606  0.00  0.00    +0.184 C 
ATOM     11  N   LIG    1       24.670 -14.376   4.487  0.00  0.00    -0.238 NA
BRANCH  10  13
ATOM     12  C   LIG    1       23.579 -11.586   4.886  0.00  0.00    +0.130 C 
ATOM     13  N   LIG    1       24.111 -12.205   3.679  0.00  0.00    -0.327 N 
ATOM     14  C   LIG    1       23.915 -11.448   2.448  0.00  0.00    +0.130 C 
ENDBRANCH  10  13
ENDBRANCH   1  11
BRANCH   4  15
ATOM     15  C   LIG    1       22.496 -18.895   4.465  0.00  0.00    +0.048 C 
BRANCH  15  16
ATOM     16  C   LIG    1       22.609 -19.271   5.941  0.00  0.00    +0.125 C 
BRANCH  16  17
ATOM     17  C   LIG    1       23.073 -20.690   6.107  0.00  0.00    +0.305 C 
ATOM     18  O   LIG    1       23.940 -21.034   6.903  0.00  0.00    -0.251 OA
BRANCH  17  19
ATOM     19  O   LIG    1       22.462 -21.565   5.282  0.00  0.00    -0.481 OA
ATOM     20  H   LIG    1       23.057 -22.012   4.648  0.00  0.00    +0.295 HD
ENDBRANCH  17  19
ENDBRANCH  16  17
ENDBRANCH  15  16
ENDBRANCH   4  15
TORSDOF 6
ENDMDL
MODEL 4
REMARK VINA RESULT:       2.4      2.456      3.742
REMARK  Name = *****
REMARK                            x       y       z     vdW  Elec       q    Type
REMARK                         _______ _______ _______ _____ _____    ______ ____
ROOT
ATOM      1  C   LIG    1       24.239 -17.921   3.940  0.00  0.00    +0.092 A 
ATOM      2  C   LIG    1       25.490 -17.261   3.798  0.00  0.00    +0.044 A 
ATOM      3  I   LIG    1       27.259 -18.504   3.699  0.00  0.00    -0.041 I 
ATOM      4  C   LIG    1       25.595 -15.845   3.714  0.00  0.00    -0.018 A 
ATOM      5  C   LIG    1       24.389 -15.113   3.699  0.00  0.00    +0.019 A 
ATOM      6  I   LIG    1       24.293 -13.005   3.587  0.00  0.00    -0.043 I 
ATOM      7  C   LIG    1       23.146 -15.756   3.775  0.00  0.00    +0.031 A 
ATOM      8  C   LIG    1       23.073 -17.144   3.901  0.00  0.00    +0.041 A 
ATOM      9  I   LIG    1       21.153 -17.993   4.046  0.00  0.00    -0.042 I 
ENDROOT
BRANCH   1  11
ATOM     10  C   LIG    1       24.127 -19.708   5.363  0.00  0.00    +0.184 C 
ATOM     11  N   LIG    1       24.187 -19.320   4.131  0.00  0.00    -0.238 NA
BRANCH  10  13
ATOM     12  C   LIG    1       23.041 -21.570   6.505  0.00  0.00    +0.130 C 
ATOM     13  N   LIG    1       24.194 -21.009   5.812  0.00  0.00    -0.327 N 
ATOM     14  C   LIG    1       25.489 -21.540   6.219  0.00  0.00    +0.130 C 
ENDBRANCH  10  13
ENDBRANCH   1  11
BRANCH   4  15
ATOM     15  C   LIG    1       26.947 -15.150   3.752  0.00  0.00    +0.048 C 
BRANCH  15  16
ATOM     16  C   LIG    1       26.946 -14.039   4.801  0.00  0.00    +0.125 C 
BRANCH  16  17
ATOM     17  C   LIG    1       28.122 -13.122   4.623  0.00  0.00    +0.305 C 
ATOM     18  O   LIG    1       28.850 -13.133   3.636  0.00  0.00    -0.251 OA
BRANCH  17  19
ATOM     19  O   LIG    1       28.324 -12.285   5.661  0.00  0.00    -0.481 OA
ATOM     20  H   LIG    1       27.514 -12.036   6.148  0.00  0.00    +0.295 HD
ENDBRANCH  17  19
ENDBRANCH  16  17
ENDBRANCH  15  16
ENDBRANCH   4  15
TORSDOF 6
ENDMDL
MODEL 5
REMARK VINA RESULT:       2.7      4.222      7.067
REMARK  Name = *****
REMARK                            x       y       z     vdW  Elec       q    Type
REMARK                         _______ _______ _______ _____ _____    ______ ____
ROOT
ATOM      1  C   LIG    1       23.753 -16.003   4.511  0.00  0.00    +0.092 A 
ATOM      2  C   LIG    1       24.526 -17.031   3.907  0.00  0.00    +0.044 A 
ATOM      3  I   LIG    1       26.447 -16.469   3.082  0.00  0.00    -0.041 I 
ATOM      4  C   LIG    1       24.078 -18.380   3.844  0.00  0.00    -0.018 A 
ATOM      5  C   LIG    1       22.854 -18.678   4.481  0.00  0.00    +0.019 A 
ATOM      6  I   LIG    1       21.986 -20.603   4.516  0.00  0.00    -0.043 I 
ATOM      7  C   LIG    1       22.113 -17.685   5.137  0.00  0.00    +0.031 A 
ATOM      8  C   LIG    1       22.555 -16.361   5.145  0.00  0.00    +0.041 A 
ATOM      9  I   LIG    1       21.338 -14.952   6.126  0.00  0.00    -0.042 I 
ENDROOT
BRANCH   1  11
ATOM     10  C   LIG    1       23.664 -13.950   3.507  0.00  0.00    +0.184 C 
ATOM     11  N   LIG    1       24.184 -14.658   4.456  0.00  0.00    -0.238 NA
BRANCH  10  13
ATOM     12  C   LIG    1       25.146 -12.454   2.275  0.00  0.00    +0.130 C 
ATOM     13  N   LIG    1       24.012 -12.661   3.166  0.00  0.00    -0.327 N 
ATOM     14  C   LIG    1       23.773 -11.596   4.133  0.00  0.00    +0.130 C 
ENDBRANCH  10  13
ENDBRANCH   1  11
BRANCH   4  15
ATOM     15  C   LIG    1       24.827 -19.423   3.031  0.00  0.00    +0.048 C 
BRANCH  15  16
ATOM     16  C   LIG    1       25.159 -20.637   3.898  0.00  0.00    +0.125 C 
BRANCH  16  17
ATOM     17  C   LIG    1       26.023 -20.253   5.064  0.00  0.00    +0.305 C 
ATOM     18  O   LIG    1       25.656 -20.315   6.233  0.00  0.00    -0.251 OA
BRANCH  17  19
ATOM     19  O   LIG    1       27.249 -19.811   4.714  0.00  0.00    -0.481 OA
ATOM     20  H   LIG    1       27.282 -19.336   3.860  0.00  0.00    +0.295 HD
ENDBRANCH  17  19
ENDBRANCH  16  17
ENDBRANCH  15  16
ENDBRANCH   4  15
TORSDOF 6
ENDMDL
MODEL 6
REMARK VINA RESULT:       2.8      2.323      3.815
REMARK  Name = *****
REMARK                            x       y       z     vdW  Elec       q    Type
REMARK                         _______ _______ _______ _____ _____    ______ ____
ROOT
ATOM      1  C   LIG    1       25.462 -18.635   4.109  0.00  0.00    +0.092 A 
ATOM      2  C   LIG    1       25.122 -17.297   3.769  0.00  0.00    +0.044 A 
ATOM      3  I   LIG    1       26.750 -15.955   3.285  0.00  0.00    -0.041 I 
ATOM      4  C   LIG    1       23.775 -16.843   3.734  0.00  0.00    -0.018 A 
ATOM      5  C   LIG    1       22.769 -17.802   3.978  0.00  0.00    +0.019 A 
ATOM      6  I   LIG    1       20.702 -17.363   3.986  0.00  0.00    -0.043 I 
ATOM      7  C   LIG    1       23.089 -19.139   4.251  0.00  0.00    +0.031 A 
ATOM      8  C   LIG    1       24.421 -19.549   4.323  0.00  0.00    +0.041 A 
ATOM      9  I   LIG    1       24.778 -21.571   4.779  0.00  0.00    -0.042 I 
ENDROOT
BRANCH   1  11
ATOM     10  C   LIG    1       27.188 -19.338   5.436  0.00  0.00    +0.184 C 
ATOM     11  N   LIG    1       26.816 -19.017   4.239  0.00  0.00    -0.238 NA
BRANCH  10  13
ATOM     12  C   LIG    1       28.685 -20.706   6.791  0.00  0.00    +0.130 C 
ATOM     13  N   LIG    1       28.474 -19.621   5.842  0.00  0.00    -0.327 N 
ATOM     14  C   LIG    1       29.439 -18.530   5.912  0.00  0.00    +0.130 C 
ENDBRANCH  10  13
ENDBRANCH   1  11
BRANCH   4  15
ATOM     15  C   LIG    1       23.444 -15.370   3.555  0.00  0.00    +0.048 C 
BRANCH  15  16
ATOM     16  C   LIG    1       23.813 -14.584   4.812  0.00  0.00    +0.125 C 
BRANCH  16  17
ATOM     17  C   LIG    1       24.405 -13.249   4.464  0.00  0.00    +0.305 C 
ATOM     18  O   LIG    1       25.339 -12.739   5.073  0.00  0.00    -0.251 OA
BRANCH  17  19
ATOM     19  O   LIG    1       23.804 -12.639   3.421  0.00  0.00    -0.481 OA
ATOM     20  H   LIG    1       23.033 -12.087   3.660  0.00  0.00    +0.295 HD
ENDBRANCH  17  19
ENDBRANCH  16  17
ENDBRANCH  15  16
ENDBRANCH   4  15
TORSDOF 6
ENDMDL
MODEL 7
REMARK VINA RESULT:       3.4      2.619      3.902
REMARK  Name = *****
REMARK                            x       y       z     vdW  Elec       q    Type
REMARK                         _______ _______ _______ _____ _____    ______ ____
ROOT
ATOM      1  C   LIG    1       24.257 -16.957   4.141  0.00  0.00    +0.092 A 
ATOM      2  C   LIG    1       25.486 -16.412   3.679  0.00  0.00    +0.044 A 
ATOM      3  I   LIG    1       27.165 -17.767   3.503  0.00  0.00    -0.041 I 
ATOM      4  C   LIG    1       25.625 -15.039   3.334  0.00  0.00    -0.018 A 
ATOM      5  C   LIG    1       24.461 -14.243   3.395  0.00  0.00    +0.019 A 
ATOM      6  I   LIG    1       24.423 -12.181   2.937  0.00  0.00    -0.043 I 
ATOM      7  C   LIG    1       23.229 -14.783   3.788  0.00  0.00    +0.031 A 
ATOM      8  C   LIG    1       23.130 -16.124   4.163  0.00  0.00    +0.041 A 
ATOM      9  I   LIG    1       21.237 -16.811   4.771  0.00  0.00    -0.042 I 
ENDROOT
BRANCH   1  11
ATOM     10  C   LIG    1       23.624 -19.121   3.753  0.00  0.00    +0.184 C 
ATOM     11  N   LIG    1       24.189 -18.299   4.577  0.00  0.00    -0.238 NA
BRANCH  10  13
ATOM     12  C   LIG    1       22.296 -20.760   4.978  0.00  0.00    +0.130 C 
ATOM     13  N   LIG    1       23.326 -20.444   3.996  0.00  0.00    -0.327 N 
ATOM     14  C   LIG    1       24.387 -21.434   3.860  0.00  0.00    +0.130 C 
ENDBRANCH  10  13
ENDBRANCH   1  11
BRANCH   4  15
ATOM     15  C   LIG    1       26.986 -14.437   3.025  0.00  0.00    +0.048 C 
BRANCH  15  16
ATOM     16  C   LIG    1       27.873 -14.457   4.270  0.00  0.00    +0.125 C 
BRANCH  16  17
ATOM     17  C   LIG    1       27.816 -13.146   4.999  0.00  0.00    +0.305 C 
ATOM     18  O   LIG    1       28.643 -12.251   4.857  0.00  0.00    -0.251 OA
BRANCH  17  19
ATOM     19  O   LIG    1       26.774 -13.038   5.849  0.00  0.00    -0.481 OA
ATOM     20  H   LIG    1       26.996 -12.650   6.719  0.00  0.00    +0.295 HD
ENDBRANCH  17  19
ENDBRANCH  16  17
ENDBRANCH  15  16
ENDBRANCH   4  15
TORSDOF 6
ENDMDL
MODEL 8
REMARK VINA RESULT:       3.4      2.496      3.122
REMARK  Name = *****
REMARK                            x       y       z     vdW  Elec       q    Type
REMARK                         _______ _______ _______ _____ _____    ______ ____
ROOT
ATOM      1  C   LIG    1       23.816 -17.660   4.147  0.00  0.00    +0.092 A 
ATOM      2  C   LIG    1       23.592 -16.281   4.407  0.00  0.00    +0.044 A 
ATOM      3  I   LIG    1       21.806 -15.759   5.512  0.00  0.00    -0.041 I 
ATOM      4  C   LIG    1       24.496 -15.271   3.974  0.00  0.00    -0.018 A 
ATOM      5  C   LIG    1       25.679 -15.702   3.335  0.00  0.00    +0.019 A 
ATOM      6  I   LIG    1       27.163 -14.389   2.602  0.00  0.00    -0.043 I 
ATOM      7  C   LIG    1       25.941 -17.063   3.131  0.00  0.00    +0.031 A 
ATOM      8  C   LIG    1       25.017 -18.031   3.526  0.00  0.00    +0.041 A 
ATOM      9  I   LIG    1       25.503 -20.039   3.130  0.00  0.00    -0.042 I 
ENDROOT
BRANCH   1  11
ATOM     10  C   LIG    1       23.239 -19.542   5.312  0.00  0.00    +0.184 C 
ATOM     11  N   LIG    1       22.840 -18.621   4.497  0.00  0.00    -0.238 NA
BRANCH  10  13
ATOM     12  C   LIG    1       23.122 -21.572   6.661  0.00  0.00    +0.130 C 
ATOM     13  N   LIG    1       22.522 -20.652   5.702  0.00  0.00    -0.327 N 
ATOM     14  C   LIG    1       21.599 -21.256   4.748  0.00  0.00    +0.130 C 
ENDBRANCH  10  13
ENDBRANCH   1  11
BRANCH   4  15
ATOM     15  C   LIG    1       24.147 -13.796   4.093  0.00  0.00    +0.048 C 
BRANCH  15  16
ATOM     16  C   LIG    1       24.600 -13.249   5.447  0.00  0.00    +0.125 C 
BRANCH  16  17
ATOM     17  C   LIG    1       26.072 -12.955   5.449  0.00  0.00    +0.305 C 
ATOM     18  O   LIG    1       26.609 -12.162   4.684  0.00  0.00    -0.251 OA
BRANCH  17  19
ATOM     19  O   LIG    1       26.768 -13.659   6.366  0.00  0.00    -0.481 OA
ATOM     20  H   LIG    1       27.473 -13.155   6.818  0.00  0.00    +0.295 HD
ENDBRANCH  17  19
ENDBRANCH  16  17
ENDBRANCH  15  16
ENDBRANCH   4  15
TORSDOF 6
ENDMDL
MODEL 9
REMARK VINA RESULT:       3.6      3.644      5.758
REMARK  Name = *****
REMARK                            x       y       z     vdW  Elec       q    Type
REMARK                         _______ _______ _______ _____ _____    ______ ____
ROOT
ATOM      1  C   LIG    1       27.167 -17.440   4.368  0.00  0.00    +0.092 A 
ATOM      2  C   LIG    1       25.890 -17.361   3.749  0.00  0.00    +0.044 A 
ATOM      3  I   LIG    1       25.343 -15.471   2.848  0.00  0.00    -0.041 I 
ATOM      4  C   LIG    1       24.998 -18.468   3.705  0.00  0.00    -0.018 A 
ATOM      5  C   LIG    1       25.465 -19.688   4.240  0.00  0.00    +0.019 A 
ATOM      6  I   LIG    1       24.321 -21.464   4.293  0.00  0.00    -0.043 I 
ATOM      7  C   LIG    1       26.747 -19.796   4.796  0.00  0.00    +0.031 A 
ATOM      8  C   LIG    1       27.585 -18.682   4.866  0.00  0.00    +0.041 A 
ATOM      9  I   LIG    1       29.471 -18.957   5.757  0.00  0.00    -0.042 I 
ENDROOT
BRANCH   1  11
ATOM     10  C   LIG    1       27.354 -15.161   4.366  0.00  0.00    +0.184 C 
ATOM     11  N   LIG    1       27.976 -16.288   4.487  0.00  0.00    -0.238 NA
BRANCH  10  13
ATOM     12  C   LIG    1       27.695 -12.986   5.417  0.00  0.00    +0.130 C 
ATOM     13  N   LIG    1       27.933 -13.911   4.317  0.00  0.00    -0.327 N 
ATOM     14  C   LIG    1       28.149 -13.294   3.014  0.00  0.00    +0.130 C 
ENDBRANCH  10  13
ENDBRANCH   1  11
BRANCH   4  15
ATOM     15  C   LIG    1       23.569 -18.312   3.210  0.00  0.00    +0.048 C 
BRANCH  15  16
ATOM     16  C   LIG    1       22.593 -18.317   4.385  0.00  0.00    +0.125 C 
BRANCH  16  17
ATOM     17  C   LIG    1       21.298 -18.979   4.014  0.00  0.00    +0.305 C 
ATOM     18  O   LIG    1       20.419 -18.435   3.354  0.00  0.00    -0.251 OA
BRANCH  17  19
ATOM     19  O   LIG    1       21.171 -20.236   4.490  0.00  0.00    -0.481 OA
ATOM     20  H   LIG    1       22.006 -20.744   4.525  0.00  0.00    +0.295 HD
ENDBRANCH  17  19
ENDBRANCH  16  17
ENDBRANCH  15  16
ENDBRANCH   4  15
TORSDOF 6
ENDMDL
