MODEL 1
REMARK VINA RESULT:      -4.6      0.000      0.000
REMARK  Name = *****
REMARK                            x       y       z     vdW  Elec       q    Type
REMARK                         _______ _______ _______ _____ _____    ______ ____
ROOT
ATOM      1  N   LIG    1       25.883 -19.164   4.489  0.00  0.00    -0.298 N 
ATOM      2  C   LIG    1       24.567 -19.672   4.725  0.00  0.00    +0.049 A 
ATOM      3  C   LIG    1       24.324 -20.732   5.620  0.00  0.00    +0.034 A 
ATOM      4  C   LIG    1       23.021 -21.217   5.835  0.00  0.00    +0.018 A 
ATOM      5  C   LIG    1       21.927 -20.656   5.187  0.00  0.00    +0.021 A 
ATOM      6  C   LIG    1       22.135 -19.590   4.328  0.00  0.00    +0.043 A 
ATOM      7 CL   LIG    1       20.795 -18.869   3.523  0.00  0.00    -0.084 Cl
ATOM      8  S   LIG    1       25.609 -21.571   6.509  0.00  0.00    -0.086 S 
ATOM      9  C   LIG    1       27.036 -20.570   6.183  0.00  0.00    +0.034 A 
ATOM     10  C   LIG    1       28.194 -20.903   6.908  0.00  0.00    +0.017 A 
ATOM     11  C   LIG    1       29.385 -20.210   6.726  0.00  0.00    +0.001 A 
ATOM     12  C   LIG    1       29.421 -19.161   5.823  0.00  0.00    +0.002 A 
ATOM     13  C   LIG    1       28.272 -18.824   5.104  0.00  0.00    +0.024 A 
ATOM     14  C   LIG    1       23.424 -19.101   4.112  0.00  0.00    +0.044 A 
ATOM     15  C   LIG    1       27.046 -19.530   5.232  0.00  0.00    +0.048 A 
ENDROOT
BRANCH   1  16
ATOM     16  C   LIG    1       26.106 -18.418   3.207  0.00  0.00    +0.112 C 
BRANCH  16  17
ATOM     17  C   LIG    1       26.361 -16.924   3.450  0.00  0.00    +0.035 C 
BRANCH  17  18
ATOM     18  C   LIG    1       25.044 -16.134   3.603  0.00  0.00    +0.086 C 
BRANCH  18  22
ATOM     19  N   LIG    1       28.021 -13.709   3.216  0.00  0.00    -0.298 NA
ATOM     20  C   LIG    1       27.658 -14.520   4.400  0.00  0.00    +0.100 C 
ATOM     21  C   LIG    1       26.193 -14.333   4.857  0.00  0.00    +0.100 C 
ATOM     22  N   LIG    1       25.188 -14.686   3.838  0.00  0.00    -0.300 NA
ATOM     23  C   LIG    1       25.521 -13.956   2.588  0.00  0.00    +0.100 C 
ATOM     24  C   LIG    1       27.018 -13.954   2.158  0.00  0.00    +0.100 C 
BRANCH  19  25
ATOM     25  C   LIG    1       28.166 -12.292   3.605  0.00  0.00    +0.112 C 
BRANCH  25  26
ATOM     26  C   LIG    1       29.416 -11.939   4.423  0.00  0.00    +0.171 C 
BRANCH  26  27
ATOM     27  O   LIG    1       29.043 -11.808   5.797  0.00  0.00    -0.394 OA
ATOM     28  H   LIG    1       28.167 -12.220   5.896  0.00  0.00    +0.209 HD
ENDBRANCH  26  27
ENDBRANCH  25  26
ENDBRANCH  19  25
ENDBRANCH  18  22
ENDBRANCH  17  18
ENDBRANCH  16  17
ENDBRANCH   1  16
TORSDOF 7
ENDMDL
