MODEL 1
REMARK VINA RESULT:      -6.5      0.000      0.000
REMARK  Name = *****
REMARK                            x       y       z     vdW  Elec       q    Type
REMARK                         _______ _______ _______ _____ _____    ______ ____
ROOT
ATOM      1  C   LIG    1       27.055 -32.503   6.192  0.00  0.00    +0.008 C 
ATOM      2  C   LIG    1       25.531 -32.352   6.253  0.00  0.00    -0.008 C 
ATOM      3  C   LIG    1       25.018 -31.542   7.464  0.00  0.00    +0.032 C 
ATOM      4  C   LIG    1       25.042 -29.964   7.331  0.00  0.00    +0.161 C 
ATOM      5  C   LIG    1       25.938 -29.157   8.318  0.00  0.00    +0.293 C 
ATOM      6  O   LIG    1       25.672 -29.396   9.689  0.00  0.00    -0.314 OA
ATOM      7  C   LIG    1       24.503 -30.152   9.957  0.00  0.00    +0.203 C 
ATOM      8  O   LIG    1       23.378 -30.051   9.063  0.00  0.00    -0.199 OA
ATOM      9  C   LIG    1       24.908 -31.627  10.023  0.00  0.00    +0.068 C 
ATOM     10  C   LIG    1       23.999 -29.713  11.332  0.00  0.00    +0.077 C 
ATOM     11  O   LIG    1       25.824 -27.733   8.186  0.00  0.00    -0.309 OA
ATOM     12  C   LIG    1       25.779 -27.199   6.869  0.00  0.00    +0.316 C 
ATOM     13  C   LIG    1       26.250 -28.229   5.836  0.00  0.00    +0.061 C 
ATOM     14  C   LIG    1       26.476 -27.612   4.452  0.00  0.00    +0.014 C 
ATOM     15  C   LIG    1       25.228 -29.407   5.854  0.00  0.00    +0.038 C 
ATOM     16  C   LIG    1       25.559 -30.399   4.734  0.00  0.00    +0.007 C 
ATOM     17  O   LIG    1       23.726 -29.489   7.750  0.00  0.00    -0.220 OA
ATOM     18  C   LIG    1       25.642 -32.082   8.765  0.00  0.00    +0.012 C 
ATOM     19  C   LIG    1       24.959 -31.762   4.971  0.00  0.00    +0.004 C 
ENDROOT
BRANCH  12  20
ATOM     20  O   LIG    1       24.428 -26.791   6.569  0.00  0.00    -0.435 OA
BRANCH  20  21
ATOM     21  C   LIG    1       24.218 -25.460   6.486  0.00  0.00    +0.310 C 
ATOM     22  O   LIG    1       23.114 -24.927   6.474  0.00  0.00    -0.251 OA
BRANCH  21  23
ATOM     23  C   LIG    1       25.514 -24.681   6.480  0.00  0.00    +0.132 C 
BRANCH  23  24
ATOM     24  C   LIG    1       25.340 -23.258   7.014  0.00  0.00    +0.131 C 
BRANCH  24  25
ATOM     25  C   LIG    1       25.143 -22.216   5.929  0.00  0.00    +0.305 C 
ATOM     26  O   LIG    1       25.384 -21.038   6.083  0.00  0.00    -0.251 OA
BRANCH  25  27
ATOM     27  O   LIG    1       24.706 -22.696   4.746  0.00  0.00    -0.481 OA
ATOM     28  H   LIG    1       25.090 -23.565   4.480  0.00  0.00    +0.295 HD
ENDBRANCH  25  27
ENDBRANCH  24  25
ENDBRANCH  23  24
ENDBRANCH  21  23
ENDBRANCH  20  21
ENDBRANCH  12  20
TORSDOF 6
ENDMDL
MODEL 2
REMARK VINA RESULT:      -6.2      2.416      4.710
REMARK  Name = *****
REMARK                            x       y       z     vdW  Elec       q    Type
REMARK                         _______ _______ _______ _____ _____    ______ ____
ROOT
ATOM      1  C   LIG    1       23.417 -33.767  11.860  0.00  0.00    +0.008 C 
ATOM      2  C   LIG    1       22.979 -32.305  11.725  0.00  0.00    -0.008 C 
ATOM      3  C   LIG    1       24.136 -31.313  11.474  0.00  0.00    +0.032 C 
ATOM      4  C   LIG    1       24.642 -31.167   9.981  0.00  0.00    +0.161 C 
ATOM      5  C   LIG    1       26.114 -31.563   9.662  0.00  0.00    +0.293 C 
ATOM      6  O   LIG    1       27.091 -30.890  10.438  0.00  0.00    -0.314 OA
ATOM      7  C   LIG    1       26.605 -29.813  11.221  0.00  0.00    +0.203 C 
ATOM      8  O   LIG    1       25.480 -29.048  10.746  0.00  0.00    -0.199 OA
ATOM      9  C   LIG    1       26.236 -30.368  12.599  0.00  0.00    +0.068 C 
ATOM     10  C   LIG    1       27.761 -28.824  11.376  0.00  0.00    +0.077 C 
ATOM     11  O   LIG    1       26.513 -31.309   8.307  0.00  0.00    -0.309 OA
ATOM     12  C   LIG    1       25.584 -31.634   7.281  0.00  0.00    +0.316 C 
ATOM     13  C   LIG    1       24.478 -32.558   7.804  0.00  0.00    +0.061 C 
ATOM     14  C   LIG    1       23.623 -33.147   6.677  0.00  0.00    +0.014 C 
ATOM     15  C   LIG    1       23.670 -31.758   8.871  0.00  0.00    +0.038 C 
ATOM     16  C   LIG    1       22.455 -32.574   9.322  0.00  0.00    +0.007 C 
ATOM     17  O   LIG    1       24.708 -29.735   9.701  0.00  0.00    -0.220 OA
ATOM     18  C   LIG    1       25.256 -31.534  12.509  0.00  0.00    +0.012 C 
ATOM     19  C   LIG    1       21.913 -32.120  10.654  0.00  0.00    +0.004 C 
ENDROOT
BRANCH  12  20
ATOM     20  O   LIG    1       25.002 -30.419   6.766  0.00  0.00    -0.435 OA
BRANCH  20  21
ATOM     21  C   LIG    1       25.269 -30.136   5.473  0.00  0.00    +0.310 C 
ATOM     22  O   LIG    1       25.721 -30.936   4.663  0.00  0.00    -0.251 OA
BRANCH  21  23
ATOM     23  C   LIG    1       24.878 -28.721   5.112  0.00  0.00    +0.132 C 
BRANCH  23  24
ATOM     24  C   LIG    1       24.565 -27.870   6.345  0.00  0.00    +0.131 C 
BRANCH  24  25
ATOM     25  C   LIG    1       25.796 -27.296   7.022  0.00  0.00    +0.305 C 
ATOM     26  O   LIG    1       26.289 -26.232   6.719  0.00  0.00    -0.251 OA
BRANCH  25  27
ATOM     27  O   LIG    1       26.298 -28.044   8.027  0.00  0.00    -0.481 OA
ATOM     28  H   LIG    1       26.061 -29.000   7.995  0.00  0.00    +0.295 HD
ENDBRANCH  25  27
ENDBRANCH  24  25
ENDBRANCH  23  24
ENDBRANCH  21  23
ENDBRANCH  20  21
ENDBRANCH  12  20
TORSDOF 6
ENDMDL
MODEL 3
REMARK VINA RESULT:      -6.1      3.400      6.725
REMARK  Name = *****
REMARK                            x       y       z     vdW  Elec       q    Type
REMARK                         _______ _______ _______ _____ _____    ______ ____
ROOT
ATOM      1  C   LIG    1       23.500 -28.152  15.395  0.00  0.00    +0.008 C 
ATOM      2  C   LIG    1       23.933 -27.282  14.210  0.00  0.00    -0.008 C 
ATOM      3  C   LIG    1       25.109 -27.858  13.391  0.00  0.00    +0.032 C 
ATOM      4  C   LIG    1       24.754 -28.947  12.298  0.00  0.00    +0.161 C 
ATOM      5  C   LIG    1       25.351 -30.377  12.464  0.00  0.00    +0.293 C 
ATOM      6  O   LIG    1       26.764 -30.421  12.567  0.00  0.00    -0.314 OA
ATOM      7  C   LIG    1       27.429 -29.201  12.286  0.00  0.00    +0.203 C 
ATOM      8  O   LIG    1       26.855 -28.287  11.332  0.00  0.00    -0.199 OA
ATOM      9  C   LIG    1       27.595 -28.445  13.607  0.00  0.00    +0.068 C 
ATOM     10  C   LIG    1       28.812 -29.568  11.747  0.00  0.00    +0.077 C 
ATOM     11  O   LIG    1       25.054 -31.268  11.380  0.00  0.00    -0.309 OA
ATOM     12  C   LIG    1       23.733 -31.244  10.856  0.00  0.00    +0.316 C 
ATOM     13  C   LIG    1       22.768 -30.535  11.814  0.00  0.00    +0.061 C 
ATOM     14  C   LIG    1       21.300 -30.729  11.419  0.00  0.00    +0.014 C 
ATOM     15  C   LIG    1       23.217 -29.045  11.908  0.00  0.00    +0.038 C 
ATOM     16  C   LIG    1       22.200 -28.248  12.731  0.00  0.00    +0.007 C 
ATOM     17  O   LIG    1       25.430 -28.541  11.069  0.00  0.00    -0.220 OA
ATOM     18  C   LIG    1       26.266 -28.250  14.331  0.00  0.00    +0.012 C 
ATOM     19  C   LIG    1       22.774 -26.964  13.275  0.00  0.00    +0.004 C 
ENDROOT
BRANCH  12  20
ATOM     20  O   LIG    1       23.741 -30.567   9.583  0.00  0.00    -0.435 OA
BRANCH  20  21
ATOM     21  C   LIG    1       24.468 -31.151   8.606  0.00  0.00    +0.310 C 
ATOM     22  O   LIG    1       24.372 -32.326   8.272  0.00  0.00    -0.251 OA
BRANCH  21  23
ATOM     23  C   LIG    1       25.378 -30.164   7.912  0.00  0.00    +0.132 C 
BRANCH  23  24
ATOM     24  C   LIG    1       24.615 -28.959   7.356  0.00  0.00    +0.131 C 
BRANCH  24  25
ATOM     25  C   LIG    1       24.305 -29.060   5.875  0.00  0.00    +0.305 C 
ATOM     26  O   LIG    1       25.010 -28.585   5.011  0.00  0.00    -0.251 OA
BRANCH  25  27
ATOM     27  O   LIG    1       23.189 -29.755   5.569  0.00  0.00    -0.481 OA
ATOM     28  H   LIG    1       22.358 -29.224   5.553  0.00  0.00    +0.295 HD
ENDBRANCH  25  27
ENDBRANCH  24  25
ENDBRANCH  23  24
ENDBRANCH  21  23
ENDBRANCH  20  21
ENDBRANCH  12  20
TORSDOF 6
ENDMDL
MODEL 4
REMARK VINA RESULT:      -5.9      6.026      8.686
REMARK  Name = *****
REMARK                            x       y       z     vdW  Elec       q    Type
REMARK                         _______ _______ _______ _____ _____    ______ ____
ROOT
ATOM      1  C   LIG    1       23.406 -24.850   6.859  0.00  0.00    +0.008 C 
ATOM      2  C   LIG    1       24.045 -24.311   5.575  0.00  0.00    -0.008 C 
ATOM      3  C   LIG    1       23.836 -22.798   5.344  0.00  0.00    +0.032 C 
ATOM      4  C   LIG    1       24.824 -21.816   6.097  0.00  0.00    +0.161 C 
ATOM      5  C   LIG    1       24.223 -20.822   7.135  0.00  0.00    +0.293 C 
ATOM      6  O   LIG    1       23.201 -19.982   6.627  0.00  0.00    -0.314 OA
ATOM      7  C   LIG    1       23.033 -20.015   5.220  0.00  0.00    +0.203 C 
ATOM      8  O   LIG    1       24.176 -20.264   4.379  0.00  0.00    -0.199 OA
ATOM      9  C   LIG    1       21.984 -21.083   4.900  0.00  0.00    +0.068 C 
ATOM     10  C   LIG    1       22.489 -18.646   4.809  0.00  0.00    +0.077 C 
ATOM     11  O   LIG    1       25.176 -19.909   7.696  0.00  0.00    -0.309 OA
ATOM     12  C   LIG    1       26.449 -20.431   8.056  0.00  0.00    +0.316 C 
ATOM     13  C   LIG    1       26.421 -21.962   8.128  0.00  0.00    +0.061 C 
ATOM     14  C   LIG    1       27.683 -22.542   8.775  0.00  0.00    +0.014 C 
ATOM     15  C   LIG    1       26.134 -22.491   6.690  0.00  0.00    +0.038 C 
ATOM     16  C   LIG    1       26.246 -24.019   6.667  0.00  0.00    +0.007 C 
ATOM     17  O   LIG    1       25.308 -20.865   5.099  0.00  0.00    -0.220 OA
ATOM     18  C   LIG    1       22.344 -22.442   5.493  0.00  0.00    +0.012 C 
ATOM     19  C   LIG    1       25.531 -24.634   5.491  0.00  0.00    +0.004 C 
ENDROOT
BRANCH  12  20
ATOM     20  O   LIG    1       27.426 -20.007   7.084  0.00  0.00    -0.435 OA
BRANCH  20  21
ATOM     21  C   LIG    1       28.555 -19.457   7.582  0.00  0.00    +0.310 C 
ATOM     22  O   LIG    1       28.787 -19.299   8.774  0.00  0.00    -0.251 OA
BRANCH  21  23
ATOM     23  C   LIG    1       29.546 -19.116   6.492  0.00  0.00    +0.132 C 
BRANCH  23  24
ATOM     24  C   LIG    1       30.971 -19.547   6.845  0.00  0.00    +0.131 C 
BRANCH  24  25
ATOM     25  C   LIG    1       31.559 -18.809   8.033  0.00  0.00    +0.305 C 
ATOM     26  O   LIG    1       31.732 -17.610   8.053  0.00  0.00    -0.251 OA
BRANCH  25  27
ATOM     27  O   LIG    1       31.851 -19.581   9.100  0.00  0.00    -0.481 OA
ATOM     28  H   LIG    1       31.612 -20.533   9.005  0.00  0.00    +0.295 HD
ENDBRANCH  25  27
ENDBRANCH  24  25
ENDBRANCH  23  24
ENDBRANCH  21  23
ENDBRANCH  20  21
ENDBRANCH  12  20
TORSDOF 6
ENDMDL
MODEL 5
REMARK VINA RESULT:      -5.7      4.043      5.906
REMARK  Name = *****
REMARK                            x       y       z     vdW  Elec       q    Type
REMARK                         _______ _______ _______ _____ _____    ______ ____
ROOT
ATOM      1  C   LIG    1       25.859 -31.545   6.195  0.00  0.00    +0.008 C 
ATOM      2  C   LIG    1       24.469 -30.926   6.377  0.00  0.00    -0.008 C 
ATOM      3  C   LIG    1       23.667 -31.497   7.567  0.00  0.00    +0.032 C 
ATOM      4  C   LIG    1       23.983 -30.896   8.998  0.00  0.00    +0.161 C 
ATOM      5  C   LIG    1       24.550 -31.853  10.088  0.00  0.00    +0.293 C 
ATOM      6  O   LIG    1       23.750 -32.994  10.349  0.00  0.00    -0.314 OA
ATOM      7  C   LIG    1       22.466 -32.982   9.749  0.00  0.00    +0.203 C 
ATOM      8  O   LIG    1       21.794 -31.725   9.545  0.00  0.00    -0.199 OA
ATOM      9  C   LIG    1       22.582 -33.670   8.386  0.00  0.00    +0.068 C 
ATOM     10  C   LIG    1       21.552 -33.815  10.648  0.00  0.00    +0.077 C 
ATOM     11  O   LIG    1       24.716 -31.245  11.377  0.00  0.00    -0.309 OA
ATOM     12  C   LIG    1       25.257 -29.930  11.415  0.00  0.00    +0.316 C 
ATOM     13  C   LIG    1       25.920 -29.563  10.082  0.00  0.00    +0.061 C 
ATOM     14  C   LIG    1       26.747 -28.277  10.172  0.00  0.00    +0.014 C 
ATOM     15  C   LIG    1       24.799 -29.532   8.999  0.00  0.00    +0.038 C 
ATOM     16  C   LIG    1       25.373 -29.021   7.673  0.00  0.00    +0.007 C 
ATOM     17  O   LIG    1       22.697 -30.566   9.606  0.00  0.00    -0.220 OA
ATOM     18  C   LIG    1       23.658 -33.036   7.509  0.00  0.00    +0.012 C 
ATOM     19  C   LIG    1       24.525 -29.408   6.488  0.00  0.00    +0.004 C 
ENDROOT
BRANCH  12  20
ATOM     20  O   LIG    1       24.202 -28.993  11.710  0.00  0.00    -0.435 OA
BRANCH  20  21
ATOM     21  C   LIG    1       24.270 -28.384  12.913  0.00  0.00    +0.310 C 
ATOM     22  O   LIG    1       25.282 -28.306  13.600  0.00  0.00    -0.251 OA
BRANCH  21  23
ATOM     23  C   LIG    1       22.958 -27.737  13.295  0.00  0.00    +0.132 C 
BRANCH  23  24
ATOM     24  C   LIG    1       21.763 -28.383  12.589  0.00  0.00    +0.131 C 
BRANCH  24  25
ATOM     25  C   LIG    1       21.397 -29.751  13.133  0.00  0.00    +0.305 C 
ATOM     26  O   LIG    1       20.712 -29.916  14.119  0.00  0.00    -0.251 OA
BRANCH  25  27
ATOM     27  O   LIG    1       21.862 -30.796  12.416  0.00  0.00    -0.481 OA
ATOM     28  H   LIG    1       21.838 -30.676  11.438  0.00  0.00    +0.295 HD
ENDBRANCH  25  27
ENDBRANCH  24  25
ENDBRANCH  23  24
ENDBRANCH  21  23
ENDBRANCH  20  21
ENDBRANCH  12  20
TORSDOF 6
ENDMDL
MODEL 6
REMARK VINA RESULT:      -5.7      4.197      6.870
REMARK  Name = *****
REMARK                            x       y       z     vdW  Elec       q    Type
REMARK                         _______ _______ _______ _____ _____    ______ ____
ROOT
ATOM      1  C   LIG    1       22.770 -27.345  13.026  0.00  0.00    +0.008 C 
ATOM      2  C   LIG    1       23.136 -28.738  13.550  0.00  0.00    -0.008 C 
ATOM      3  C   LIG    1       22.554 -29.904  12.722  0.00  0.00    +0.032 C 
ATOM      4  C   LIG    1       23.350 -30.324  11.419  0.00  0.00    +0.161 C 
ATOM      5  C   LIG    1       22.634 -30.181  10.042  0.00  0.00    +0.293 C 
ATOM      6  O   LIG    1       21.398 -30.867   9.943  0.00  0.00    -0.314 OA
ATOM      7  C   LIG    1       21.108 -31.749  11.014  0.00  0.00    +0.203 C 
ATOM      8  O   LIG    1       22.190 -32.411  11.696  0.00  0.00    -0.199 OA
ATOM      9  C   LIG    1       20.315 -30.963  12.062  0.00  0.00    +0.068 C 
ATOM     10  C   LIG    1       20.219 -32.855  10.446  0.00  0.00    +0.077 C 
ATOM     11  O   LIG    1       23.394 -30.673   8.929  0.00  0.00    -0.309 OA
ATOM     12  C   LIG    1       24.783 -30.369   8.901  0.00  0.00    +0.316 C 
ATOM     13  C   LIG    1       25.125 -29.239   9.879  0.00  0.00    +0.061 C 
ATOM     14  C   LIG    1       26.545 -28.699   9.679  0.00  0.00    +0.014 C 
ATOM     15  C   LIG    1       24.834 -29.765  11.317  0.00  0.00    +0.038 C 
ATOM     16  C   LIG    1       25.301 -28.735  12.351  0.00  0.00    +0.007 C 
ATOM     17  O   LIG    1       23.497 -31.776  11.468  0.00  0.00    -0.220 OA
ATOM     18  C   LIG    1       21.042 -29.698  12.508  0.00  0.00    +0.012 C 
ATOM     19  C   LIG    1       24.641 -28.922  13.694  0.00  0.00    +0.004 C 
ENDROOT
BRANCH  12  20
ATOM     20  O   LIG    1       25.534 -31.552   9.240  0.00  0.00    -0.435 OA
BRANCH  20  21
ATOM     21  C   LIG    1       26.267 -32.094   8.244  0.00  0.00    +0.310 C 
ATOM     22  O   LIG    1       27.063 -33.014   8.385  0.00  0.00    -0.251 OA
BRANCH  21  23
ATOM     23  C   LIG    1       25.940 -31.478   6.902  0.00  0.00    +0.132 C 
BRANCH  23  24
ATOM     24  C   LIG    1       25.248 -32.466   5.961  0.00  0.00    +0.131 C 
BRANCH  24  25
ATOM     25  C   LIG    1       23.749 -32.260   5.850  0.00  0.00    +0.305 C 
ATOM     26  O   LIG    1       22.946 -33.166   5.888  0.00  0.00    -0.251 OA
BRANCH  25  27
ATOM     27  O   LIG    1       23.355 -30.974   5.737  0.00  0.00    -0.481 OA
ATOM     28  H   LIG    1       23.515 -30.564   4.855  0.00  0.00    +0.295 HD
ENDBRANCH  25  27
ENDBRANCH  24  25
ENDBRANCH  23  24
ENDBRANCH  21  23
ENDBRANCH  20  21
ENDBRANCH  12  20
TORSDOF 6
ENDMDL
MODEL 7
REMARK VINA RESULT:      -5.6      1.930      3.729
REMARK  Name = *****
REMARK                            x       y       z     vdW  Elec       q    Type
REMARK                         _______ _______ _______ _____ _____    ______ ____
ROOT
ATOM      1  C   LIG    1       25.130 -31.462  10.920  0.00  0.00    +0.008 C 
ATOM      2  C   LIG    1       26.137 -31.962   9.878  0.00  0.00    -0.008 C 
ATOM      3  C   LIG    1       25.526 -32.257   8.491  0.00  0.00    +0.032 C 
ATOM      4  C   LIG    1       25.325 -31.023   7.519  0.00  0.00    +0.161 C 
ATOM      5  C   LIG    1       23.875 -30.661   7.080  0.00  0.00    +0.293 C 
ATOM      6  O   LIG    1       23.161 -31.720   6.464  0.00  0.00    -0.314 OA
ATOM      7  C   LIG    1       23.934 -32.865   6.144  0.00  0.00    +0.203 C 
ATOM      8  O   LIG    1       25.324 -32.705   5.802  0.00  0.00    -0.199 OA
ATOM      9  C   LIG    1       23.860 -33.825   7.335  0.00  0.00    +0.068 C 
ATOM     10  C   LIG    1       23.268 -33.522   4.935  0.00  0.00    +0.077 C 
ATOM     11  O   LIG    1       23.797 -29.592   6.127  0.00  0.00    -0.309 OA
ATOM     12  C   LIG    1       24.642 -28.467   6.337  0.00  0.00    +0.316 C 
ATOM     13  C   LIG    1       25.199 -28.449   7.765  0.00  0.00    +0.061 C 
ATOM     14  C   LIG    1       25.882 -27.122   8.112  0.00  0.00    +0.014 C 
ATOM     15  C   LIG    1       26.111 -29.703   7.924  0.00  0.00    +0.038 C 
ATOM     16  C   LIG    1       26.821 -29.659   9.281  0.00  0.00    +0.007 C 
ATOM     17  O   LIG    1       25.883 -31.413   6.227  0.00  0.00    -0.220 OA
ATOM     18  C   LIG    1       24.286 -33.160   8.640  0.00  0.00    +0.012 C 
ATOM     19  C   LIG    1       27.318 -31.014   9.718  0.00  0.00    +0.004 C 
ENDROOT
BRANCH  12  20
ATOM     20  O   LIG    1       25.728 -28.507   5.390  0.00  0.00    -0.435 OA
BRANCH  20  21
ATOM     21  C   LIG    1       26.210 -27.311   4.990  0.00  0.00    +0.310 C 
ATOM     22  O   LIG    1       27.395 -27.062   4.805  0.00  0.00    -0.251 OA
BRANCH  21  23
ATOM     23  C   LIG    1       25.103 -26.316   4.725  0.00  0.00    +0.132 C 
BRANCH  23  24
ATOM     24  C   LIG    1       25.387 -24.949   5.352  0.00  0.00    +0.131 C 
BRANCH  24  25
ATOM     25  C   LIG    1       24.281 -24.452   6.265  0.00  0.00    +0.305 C 
ATOM     26  O   LIG    1       23.284 -25.093   6.515  0.00  0.00    -0.251 OA
BRANCH  25  27
ATOM     27  O   LIG    1       24.497 -23.241   6.820  0.00  0.00    -0.481 OA
ATOM     28  H   LIG    1       24.854 -22.557   6.206  0.00  0.00    +0.295 HD
ENDBRANCH  25  27
ENDBRANCH  24  25
ENDBRANCH  23  24
ENDBRANCH  21  23
ENDBRANCH  20  21
ENDBRANCH  12  20
TORSDOF 6
ENDMDL
MODEL 8
REMARK VINA RESULT:      -5.6      2.837      5.739
REMARK  Name = *****
REMARK                            x       y       z     vdW  Elec       q    Type
REMARK                         _______ _______ _______ _____ _____    ______ ____
ROOT
ATOM      1  C   LIG    1       25.699 -33.823   6.134  0.00  0.00    +0.008 C 
ATOM      2  C   LIG    1       26.734 -32.781   6.569  0.00  0.00    -0.008 C 
ATOM      3  C   LIG    1       26.195 -31.336   6.639  0.00  0.00    +0.032 C 
ATOM      4  C   LIG    1       25.415 -30.926   7.956  0.00  0.00    +0.161 C 
ATOM      5  C   LIG    1       23.918 -30.518   7.827  0.00  0.00    +0.293 C 
ATOM      6  O   LIG    1       23.669 -29.458   6.919  0.00  0.00    -0.314 OA
ATOM      7  C   LIG    1       24.822 -28.789   6.439  0.00  0.00    +0.203 C 
ATOM      8  O   LIG    1       25.983 -28.688   7.285  0.00  0.00    -0.199 OA
ATOM      9  C   LIG    1       25.255 -29.479   5.142  0.00  0.00    +0.068 C 
ATOM     10  C   LIG    1       24.399 -27.355   6.120  0.00  0.00    +0.077 C 
ATOM     11  O   LIG    1       23.321 -30.072   9.053  0.00  0.00    -0.309 OA
ATOM     12  C   LIG    1       23.628 -30.803  10.233  0.00  0.00    +0.316 C 
ATOM     13  C   LIG    1       24.239 -32.169   9.898  0.00  0.00    +0.061 C 
ATOM     14  C   LIG    1       24.326 -33.088  11.120  0.00  0.00    +0.014 C 
ATOM     15  C   LIG    1       25.604 -31.907   9.192  0.00  0.00    +0.038 C 
ATOM     16  C   LIG    1       26.336 -33.234   8.970  0.00  0.00    +0.007 C 
ATOM     17  O   LIG    1       25.979 -29.652   8.396  0.00  0.00    -0.220 OA
ATOM     18  C   LIG    1       25.466 -30.979   5.330  0.00  0.00    +0.012 C 
ATOM     19  C   LIG    1       27.391 -33.141   7.896  0.00  0.00    +0.004 C 
ENDROOT
BRANCH  12  20
ATOM     20  O   LIG    1       24.550 -30.040  11.037  0.00  0.00    -0.435 OA
BRANCH  20  21
ATOM     21  C   LIG    1       24.003 -29.302  12.026  0.00  0.00    +0.310 C 
ATOM     22  O   LIG    1       22.817 -29.314  12.332  0.00  0.00    -0.251 OA
BRANCH  21  23
ATOM     23  C   LIG    1       25.044 -28.500  12.775  0.00  0.00    +0.132 C 
BRANCH  23  24
ATOM     24  C   LIG    1       26.246 -28.142  11.897  0.00  0.00    +0.131 C 
BRANCH  24  25
ATOM     25  C   LIG    1       27.285 -29.243  11.803  0.00  0.00    +0.305 C 
ATOM     26  O   LIG    1       27.471 -30.061  12.677  0.00  0.00    -0.251 OA
BRANCH  25  27
ATOM     27  O   LIG    1       27.982 -29.277  10.647  0.00  0.00    -0.481 OA
ATOM     28  H   LIG    1       28.640 -28.552  10.535  0.00  0.00    +0.295 HD
ENDBRANCH  25  27
ENDBRANCH  24  25
ENDBRANCH  23  24
ENDBRANCH  21  23
ENDBRANCH  20  21
ENDBRANCH  12  20
TORSDOF 6
ENDMDL
MODEL 9
REMARK VINA RESULT:      -5.4      4.382      7.380
REMARK  Name = *****
REMARK                            x       y       z     vdW  Elec       q    Type
REMARK                         _______ _______ _______ _____ _____    ______ ____
ROOT
ATOM      1  C   LIG    1       28.106 -29.605  11.411  0.00  0.00    +0.008 C 
ATOM      2  C   LIG    1       27.129 -28.809  10.539  0.00  0.00    -0.008 C 
ATOM      3  C   LIG    1       26.029 -29.663   9.871  0.00  0.00    +0.032 C 
ATOM      4  C   LIG    1       24.760 -30.011  10.751  0.00  0.00    +0.161 C 
ATOM      5  C   LIG    1       24.471 -31.510  11.063  0.00  0.00    +0.293 C 
ATOM      6  O   LIG    1       24.352 -32.340   9.920  0.00  0.00    -0.314 OA
ATOM      7  C   LIG    1       24.294 -31.657   8.679  0.00  0.00    +0.203 C 
ATOM      8  O   LIG    1       23.697 -30.348   8.622  0.00  0.00    -0.199 OA
ATOM      9  C   LIG    1       25.724 -31.535   8.147  0.00  0.00    +0.068 C 
ATOM     10  C   LIG    1       23.484 -32.539   7.728  0.00  0.00    +0.077 C 
ATOM     11  O   LIG    1       23.251 -31.737  11.784  0.00  0.00    -0.309 OA
ATOM     12  C   LIG    1       22.949 -30.849  12.853  0.00  0.00    +0.316 C 
ATOM     13  C   LIG    1       24.185 -30.046  13.275  0.00  0.00    +0.061 C 
ATOM     14  C   LIG    1       23.972 -29.289  14.590  0.00  0.00    +0.014 C 
ATOM     15  C   LIG    1       24.586 -29.142  12.070  0.00  0.00    +0.038 C 
ATOM     16  C   LIG    1       25.723 -28.202  12.483  0.00  0.00    +0.007 C 
ATOM     17  O   LIG    1       23.588 -29.700   9.937  0.00  0.00    -0.220 OA
ATOM     18  C   LIG    1       26.660 -30.871   9.153  0.00  0.00    +0.012 C 
ATOM     19  C   LIG    1       26.484 -27.659  11.300  0.00  0.00    +0.004 C 
ENDROOT
BRANCH  12  20
ATOM     20  O   LIG    1       21.901 -29.949  12.439  0.00  0.00    -0.435 OA
BRANCH  20  21
ATOM     21  C   LIG    1       20.750 -30.019  13.140  0.00  0.00    +0.310 C 
ATOM     22  O   LIG    1       20.337 -29.147  13.895  0.00  0.00    -0.251 OA
BRANCH  21  23
ATOM     23  C   LIG    1       19.977 -31.283  12.834  0.00  0.00    +0.132 C 
BRANCH  23  24
ATOM     24  C   LIG    1       19.247 -31.207  11.491  0.00  0.00    +0.131 C 
BRANCH  24  25
ATOM     25  C   LIG    1       19.985 -31.886  10.353  0.00  0.00    +0.305 C 
ATOM     26  O   LIG    1       19.642 -32.944   9.872  0.00  0.00    -0.251 OA
BRANCH  25  27
ATOM     27  O   LIG    1       21.050 -31.209   9.876  0.00  0.00    -0.481 OA
ATOM     28  H   LIG    1       20.978 -30.227   9.927  0.00  0.00    +0.295 HD
ENDBRANCH  25  27
ENDBRANCH  24  25
ENDBRANCH  23  24
ENDBRANCH  21  23
ENDBRANCH  20  21
ENDBRANCH  12  20
TORSDOF 6
ENDMDL
