MODEL 1
REMARK VINA RESULT:      -3.9      0.000      0.000
REMARK  Name = *****
REMARK                            x       y       z     vdW  Elec       q    Type
REMARK                         _______ _______ _______ _____ _____    ______ ____
ROOT
ATOM      1  N   LIG    1       26.018 -18.725   4.360  0.00  0.00    -0.282 N 
ATOM      2  C   LIG    1       24.680 -19.200   4.448  0.00  0.00    +0.139 A 
ATOM      3  C   LIG    1       24.357 -20.327   5.220  0.00  0.00    +0.053 A 
ATOM      4  C   LIG    1       23.017 -20.738   5.306  0.00  0.00    +0.020 A 
ATOM      5  C   LIG    1       22.029 -20.039   4.634  0.00  0.00    +0.021 A 
ATOM      6  C   LIG    1       22.418 -18.951   3.885  0.00  0.00    +0.113 A 
ATOM      7  S   LIG    1       25.542 -21.317   6.086  0.00  0.00    -0.084 S 
ATOM      8  C   LIG    1       27.029 -20.352   5.916  0.00  0.00    +0.034 A 
ATOM      9  C   LIG    1       28.131 -20.810   6.664  0.00  0.00    +0.017 A 
ATOM     10  C   LIG    1       29.348 -20.140   6.629  0.00  0.00    +0.001 A 
ATOM     11  C   LIG    1       29.475 -19.016   5.832  0.00  0.00    +0.002 A 
ATOM     12  C   LIG    1       28.387 -18.573   5.071  0.00  0.00    +0.024 A 
ATOM     13  N   LIG    1       23.700 -18.532   3.777  0.00  0.00    -0.239 NA
ATOM     14  C   LIG    1       27.129 -19.211   5.092  0.00  0.00    +0.049 A 
ENDROOT
BRANCH   1  15
ATOM     15  C   LIG    1       26.215 -17.680   3.324  0.00  0.00    +0.131 C 
BRANCH  15  17
ATOM     16  C   LIG    1       27.588 -15.535   3.849  0.00  0.00    +0.026 C 
ATOM     17  C   LIG    1       26.207 -16.210   3.863  0.00  0.00    +0.071 C 
BRANCH  17  18
ATOM     18  N   LIG    1       25.228 -15.290   3.209  0.00  0.00    -0.304 NA
ATOM     19  C   LIG    1       25.898 -14.161   2.561  0.00  0.00    +0.105 C 
ATOM     20  C   LIG    1       24.158 -14.811   4.080  0.00  0.00    +0.105 C 
ENDBRANCH  17  18
ENDBRANCH  15  17
ENDBRANCH   1  15
TORSDOF 3
ENDMDL
MODEL 2
REMARK VINA RESULT:      -3.2      0.752      4.223
REMARK  Name = *****
REMARK                            x       y       z     vdW  Elec       q    Type
REMARK                         _______ _______ _______ _____ _____    ______ ____
ROOT
ATOM      1  N   LIG    1       26.027 -18.976   4.406  0.00  0.00    -0.282 N 
ATOM      2  C   LIG    1       27.158 -19.342   5.186  0.00  0.00    +0.139 A 
ATOM      3  C   LIG    1       27.032 -20.184   6.303  0.00  0.00    +0.053 A 
ATOM      4  C   LIG    1       28.182 -20.546   7.022  0.00  0.00    +0.020 A 
ATOM      5  C   LIG    1       29.425 -20.077   6.632  0.00  0.00    +0.021 A 
ATOM      6  C   LIG    1       29.474 -19.245   5.536  0.00  0.00    +0.113 A 
ATOM      7  S   LIG    1       25.491 -20.808   6.913  0.00  0.00    -0.084 S 
ATOM      8  C   LIG    1       24.358 -20.324   5.628  0.00  0.00    +0.034 A 
ATOM      9  C   LIG    1       23.053 -20.840   5.751  0.00  0.00    +0.017 A 
ATOM     10  C   LIG    1       22.075 -20.547   4.809  0.00  0.00    +0.001 A 
ATOM     11  C   LIG    1       22.393 -19.721   3.744  0.00  0.00    +0.002 A 
ATOM     12  C   LIG    1       23.682 -19.189   3.633  0.00  0.00    +0.024 A 
ATOM     13  N   LIG    1       28.386 -18.872   4.825  0.00  0.00    -0.239 NA
ATOM     14  C   LIG    1       24.710 -19.476   4.556  0.00  0.00    +0.049 A 
ENDROOT
BRANCH   1  15
ATOM     15  C   LIG    1       26.303 -17.903   3.418  0.00  0.00    +0.131 C 
BRANCH  15  17
ATOM     16  C   LIG    1       27.673 -15.803   4.105  0.00  0.00    +0.026 C 
ATOM     17  C   LIG    1       26.283 -16.450   4.002  0.00  0.00    +0.071 C 
BRANCH  17  18
ATOM     18  N   LIG    1       25.368 -15.492   3.312  0.00  0.00    -0.304 NA
ATOM     19  C   LIG    1       26.109 -14.398   2.680  0.00  0.00    +0.105 C 
ATOM     20  C   LIG    1       24.293 -14.960   4.144  0.00  0.00    +0.105 C 
ENDBRANCH  17  18
ENDBRANCH  15  17
ENDBRANCH   1  15
TORSDOF 3
ENDMDL
MODEL 3
REMARK VINA RESULT:      -2.4      1.704      4.683
REMARK  Name = *****
REMARK                            x       y       z     vdW  Elec       q    Type
REMARK                         _______ _______ _______ _____ _____    ______ ____
ROOT
ATOM      1  N   LIG    1       25.292 -18.636   3.989  0.00  0.00    -0.282 N 
ATOM      2  C   LIG    1       24.069 -19.332   4.198  0.00  0.00    +0.139 A 
ATOM      3  C   LIG    1       22.856 -18.643   4.357  0.00  0.00    +0.053 A 
ATOM      4  C   LIG    1       21.670 -19.373   4.526  0.00  0.00    +0.020 A 
ATOM      5  C   LIG    1       21.698 -20.758   4.537  0.00  0.00    +0.021 A 
ATOM      6  C   LIG    1       22.924 -21.369   4.390  0.00  0.00    +0.113 A 
ATOM      7  S   LIG    1       22.709 -16.879   4.398  0.00  0.00    -0.084 S 
ATOM      8  C   LIG    1       24.345 -16.357   3.930  0.00  0.00    +0.034 A 
ATOM      9  C   LIG    1       24.494 -14.974   3.705  0.00  0.00    +0.017 A 
ATOM     10  C   LIG    1       25.718 -14.438   3.324  0.00  0.00    +0.001 A 
ATOM     11  C   LIG    1       26.806 -15.281   3.180  0.00  0.00    +0.002 A 
ATOM     12  C   LIG    1       26.665 -16.652   3.424  0.00  0.00    +0.024 A 
ATOM     13  N   LIG    1       24.085 -20.694   4.230  0.00  0.00    -0.239 NA
ATOM     14  C   LIG    1       25.437 -17.241   3.795  0.00  0.00    +0.049 A 
ENDROOT
BRANCH   1  15
ATOM     15  C   LIG    1       26.495 -19.500   4.079  0.00  0.00    +0.131 C 
BRANCH  15  17
ATOM     16  C   LIG    1       26.556 -20.727   6.370  0.00  0.00    +0.026 C 
ATOM     17  C   LIG    1       27.132 -19.594   5.506  0.00  0.00    +0.071 C 
BRANCH  17  18
ATOM     18  N   LIG    1       28.622 -19.689   5.541  0.00  0.00    -0.304 NA
ATOM     19  C   LIG    1       29.084 -20.555   6.628  0.00  0.00    +0.105 C 
ATOM     20  C   LIG    1       29.319 -18.406   5.586  0.00  0.00    +0.105 C 
ENDBRANCH  17  18
ENDBRANCH  15  17
ENDBRANCH   1  15
TORSDOF 3
ENDMDL
MODEL 4
REMARK VINA RESULT:      -2.0      1.827      5.314
REMARK  Name = *****
REMARK                            x       y       z     vdW  Elec       q    Type
REMARK                         _______ _______ _______ _____ _____    ______ ____
ROOT
ATOM      1  N   LIG    1       26.309 -18.894   4.476  0.00  0.00    -0.282 N 
ATOM      2  C   LIG    1       27.160 -19.647   5.330  0.00  0.00    +0.139 A 
ATOM      3  C   LIG    1       28.413 -19.156   5.729  0.00  0.00    +0.053 A 
ATOM      4  C   LIG    1       29.204 -19.919   6.601  0.00  0.00    +0.020 A 
ATOM      5  C   LIG    1       28.751 -21.144   7.062  0.00  0.00    +0.021 A 
ATOM      6  C   LIG    1       27.518 -21.572   6.621  0.00  0.00    +0.113 A 
ATOM      7  S   LIG    1       29.107 -17.625   5.171  0.00  0.00    -0.084 S 
ATOM      8  C   LIG    1       27.738 -16.889   4.303  0.00  0.00    +0.034 A 
ATOM      9  C   LIG    1       27.937 -15.560   3.883  0.00  0.00    +0.017 A 
ATOM     10  C   LIG    1       26.942 -14.866   3.204  0.00  0.00    +0.001 A 
ATOM     11  C   LIG    1       25.746 -15.505   2.927  0.00  0.00    +0.002 A 
ATOM     12  C   LIG    1       25.555 -16.833   3.324  0.00  0.00    +0.024 A 
ATOM     13  N   LIG    1       26.734 -20.863   5.777  0.00  0.00    -0.239 NA
ATOM     14  C   LIG    1       26.531 -17.568   4.031  0.00  0.00    +0.049 A 
ENDROOT
BRANCH   1  15
ATOM     15  C   LIG    1       25.140 -19.658   3.970  0.00  0.00    +0.131 C 
BRANCH  15  17
ATOM     16  C   LIG    1       22.666 -18.868   4.097  0.00  0.00    +0.026 C 
ATOM     17  C   LIG    1       23.842 -19.523   4.837  0.00  0.00    +0.071 C 
BRANCH  17  18
ATOM     18  N   LIG    1       23.357 -20.788   5.466  0.00  0.00    -0.304 NA
ATOM     19  C   LIG    1       22.000 -21.123   5.028  0.00  0.00    +0.105 C 
ATOM     20  C   LIG    1       23.439 -20.820   6.924  0.00  0.00    +0.105 C 
ENDBRANCH  17  18
ENDBRANCH  15  17
ENDBRANCH   1  15
TORSDOF 3
ENDMDL
