MODEL 1
REMARK VINA RESULT:      -0.4      0.000      0.000
REMARK  Name = *****
REMARK                            x       y       z     vdW  Elec       q    Type
REMARK                         _______ _______ _______ _____ _____    ______ ____
ROOT
ATOM      1  O   LIG    1       24.497 -18.549   3.296  0.00  0.00    -0.252 OA
ATOM      2  C   LIG    1       24.472 -17.403   3.712  0.00  0.00    +0.306 C 
ATOM      3  N   LIG    1       25.544 -16.509   3.750  0.00  0.00    -0.271 N 
ATOM      4  C   LIG    1       25.165 -15.284   4.456  0.00  0.00    +0.155 C 
ATOM      5  C   LIG    1       23.634 -15.318   4.368  0.00  0.00    +0.152 C 
ATOM      6  C   LIG    1       23.225 -14.548   3.109  0.00  0.00    +0.302 C 
ATOM      7  S   LIG    1       24.499 -13.330   2.647  0.00  0.00    -0.004 S 
ATOM      8  C   LIG    1       23.928 -11.958   3.706  0.00  0.00    +0.278 C 
ATOM      9  C   LIG    1       24.414 -12.209   5.118  0.00  0.00    +0.059 C 
ATOM     10  C   LIG    1       25.782 -12.852   4.978  0.00  0.00    +0.064 C 
ATOM     11  C   LIG    1       25.684 -13.951   3.915  0.00  0.00    +0.230 C 
ATOM     12  N   LIG    1       23.367 -16.744   4.251  0.00  0.00    -0.272 N 
ENDROOT
BRANCH   3  13
ATOM     13  C   LIG    1       26.882 -16.880   3.331  0.00  0.00    +0.145 C 
BRANCH  13  14
ATOM     14  C   LIG    1       27.611 -17.832   4.250  0.00  0.00    -0.030 A 
ATOM     15  C   LIG    1       28.839 -17.481   4.833  0.00  0.00    +0.005 A 
ATOM     16  C   LIG    1       29.472 -18.349   5.728  0.00  0.00    +0.000 A 
ATOM     17  C   LIG    1       28.886 -19.571   6.053  0.00  0.00    +0.000 A 
ATOM     18  C   LIG    1       27.663 -19.928   5.485  0.00  0.00    +0.000 A 
ATOM     19  C   LIG    1       27.031 -19.060   4.592  0.00  0.00    +0.005 A 
ENDBRANCH  13  14
ENDBRANCH   3  13
BRANCH  12  20
ATOM     20  C   LIG    1       22.055 -17.344   4.397  0.00  0.00    +0.145 C 
BRANCH  20  21
ATOM     21  C   LIG    1       22.069 -18.792   4.820  0.00  0.00    -0.030 A 
ATOM     22  C   LIG    1       22.842 -19.215   5.912  0.00  0.00    +0.005 A 
ATOM     23  C   LIG    1       22.905 -20.569   6.253  0.00  0.00    +0.000 A 
ATOM     24  C   LIG    1       22.196 -21.512   5.511  0.00  0.00    +0.000 A 
ATOM     25  C   LIG    1       21.417 -21.103   4.432  0.00  0.00    +0.000 A 
ATOM     26  C   LIG    1       21.359 -19.753   4.086  0.00  0.00    +0.005 A 
ENDBRANCH  20  21
ENDBRANCH  12  20
TORSDOF 4
ENDMDL
MODEL 2
REMARK VINA RESULT:       0.8      2.014      5.638
REMARK  Name = *****
REMARK                            x       y       z     vdW  Elec       q    Type
REMARK                         _______ _______ _______ _____ _____    ______ ____
ROOT
ATOM      1  O   LIG    1       25.782 -16.044   4.007  0.00  0.00    -0.252 OA
ATOM      2  C   LIG    1       25.036 -17.005   3.931  0.00  0.00    +0.306 C 
ATOM      3  N   LIG    1       25.410 -18.335   3.731  0.00  0.00    -0.271 N 
ATOM      4  C   LIG    1       24.229 -19.178   3.546  0.00  0.00    +0.155 C 
ATOM      5  C   LIG    1       23.119 -18.327   4.176  0.00  0.00    +0.152 C 
ATOM      6  C   LIG    1       23.002 -18.734   5.648  0.00  0.00    +0.302 C 
ATOM      7  S   LIG    1       23.599 -20.436   5.903  0.00  0.00    -0.004 S 
ATOM      8  C   LIG    1       22.044 -21.308   5.509  0.00  0.00    +0.278 C 
ATOM      9  C   LIG    1       21.906 -21.383   4.003  0.00  0.00    +0.059 C 
ATOM     10  C   LIG    1       23.314 -21.572   3.466  0.00  0.00    +0.064 C 
ATOM     11  C   LIG    1       24.232 -20.571   4.177  0.00  0.00    +0.230 C 
ATOM     12  N   LIG    1       23.644 -16.979   4.020  0.00  0.00    -0.272 N 
ENDROOT
BRANCH   3  13
ATOM     13  C   LIG    1       26.790 -18.732   3.523  0.00  0.00    +0.145 C 
BRANCH  13  14
ATOM     14  C   LIG    1       27.585 -19.008   4.779  0.00  0.00    -0.030 A 
ATOM     15  C   LIG    1       27.278 -20.099   5.607  0.00  0.00    +0.005 A 
ATOM     16  C   LIG    1       28.060 -20.375   6.732  0.00  0.00    +0.000 A 
ATOM     17  C   LIG    1       29.156 -19.572   7.039  0.00  0.00    +0.000 A 
ATOM     18  C   LIG    1       29.475 -18.488   6.220  0.00  0.00    +0.000 A 
ATOM     19  C   LIG    1       28.693 -18.213   5.096  0.00  0.00    +0.005 A 
ENDBRANCH  13  14
ENDBRANCH   3  13
BRANCH  12  20
ATOM     20  C   LIG    1       22.865 -15.771   4.217  0.00  0.00    +0.145 C 
BRANCH  20  21
ATOM     21  C   LIG    1       23.615 -14.489   3.952  0.00  0.00    -0.030 A 
ATOM     22  C   LIG    1       24.100 -13.707   5.010  0.00  0.00    +0.005 A 
ATOM     23  C   LIG    1       24.731 -12.486   4.758  0.00  0.00    +0.000 A 
ATOM     24  C   LIG    1       24.886 -12.035   3.448  0.00  0.00    +0.000 A 
ATOM     25  C   LIG    1       24.417 -12.807   2.389  0.00  0.00    +0.000 A 
ATOM     26  C   LIG    1       23.782 -14.023   2.640  0.00  0.00    +0.005 A 
ENDBRANCH  20  21
ENDBRANCH  12  20
TORSDOF 4
ENDMDL
MODEL 3
REMARK VINA RESULT:       1.9      1.897      6.041
REMARK  Name = *****
REMARK                            x       y       z     vdW  Elec       q    Type
REMARK                         _______ _______ _______ _____ _____    ______ ____
ROOT
ATOM      1  O   LIG    1       27.279 -15.796   2.866  0.00  0.00    -0.252 OA
ATOM      2  C   LIG    1       26.471 -16.547   3.385  0.00  0.00    +0.306 C 
ATOM      3  N   LIG    1       25.080 -16.445   3.321  0.00  0.00    -0.271 N 
ATOM      4  C   LIG    1       24.452 -17.439   4.191  0.00  0.00    +0.155 C 
ATOM      5  C   LIG    1       25.572 -18.474   4.365  0.00  0.00    +0.152 C 
ATOM      6  C   LIG    1       25.399 -19.532   3.271  0.00  0.00    +0.302 C 
ATOM      7  S   LIG    1       23.667 -19.614   2.712  0.00  0.00    -0.004 S 
ATOM      8  C   LIG    1       23.051 -20.779   3.976  0.00  0.00    +0.278 C 
ATOM      9  C   LIG    1       22.798 -20.007   5.254  0.00  0.00    +0.059 C 
ATOM     10  C   LIG    1       22.281 -18.646   4.822  0.00  0.00    +0.064 C 
ATOM     11  C   LIG    1       23.182 -18.132   3.695  0.00  0.00    +0.230 C 
ATOM     12  N   LIG    1       26.766 -17.667   4.164  0.00  0.00    -0.272 N 
ENDROOT
BRANCH   3  13
ATOM     13  C   LIG    1       24.411 -15.349   2.646  0.00  0.00    +0.145 C 
BRANCH  13  14
ATOM     14  C   LIG    1       24.403 -14.034   3.390  0.00  0.00    -0.030 A 
ATOM     15  C   LIG    1       23.886 -12.869   2.800  0.00  0.00    +0.005 A 
ATOM     16  C   LIG    1       23.831 -11.674   3.523  0.00  0.00    +0.000 A 
ATOM     17  C   LIG    1       24.284 -11.629   4.839  0.00  0.00    +0.000 A 
ATOM     18  C   LIG    1       24.794 -12.781   5.438  0.00  0.00    +0.000 A 
ATOM     19  C   LIG    1       24.849 -13.975   4.716  0.00  0.00    +0.005 A 
ENDBRANCH  13  14
ENDBRANCH   3  13
BRANCH  12  20
ATOM     20  C   LIG    1       28.112 -18.107   4.476  0.00  0.00    +0.145 C 
BRANCH  20  21
ATOM     21  C   LIG    1       28.186 -19.282   5.419  0.00  0.00    -0.030 A 
ATOM     22  C   LIG    1       29.400 -19.650   6.017  0.00  0.00    +0.005 A 
ATOM     23  C   LIG    1       29.475 -20.783   6.832  0.00  0.00    +0.000 A 
ATOM     24  C   LIG    1       28.338 -21.556   7.061  0.00  0.00    +0.000 A 
ATOM     25  C   LIG    1       27.125 -21.196   6.482  0.00  0.00    +0.000 A 
ATOM     26  C   LIG    1       27.051 -20.070   5.662  0.00  0.00    +0.005 A 
ENDBRANCH  20  21
ENDBRANCH  12  20
TORSDOF 4
ENDMDL
