MODEL 1
REMARK VINA RESULT:      13.8      0.000      0.000
REMARK  Name = *****
REMARK                            x       y       z     vdW  Elec       q    Type
REMARK                         _______ _______ _______ _____ _____    ______ ____
ROOT
ATOM      1  C   LIG    1       23.980 -13.863   3.908  0.00  0.00    +0.185 C 
ATOM      2  O   LIG    1       25.297 -13.990   4.433  0.00  0.00    -0.334 OA
ATOM      3  C   LIG    1       26.117 -14.469   3.355  0.00  0.00    +0.217 C 
ATOM      4  O   LIG    1       25.229 -14.813   2.262  0.00  0.00    -0.341 OA
ATOM      5  C   LIG    1       23.919 -14.869   2.808  0.00  0.00    +0.198 C 
ENDROOT
BRANCH   3   6
ATOM      6  C   LIG    1       26.898 -15.706   3.809  0.00  0.00    +0.031 A 
ATOM      7  C   LIG    1       26.485 -17.040   3.593  0.00  0.00    +0.051 A 
ATOM      8 CL   LIG    1       25.048 -17.482   2.734  0.00  0.00    -0.083 Cl
ATOM      9  C   LIG    1       27.247 -18.119   4.063  0.00  0.00    +0.040 A 
ATOM     10  C   LIG    1       28.445 -17.893   4.727  0.00  0.00    +0.042 A 
ATOM     11 CL   LIG    1       29.387 -19.227   5.267  0.00  0.00    -0.084 Cl
ATOM     12  C   LIG    1       28.888 -16.596   4.944  0.00  0.00    +0.020 A 
ATOM     13  C   LIG    1       28.115 -15.517   4.503  0.00  0.00    +0.012 A 
ENDBRANCH   3   6
BRANCH   1  14
ATOM     14  C   LIG    1       22.961 -14.118   4.984  0.00  0.00    +0.263 C 
BRANCH  14  15
ATOM     15  O   LIG    1       21.849 -14.857   4.469  0.00  0.00    -0.489 OA
BRANCH  15  19
ATOM     16  C   LIG    1       22.410 -19.017   4.811  0.00  0.00    +0.030 A 
ATOM     17  C   LIG    1       21.616 -18.482   3.801  0.00  0.00    +0.027 A 
ATOM     18  C   LIG    1       21.386 -17.118   3.706  0.00  0.00    +0.047 A 
ATOM     19  C   LIG    1       22.001 -16.215   4.567  0.00  0.00    +0.121 A 
ATOM     20  C   LIG    1       22.838 -16.708   5.559  0.00  0.00    +0.047 A 
ATOM     21  C   LIG    1       23.035 -18.093   5.671  0.00  0.00    +0.027 A 
BRANCH  16  27
ATOM     22  C   LIG    1       27.652 -21.491   4.806  0.00  0.00    +0.109 C 
ATOM     23  C   LIG    1       26.696 -21.149   5.934  0.00  0.00    +0.213 C 
ATOM     24  N   LIG    1       25.339 -21.140   5.591  0.00  0.00    -0.299 N 
ATOM     25  C   LIG    1       24.931 -20.778   4.228  0.00  0.00    +0.126 C 
ATOM     26  C   LIG    1       23.448 -21.031   3.931  0.00  0.00    +0.124 C 
ATOM     27  N   LIG    1       22.602 -20.395   4.957  0.00  0.00    -0.327 N 
ATOM     28  C   LIG    1       22.902 -20.956   6.297  0.00  0.00    +0.124 C 
ATOM     29  C   LIG    1       24.395 -20.804   6.674  0.00  0.00    +0.126 C 
ATOM     30  O   LIG    1       27.098 -20.953   7.061  0.00  0.00    -0.276 OA
ENDBRANCH  16  27
ENDBRANCH  15  19
ENDBRANCH  14  15
ENDBRANCH   1  14
BRANCH   3  31
ATOM     31  C   LIG    1       27.019 -13.302   2.890  0.00  0.00    +0.193 C 
BRANCH  31  32
ATOM     32  N   LIG    1       27.900 -12.757   3.904  0.00  0.00    -0.331 N 
ATOM     33  C   LIG    1       27.739 -12.873   5.255  0.00  0.00    +0.199 A 
ATOM     34  N   LIG    1       28.658 -12.197   5.908  0.00  0.00    -0.244 NA
ATOM     35  C   LIG    1       29.439 -11.617   4.944  0.00  0.00    +0.130 A 
ATOM     36  C   LIG    1       28.985 -11.950   3.692  0.00  0.00    +0.107 A 
ENDBRANCH  31  32
ENDBRANCH   3  31
TORSDOF 7
ENDMDL
MODEL 2
REMARK VINA RESULT:      16.2      2.202      2.962
REMARK  Name = *****
REMARK                            x       y       z     vdW  Elec       q    Type
REMARK                         _______ _______ _______ _____ _____    ______ ____
ROOT
ATOM      1  C   LIG    1       22.916 -14.046   2.944  0.00  0.00    +0.185 C 
ATOM      2  O   LIG    1       23.732 -14.185   4.103  0.00  0.00    -0.334 OA
ATOM      3  C   LIG    1       24.989 -13.565   3.789  0.00  0.00    +0.217 C 
ATOM      4  O   LIG    1       24.968 -13.248   2.373  0.00  0.00    -0.341 OA
ATOM      5  C   LIG    1       23.887 -13.977   1.813  0.00  0.00    +0.198 C 
ENDROOT
BRANCH   3   6
ATOM      6  C   LIG    1       26.136 -14.533   4.094  0.00  0.00    +0.031 A 
ATOM      7  C   LIG    1       27.179 -14.278   5.012  0.00  0.00    +0.051 A 
ATOM      8 CL   LIG    1       27.294 -12.843   5.974  0.00  0.00    -0.083 Cl
ATOM      9  C   LIG    1       28.208 -15.208   5.216  0.00  0.00    +0.040 A 
ATOM     10  C   LIG    1       28.201 -16.419   4.536  0.00  0.00    +0.042 A 
ATOM     11 CL   LIG    1       29.450 -17.566   4.823  0.00  0.00    -0.084 Cl
ATOM     12  C   LIG    1       27.184 -16.708   3.638  0.00  0.00    +0.020 A 
ATOM     13  C   LIG    1       26.173 -15.770   3.410  0.00  0.00    +0.012 A 
ENDBRANCH   3   6
BRANCH   1  14
ATOM     14  C   LIG    1       21.972 -15.210   2.827  0.00  0.00    +0.263 C 
BRANCH  14  15
ATOM     15  O   LIG    1       21.629 -15.720   4.120  0.00  0.00    -0.489 OA
BRANCH  15  19
ATOM     16  C   LIG    1       23.294 -19.527   4.816  0.00  0.00    +0.030 A 
ATOM     17  C   LIG    1       22.100 -19.145   5.421  0.00  0.00    +0.027 A 
ATOM     18  C   LIG    1       21.566 -17.879   5.236  0.00  0.00    +0.047 A 
ATOM     19  C   LIG    1       22.157 -16.958   4.377  0.00  0.00    +0.121 A 
ATOM     20  C   LIG    1       23.325 -17.319   3.719  0.00  0.00    +0.047 A 
ATOM     21  C   LIG    1       23.878 -18.590   3.941  0.00  0.00    +0.027 A 
BRANCH  16  27
ATOM     22  C   LIG    1       29.026 -20.382   4.822  0.00  0.00    +0.109 C 
ATOM     23  C   LIG    1       28.021 -20.257   5.952  0.00  0.00    +0.213 C 
ATOM     24  N   LIG    1       26.716 -20.661   5.645  0.00  0.00    -0.299 N 
ATOM     25  C   LIG    1       26.210 -20.522   4.274  0.00  0.00    +0.126 C 
ATOM     26  C   LIG    1       24.862 -21.210   4.032  0.00  0.00    +0.124 C 
ATOM     27  N   LIG    1       23.877 -20.778   5.040  0.00  0.00    -0.327 N 
ATOM     28  C   LIG    1       24.337 -21.140   6.403  0.00  0.00    +0.124 C 
ATOM     29  C   LIG    1       25.725 -20.541   6.730  0.00  0.00    +0.126 C 
ATOM     30  O   LIG    1       28.359 -19.880   7.054  0.00  0.00    -0.276 OA
ENDBRANCH  16  27
ENDBRANCH  15  19
ENDBRANCH  14  15
ENDBRANCH   1  14
BRANCH   3  31
ATOM     31  C   LIG    1       25.073 -12.236   4.575  0.00  0.00    +0.193 C 
BRANCH  31  32
ATOM     32  N   LIG    1       23.872 -11.867   5.298  0.00  0.00    -0.331 N 
ATOM     33  C   LIG    1       23.760 -11.722   6.651  0.00  0.00    +0.199 A 
ATOM     34  N   LIG    1       22.521 -11.465   7.007  0.00  0.00    -0.244 NA
ATOM     35  C   LIG    1       21.802 -11.449   5.840  0.00  0.00    +0.130 A 
ATOM     36  C   LIG    1       22.621 -11.698   4.767  0.00  0.00    +0.107 A 
ENDBRANCH  31  32
ENDBRANCH   3  31
TORSDOF 7
ENDMDL
MODEL 3
REMARK VINA RESULT:      16.6      2.234      4.991
REMARK  Name = *****
REMARK                            x       y       z     vdW  Elec       q    Type
REMARK                         _______ _______ _______ _____ _____    ______ ____
ROOT
ATOM      1  C   LIG    1       28.365 -14.894   5.714  0.00  0.00    +0.185 C 
ATOM      2  O   LIG    1       27.414 -15.183   4.693  0.00  0.00    -0.334 OA
ATOM      3  C   LIG    1       26.439 -14.130   4.740  0.00  0.00    +0.217 C 
ATOM      4  O   LIG    1       26.715 -13.342   5.926  0.00  0.00    -0.341 OA
ATOM      5  C   LIG    1       27.595 -14.116   6.728  0.00  0.00    +0.198 C 
ENDROOT
BRANCH   3   6
ATOM      6  C   LIG    1       25.032 -14.730   4.823  0.00  0.00    +0.031 A 
ATOM      7  C   LIG    1       24.542 -15.749   3.975  0.00  0.00    +0.051 A 
ATOM      8 CL   LIG    1       25.479 -16.512   2.736  0.00  0.00    -0.083 Cl
ATOM      9  C   LIG    1       23.230 -16.226   4.101  0.00  0.00    +0.040 A 
ATOM     10  C   LIG    1       22.394 -15.724   5.089  0.00  0.00    +0.042 A 
ATOM     11 CL   LIG    1       20.799 -16.346   5.255  0.00  0.00    -0.084 Cl
ATOM     12  C   LIG    1       22.848 -14.735   5.949  0.00  0.00    +0.020 A 
ATOM     13  C   LIG    1       24.145 -14.234   5.807  0.00  0.00    +0.012 A 
ENDBRANCH   3   6
BRANCH   1  14
ATOM     14  C   LIG    1       28.935 -16.168   6.272  0.00  0.00    +0.263 C 
BRANCH  14  15
ATOM     15  O   LIG    1       29.164 -17.123   5.231  0.00  0.00    -0.489 OA
BRANCH  15  19
ATOM     16  C   LIG    1       26.241 -20.153   5.086  0.00  0.00    +0.030 A 
ATOM     17  C   LIG    1       27.194 -20.126   6.099  0.00  0.00    +0.027 A 
ATOM     18  C   LIG    1       28.189 -19.161   6.133  0.00  0.00    +0.047 A 
ATOM     19  C   LIG    1       28.235 -18.130   5.199  0.00  0.00    +0.121 A 
ATOM     20  C   LIG    1       27.272 -18.097   4.199  0.00  0.00    +0.047 A 
ATOM     21  C   LIG    1       26.291 -19.100   4.152  0.00  0.00    +0.027 A 
BRANCH  16  27
ATOM     22  C   LIG    1       20.564 -19.023   4.777  0.00  0.00    +0.109 C 
ATOM     23  C   LIG    1       21.574 -19.429   3.720  0.00  0.00    +0.213 C 
ATOM     24  N   LIG    1       22.654 -20.191   4.179  0.00  0.00    -0.299 N 
ATOM     25  C   LIG    1       23.150 -20.009   5.548  0.00  0.00    +0.126 C 
ATOM     26  C   LIG    1       24.175 -21.060   5.988  0.00  0.00    +0.124 C 
ATOM     27  N   LIG    1       25.268 -21.155   5.004  0.00  0.00    -0.327 N 
ATOM     28  C   LIG    1       24.739 -21.559   3.678  0.00  0.00    +0.124 C 
ATOM     29  C   LIG    1       23.648 -20.590   3.165  0.00  0.00    +0.126 C 
ATOM     30  O   LIG    1       21.408 -19.145   2.552  0.00  0.00    -0.276 OA
ENDBRANCH  16  27
ENDBRANCH  15  19
ENDBRANCH  14  15
ENDBRANCH   1  14
BRANCH   3  31
ATOM     31  C   LIG    1       26.655 -13.226   3.504  0.00  0.00    +0.193 C 
BRANCH  31  32
ATOM     32  N   LIG    1       25.497 -12.461   3.086  0.00  0.00    -0.331 N 
ATOM     33  C   LIG    1       24.439 -12.108   3.874  0.00  0.00    +0.199 A 
ATOM     34  N   LIG    1       23.508 -11.490   3.181  0.00  0.00    -0.244 NA
ATOM     35  C   LIG    1       23.979 -11.447   1.895  0.00  0.00    +0.130 A 
ATOM     36  C   LIG    1       25.211 -12.046   1.813  0.00  0.00    +0.107 A 
ENDBRANCH  31  32
ENDBRANCH   3  31
TORSDOF 7
ENDMDL
