MODEL 1
REMARK VINA RESULT:      -3.7      0.000      0.000
REMARK  Name = *****
REMARK                            x       y       z     vdW  Elec       q    Type
REMARK                         _______ _______ _______ _____ _____    ______ ____
ROOT
ATOM      1  C   LIG    1       26.137 -17.584   3.581  0.00  0.00    +0.139 A 
ATOM      2  C   LIG    1       25.098 -18.510   3.664  0.00  0.00    +0.118 A 
ATOM      3  C   LIG    1       25.247 -19.677   4.415  0.00  0.00    +0.149 A 
ATOM      4  C   LIG    1       26.490 -19.925   5.017  0.00  0.00    +0.072 A 
ATOM      5  C   LIG    1       27.555 -19.029   4.868  0.00  0.00    +0.010 A 
ATOM      6  C   LIG    1       27.383 -17.854   4.145  0.00  0.00    +0.047 A 
ENDROOT
BRANCH   3   7
ATOM      7  N   LIG    1       24.066 -20.621   4.551  0.00  0.00    -0.383 NA
ATOM      8  C   LIG    1       22.795 -19.802   4.789  0.00  0.00    +0.361 C 
ATOM      9  C   LIG    1       23.936 -21.439   3.272  0.00  0.00    +0.361 C 
ATOM     10  C   LIG    1       24.242 -21.572   5.725  0.00  0.00    +0.361 C 
ENDBRANCH   3   7
BRANCH   1  11
ATOM     11  O   LIG    1       25.996 -16.354   2.910  0.00  0.00    -0.411 OA
BRANCH  11  14
ATOM     12  C   LIG    1       24.060 -14.831   4.007  0.00  0.00    +0.135 C 
ATOM     13  N   LIG    1       25.460 -14.491   4.185  0.00  0.00    -0.273 N 
ATOM     14  C   LIG    1       26.456 -15.159   3.487  0.00  0.00    +0.408 C 
ATOM     15  O   LIG    1       27.603 -14.747   3.385  0.00  0.00    -0.226 OA
ATOM     16  C   LIG    1       25.754 -13.169   4.709  0.00  0.00    +0.135 C 
ENDBRANCH  11  14
ENDBRANCH   1  11
TORSDOF 3
ENDMDL
MODEL 2
REMARK VINA RESULT:      -3.7      1.809      6.047
REMARK  Name = *****
REMARK                            x       y       z     vdW  Elec       q    Type
REMARK                         _______ _______ _______ _____ _____    ______ ____
ROOT
ATOM      1  C   LIG    1       24.929 -17.413   3.575  0.00  0.00    +0.139 A 
ATOM      2  C   LIG    1       25.668 -16.256   3.335  0.00  0.00    +0.118 A 
ATOM      3  C   LIG    1       25.160 -15.004   3.688  0.00  0.00    +0.149 A 
ATOM      4  C   LIG    1       23.862 -14.940   4.218  0.00  0.00    +0.072 A 
ATOM      5  C   LIG    1       23.093 -16.099   4.385  0.00  0.00    +0.010 A 
ATOM      6  C   LIG    1       23.625 -17.341   4.061  0.00  0.00    +0.047 A 
ENDROOT
BRANCH   3   7
ATOM      7  N   LIG    1       26.027 -13.774   3.490  0.00  0.00    -0.383 NA
ATOM      8  C   LIG    1       25.191 -12.671   2.838  0.00  0.00    +0.361 C 
ATOM      9  C   LIG    1       26.547 -13.312   4.847  0.00  0.00    +0.361 C 
ATOM     10  C   LIG    1       27.213 -14.066   2.585  0.00  0.00    +0.361 C 
ENDBRANCH   3   7
BRANCH   1  11
ATOM     11  O   LIG    1       25.442 -18.699   3.317  0.00  0.00    -0.411 OA
BRANCH  11  14
ATOM     12  C   LIG    1       26.827 -19.867   5.313  0.00  0.00    +0.135 C 
ATOM     13  N   LIG    1       25.485 -20.311   4.984  0.00  0.00    -0.273 N 
ATOM     14  C   LIG    1       24.830 -19.843   3.855  0.00  0.00    +0.408 C 
ATOM     15  O   LIG    1       23.833 -20.372   3.382  0.00  0.00    -0.226 OA
ATOM     16  C   LIG    1       25.050 -21.572   5.559  0.00  0.00    +0.135 C 
ENDBRANCH  11  14
ENDBRANCH   1  11
TORSDOF 3
ENDMDL
MODEL 3
REMARK VINA RESULT:      -3.6      1.907      5.716
REMARK  Name = *****
REMARK                            x       y       z     vdW  Elec       q    Type
REMARK                         _______ _______ _______ _____ _____    ______ ____
ROOT
ATOM      1  C   LIG    1       25.087 -17.624   3.473  0.00  0.00    +0.139 A 
ATOM      2  C   LIG    1       24.734 -16.278   3.543  0.00  0.00    +0.118 A 
ATOM      3  C   LIG    1       25.717 -15.290   3.617  0.00  0.00    +0.149 A 
ATOM      4  C   LIG    1       27.059 -15.694   3.695  0.00  0.00    +0.072 A 
ATOM      5  C   LIG    1       27.405 -17.050   3.701  0.00  0.00    +0.010 A 
ATOM      6  C   LIG    1       26.417 -18.023   3.593  0.00  0.00    +0.047 A 
ENDROOT
BRANCH   3   7
ATOM      7  N   LIG    1       25.298 -13.831   3.607  0.00  0.00    -0.383 NA
ATOM      8  C   LIG    1       23.772 -13.748   3.545  0.00  0.00    +0.361 C 
ATOM      9  C   LIG    1       25.814 -13.159   4.875  0.00  0.00    +0.361 C 
ATOM     10  C   LIG    1       25.861 -13.097   2.400  0.00  0.00    +0.361 C 
ENDBRANCH   3   7
BRANCH   1  11
ATOM     11  O   LIG    1       24.130 -18.644   3.306  0.00  0.00    -0.411 OA
BRANCH  11  14
ATOM     12  C   LIG    1       24.624 -21.092   4.322  0.00  0.00    +0.135 C 
ATOM     13  N   LIG    1       23.674 -20.202   4.964  0.00  0.00    -0.273 N 
ATOM     14  C   LIG    1       23.280 -19.017   4.361  0.00  0.00    +0.408 C 
ATOM     15  O   LIG    1       22.299 -18.374   4.709  0.00  0.00    -0.226 OA
ATOM     16  C   LIG    1       22.805 -20.785   5.971  0.00  0.00    +0.135 C 
ENDBRANCH  11  14
ENDBRANCH   1  11
TORSDOF 3
ENDMDL
MODEL 4
REMARK VINA RESULT:      -3.4      1.872      5.528
REMARK  Name = *****
REMARK                            x       y       z     vdW  Elec       q    Type
REMARK                         _______ _______ _______ _____ _____    ______ ____
ROOT
ATOM      1  C   LIG    1       25.449 -17.503   3.439  0.00  0.00    +0.139 A 
ATOM      2  C   LIG    1       24.966 -16.196   3.467  0.00  0.00    +0.118 A 
ATOM      3  C   LIG    1       25.841 -15.121   3.628  0.00  0.00    +0.149 A 
ATOM      4  C   LIG    1       27.202 -15.397   3.834  0.00  0.00    +0.072 A 
ATOM      5  C   LIG    1       27.670 -16.715   3.882  0.00  0.00    +0.010 A 
ATOM      6  C   LIG    1       26.793 -17.776   3.687  0.00  0.00    +0.047 A 
ENDROOT
BRANCH   3   7
ATOM      7  N   LIG    1       25.291 -13.707   3.568  0.00  0.00    -0.383 NA
ATOM      8  C   LIG    1       25.665 -12.969   4.855  0.00  0.00    +0.361 C 
ATOM      9  C   LIG    1       25.886 -12.995   2.358  0.00  0.00    +0.361 C 
ATOM     10  C   LIG    1       23.775 -13.702   3.443  0.00  0.00    +0.361 C 
ENDBRANCH   3   7
BRANCH   1  11
ATOM     11  O   LIG    1       24.612 -18.608   3.189  0.00  0.00    -0.411 OA
BRANCH  11  14
ATOM     12  C   LIG    1       22.242 -18.563   4.474  0.00  0.00    +0.135 C 
ATOM     13  N   LIG    1       23.163 -19.669   4.658  0.00  0.00    -0.273 N 
ATOM     14  C   LIG    1       24.451 -19.625   4.146  0.00  0.00    +0.408 C 
ATOM     15  O   LIG    1       25.345 -20.384   4.493  0.00  0.00    -0.226 OA
ATOM     16  C   LIG    1       22.892 -20.573   5.762  0.00  0.00    +0.135 C 
ENDBRANCH  11  14
ENDBRANCH   1  11
TORSDOF 3
ENDMDL
MODEL 5
REMARK VINA RESULT:      -3.3      1.658      5.629
REMARK  Name = *****
REMARK                            x       y       z     vdW  Elec       q    Type
REMARK                         _______ _______ _______ _____ _____    ______ ____
ROOT
ATOM      1  C   LIG    1       26.111 -16.939   3.466  0.00  0.00    +0.139 A 
ATOM      2  C   LIG    1       25.165 -15.917   3.418  0.00  0.00    +0.118 A 
ATOM      3  C   LIG    1       25.542 -14.591   3.642  0.00  0.00    +0.149 A 
ATOM      4  C   LIG    1       26.877 -14.330   3.989  0.00  0.00    +0.072 A 
ATOM      5  C   LIG    1       27.806 -15.370   4.111  0.00  0.00    +0.010 A 
ATOM      6  C   LIG    1       27.425 -16.681   3.852  0.00  0.00    +0.047 A 
ENDROOT
BRANCH   3   7
ATOM      7  N   LIG    1       24.502 -13.495   3.499  0.00  0.00    -0.383 NA
ATOM      8  C   LIG    1       24.701 -12.788   2.157  0.00  0.00    +0.361 C 
ATOM      9  C   LIG    1       23.112 -14.119   3.567  0.00  0.00    +0.361 C 
ATOM     10  C   LIG    1       24.627 -12.457   4.604  0.00  0.00    +0.361 C 
ENDBRANCH   3   7
BRANCH   1  11
ATOM     11  O   LIG    1       25.790 -18.275   3.156  0.00  0.00    -0.411 OA
BRANCH  11  14
ATOM     12  C   LIG    1       26.526 -20.086   5.012  0.00  0.00    +0.135 C 
ATOM     13  N   LIG    1       25.132 -19.719   4.849  0.00  0.00    -0.273 N 
ATOM     14  C   LIG    1       24.717 -18.926   3.790  0.00  0.00    +0.408 C 
ATOM     15  O   LIG    1       23.549 -18.811   3.446  0.00  0.00    -0.226 OA
ATOM     16  C   LIG    1       24.148 -20.565   5.501  0.00  0.00    +0.135 C 
ENDBRANCH  11  14
ENDBRANCH   1  11
TORSDOF 3
ENDMDL
MODEL 6
REMARK VINA RESULT:      -3.2      0.868      1.345
REMARK  Name = *****
REMARK                            x       y       z     vdW  Elec       q    Type
REMARK                         _______ _______ _______ _____ _____    ______ ____
ROOT
ATOM      1  C   LIG    1       26.299 -17.719   3.678  0.00  0.00    +0.139 A 
ATOM      2  C   LIG    1       25.231 -18.613   3.731  0.00  0.00    +0.118 A 
ATOM      3  C   LIG    1       25.310 -19.767   4.511  0.00  0.00    +0.149 A 
ATOM      4  C   LIG    1       26.517 -20.037   5.176  0.00  0.00    +0.072 A 
ATOM      5  C   LIG    1       27.613 -19.176   5.058  0.00  0.00    +0.010 A 
ATOM      6  C   LIG    1       27.509 -18.012   4.304  0.00  0.00    +0.047 A 
ENDROOT
BRANCH   3   7
ATOM      7  N   LIG    1       24.097 -20.673   4.612  0.00  0.00    -0.383 NA
ATOM      8  C   LIG    1       22.834 -19.813   4.700  0.00  0.00    +0.361 C 
ATOM      9  C   LIG    1       24.043 -21.567   3.377  0.00  0.00    +0.361 C 
ATOM     10  C   LIG    1       24.158 -21.553   5.851  0.00  0.00    +0.361 C 
ENDBRANCH   3   7
BRANCH   1  11
ATOM     11  O   LIG    1       26.225 -16.501   2.976  0.00  0.00    -0.411 OA
BRANCH  11  14
ATOM     12  C   LIG    1       27.317 -14.050   2.713  0.00  0.00    +0.135 C 
ATOM     13  N   LIG    1       25.934 -14.204   3.126  0.00  0.00    -0.273 N 
ATOM     14  C   LIG    1       25.411 -15.451   3.433  0.00  0.00    +0.408 C 
ATOM     15  O   LIG    1       24.361 -15.614   4.039  0.00  0.00    -0.226 OA
ATOM     16  C   LIG    1       25.275 -13.028   3.666  0.00  0.00    +0.135 C 
ENDBRANCH  11  14
ENDBRANCH   1  11
TORSDOF 3
ENDMDL
MODEL 7
REMARK VINA RESULT:      -3.2      1.600      2.396
REMARK  Name = *****
REMARK                            x       y       z     vdW  Elec       q    Type
REMARK                         _______ _______ _______ _____ _____    ______ ____
ROOT
ATOM      1  C   LIG    1       24.684 -17.383   3.587  0.00  0.00    +0.139 A 
ATOM      2  C   LIG    1       24.737 -18.745   3.877  0.00  0.00    +0.118 A 
ATOM      3  C   LIG    1       23.654 -19.383   4.485  0.00  0.00    +0.149 A 
ATOM      4  C   LIG    1       22.549 -18.602   4.861  0.00  0.00    +0.072 A 
ATOM      5  C   LIG    1       22.534 -17.221   4.637  0.00  0.00    +0.010 A 
ATOM      6  C   LIG    1       23.605 -16.604   4.001  0.00  0.00    +0.047 A 
ENDROOT
BRANCH   3   7
ATOM      7  N   LIG    1       23.712 -20.883   4.708  0.00  0.00    -0.383 NA
ATOM      8  C   LIG    1       22.376 -21.357   5.283  0.00  0.00    +0.361 C 
ATOM      9  C   LIG    1       23.988 -21.571   3.375  0.00  0.00    +0.361 C 
ATOM     10  C   LIG    1       24.811 -21.260   5.690  0.00  0.00    +0.361 C 
ENDBRANCH   3   7
BRANCH   1  11
ATOM     11  O   LIG    1       25.717 -16.722   2.895  0.00  0.00    -0.411 OA
BRANCH  11  14
ATOM     12  C   LIG    1       26.033 -14.077   2.481  0.00  0.00    +0.135 C 
ATOM     13  N   LIG    1       26.826 -14.770   3.480  0.00  0.00    -0.273 N 
ATOM     14  C   LIG    1       26.801 -16.153   3.584  0.00  0.00    +0.408 C 
ATOM     15  O   LIG    1       27.633 -16.801   4.204  0.00  0.00    -0.226 OA
ATOM     16  C   LIG    1       27.972 -14.060   4.019  0.00  0.00    +0.135 C 
ENDBRANCH  11  14
ENDBRANCH   1  11
TORSDOF 3
ENDMDL
MODEL 8
REMARK VINA RESULT:      -3.2      1.690      5.602
REMARK  Name = *****
REMARK                            x       y       z     vdW  Elec       q    Type
REMARK                         _______ _______ _______ _____ _____    ______ ____
ROOT
ATOM      1  C   LIG    1       26.155 -16.786   3.421  0.00  0.00    +0.139 A 
ATOM      2  C   LIG    1       25.220 -15.753   3.387  0.00  0.00    +0.118 A 
ATOM      3  C   LIG    1       25.604 -14.440   3.661  0.00  0.00    +0.149 A 
ATOM      4  C   LIG    1       26.934 -14.203   4.043  0.00  0.00    +0.072 A 
ATOM      5  C   LIG    1       27.851 -15.255   4.151  0.00  0.00    +0.010 A 
ATOM      6  C   LIG    1       27.463 -16.554   3.842  0.00  0.00    +0.047 A 
ENDROOT
BRANCH   3   7
ATOM      7  N   LIG    1       24.578 -13.329   3.530  0.00  0.00    -0.383 NA
ATOM      8  C   LIG    1       23.174 -13.939   3.549  0.00  0.00    +0.361 C 
ATOM      9  C   LIG    1       24.749 -12.359   4.694  0.00  0.00    +0.361 C 
ATOM     10  C   LIG    1       24.744 -12.564   2.226  0.00  0.00    +0.361 C 
ENDBRANCH   3   7
BRANCH   1  11
ATOM     11  O   LIG    1       25.828 -18.108   3.064  0.00  0.00    -0.411 OA
BRANCH  11  14
ATOM     12  C   LIG    1       23.304 -18.841   3.665  0.00  0.00    +0.135 C 
ATOM     13  N   LIG    1       24.435 -19.582   4.191  0.00  0.00    -0.273 N 
ATOM     14  C   LIG    1       25.732 -19.118   4.037  0.00  0.00    +0.408 C 
ATOM     15  O   LIG    1       26.684 -19.540   4.679  0.00  0.00    -0.226 OA
ATOM     16  C   LIG    1       24.163 -20.521   5.265  0.00  0.00    +0.135 C 
ENDBRANCH  11  14
ENDBRANCH   1  11
TORSDOF 3
ENDMDL
MODEL 9
REMARK VINA RESULT:      -3.2      1.590      2.558
REMARK  Name = *****
REMARK                            x       y       z     vdW  Elec       q    Type
REMARK                         _______ _______ _______ _____ _____    ______ ____
ROOT
ATOM      1  C   LIG    1       24.681 -17.371   3.588  0.00  0.00    +0.139 A 
ATOM      2  C   LIG    1       24.735 -18.732   3.882  0.00  0.00    +0.118 A 
ATOM      3  C   LIG    1       23.653 -19.368   4.494  0.00  0.00    +0.149 A 
ATOM      4  C   LIG    1       22.549 -18.586   4.870  0.00  0.00    +0.072 A 
ATOM      5  C   LIG    1       22.533 -17.206   4.642  0.00  0.00    +0.010 A 
ATOM      6  C   LIG    1       23.602 -16.591   4.001  0.00  0.00    +0.047 A 
ENDROOT
BRANCH   3   7
ATOM      7  N   LIG    1       23.713 -20.867   4.722  0.00  0.00    -0.383 NA
ATOM      8  C   LIG    1       23.924 -21.571   3.380  0.00  0.00    +0.361 C 
ATOM      9  C   LIG    1       24.867 -21.178   5.669  0.00  0.00    +0.361 C 
ATOM     10  C   LIG    1       22.423 -21.392   5.334  0.00  0.00    +0.361 C 
ENDBRANCH   3   7
BRANCH   1  11
ATOM     11  O   LIG    1       25.712 -16.712   2.890  0.00  0.00    -0.411 OA
BRANCH  11  14
ATOM     12  C   LIG    1       25.995 -14.062   2.484  0.00  0.00    +0.135 C 
ATOM     13  N   LIG    1       26.801 -14.749   3.476  0.00  0.00    -0.273 N 
ATOM     14  C   LIG    1       26.793 -16.132   3.576  0.00  0.00    +0.408 C 
ATOM     15  O   LIG    1       27.636 -16.772   4.189  0.00  0.00    -0.226 OA
ATOM     16  C   LIG    1       27.941 -14.027   4.012  0.00  0.00    +0.135 C 
ENDBRANCH  11  14
ENDBRANCH   1  11
TORSDOF 3
ENDMDL
