MODEL 1
REMARK VINA RESULT:      -9.1      0.000      0.000
REMARK  Name = *****
REMARK                            x       y       z     vdW  Elec       q    Type
REMARK                         _______ _______ _______ _____ _____    ______ ____
ROOT
ATOM      1  C   LIG    1       25.061 -21.433   6.818  0.00  0.00    +0.178 C 
ENDROOT
BRANCH   1   2
ATOM      2  C   LIG    1       24.918 -22.972   6.867  0.00  0.00    -0.014 A 
ATOM      3  C   LIG    1       26.015 -23.867   6.922  0.00  0.00    +0.007 A 
ATOM      4  C   LIG    1       25.890 -25.225   6.636  0.00  0.00    +0.015 A 
ATOM      5  C   LIG    1       24.648 -25.752   6.349  0.00  0.00    +0.018 A 
ATOM      6 BR   LIG    1       24.498 -27.563   5.835  0.00  0.00    -0.050 Br
ATOM      7  C   LIG    1       23.514 -24.937   6.413  0.00  0.00    +0.015 A 
ATOM      8  C   LIG    1       23.660 -23.561   6.670  0.00  0.00    +0.007 A 
ENDBRANCH   1   2
BRANCH   1   9
ATOM      9  C   LIG    1       24.346 -20.594   5.752  0.00  0.00    -0.015 A 
ATOM     10  C   LIG    1       23.021 -20.176   5.939  0.00  0.00    +0.006 A 
ATOM     11  C   LIG    1       22.396 -19.301   5.039  0.00  0.00    +0.000 A 
ATOM     12  C   LIG    1       23.097 -18.820   3.932  0.00  0.00    +0.000 A 
ATOM     13  C   LIG    1       24.355 -19.310   3.662  0.00  0.00    +0.000 A 
ATOM     14  C   LIG    1       24.930 -20.248   4.518  0.00  0.00    +0.006 A 
ENDBRANCH   1   9
BRANCH   1  15
ATOM     15  O   LIG    1       24.910 -20.849   8.142  0.00  0.00    -0.366 OA
BRANCH  15  16
ATOM     16  C   LIG    1       26.153 -20.501   8.744  0.00  0.00    +0.176 C 
BRANCH  16  17
ATOM     17  C   LIG    1       27.277 -20.303   7.716  0.00  0.00    +0.112 C 
BRANCH  17  19
ATOM     18  C   LIG    1       29.335 -19.058   7.997  0.00  0.00    +0.104 C 
ATOM     19  N   LIG    1       28.620 -20.288   8.341  0.00  0.00    -0.306 NA
ATOM     20  C   LIG    1       29.439 -21.444   7.969  0.00  0.00    +0.104 C 
ENDBRANCH  17  19
ENDBRANCH  16  17
ENDBRANCH  15  16
ENDBRANCH   1  15
TORSDOF 6
ENDMDL
MODEL 2
REMARK VINA RESULT:      -8.2      3.144      5.199
REMARK  Name = *****
REMARK                            x       y       z     vdW  Elec       q    Type
REMARK                         _______ _______ _______ _____ _____    ______ ____
ROOT
ATOM      1  C   LIG    1       25.626 -21.529   6.362  0.00  0.00    +0.178 C 
ENDROOT
BRANCH   1   2
ATOM      2  C   LIG    1       27.104 -21.102   6.518  0.00  0.00    -0.014 A 
ATOM      3  C   LIG    1       27.984 -21.640   7.489  0.00  0.00    +0.007 A 
ATOM      4  C   LIG    1       29.188 -21.027   7.833  0.00  0.00    +0.015 A 
ATOM      5  C   LIG    1       29.589 -19.887   7.167  0.00  0.00    +0.018 A 
ATOM      6 BR   LIG    1       31.153 -18.985   7.720  0.00  0.00    -0.050 Br
ATOM      7  C   LIG    1       28.820 -19.392   6.110  0.00  0.00    +0.015 A 
ATOM      8  C   LIG    1       27.591 -20.001   5.797  0.00  0.00    +0.007 A 
ENDBRANCH   1   2
BRANCH   1   9
ATOM      9  C   LIG    1       24.634 -20.699   5.538  0.00  0.00    -0.015 A 
ATOM     10  C   LIG    1       23.373 -20.368   6.056  0.00  0.00    +0.006 A 
ATOM     11  C   LIG    1       22.506 -19.503   5.374  0.00  0.00    +0.000 A 
ATOM     12  C   LIG    1       22.893 -18.944   4.155  0.00  0.00    +0.000 A 
ATOM     13  C   LIG    1       24.072 -19.349   3.569  0.00  0.00    +0.000 A 
ATOM     14  C   LIG    1       24.884 -20.278   4.217  0.00  0.00    +0.006 A 
ENDBRANCH   1   9
BRANCH   1  15
ATOM     15  O   LIG    1       25.517 -22.946   6.054  0.00  0.00    -0.366 OA
BRANCH  15  16
ATOM     16  C   LIG    1       24.504 -23.605   6.806  0.00  0.00    +0.176 C 
BRANCH  16  17
ATOM     17  C   LIG    1       24.297 -25.065   6.375  0.00  0.00    +0.112 C 
BRANCH  17  19
ATOM     18  C   LIG    1       25.499 -26.314   4.685  0.00  0.00    +0.104 C 
ATOM     19  N   LIG    1       25.570 -25.739   6.029  0.00  0.00    -0.306 NA
ATOM     20  C   LIG    1       25.944 -26.785   6.984  0.00  0.00    +0.104 C 
ENDBRANCH  17  19
ENDBRANCH  16  17
ENDBRANCH  15  16
ENDBRANCH   1  15
TORSDOF 6
ENDMDL
MODEL 3
REMARK VINA RESULT:      -8.0      2.514      5.051
REMARK  Name = *****
REMARK                            x       y       z     vdW  Elec       q    Type
REMARK                         _______ _______ _______ _____ _____    ______ ____
ROOT
ATOM      1  C   LIG    1       25.323 -23.198   6.829  0.00  0.00    +0.178 C 
ENDROOT
BRANCH   1   2
ATOM      2  C   LIG    1       24.405 -22.185   6.107  0.00  0.00    -0.014 A 
ATOM      3  C   LIG    1       24.561 -21.801   4.753  0.00  0.00    +0.007 A 
ATOM      4  C   LIG    1       23.951 -20.666   4.219  0.00  0.00    +0.015 A 
ATOM      5  C   LIG    1       23.106 -19.911   5.005  0.00  0.00    +0.018 A 
ATOM      6 BR   LIG    1       22.383 -18.306   4.323  0.00  0.00    -0.050 Br
ATOM      7  C   LIG    1       22.814 -20.323   6.309  0.00  0.00    +0.015 A 
ATOM      8  C   LIG    1       23.463 -21.451   6.845  0.00  0.00    +0.007 A 
ENDBRANCH   1   2
BRANCH   1   9
ATOM      9  C   LIG    1       25.313 -24.689   6.469  0.00  0.00    -0.015 A 
ATOM     10  C   LIG    1       24.107 -25.349   6.188  0.00  0.00    +0.006 A 
ATOM     11  C   LIG    1       24.089 -26.674   5.731  0.00  0.00    +0.000 A 
ATOM     12  C   LIG    1       25.287 -27.363   5.538  0.00  0.00    +0.000 A 
ATOM     13  C   LIG    1       26.474 -26.779   5.921  0.00  0.00    +0.000 A 
ATOM     14  C   LIG    1       26.469 -25.493   6.458  0.00  0.00    +0.006 A 
ENDBRANCH   1   9
BRANCH   1  15
ATOM     15  O   LIG    1       26.681 -22.689   6.942  0.00  0.00    -0.366 OA
BRANCH  15  16
ATOM     16  C   LIG    1       26.835 -21.736   7.990  0.00  0.00    +0.176 C 
BRANCH  16  17
ATOM     17  C   LIG    1       27.394 -20.393   7.497  0.00  0.00    +0.112 C 
BRANCH  17  19
ATOM     18  C   LIG    1       29.670 -21.066   7.972  0.00  0.00    +0.104 C 
ATOM     19  N   LIG    1       28.769 -20.515   6.960  0.00  0.00    -0.306 NA
ATOM     20  C   LIG    1       29.309 -19.244   6.472  0.00  0.00    +0.104 C 
ENDBRANCH  17  19
ENDBRANCH  16  17
ENDBRANCH  15  16
ENDBRANCH   1  15
TORSDOF 6
ENDMDL
MODEL 4
REMARK VINA RESULT:      -8.0      3.011      5.898
REMARK  Name = *****
REMARK                            x       y       z     vdW  Elec       q    Type
REMARK                         _______ _______ _______ _____ _____    ______ ____
ROOT
ATOM      1  C   LIG    1       25.149 -22.167   6.411  0.00  0.00    +0.178 C 
ENDROOT
BRANCH   1   2
ATOM      2  C   LIG    1       26.388 -21.275   6.660  0.00  0.00    -0.014 A 
ATOM      3  C   LIG    1       26.854 -20.297   5.747  0.00  0.00    +0.007 A 
ATOM      4  C   LIG    1       28.131 -19.745   5.827  0.00  0.00    +0.015 A 
ATOM      5  C   LIG    1       28.966 -20.101   6.865  0.00  0.00    +0.018 A 
ATOM      6 BR   LIG    1       30.740 -19.453   6.901  0.00  0.00    -0.050 Br
ATOM      7  C   LIG    1       28.505 -20.961   7.866  0.00  0.00    +0.015 A 
ATOM      8  C   LIG    1       27.226 -21.537   7.754  0.00  0.00    +0.007 A 
ENDBRANCH   1   2
BRANCH   1   9
ATOM      9  C   LIG    1       25.282 -23.674   6.157  0.00  0.00    -0.015 A 
ATOM     10  C   LIG    1       24.907 -24.227   4.924  0.00  0.00    +0.006 A 
ATOM     11  C   LIG    1       25.143 -25.576   4.626  0.00  0.00    +0.000 A 
ATOM     12  C   LIG    1       25.771 -26.399   5.562  0.00  0.00    +0.000 A 
ATOM     13  C   LIG    1       26.038 -25.910   6.822  0.00  0.00    +0.000 A 
ATOM     14  C   LIG    1       25.716 -24.590   7.134  0.00  0.00    +0.006 A 
ENDBRANCH   1   9
BRANCH   1  15
ATOM     15  O   LIG    1       24.095 -21.882   7.373  0.00  0.00    -0.366 OA
BRANCH  15  16
ATOM     16  C   LIG    1       23.328 -20.730   7.036  0.00  0.00    +0.176 C 
BRANCH  16  17
ATOM     17  C   LIG    1       22.827 -20.752   5.584  0.00  0.00    +0.112 C 
BRANCH  17  19
ATOM     18  C   LIG    1       22.218 -18.691   4.471  0.00  0.00    +0.104 C 
ATOM     19  N   LIG    1       23.319 -19.597   4.798  0.00  0.00    -0.306 NA
ATOM     20  C   LIG    1       24.003 -19.993   3.565  0.00  0.00    +0.104 C 
ENDBRANCH  17  19
ENDBRANCH  16  17
ENDBRANCH  15  16
ENDBRANCH   1  15
TORSDOF 6
ENDMDL
MODEL 5
REMARK VINA RESULT:      -7.8      2.904      5.654
REMARK  Name = *****
REMARK                            x       y       z     vdW  Elec       q    Type
REMARK                         _______ _______ _______ _____ _____    ______ ____
ROOT
ATOM      1  C   LIG    1       26.389 -21.157   6.293  0.00  0.00    +0.178 C 
ENDROOT
BRANCH   1   2
ATOM      2  C   LIG    1       25.124 -20.665   5.552  0.00  0.00    -0.014 A 
ATOM      3  C   LIG    1       25.142 -20.065   4.269  0.00  0.00    +0.007 A 
ATOM      4  C   LIG    1       24.064 -19.340   3.763  0.00  0.00    +0.015 A 
ATOM      5  C   LIG    1       22.900 -19.245   4.498  0.00  0.00    +0.018 A 
ATOM      6 BR   LIG    1       21.489 -18.157   3.873  0.00  0.00    -0.050 Br
ATOM      7  C   LIG    1       22.785 -19.930   5.711  0.00  0.00    +0.015 A 
ATOM      8  C   LIG    1       23.893 -20.630   6.224  0.00  0.00    +0.007 A 
ENDBRANCH   1   2
BRANCH   1   9
ATOM      9  C   LIG    1       27.584 -20.229   6.545  0.00  0.00    -0.015 A 
ATOM     10  C   LIG    1       28.121 -20.087   7.833  0.00  0.00    +0.006 A 
ATOM     11  C   LIG    1       29.291 -19.348   8.059  0.00  0.00    +0.000 A 
ATOM     12  C   LIG    1       29.952 -18.742   6.991  0.00  0.00    +0.000 A 
ATOM     13  C   LIG    1       29.379 -18.766   5.739  0.00  0.00    +0.000 A 
ATOM     14  C   LIG    1       28.169 -19.429   5.545  0.00  0.00    +0.006 A 
ENDBRANCH   1   9
BRANCH   1  15
ATOM     15  O   LIG    1       26.039 -21.908   7.489  0.00  0.00    -0.366 OA
BRANCH  15  16
ATOM     16  C   LIG    1       26.391 -23.285   7.406  0.00  0.00    +0.176 C 
BRANCH  16  17
ATOM     17  C   LIG    1       25.292 -24.144   6.763  0.00  0.00    +0.112 C 
BRANCH  17  19
ATOM     18  C   LIG    1       25.097 -25.516   4.779  0.00  0.00    +0.104 C 
ATOM     19  N   LIG    1       25.840 -25.302   6.020  0.00  0.00    -0.306 NA
ATOM     20  C   LIG    1       25.840 -26.539   6.804  0.00  0.00    +0.104 C 
ENDBRANCH  17  19
ENDBRANCH  16  17
ENDBRANCH  15  16
ENDBRANCH   1  15
TORSDOF 6
ENDMDL
MODEL 6
REMARK VINA RESULT:      -7.5      2.007      4.314
REMARK  Name = *****
REMARK                            x       y       z     vdW  Elec       q    Type
REMARK                         _______ _______ _______ _____ _____    ______ ____
ROOT
ATOM      1  C   LIG    1       24.932 -22.343   6.630  0.00  0.00    +0.178 C 
ENDROOT
BRANCH   1   2
ATOM      2  C   LIG    1       24.998 -23.888   6.618  0.00  0.00    -0.014 A 
ATOM      3  C   LIG    1       26.206 -24.627   6.610  0.00  0.00    +0.007 A 
ATOM      4  C   LIG    1       26.256 -25.979   6.271  0.00  0.00    +0.015 A 
ATOM      5  C   LIG    1       25.088 -26.657   5.993  0.00  0.00    +0.018 A 
ATOM      6 BR   LIG    1       25.167 -28.451   5.409  0.00  0.00    -0.050 Br
ATOM      7  C   LIG    1       23.858 -26.005   6.118  0.00  0.00    +0.015 A 
ATOM      8  C   LIG    1       23.825 -24.633   6.428  0.00  0.00    +0.007 A 
ENDBRANCH   1   2
BRANCH   1   9
ATOM      9  C   LIG    1       26.197 -21.486   6.761  0.00  0.00    -0.015 A 
ATOM     10  C   LIG    1       27.022 -21.595   7.890  0.00  0.00    +0.006 A 
ATOM     11  C   LIG    1       28.247 -20.918   7.968  0.00  0.00    +0.000 A 
ATOM     12  C   LIG    1       28.675 -20.122   6.905  0.00  0.00    +0.000 A 
ATOM     13  C   LIG    1       27.829 -19.904   5.840  0.00  0.00    +0.000 A 
ATOM     14  C   LIG    1       26.576 -20.512   5.817  0.00  0.00    +0.006 A 
ENDBRANCH   1   9
BRANCH   1  15
ATOM     15  O   LIG    1       24.061 -21.846   5.576  0.00  0.00    -0.366 OA
BRANCH  15  16
ATOM     16  C   LIG    1       22.956 -21.097   6.072  0.00  0.00    +0.176 C 
BRANCH  16  17
ATOM     17  C   LIG    1       22.265 -20.263   4.982  0.00  0.00    +0.112 C 
BRANCH  17  19
ATOM     18  C   LIG    1       22.052 -17.913   4.443  0.00  0.00    +0.104 C 
ATOM     19  N   LIG    1       22.992 -19.007   4.685  0.00  0.00    -0.306 NA
ATOM     20  C   LIG    1       23.900 -19.127   3.542  0.00  0.00    +0.104 C 
ENDBRANCH  17  19
ENDBRANCH  16  17
ENDBRANCH  15  16
ENDBRANCH   1  15
TORSDOF 6
ENDMDL
MODEL 7
REMARK VINA RESULT:      -7.2      1.894      4.531
REMARK  Name = *****
REMARK                            x       y       z     vdW  Elec       q    Type
REMARK                         _______ _______ _______ _____ _____    ______ ____
ROOT
ATOM      1  C   LIG    1       25.564 -21.840   7.413  0.00  0.00    +0.178 C 
ENDROOT
BRANCH   1   2
ATOM      2  C   LIG    1       25.225 -23.225   6.814  0.00  0.00    -0.014 A 
ATOM      3  C   LIG    1       23.907 -23.719   6.659  0.00  0.00    +0.007 A 
ATOM      4  C   LIG    1       23.632 -25.067   6.434  0.00  0.00    +0.015 A 
ATOM      5  C   LIG    1       24.672 -25.961   6.288  0.00  0.00    +0.018 A 
ATOM      6 BR   LIG    1       24.300 -27.804   6.112  0.00  0.00    -0.050 Br
ATOM      7  C   LIG    1       25.992 -25.501   6.299  0.00  0.00    +0.015 A 
ATOM      8  C   LIG    1       26.255 -24.144   6.561  0.00  0.00    +0.007 A 
ENDBRANCH   1   2
BRANCH   1   9
ATOM      9  C   LIG    1       26.903 -21.148   7.130  0.00  0.00    -0.015 A 
ATOM     10  C   LIG    1       27.074 -20.363   5.980  0.00  0.00    +0.006 A 
ATOM     11  C   LIG    1       28.244 -19.619   5.771  0.00  0.00    +0.000 A 
ATOM     12  C   LIG    1       29.266 -19.642   6.721  0.00  0.00    +0.000 A 
ATOM     13  C   LIG    1       29.172 -20.498   7.796  0.00  0.00    +0.000 A 
ATOM     14  C   LIG    1       28.041 -21.299   7.945  0.00  0.00    +0.006 A 
ENDBRANCH   1   9
BRANCH   1  15
ATOM     15  O   LIG    1       24.448 -20.917   7.267  0.00  0.00    -0.366 OA
BRANCH  15  16
ATOM     16  C   LIG    1       24.226 -20.518   5.918  0.00  0.00    +0.176 C 
BRANCH  16  17
ATOM     17  C   LIG    1       22.772 -20.101   5.652  0.00  0.00    +0.112 C 
BRANCH  17  19
ATOM     18  C   LIG    1       23.889 -19.317   3.653  0.00  0.00    +0.104 C 
ATOM     19  N   LIG    1       22.620 -19.360   4.379  0.00  0.00    -0.306 NA
ATOM     20  C   LIG    1       22.123 -17.994   4.565  0.00  0.00    +0.104 C 
ENDBRANCH  17  19
ENDBRANCH  16  17
ENDBRANCH  15  16
ENDBRANCH   1  15
TORSDOF 6
ENDMDL
MODEL 8
REMARK VINA RESULT:      -6.9      2.184      4.592
REMARK  Name = *****
REMARK                            x       y       z     vdW  Elec       q    Type
REMARK                         _______ _______ _______ _____ _____    ______ ____
ROOT
ATOM      1  C   LIG    1       25.018 -23.136   6.031  0.00  0.00    +0.178 C 
ENDROOT
BRANCH   1   2
ATOM      2  C   LIG    1       25.352 -24.637   5.871  0.00  0.00    -0.014 A 
ATOM      3  C   LIG    1       25.114 -25.379   4.688  0.00  0.00    +0.007 A 
ATOM      4  C   LIG    1       25.109 -26.773   4.664  0.00  0.00    +0.015 A 
ATOM      5  C   LIG    1       25.411 -27.477   5.812  0.00  0.00    +0.018 A 
ATOM      6 BR   LIG    1       25.278 -29.360   5.813  0.00  0.00    -0.050 Br
ATOM      7  C   LIG    1       25.783 -26.791   6.972  0.00  0.00    +0.015 A 
ATOM      8  C   LIG    1       25.751 -25.385   6.990  0.00  0.00    +0.007 A 
ENDBRANCH   1   2
BRANCH   1   9
ATOM      9  C   LIG    1       25.820 -22.231   6.975  0.00  0.00    -0.015 A 
ATOM     10  C   LIG    1       27.201 -22.060   6.801  0.00  0.00    +0.006 A 
ATOM     11  C   LIG    1       27.925 -21.138   7.569  0.00  0.00    +0.000 A 
ATOM     12  C   LIG    1       27.273 -20.360   8.526  0.00  0.00    +0.000 A 
ATOM     13  C   LIG    1       25.944 -20.596   8.799  0.00  0.00    +0.000 A 
ATOM     14  C   LIG    1       25.256 -21.579   8.089  0.00  0.00    +0.006 A 
ENDBRANCH   1   9
BRANCH   1  15
ATOM     15  O   LIG    1       24.811 -22.503   4.738  0.00  0.00    -0.366 OA
BRANCH  15  16
ATOM     16  C   LIG    1       24.867 -21.081   4.797  0.00  0.00    +0.176 C 
BRANCH  16  17
ATOM     17  C   LIG    1       23.822 -20.406   3.895  0.00  0.00    +0.112 C 
BRANCH  17  19
ATOM     18  C   LIG    1       22.335 -18.549   4.344  0.00  0.00    +0.104 C 
ATOM     19  N   LIG    1       22.633 -19.948   4.652  0.00  0.00    -0.306 NA
ATOM     20  C   LIG    1       22.780 -20.104   6.101  0.00  0.00    +0.104 C 
ENDBRANCH  17  19
ENDBRANCH  16  17
ENDBRANCH  15  16
ENDBRANCH   1  15
TORSDOF 6
ENDMDL
MODEL 9
REMARK VINA RESULT:      -6.8      3.125      5.855
REMARK  Name = *****
REMARK                            x       y       z     vdW  Elec       q    Type
REMARK                         _______ _______ _______ _____ _____    ______ ____
ROOT
ATOM      1  C   LIG    1       26.065 -21.167   5.723  0.00  0.00    +0.178 C 
ENDROOT
BRANCH   1   2
ATOM      2  C   LIG    1       27.289 -20.777   6.584  0.00  0.00    -0.014 A 
ATOM      3  C   LIG    1       28.216 -19.767   6.229  0.00  0.00    +0.007 A 
ATOM      4  C   LIG    1       29.469 -19.654   6.830  0.00  0.00    +0.015 A 
ATOM      5  C   LIG    1       29.813 -20.506   7.858  0.00  0.00    +0.018 A 
ATOM      6 BR   LIG    1       31.555 -20.438   8.584  0.00  0.00    -0.050 Br
ATOM      7  C   LIG    1       28.882 -21.433   8.335  0.00  0.00    +0.015 A 
ATOM      8  C   LIG    1       27.635 -21.559   7.697  0.00  0.00    +0.007 A 
ENDBRANCH   1   2
BRANCH   1   9
ATOM      9  C   LIG    1       25.119 -22.301   6.139  0.00  0.00    -0.015 A 
ATOM     10  C   LIG    1       23.942 -22.026   6.849  0.00  0.00    +0.006 A 
ATOM     11  C   LIG    1       23.002 -23.030   7.123  0.00  0.00    +0.000 A 
ATOM     12  C   LIG    1       23.224 -24.334   6.679  0.00  0.00    +0.000 A 
ATOM     13  C   LIG    1       24.426 -24.653   6.087  0.00  0.00    +0.000 A 
ATOM     14  C   LIG    1       25.389 -23.662   5.901  0.00  0.00    +0.006 A 
ENDBRANCH   1   9
BRANCH   1  15
ATOM     15  O   LIG    1       25.326 -19.989   5.296  0.00  0.00    -0.366 OA
BRANCH  15  16
ATOM     16  C   LIG    1       25.168 -19.911   3.882  0.00  0.00    +0.176 C 
BRANCH  16  17
ATOM     17  C   LIG    1       23.703 -20.041   3.439  0.00  0.00    +0.112 C 
BRANCH  17  19
ATOM     18  C   LIG    1       21.673 -20.650   4.609  0.00  0.00    +0.104 C 
ATOM     19  N   LIG    1       22.752 -19.666   4.511  0.00  0.00    -0.306 NA
ATOM     20  C   LIG    1       22.175 -18.332   4.325  0.00  0.00    +0.104 C 
ENDBRANCH  17  19
ENDBRANCH  16  17
ENDBRANCH  15  16
ENDBRANCH   1  15
TORSDOF 6
ENDMDL
