MODEL 1
REMARK VINA RESULT:      -6.7      0.000      0.000
REMARK  Name = *****
REMARK                            x       y       z     vdW  Elec       q    Type
REMARK                         _______ _______ _______ _____ _____    ______ ____
ROOT
ATOM      1  C   LIG    1       26.966 -26.204  13.336  0.00  0.00    +0.132 C 
ATOM      2  N   LIG    1       26.441 -27.392  12.687  0.00  0.00    -0.294 N 
ATOM      3  C   LIG    1       25.084 -27.667  12.837  0.00  0.00    +0.237 C 
ATOM      4  O   LIG    1       24.366 -27.016  13.597  0.00  0.00    -0.274 OA
ATOM      5  C   LIG    1       24.633 -29.015  12.231  0.00  0.00    +0.167 C 
ATOM      6  C   LIG    1       23.089 -28.982  12.139  0.00  0.00    +0.069 C 
ATOM      7  C   LIG    1       22.594 -30.190  11.438  0.00  0.00    -0.015 C 
ATOM      8  C   LIG    1       23.418 -30.913  10.605  0.00  0.00    +0.046 C 
ATOM      9  C   LIG    1       24.859 -30.643  10.282  0.00  0.00    +0.154 C 
ATOM     10  N   LIG    1       22.684 -31.947  10.086  0.00  0.00    -0.356 NA
ATOM     11  H   LIG    1       23.019 -32.628   9.417  0.00  0.00    +0.166 HD
ATOM     12  C   LIG    1       21.392 -31.895  10.565  0.00  0.00    +0.047 C 
ATOM     13  C   LIG    1       20.298 -32.725  10.294  0.00  0.00    +0.026 C 
ATOM     14  C   LIG    1       19.088 -32.427  10.927  0.00  0.00    +0.002 C 
ATOM     15  C   LIG    1       18.979 -31.344  11.796  0.00  0.00    +0.001 C 
ATOM     16  C   LIG    1       20.082 -30.522  12.054  0.00  0.00    +0.010 C 
ATOM     17  C   LIG    1       21.312 -30.799  11.427  0.00  0.00    +0.003 C 
ATOM     18  N   LIG    1       25.302 -29.397  10.956  0.00  0.00    -0.276 N 
ATOM     19  C   LIG    1       26.682 -29.154  10.904  0.00  0.00    +0.234 C 
ATOM     20  O   LIG    1       27.482 -29.849  10.281  0.00  0.00    -0.274 OA
ATOM     21  C   LIG    1       27.086 -27.785  11.446  0.00  0.00    +0.203 C 
ENDROOT
BRANCH   9  22
ATOM     22  C   LIG    1       25.053 -30.592   8.768  0.00  0.00    -0.018 C 
ATOM     23  C   LIG    1       25.664 -31.678   8.111  0.00  0.00    +0.055 C 
ATOM     24  C   LIG    1       25.768 -31.634   6.738  0.00  0.00    +0.167 C 
ATOM     25  O   LIG    1       26.310 -32.605   5.955  0.00  0.00    -0.453 OA
ATOM     26  C   LIG    1       26.141 -32.021   4.646  0.00  0.00    +0.466 C 
ATOM     27  O   LIG    1       25.495 -30.731   4.671  0.00  0.00    -0.453 OA
ATOM     28  C   LIG    1       25.301 -30.568   6.008  0.00  0.00    +0.166 C 
ATOM     29  C   LIG    1       24.700 -29.484   6.610  0.00  0.00    +0.050 C 
ATOM     30  C   LIG    1       24.573 -29.501   8.002  0.00  0.00    +0.010 C 
ENDBRANCH   9  22
TORSDOF 1
ENDMDL
MODEL 2
REMARK VINA RESULT:      -6.6      2.718      7.016
REMARK  Name = *****
REMARK                            x       y       z     vdW  Elec       q    Type
REMARK                         _______ _______ _______ _____ _____    ______ ____
ROOT
ATOM      1  C   LIG    1       21.956 -33.825  11.464  0.00  0.00    +0.132 C 
ATOM      2  N   LIG    1       23.026 -32.906  11.117  0.00  0.00    -0.294 N 
ATOM      3  C   LIG    1       22.869 -32.132   9.971  0.00  0.00    +0.237 C 
ATOM      4  O   LIG    1       21.929 -32.299   9.193  0.00  0.00    -0.274 OA
ATOM      5  C   LIG    1       24.104 -31.282   9.598  0.00  0.00    +0.167 C 
ATOM      6  C   LIG    1       23.640 -30.225   8.568  0.00  0.00    +0.069 C 
ATOM      7  C   LIG    1       24.746 -29.285   8.269  0.00  0.00    -0.015 C 
ATOM      8  C   LIG    1       25.795 -29.124   9.145  0.00  0.00    +0.046 C 
ATOM      9  C   LIG    1       26.008 -29.820  10.458  0.00  0.00    +0.154 C 
ATOM     10  N   LIG    1       26.639 -28.182   8.616  0.00  0.00    -0.356 NA
ATOM     11  H   LIG    1       27.482 -27.836   9.056  0.00  0.00    +0.166 HD
ATOM     12  C   LIG    1       26.142 -27.724   7.415  0.00  0.00    +0.047 C 
ATOM     13  C   LIG    1       26.650 -26.756   6.541  0.00  0.00    +0.026 C 
ATOM     14  C   LIG    1       25.921 -26.486   5.380  0.00  0.00    +0.002 C 
ATOM     15  C   LIG    1       24.732 -27.158   5.105  0.00  0.00    +0.001 C 
ATOM     16  C   LIG    1       24.236 -28.122   5.991  0.00  0.00    +0.010 C 
ATOM     17  C   LIG    1       24.950 -28.411   7.169  0.00  0.00    +0.003 C 
ATOM     18  N   LIG    1       24.856 -30.708  10.749  0.00  0.00    -0.276 N 
ATOM     19  C   LIG    1       25.034 -31.571  11.841  0.00  0.00    +0.234 C 
ATOM     20  O   LIG    1       26.019 -31.556  12.577  0.00  0.00    -0.274 OA
ATOM     21  C   LIG    1       23.775 -32.343  12.228  0.00  0.00    +0.203 C 
ENDROOT
BRANCH   9  22
ATOM     22  C   LIG    1       26.249 -28.790  11.559  0.00  0.00    -0.018 C 
ATOM     23  C   LIG    1       25.151 -28.127  12.141  0.00  0.00    +0.055 C 
ATOM     24  C   LIG    1       25.392 -27.251  13.176  0.00  0.00    +0.167 C 
ATOM     25  O   LIG    1       24.445 -26.550  13.856  0.00  0.00    -0.453 OA
ATOM     26  C   LIG    1       25.267 -25.828  14.797  0.00  0.00    +0.466 C 
ATOM     27  O   LIG    1       26.675 -26.120  14.672  0.00  0.00    -0.453 OA
ATOM     28  C   LIG    1       26.661 -27.009  13.642  0.00  0.00    +0.166 C 
ATOM     29  C   LIG    1       27.764 -27.632  13.100  0.00  0.00    +0.050 C 
ATOM     30  C   LIG    1       27.553 -28.534  12.052  0.00  0.00    +0.010 C 
ENDBRANCH   9  22
TORSDOF 1
ENDMDL
MODEL 3
REMARK VINA RESULT:      -6.4      2.923      4.298
REMARK  Name = *****
REMARK                            x       y       z     vdW  Elec       q    Type
REMARK                         _______ _______ _______ _____ _____    ______ ____
ROOT
ATOM      1  C   LIG    1       27.388 -25.227  13.368  0.00  0.00    +0.132 C 
ATOM      2  N   LIG    1       26.348 -26.218  13.578  0.00  0.00    -0.294 N 
ATOM      3  C   LIG    1       25.030 -25.772  13.637  0.00  0.00    +0.237 C 
ATOM      4  O   LIG    1       24.746 -24.574  13.648  0.00  0.00    -0.274 OA
ATOM      5  C   LIG    1       24.000 -26.867  13.997  0.00  0.00    +0.167 C 
ATOM      6  C   LIG    1       22.600 -26.311  13.645  0.00  0.00    +0.069 C 
ATOM      7  C   LIG    1       21.572 -27.361  13.836  0.00  0.00    -0.015 C 
ATOM      8  C   LIG    1       21.914 -28.695  13.837  0.00  0.00    +0.046 C 
ATOM      9  C   LIG    1       23.281 -29.290  13.668  0.00  0.00    +0.154 C 
ATOM     10  N   LIG    1       20.764 -29.420  14.007  0.00  0.00    -0.356 NA
ATOM     11  H   LIG    1       20.702 -30.430  14.017  0.00  0.00    +0.166 HD
ATOM     12  C   LIG    1       19.681 -28.573  14.105  0.00  0.00    +0.047 C 
ATOM     13  C   LIG    1       18.321 -28.863  14.262  0.00  0.00    +0.026 C 
ATOM     14  C   LIG    1       17.432 -27.787  14.327  0.00  0.00    +0.002 C 
ATOM     15  C   LIG    1       17.887 -26.473  14.238  0.00  0.00    +0.001 C 
ATOM     16  C   LIG    1       19.251 -26.199  14.077  0.00  0.00    +0.010 C 
ATOM     17  C   LIG    1       20.166 -27.266  14.007  0.00  0.00    +0.003 C 
ATOM     18  N   LIG    1       24.273 -28.214  13.423  0.00  0.00    -0.276 N 
ATOM     19  C   LIG    1       25.614 -28.624  13.461  0.00  0.00    +0.234 C 
ATOM     20  O   LIG    1       25.974 -29.792  13.595  0.00  0.00    -0.274 OA
ATOM     21  C   LIG    1       26.601 -27.541  13.032  0.00  0.00    +0.203 C 
ENDROOT
BRANCH   9  22
ATOM     22  C   LIG    1       23.261 -30.334  12.554  0.00  0.00    -0.018 C 
ATOM     23  C   LIG    1       23.229 -29.913  11.210  0.00  0.00    +0.055 C 
ATOM     24  C   LIG    1       23.276 -30.875  10.224  0.00  0.00    +0.167 C 
ATOM     25  O   LIG    1       23.274 -30.635   8.885  0.00  0.00    -0.453 OA
ATOM     26  C   LIG    1       23.339 -31.982   8.371  0.00  0.00    +0.466 C 
ATOM     27  O   LIG    1       23.391 -32.989   9.402  0.00  0.00    -0.453 OA
ATOM     28  C   LIG    1       23.346 -32.214  10.520  0.00  0.00    +0.166 C 
ATOM     29  C   LIG    1       23.375 -32.671  11.819  0.00  0.00    +0.050 C 
ATOM     30  C   LIG    1       23.336 -31.719  12.844  0.00  0.00    +0.010 C 
ENDBRANCH   9  22
TORSDOF 1
ENDMDL
MODEL 4
REMARK VINA RESULT:      -6.4      3.227      8.269
REMARK  Name = *****
REMARK                            x       y       z     vdW  Elec       q    Type
REMARK                         _______ _______ _______ _____ _____    ______ ____
ROOT
ATOM      1  C   LIG    1       23.557 -32.587   9.659  0.00  0.00    +0.132 C 
ATOM      2  N   LIG    1       23.405 -31.679  10.783  0.00  0.00    -0.294 N 
ATOM      3  C   LIG    1       24.358 -30.676  10.939  0.00  0.00    +0.237 C 
ATOM      4  O   LIG    1       25.372 -30.624  10.242  0.00  0.00    -0.274 OA
ATOM      5  C   LIG    1       24.203 -29.840  12.229  0.00  0.00    +0.167 C 
ATOM      6  C   LIG    1       25.065 -28.567  12.058  0.00  0.00    +0.069 C 
ATOM      7  C   LIG    1       24.855 -27.651  13.202  0.00  0.00    -0.015 C 
ATOM      8  C   LIG    1       23.722 -27.736  13.979  0.00  0.00    +0.046 C 
ATOM      9  C   LIG    1       22.580 -28.700  13.831  0.00  0.00    +0.154 C 
ATOM     10  N   LIG    1       23.795 -26.755  14.933  0.00  0.00    -0.356 NA
ATOM     11  H   LIG    1       23.086 -26.556  15.627  0.00  0.00    +0.166 HD
ATOM     12  C   LIG    1       24.956 -26.030  14.776  0.00  0.00    +0.047 C 
ATOM     13  C   LIG    1       25.437 -24.932  15.500  0.00  0.00    +0.026 C 
ATOM     14  C   LIG    1       26.662 -24.386  15.109  0.00  0.00    +0.002 C 
ATOM     15  C   LIG    1       27.377 -24.917  14.038  0.00  0.00    +0.001 C 
ATOM     16  C   LIG    1       26.881 -26.013  13.322  0.00  0.00    +0.010 C 
ATOM     17  C   LIG    1       25.648 -26.581  13.694  0.00  0.00    +0.003 C 
ATOM     18  N   LIG    1       22.799 -29.562  12.644  0.00  0.00    -0.276 N 
ATOM     19  C   LIG    1       21.911 -30.640  12.523  0.00  0.00    +0.234 C 
ATOM     20  O   LIG    1       20.957 -30.836  13.274  0.00  0.00    -0.274 OA
ATOM     21  C   LIG    1       22.043 -31.402  11.206  0.00  0.00    +0.203 C 
ENDROOT
BRANCH   9  22
ATOM     22  C   LIG    1       21.259 -27.937  13.768  0.00  0.00    -0.018 C 
ATOM     23  C   LIG    1       20.244 -28.229  14.700  0.00  0.00    +0.055 C 
ATOM     24  C   LIG    1       19.088 -27.482  14.661  0.00  0.00    +0.167 C 
ATOM     25  O   LIG    1       18.026 -27.623  15.499  0.00  0.00    -0.453 OA
ATOM     26  C   LIG    1       17.146 -26.597  14.994  0.00  0.00    +0.466 C 
ATOM     27  O   LIG    1       17.698 -25.861  13.883  0.00  0.00    -0.453 OA
ATOM     28  C   LIG    1       18.903 -26.477  13.743  0.00  0.00    +0.166 C 
ATOM     29  C   LIG    1       19.867 -26.160  12.811  0.00  0.00    +0.050 C 
ATOM     30  C   LIG    1       21.056 -26.895  12.828  0.00  0.00    +0.010 C 
ENDBRANCH   9  22
TORSDOF 1
ENDMDL
MODEL 5
REMARK VINA RESULT:      -6.3      2.873      6.275
REMARK  Name = *****
REMARK                            x       y       z     vdW  Elec       q    Type
REMARK                         _______ _______ _______ _____ _____    ______ ____
ROOT
ATOM      1  C   LIG    1       24.279 -33.583   7.474  0.00  0.00    +0.132 C 
ATOM      2  N   LIG    1       24.583 -32.476   8.364  0.00  0.00    -0.294 N 
ATOM      3  C   LIG    1       23.525 -31.895   9.059  0.00  0.00    +0.237 C 
ATOM      4  O   LIG    1       22.352 -32.202   8.840  0.00  0.00    -0.274 OA
ATOM      5  C   LIG    1       23.909 -30.642   9.878  0.00  0.00    +0.167 C 
ATOM      6  C   LIG    1       22.748 -30.366  10.864  0.00  0.00    +0.069 C 
ATOM      7  C   LIG    1       23.110 -29.258  11.778  0.00  0.00    -0.015 C 
ATOM      8  C   LIG    1       24.426 -28.920  11.996  0.00  0.00    +0.046 C 
ATOM      9  C   LIG    1       25.646 -29.552  11.392  0.00  0.00    +0.154 C 
ATOM     10  N   LIG    1       24.448 -27.888  12.898  0.00  0.00    -0.356 NA
ATOM     11  H   LIG    1       25.281 -27.452  13.272  0.00  0.00    +0.166 HD
ATOM     12  C   LIG    1       23.163 -27.562  13.274  0.00  0.00    +0.047 C 
ATOM     13  C   LIG    1       22.707 -26.597  14.179  0.00  0.00    +0.026 C 
ATOM     14  C   LIG    1       21.327 -26.490  14.371  0.00  0.00    +0.002 C 
ATOM     15  C   LIG    1       20.440 -27.315  13.684  0.00  0.00    +0.001 C 
ATOM     16  C   LIG    1       20.912 -28.279  12.784  0.00  0.00    +0.010 C 
ATOM     17  C   LIG    1       22.298 -28.408  12.575  0.00  0.00    +0.003 C 
ATOM     18  N   LIG    1       25.248 -30.690  10.528  0.00  0.00    -0.276 N 
ATOM     19  C   LIG    1       26.279 -31.226   9.742  0.00  0.00    +0.234 C 
ATOM     20  O   LIG    1       27.453 -30.864   9.804  0.00  0.00    -0.274 OA
ATOM     21  C   LIG    1       25.888 -32.502   9.000  0.00  0.00    +0.203 C 
ENDROOT
BRANCH   9  22
ATOM     22  C   LIG    1       26.620 -29.962  12.494  0.00  0.00    -0.018 C 
ATOM     23  C   LIG    1       27.887 -29.351  12.562  0.00  0.00    +0.055 C 
ATOM     24  C   LIG    1       28.721 -29.694  13.604  0.00  0.00    +0.167 C 
ATOM     25  O   LIG    1       29.962 -29.183  13.824  0.00  0.00    -0.453 OA
ATOM     26  C   LIG    1       30.336 -29.892  15.024  0.00  0.00    +0.466 C 
ATOM     27  O   LIG    1       29.317 -30.795  15.500  0.00  0.00    -0.453 OA
ATOM     28  C   LIG    1       28.351 -30.609  14.559  0.00  0.00    +0.166 C 
ATOM     29  C   LIG    1       27.124 -31.235  14.528  0.00  0.00    +0.050 C 
ATOM     30  C   LIG    1       26.251 -30.903  13.487  0.00  0.00    +0.010 C 
ENDBRANCH   9  22
TORSDOF 1
ENDMDL
MODEL 6
REMARK VINA RESULT:      -6.3      0.877      1.539
REMARK  Name = *****
REMARK                            x       y       z     vdW  Elec       q    Type
REMARK                         _______ _______ _______ _____ _____    ______ ____
ROOT
ATOM      1  C   LIG    1       27.239 -26.973  13.904  0.00  0.00    +0.132 C 
ATOM      2  N   LIG    1       26.594 -28.035  13.154  0.00  0.00    -0.294 N 
ATOM      3  C   LIG    1       25.222 -28.206  13.323  0.00  0.00    +0.237 C 
ATOM      4  O   LIG    1       24.585 -27.580  14.170  0.00  0.00    -0.274 OA
ATOM      5  C   LIG    1       24.636 -29.438  12.596  0.00  0.00    +0.167 C 
ATOM      6  C   LIG    1       23.099 -29.263  12.563  0.00  0.00    +0.069 C 
ATOM      7  C   LIG    1       22.481 -30.342  11.758  0.00  0.00    -0.015 C 
ATOM      8  C   LIG    1       23.215 -31.041  10.827  0.00  0.00    +0.046 C 
ATOM      9  C   LIG    1       24.665 -30.863  10.483  0.00  0.00    +0.154 C 
ATOM     10  N   LIG    1       22.378 -31.947  10.230  0.00  0.00    -0.356 NA
ATOM     11  H   LIG    1       22.633 -32.579   9.482  0.00  0.00    +0.166 HD
ATOM     12  C   LIG    1       21.109 -31.835  10.756  0.00  0.00    +0.047 C 
ATOM     13  C   LIG    1       19.938 -32.534  10.439  0.00  0.00    +0.026 C 
ATOM     14  C   LIG    1       18.776 -32.202  11.142  0.00  0.00    +0.002 C 
ATOM     15  C   LIG    1       18.787 -31.212  12.122  0.00  0.00    +0.001 C 
ATOM     16  C   LIG    1       19.966 -30.519  12.425  0.00  0.00    +0.010 C 
ATOM     17  C   LIG    1       21.149 -30.833  11.729  0.00  0.00    +0.003 C 
ATOM     18  N   LIG    1       25.235 -29.739  11.266  0.00  0.00    -0.276 N 
ATOM     19  C   LIG    1       26.630 -29.612  11.191  0.00  0.00    +0.234 C 
ATOM     20  O   LIG    1       27.348 -30.303  10.471  0.00  0.00    -0.274 OA
ATOM     21  C   LIG    1       27.169 -28.348  11.857  0.00  0.00    +0.203 C 
ENDROOT
BRANCH   9  22
ATOM     22  C   LIG    1       24.823 -30.669   8.976  0.00  0.00    -0.018 C 
ATOM     23  C   LIG    1       24.456 -29.441   8.393  0.00  0.00    +0.055 C 
ATOM     24  C   LIG    1       24.668 -29.270   7.043  0.00  0.00    +0.167 C 
ATOM     25  O   LIG    1       24.389 -28.143   6.335  0.00  0.00    -0.453 OA
ATOM     26  C   LIG    1       24.815 -28.542   5.015  0.00  0.00    +0.466 C 
ATOM     27  O   LIG    1       25.348 -29.882   4.963  0.00  0.00    -0.453 OA
ATOM     28  C   LIG    1       25.217 -30.260   6.264  0.00  0.00    +0.166 C 
ATOM     29  C   LIG    1       25.587 -31.477   6.791  0.00  0.00    +0.050 C 
ATOM     30  C   LIG    1       25.391 -31.680   8.161  0.00  0.00    +0.010 C 
ENDBRANCH   9  22
TORSDOF 1
ENDMDL
MODEL 7
REMARK VINA RESULT:      -6.3      3.170      7.388
REMARK  Name = *****
REMARK                            x       y       z     vdW  Elec       q    Type
REMARK                         _______ _______ _______ _____ _____    ______ ____
ROOT
ATOM      1  C   LIG    1       23.816 -33.825   6.476  0.00  0.00    +0.132 C 
ATOM      2  N   LIG    1       24.536 -32.630   6.879  0.00  0.00    -0.294 N 
ATOM      3  C   LIG    1       24.146 -31.418   6.317  0.00  0.00    +0.237 C 
ATOM      4  O   LIG    1       23.314 -31.355   5.411  0.00  0.00    -0.274 OA
ATOM      5  C   LIG    1       25.046 -30.219   6.692  0.00  0.00    +0.167 C 
ATOM      6  C   LIG    1       24.273 -28.931   6.321  0.00  0.00    +0.069 C 
ATOM      7  C   LIG    1       25.020 -27.737   6.780  0.00  0.00    -0.015 C 
ATOM      8  C   LIG    1       25.958 -27.832   7.783  0.00  0.00    +0.046 C 
ATOM      9  C   LIG    1       26.375 -29.063   8.535  0.00  0.00    +0.154 C 
ATOM     10  N   LIG    1       26.458 -26.576   8.007  0.00  0.00    -0.356 NA
ATOM     11  H   LIG    1       27.143 -26.332   8.711  0.00  0.00    +0.166 HD
ATOM     12  C   LIG    1       25.847 -25.669   7.168  0.00  0.00    +0.047 C 
ATOM     13  C   LIG    1       26.023 -24.284   7.058  0.00  0.00    +0.026 C 
ATOM     14  C   LIG    1       25.252 -23.607   6.108  0.00  0.00    +0.002 C 
ATOM     15  C   LIG    1       24.344 -24.289   5.302  0.00  0.00    +0.001 C 
ATOM     16  C   LIG    1       24.177 -25.674   5.427  0.00  0.00    +0.010 C 
ATOM     17  C   LIG    1       24.940 -26.378   6.377  0.00  0.00    +0.003 C 
ATOM     18  N   LIG    1       25.567 -30.224   8.088  0.00  0.00    -0.276 N 
ATOM     19  C   LIG    1       26.006 -31.469   8.562  0.00  0.00    +0.234 C 
ATOM     20  O   LIG    1       26.930 -31.616   9.359  0.00  0.00    -0.274 OA
ATOM     21  C   LIG    1       25.059 -32.621   8.234  0.00  0.00    +0.203 C 
ENDROOT
BRANCH   9  22
ATOM     22  C   LIG    1       26.267 -28.816  10.038  0.00  0.00    -0.018 C 
ATOM     23  C   LIG    1       25.030 -29.004  10.684  0.00  0.00    +0.055 C 
ATOM     24  C   LIG    1       24.975 -28.837  12.051  0.00  0.00    +0.167 C 
ATOM     25  O   LIG    1       23.868 -28.999  12.824  0.00  0.00    -0.453 OA
ATOM     26  C   LIG    1       24.407 -28.703  14.130  0.00  0.00    +0.466 C 
ATOM     27  O   LIG    1       25.814 -28.386  14.114  0.00  0.00    -0.453 OA
ATOM     28  C   LIG    1       26.084 -28.491  12.784  0.00  0.00    +0.166 C 
ATOM     29  C   LIG    1       27.313 -28.293  12.194  0.00  0.00    +0.050 C 
ATOM     30  C   LIG    1       27.403 -28.462  10.808  0.00  0.00    +0.010 C 
ENDBRANCH   9  22
TORSDOF 1
ENDMDL
MODEL 8
REMARK VINA RESULT:      -6.3      8.251     11.283
REMARK  Name = *****
REMARK                            x       y       z     vdW  Elec       q    Type
REMARK                         _______ _______ _______ _____ _____    ______ ____
ROOT
ATOM      1  C   LIG    1       24.477 -27.713   6.052  0.00  0.00    +0.132 C 
ATOM      2  N   LIG    1       24.568 -26.308   6.406  0.00  0.00    -0.294 N 
ATOM      3  C   LIG    1       25.836 -25.775   6.624  0.00  0.00    +0.237 C 
ATOM      4  O   LIG    1       26.845 -26.481   6.653  0.00  0.00    -0.274 OA
ATOM      5  C   LIG    1       25.839 -24.314   7.126  0.00  0.00    +0.167 C 
ATOM      6  C   LIG    1       27.276 -23.770   6.945  0.00  0.00    +0.069 C 
ATOM      7  C   LIG    1       27.321 -22.327   7.279  0.00  0.00    -0.015 C 
ATOM      8  C   LIG    1       26.179 -21.559   7.255  0.00  0.00    +0.046 C 
ATOM      9  C   LIG    1       24.783 -22.002   6.924  0.00  0.00    +0.154 C 
ATOM     10  N   LIG    1       26.532 -20.275   7.579  0.00  0.00    -0.356 NA
ATOM     11  H   LIG    1       25.904 -19.483   7.611  0.00  0.00    +0.166 HD
ATOM     12  C   LIG    1       27.891 -20.201   7.800  0.00  0.00    +0.047 C 
ATOM     13  C   LIG    1       28.691 -19.101   8.132  0.00  0.00    +0.026 C 
ATOM     14  C   LIG    1       30.061 -19.323   8.292  0.00  0.00    +0.002 C 
ATOM     15  C   LIG    1       30.608 -20.593   8.129  0.00  0.00    +0.001 C 
ATOM     16  C   LIG    1       29.795 -21.683   7.794  0.00  0.00    +0.010 C 
ATOM     17  C   LIG    1       28.411 -21.486   7.624  0.00  0.00    +0.003 C 
ATOM     18  N   LIG    1       24.788 -23.436   6.542  0.00  0.00    -0.276 N 
ATOM     19  C   LIG    1       23.518 -24.019   6.416  0.00  0.00    +0.234 C 
ATOM     20  O   LIG    1       22.461 -23.399   6.520  0.00  0.00    -0.274 OA
ATOM     21  C   LIG    1       23.546 -25.438   5.851  0.00  0.00    +0.203 C 
ENDROOT
BRANCH   9  22
ATOM     22  C   LIG    1       24.197 -21.106   5.836  0.00  0.00    -0.018 C 
ATOM     23  C   LIG    1       23.214 -20.156   6.176  0.00  0.00    +0.055 C 
ATOM     24  C   LIG    1       22.748 -19.317   5.187  0.00  0.00    +0.167 C 
ATOM     25  O   LIG    1       21.819 -18.338   5.354  0.00  0.00    -0.453 OA
ATOM     26  C   LIG    1       21.742 -17.809   4.014  0.00  0.00    +0.466 C 
ATOM     27  O   LIG    1       22.627 -18.467   3.084  0.00  0.00    -0.453 OA
ATOM     28  C   LIG    1       23.211 -19.390   3.896  0.00  0.00    +0.166 C 
ATOM     29  C   LIG    1       24.169 -20.305   3.519  0.00  0.00    +0.050 C 
ATOM     30  C   LIG    1       24.668 -21.167   4.501  0.00  0.00    +0.010 C 
ENDBRANCH   9  22
TORSDOF 1
ENDMDL
MODEL 9
REMARK VINA RESULT:      -6.1      3.187      5.582
REMARK  Name = *****
REMARK                            x       y       z     vdW  Elec       q    Type
REMARK                         _______ _______ _______ _____ _____    ______ ____
ROOT
ATOM      1  C   LIG    1       26.031 -32.127  12.410  0.00  0.00    +0.132 C 
ATOM      2  N   LIG    1       25.438 -31.626  11.182  0.00  0.00    -0.294 N 
ATOM      3  C   LIG    1       25.825 -30.362  10.744  0.00  0.00    +0.237 C 
ATOM      4  O   LIG    1       26.538 -29.625  11.425  0.00  0.00    -0.274 OA
ATOM      5  C   LIG    1       25.052 -29.848   9.509  0.00  0.00    +0.167 C 
ATOM      6  C   LIG    1       25.846 -28.650   8.937  0.00  0.00    +0.069 C 
ATOM      7  C   LIG    1       25.235 -28.192   7.668  0.00  0.00    -0.015 C 
ATOM      8  C   LIG    1       24.428 -29.027   6.929  0.00  0.00    +0.046 C 
ATOM      9  C   LIG    1       24.037 -30.441   7.247  0.00  0.00    +0.154 C 
ATOM     10  N   LIG    1       24.034 -28.344   5.808  0.00  0.00    -0.356 NA
ATOM     11  H   LIG    1       23.460 -28.717   5.064  0.00  0.00    +0.166 HD
ATOM     12  C   LIG    1       24.587 -27.081   5.808  0.00  0.00    +0.047 C 
ATOM     13  C   LIG    1       24.480 -26.052   4.864  0.00  0.00    +0.026 C 
ATOM     14  C   LIG    1       25.163 -24.861   5.126  0.00  0.00    +0.002 C 
ATOM     15  C   LIG    1       25.921 -24.707   6.285  0.00  0.00    +0.001 C 
ATOM     16  C   LIG    1       26.020 -25.747   7.217  0.00  0.00    +0.010 C 
ATOM     17  C   LIG    1       25.343 -26.957   6.976  0.00  0.00    +0.003 C 
ATOM     18  N   LIG    1       24.712 -30.882   8.492  0.00  0.00    -0.276 N 
ATOM     19  C   LIG    1       24.264 -32.108   9.007  0.00  0.00    +0.234 C 
ATOM     20  O   LIG    1       23.441 -32.831   8.448  0.00  0.00    -0.274 OA
ATOM     21  C   LIG    1       25.093 -32.622  10.182  0.00  0.00    +0.203 C 
ENDROOT
BRANCH   9  22
ATOM     22  C   LIG    1       24.349 -31.347   6.058  0.00  0.00    -0.018 C 
ATOM     23  C   LIG    1       25.592 -31.233   5.406  0.00  0.00    +0.055 C 
ATOM     24  C   LIG    1       25.872 -32.105   4.377  0.00  0.00    +0.167 C 
ATOM     25  O   LIG    1       27.028 -32.140   3.662  0.00  0.00    -0.453 OA
ATOM     26  C   LIG    1       26.751 -33.228   2.755  0.00  0.00    +0.466 C 
ATOM     27  O   LIG    1       25.453 -33.825   2.953  0.00  0.00    -0.453 OA
ATOM     28  C   LIG    1       24.975 -33.066   3.976  0.00  0.00    +0.166 C 
ATOM     29  C   LIG    1       23.747 -33.211   4.582  0.00  0.00    +0.050 C 
ATOM     30  C   LIG    1       23.435 -32.345   5.635  0.00  0.00    +0.010 C 
ENDBRANCH   9  22
TORSDOF 1
ENDMDL
