MODEL 1
REMARK VINA RESULT:       4.5      0.000      0.000
REMARK  Name = *****
REMARK                            x       y       z     vdW  Elec       q    Type
REMARK                         _______ _______ _______ _____ _____    ______ ____
ROOT
ATOM      1  C   LIG    1       25.314 -15.455   3.800  0.00  0.00    +0.105 C 
ATOM      2  C   LIG    1       25.611 -16.836   3.709  0.00  0.00    +0.171 C 
ATOM      3  F   LIG    1       26.847 -17.186   3.307  0.00  0.00    -0.201 F 
ATOM      4  C   LIG    1       24.679 -17.856   4.028  0.00  0.00    +0.092 C 
ATOM      5  C   LIG    1       23.370 -17.466   4.385  0.00  0.00    +0.072 C 
ATOM      6  C   LIG    1       22.344 -18.527   4.637  0.00  0.00    +0.205 C 
ATOM      7  C   LIG    1       22.731 -19.945   4.494  0.00  0.00    +0.122 C 
ATOM      8  C   LIG    1       24.012 -20.193   4.197  0.00  0.00    +0.105 C 
ATOM      9  O   LIG    1       21.178 -18.263   4.929  0.00  0.00    -0.286 OA
ATOM     10  C   LIG    1       23.020 -16.106   4.479  0.00  0.00    +0.075 C 
ATOM     11  N   LIG    1       25.006 -19.250   4.019  0.00  0.00    -0.340 NA
ATOM     12  C   LIG    1       24.012 -15.137   4.220  0.00  0.00    +0.168 C 
ATOM     13  F   LIG    1       23.644 -13.849   4.350  0.00  0.00    -0.202 F 
ENDROOT
BRANCH   1  21
ATOM     14  C   LIG    1       26.531 -11.484   2.510  0.00  0.00    +0.025 C 
ATOM     15  C   LIG    1       27.346 -12.716   2.111  0.00  0.00    +0.068 C 
ATOM     16  N   LIG    1       28.627 -12.805   2.852  0.00  0.00    -0.308 NA
ATOM     17  H   LIG    1       29.259 -13.377   2.290  0.00  0.00    +0.122 HD
ATOM     18  C   LIG    1       28.500 -13.468   4.174  0.00  0.00    +0.068 C 
ATOM     19  C   LIG    1       28.065 -12.482   5.261  0.00  0.00    +0.025 C 
ATOM     20  C   LIG    1       27.619 -14.751   4.184  0.00  0.00    +0.123 C 
ATOM     21  N   LIG    1       26.312 -14.491   3.538  0.00  0.00    -0.322 NA
ATOM     22  C   LIG    1       26.474 -14.003   2.151  0.00  0.00    +0.123 C 
ENDBRANCH   1  21
BRANCH  10  23
ATOM     23  N   LIG    1       21.802 -15.679   5.050  0.00  0.00    -0.355 NA
ATOM     24  H   LIG    1       20.980 -15.883   4.474  0.00  0.00    +0.142 HD
ATOM     25  H   LIG    1       21.824 -14.729   5.413  0.00  0.00    +0.142 HD
ENDBRANCH  10  23
BRANCH  11  26
ATOM     26  C   LIG    1       26.407 -19.710   4.144  0.00  0.00    +0.088 C 
ATOM     27  C   LIG    1       27.257 -19.279   5.318  0.00  0.00    +0.027 C 
ATOM     28  C   LIG    1       26.848 -20.711   5.192  0.00  0.00    +0.027 C 
ENDBRANCH  11  26
BRANCH   7  29
ATOM     29  C   LIG    1       21.813 -21.081   4.704  0.00  0.00    +0.342 C 
ATOM     30  O   LIG    1       21.130 -21.571   3.809  0.00  0.00    -0.245 OA
BRANCH  29  31
ATOM     31  O   LIG    1       21.804 -21.571   5.961  0.00  0.00    -0.477 OA
ATOM     32  H   LIG    1       22.367 -22.375   6.080  0.00  0.00    +0.295 HD
ENDBRANCH  29  31
ENDBRANCH   7  29
TORSDOF 5
ENDMDL
MODEL 2
REMARK VINA RESULT:       5.5      3.737      7.761
REMARK  Name = *****
REMARK                            x       y       z     vdW  Elec       q    Type
REMARK                         _______ _______ _______ _____ _____    ______ ____
ROOT
ATOM      1  C   LIG    1       25.519 -18.151   4.151  0.00  0.00    +0.105 C 
ATOM      2  C   LIG    1       25.082 -16.835   3.864  0.00  0.00    +0.171 C 
ATOM      3  F   LIG    1       23.778 -16.655   3.583  0.00  0.00    -0.201 F 
ATOM      4  C   LIG    1       25.945 -15.710   3.871  0.00  0.00    +0.092 C 
ATOM      5  C   LIG    1       27.319 -15.932   4.106  0.00  0.00    +0.072 C 
ATOM      6  C   LIG    1       28.262 -14.772   4.026  0.00  0.00    +0.205 C 
ATOM      7  C   LIG    1       27.726 -13.436   3.695  0.00  0.00    +0.122 C 
ATOM      8  C   LIG    1       26.401 -13.339   3.539  0.00  0.00    +0.105 C 
ATOM      9  O   LIG    1       29.475 -14.893   4.196  0.00  0.00    -0.286 OA
ATOM     10  C   LIG    1       27.806 -17.222   4.384  0.00  0.00    +0.075 C 
ATOM     11  N   LIG    1       25.488 -14.368   3.666  0.00  0.00    -0.340 NA
ATOM     12  C   LIG    1       26.887 -18.291   4.436  0.00  0.00    +0.168 C 
ATOM     13  F   LIG    1       27.389 -19.504   4.735  0.00  0.00    -0.202 F 
ENDROOT
BRANCH   1  21
ATOM     14  C   LIG    1       23.202 -21.086   6.371  0.00  0.00    +0.025 C 
ATOM     15  C   LIG    1       23.844 -21.453   5.031  0.00  0.00    +0.068 C 
ATOM     16  N   LIG    1       22.843 -21.571   3.943  0.00  0.00    -0.308 NA
ATOM     17  H   LIG    1       23.252 -22.171   3.225  0.00  0.00    +0.122 HD
ATOM     18  C   LIG    1       22.519 -20.275   3.295  0.00  0.00    +0.068 C 
ATOM     19  C   LIG    1       21.436 -19.515   4.063  0.00  0.00    +0.025 C 
ATOM     20  C   LIG    1       23.747 -19.366   2.994  0.00  0.00    +0.123 C 
ATOM     21  N   LIG    1       24.593 -19.216   4.200  0.00  0.00    -0.322 NA
ATOM     22  C   LIG    1       25.051 -20.525   4.715  0.00  0.00    +0.123 C 
ENDBRANCH   1  21
BRANCH  10  23
ATOM     23  N   LIG    1       29.120 -17.449   4.847  0.00  0.00    -0.355 NA
ATOM     24  H   LIG    1       29.277 -18.396   5.204  0.00  0.00    +0.142 HD
ATOM     25  H   LIG    1       29.479 -16.716   5.454  0.00  0.00    +0.142 HD
ENDBRANCH  10  23
BRANCH  11  26
ATOM     26  C   LIG    1       24.074 -13.995   3.902  0.00  0.00    +0.088 C 
ATOM     27  C   LIG    1       23.723 -12.872   4.850  0.00  0.00    +0.027 C 
ATOM     28  C   LIG    1       23.474 -12.703   3.386  0.00  0.00    +0.027 C 
ENDBRANCH  11  26
BRANCH   7  29
ATOM     29  C   LIG    1       28.551 -12.217   3.577  0.00  0.00    +0.342 C 
ATOM     30  O   LIG    1       28.599 -11.531   2.560  0.00  0.00    -0.245 OA
BRANCH  29  31
ATOM     31  O   LIG    1       29.231 -11.888   4.695  0.00  0.00    -0.477 OA
ATOM     32  H   LIG    1       30.187 -12.136   4.668  0.00  0.00    +0.295 HD
ENDBRANCH  29  31
ENDBRANCH   7  29
TORSDOF 5
ENDMDL
