MODEL 1
REMARK VINA RESULT:      -3.0      0.000      0.000
REMARK  Name = *****
REMARK                            x       y       z     vdW  Elec       q    Type
REMARK                         _______ _______ _______ _____ _____    ______ ____
ROOT
ATOM      1  C   LIG    1       23.765 -17.586   4.268  0.00  0.00    +0.080 C 
ATOM      2  C   LIG    1       25.046 -16.947   3.704  0.00  0.00    +0.170 C 
ATOM      3  O   LIG    1       25.930 -17.619   3.180  0.00  0.00    -0.292 OA
ATOM      4  C   LIG    1       25.169 -15.507   3.898  0.00  0.00    +0.046 C 
ATOM      5  C   LIG    1       26.271 -14.629   3.714  0.00  0.00    +0.011 C 
ATOM      6  C   LIG    1       25.836 -13.339   4.051  0.00  0.00    +0.050 C 
ATOM      7  N   LIG    1       24.508 -13.440   4.422  0.00  0.00    -0.346 NA
ATOM      8  C   LIG    1       23.658 -12.342   4.835  0.00  0.00    +0.149 C 
ATOM      9  C   LIG    1       26.700 -12.231   3.982  0.00  0.00    +0.026 C 
ATOM     10  C   LIG    1       28.021 -12.443   3.577  0.00  0.00    +0.002 C 
ATOM     11  C   LIG    1       28.473 -13.714   3.245  0.00  0.00    +0.001 C 
ATOM     12  C   LIG    1       27.609 -14.812   3.307  0.00  0.00    +0.010 C 
ATOM     13  C   LIG    1       24.102 -14.749   4.341  0.00  0.00    +0.030 C 
ATOM     14  C   LIG    1       22.751 -15.265   4.689  0.00  0.00    +0.055 C 
ATOM     15  C   LIG    1       22.552 -16.648   4.050  0.00  0.00    +0.019 C 
ENDROOT
BRANCH   1  16
ATOM     16  C   LIG    1       23.565 -18.966   3.625  0.00  0.00    +0.134 C 
BRANCH  16  19
ATOM     17  C   LIG    1       25.965 -20.359   5.000  0.00  0.00    +0.086 C 
ATOM     18  C   LIG    1       24.533 -20.666   5.239  0.00  0.00    +0.106 A 
ATOM     19  N   LIG    1       23.486 -20.047   4.592  0.00  0.00    -0.334 N 
ATOM     20  C   LIG    1       22.328 -20.645   5.009  0.00  0.00    +0.107 A 
ATOM     21  C   LIG    1       22.717 -21.569   5.948  0.00  0.00    +0.130 A 
ATOM     22  N   LIG    1       24.079 -21.572   6.085  0.00  0.00    -0.241 NA
ENDBRANCH  16  19
ENDBRANCH   1  16
TORSDOF 2
ENDMDL
MODEL 2
REMARK VINA RESULT:      -2.5      2.108      6.515
REMARK  Name = *****
REMARK                            x       y       z     vdW  Elec       q    Type
REMARK                         _______ _______ _______ _____ _____    ______ ____
ROOT
ATOM      1  C   LIG    1       26.505 -16.529   3.011  0.00  0.00    +0.080 C 
ATOM      2  C   LIG    1       27.438 -17.087   4.100  0.00  0.00    +0.170 C 
ATOM      3  O   LIG    1       28.464 -16.504   4.438  0.00  0.00    -0.292 OA
ATOM      4  C   LIG    1       27.059 -18.384   4.649  0.00  0.00    +0.046 C 
ATOM      5  C   LIG    1       27.766 -19.288   5.487  0.00  0.00    +0.011 C 
ATOM      6  C   LIG    1       26.929 -20.391   5.709  0.00  0.00    +0.050 C 
ATOM      7  N   LIG    1       25.749 -20.152   5.027  0.00  0.00    -0.346 NA
ATOM      8  C   LIG    1       24.598 -21.030   4.994  0.00  0.00    +0.149 C 
ATOM      9  C   LIG    1       27.340 -21.477   6.502  0.00  0.00    +0.026 C 
ATOM     10  C   LIG    1       28.620 -21.444   7.062  0.00  0.00    +0.002 C 
ATOM     11  C   LIG    1       29.467 -20.363   6.848  0.00  0.00    +0.001 C 
ATOM     12  C   LIG    1       29.051 -19.281   6.067  0.00  0.00    +0.010 C 
ATOM     13  C   LIG    1       25.826 -18.946   4.376  0.00  0.00    +0.030 C 
ATOM     14  C   LIG    1       24.770 -18.354   3.511  0.00  0.00    +0.055 C 
ATOM     15  C   LIG    1       25.028 -16.848   3.348  0.00  0.00    +0.019 C 
ENDROOT
BRANCH   1  16
ATOM     16  C   LIG    1       26.761 -15.024   2.852  0.00  0.00    +0.134 C 
BRANCH  16  19
ATOM     17  C   LIG    1       26.912 -13.651   5.624  0.00  0.00    +0.086 C 
ATOM     18  C   LIG    1       25.780 -13.552   4.669  0.00  0.00    +0.106 A 
ATOM     19  N   LIG    1       25.730 -14.196   3.453  0.00  0.00    -0.334 N 
ATOM     20  C   LIG    1       24.508 -13.934   2.895  0.00  0.00    +0.107 A 
ATOM     21  C   LIG    1       23.885 -13.083   3.774  0.00  0.00    +0.130 A 
ATOM     22  N   LIG    1       24.679 -12.851   4.864  0.00  0.00    -0.241 NA
ENDBRANCH  16  19
ENDBRANCH   1  16
TORSDOF 2
ENDMDL
MODEL 3
REMARK VINA RESULT:      -1.9      1.531      3.149
REMARK  Name = *****
REMARK                            x       y       z     vdW  Elec       q    Type
REMARK                         _______ _______ _______ _____ _____    ______ ____
ROOT
ATOM      1  C   LIG    1       25.702 -18.656   3.293  0.00  0.00    +0.080 C 
ATOM      2  C   LIG    1       24.732 -17.500   3.594  0.00  0.00    +0.170 C 
ATOM      3  O   LIG    1       23.518 -17.671   3.660  0.00  0.00    -0.292 OA
ATOM      4  C   LIG    1       25.344 -16.183   3.724  0.00  0.00    +0.046 C 
ATOM      5  C   LIG    1       24.768 -14.886   3.784  0.00  0.00    +0.011 C 
ATOM      6  C   LIG    1       25.821 -13.968   3.909  0.00  0.00    +0.050 C 
ATOM      7  N   LIG    1       26.997 -14.696   3.929  0.00  0.00    -0.346 NA
ATOM      8  C   LIG    1       28.330 -14.147   4.058  0.00  0.00    +0.149 C 
ATOM      9  C   LIG    1       25.584 -12.584   3.986  0.00  0.00    +0.026 C 
ATOM     10  C   LIG    1       24.263 -12.131   3.924  0.00  0.00    +0.002 C 
ATOM     11  C   LIG    1       23.206 -13.024   3.794  0.00  0.00    +0.001 C 
ATOM     12  C   LIG    1       23.445 -14.400   3.726  0.00  0.00    +0.010 C 
ATOM     13  C   LIG    1       26.715 -16.034   3.808  0.00  0.00    +0.030 C 
ATOM     14  C   LIG    1       27.717 -17.133   3.756  0.00  0.00    +0.055 C 
ATOM     15  C   LIG    1       27.026 -18.469   4.074  0.00  0.00    +0.019 C 
ENDROOT
BRANCH   1  16
ATOM     16  C   LIG    1       25.012 -19.989   3.615  0.00  0.00    +0.134 C 
BRANCH  16  19
ATOM     17  C   LIG    1       22.513 -20.374   5.404  0.00  0.00    +0.086 C 
ATOM     18  C   LIG    1       23.923 -20.518   5.844  0.00  0.00    +0.106 A 
ATOM     19  N   LIG    1       25.016 -20.315   5.031  0.00  0.00    -0.334 N 
ATOM     20  C   LIG    1       26.138 -20.457   5.801  0.00  0.00    +0.107 A 
ATOM     21  C   LIG    1       25.679 -20.807   7.047  0.00  0.00    +0.130 A 
ATOM     22  N   LIG    1       24.311 -20.845   7.062  0.00  0.00    -0.241 NA
ENDBRANCH  16  19
ENDBRANCH   1  16
TORSDOF 2
ENDMDL
MODEL 4
REMARK VINA RESULT:      -0.3      2.029      6.992
REMARK  Name = *****
REMARK                            x       y       z     vdW  Elec       q    Type
REMARK                         _______ _______ _______ _____ _____    ______ ____
ROOT
ATOM      1  C   LIG    1       27.226 -15.688   3.972  0.00  0.00    +0.080 C 
ATOM      2  C   LIG    1       26.136 -16.693   3.559  0.00  0.00    +0.170 C 
ATOM      3  O   LIG    1       25.193 -16.370   2.842  0.00  0.00    -0.292 OA
ATOM      4  C   LIG    1       26.260 -18.027   4.134  0.00  0.00    +0.046 C 
ATOM      5  C   LIG    1       25.356 -19.123   4.158  0.00  0.00    +0.011 C 
ATOM      6  C   LIG    1       25.987 -20.168   4.849  0.00  0.00    +0.050 C 
ATOM      7  N   LIG    1       27.238 -19.712   5.225  0.00  0.00    -0.346 NA
ATOM      8  C   LIG    1       28.233 -20.474   5.950  0.00  0.00    +0.149 C 
ATOM      9  C   LIG    1       25.349 -21.404   5.054  0.00  0.00    +0.026 C 
ATOM     10  C   LIG    1       24.051 -21.572   4.562  0.00  0.00    +0.002 C 
ATOM     11  C   LIG    1       23.406 -20.546   3.880  0.00  0.00    +0.001 C 
ATOM     12  C   LIG    1       24.048 -19.322   3.670  0.00  0.00    +0.010 C 
ATOM     13  C   LIG    1       27.405 -18.416   4.804  0.00  0.00    +0.030 C 
ATOM     14  C   LIG    1       28.604 -17.570   5.045  0.00  0.00    +0.055 C 
ATOM     15  C   LIG    1       28.603 -16.390   4.061  0.00  0.00    +0.019 C 
ENDROOT
BRANCH   1  16
ATOM     16  C   LIG    1       27.226 -14.512   2.985  0.00  0.00    +0.134 C 
BRANCH  16  19
ATOM     17  C   LIG    1       26.094 -13.327   5.613  0.00  0.00    +0.086 C 
ATOM     18  C   LIG    1       25.547 -13.096   4.253  0.00  0.00    +0.106 A 
ATOM     19  N   LIG    1       26.057 -13.658   3.104  0.00  0.00    -0.334 N 
ATOM     20  C   LIG    1       25.248 -13.285   2.065  0.00  0.00    +0.107 A 
ATOM     21  C   LIG    1       24.309 -12.451   2.620  0.00  0.00    +0.130 A 
ATOM     22  N   LIG    1       24.504 -12.339   3.970  0.00  0.00    -0.241 NA
ENDBRANCH  16  19
ENDBRANCH   1  16
TORSDOF 2
ENDMDL
MODEL 5
REMARK VINA RESULT:      -0.1      1.717      7.051
REMARK  Name = *****
REMARK                            x       y       z     vdW  Elec       q    Type
REMARK                         _______ _______ _______ _____ _____    ______ ____
ROOT
ATOM      1  C   LIG    1       26.063 -15.248   3.875  0.00  0.00    +0.080 C 
ATOM      2  C   LIG    1       24.700 -15.944   3.713  0.00  0.00    +0.170 C 
ATOM      3  O   LIG    1       23.676 -15.316   3.460  0.00  0.00    -0.292 OA
ATOM      4  C   LIG    1       24.697 -17.382   3.950  0.00  0.00    +0.046 C 
ATOM      5  C   LIG    1       23.625 -18.303   4.102  0.00  0.00    +0.011 C 
ATOM      6  C   LIG    1       24.190 -19.569   4.312  0.00  0.00    +0.050 C 
ATOM      7  N   LIG    1       25.564 -19.413   4.283  0.00  0.00    -0.346 NA
ATOM      8  C   LIG    1       26.540 -20.471   4.445  0.00  0.00    +0.149 C 
ATOM      9  C   LIG    1       23.389 -20.708   4.508  0.00  0.00    +0.026 C 
ATOM     10  C   LIG    1       21.999 -20.552   4.500  0.00  0.00    +0.002 C 
ATOM     11  C   LIG    1       21.420 -19.305   4.299  0.00  0.00    +0.001 C 
ATOM     12  C   LIG    1       22.220 -18.177   4.096  0.00  0.00    +0.010 C 
ATOM     13  C   LIG    1       25.876 -18.092   4.074  0.00  0.00    +0.030 C 
ATOM     14  C   LIG    1       27.248 -17.521   4.012  0.00  0.00    +0.055 C 
ATOM     15  C   LIG    1       27.198 -16.146   3.327  0.00  0.00    +0.019 C 
ENDROOT
BRANCH   1  16
ATOM     16  C   LIG    1       26.013 -13.876   3.188  0.00  0.00    +0.134 C 
BRANCH  16  19
ATOM     17  C   LIG    1       23.880 -12.101   1.812  0.00  0.00    +0.086 C 
ATOM     18  C   LIG    1       24.158 -12.149   3.269  0.00  0.00    +0.106 A 
ATOM     19  N   LIG    1       25.132 -12.930   3.850  0.00  0.00    -0.334 N 
ATOM     20  C   LIG    1       25.146 -12.648   5.190  0.00  0.00    +0.107 A 
ATOM     21  C   LIG    1       24.128 -11.746   5.379  0.00  0.00    +0.130 A 
ATOM     22  N   LIG    1       23.523 -11.447   4.189  0.00  0.00    -0.241 NA
ENDBRANCH  16  19
ENDBRANCH   1  16
TORSDOF 2
ENDMDL
