MODEL 1
REMARK VINA RESULT:      -6.0      0.000      0.000
REMARK  Name = *****
REMARK                            x       y       z     vdW  Elec       q    Type
REMARK                         _______ _______ _______ _____ _____    ______ ____
ROOT
ATOM      1  C   LIG    1       25.194 -30.638   9.191  0.00  0.00    +0.169 C 
ATOM      2  C   LIG    1       25.375 -31.026  10.732  0.00  0.00    +0.175 C 
ATOM      3  C   LIG    1       24.768 -29.973  11.618  0.00  0.00    +0.169 C 
ATOM      4  C   LIG    1       23.173 -30.245  11.239  0.00  0.00    +0.084 C 
ATOM      5  C   LIG    1       22.811 -30.461   9.718  0.00  0.00    +0.042 C 
ATOM      6  C   LIG    1       23.815 -31.272   8.919  0.00  0.00    +0.084 C 
ENDROOT
BRANCH   4   7
ATOM      7  N   LIG    1       22.087 -29.466  11.874  0.00  0.00    -0.325 NA
ATOM      8  H   LIG    1       21.166 -29.810  11.605  0.00  0.00    +0.118 HD
ATOM      9  H   LIG    1       22.136 -29.538  12.910  0.00  0.00    +0.118 HD
ENDBRANCH   4   7
BRANCH   6  10
ATOM     10  N   LIG    1       23.418 -31.459   7.527  0.00  0.00    -0.325 NA
ATOM     11  H   LIG    1       23.848 -32.307   7.155  0.00  0.00    +0.118 HD
ATOM     12  H   LIG    1       23.765 -30.679   6.960  0.00  0.00    +0.118 HD
ENDBRANCH   6  10
BRANCH   2  13
ATOM     13  O   LIG    1       26.645 -31.473  11.158  0.00  0.00    -0.387 OA
ATOM     14  H   LIG    1       26.725 -32.424  10.938  0.00  0.00    +0.210 HD
ENDBRANCH   2  13
BRANCH   1  15
ATOM     15  O   LIG    1       25.484 -29.323   8.622  0.00  0.00    -0.342 OA
BRANCH  15  18
ATOM     16  C   LIG    1       25.195 -26.431   6.360  0.00  0.00    +0.138 C 
ATOM     17  O   LIG    1       25.953 -27.132   7.413  0.00  0.00    -0.345 OA
ATOM     18  C   LIG    1       25.912 -28.607   7.389  0.00  0.00    +0.268 C 
ATOM     19  C   LIG    1       25.742 -29.097   5.882  0.00  0.00    +0.107 C 
ATOM     20  C   LIG    1       24.479 -28.533   5.195  0.00  0.00    +0.026 C 
ATOM     21  C   LIG    1       24.034 -27.309   5.957  0.00  0.00    +0.035 C 
BRANCH  19  22
ATOM     22  N   LIG    1       25.988 -30.482   5.467  0.00  0.00    -0.323 NA
ATOM     23  H   LIG    1       25.697 -30.588   4.492  0.00  0.00    +0.119 HD
ATOM     24  H   LIG    1       25.358 -31.091   5.989  0.00  0.00    +0.119 HD
ENDBRANCH  19  22
BRANCH  16  25
ATOM     25  C   LIG    1       24.702 -25.016   6.831  0.00  0.00    +0.079 C 
ATOM     26  C   LIG    1       25.791 -23.948   6.588  0.00  0.00    +0.026 C 
BRANCH  25  28
ATOM     27  C   LIG    1       23.161 -23.128   6.803  0.00  0.00    +0.101 C 
ATOM     28  N   LIG    1       23.364 -24.535   6.442  0.00  0.00    -0.314 NA
ATOM     29  H   LIG    1       23.201 -24.665   5.441  0.00  0.00    +0.122 HD
ENDBRANCH  25  28
ENDBRANCH  16  25
ENDBRANCH  15  18
ENDBRANCH   1  15
BRANCH   3  30
ATOM     30  O   LIG    1       25.421 -28.746  11.305  0.00  0.00    -0.341 OA
BRANCH  30  31
ATOM     31  C   LIG    1       25.457 -27.539  12.132  0.00  0.00    +0.281 C 
ATOM     32  C   LIG    1       26.791 -26.820  12.530  0.00  0.00    +0.190 C 
ATOM     33  C   LIG    1       26.585 -25.518  13.366  0.00  0.00    +0.121 C 
ATOM     34  C   LIG    1       25.412 -25.722  14.396  0.00  0.00    +0.104 C 
ATOM     35  C   LIG    1       25.681 -26.759  15.500  0.00  0.00    +0.045 C 
ATOM     36  C   LIG    1       24.179 -26.229  13.616  0.00  0.00    +0.199 C 
ATOM     37  O   LIG    1       24.428 -27.547  13.119  0.00  0.00    -0.346 OA
BRANCH  33  38
ATOM     38  N   LIG    1       27.965 -25.228  13.850  0.00  0.00    -0.311 NA
ATOM     39  H   LIG    1       28.383 -26.148  14.053  0.00  0.00    +0.122 HD
ATOM     40  C   LIG    1       28.242 -24.286  14.901  0.00  0.00    +0.101 C 
ENDBRANCH  33  38
BRANCH  32  41
ATOM     41  O   LIG    1       27.689 -27.567  13.358  0.00  0.00    -0.385 OA
ATOM     42  H   LIG    1       27.985 -28.315  12.820  0.00  0.00    +0.210 HD
ENDBRANCH  32  41
BRANCH  34  43
ATOM     43  O   LIG    1       25.057 -24.474  14.997  0.00  0.00    -0.385 OA
ATOM     44  H   LIG    1       24.244 -24.159  14.568  0.00  0.00    +0.210 HD
ENDBRANCH  34  43
ENDBRANCH  30  31
ENDBRANCH   3  30
TORSDOF 13
ENDMDL
MODEL 2
REMARK VINA RESULT:      -5.9      1.530      1.807
REMARK  Name = *****
REMARK                            x       y       z     vdW  Elec       q    Type
REMARK                         _______ _______ _______ _____ _____    ______ ____
ROOT
ATOM      1  C   LIG    1       25.518 -29.556   7.469  0.00  0.00    +0.169 C 
ATOM      2  C   LIG    1       26.009 -30.567   8.607  0.00  0.00    +0.175 C 
ATOM      3  C   LIG    1       25.497 -30.137   9.954  0.00  0.00    +0.169 C 
ATOM      4  C   LIG    1       23.885 -30.449   9.698  0.00  0.00    +0.084 C 
ATOM      5  C   LIG    1       23.266 -30.005   8.316  0.00  0.00    +0.042 C 
ATOM      6  C   LIG    1       24.164 -30.201   7.108  0.00  0.00    +0.084 C 
ENDROOT
BRANCH   4   7
ATOM      7  N   LIG    1       22.878 -30.219  10.758  0.00  0.00    -0.325 NA
ATOM      8  H   LIG    1       22.801 -31.017  11.388  0.00  0.00    +0.118 HD
ATOM      9  H   LIG    1       23.141 -29.404  11.348  0.00  0.00    +0.118 HD
ENDBRANCH   4   7
BRANCH   6  10
ATOM     10  N   LIG    1       23.533 -29.795   5.856  0.00  0.00    -0.325 NA
ATOM     11  H   LIG    1       22.930 -30.545   5.513  0.00  0.00    +0.118 HD
ATOM     12  H   LIG    1       24.250 -29.642   5.140  0.00  0.00    +0.118 HD
ENDBRANCH   6  10
BRANCH   2  13
ATOM     13  O   LIG    1       27.366 -30.956   8.605  0.00  0.00    -0.387 OA
ATOM     14  H   LIG    1       27.682 -30.968   9.532  0.00  0.00    +0.210 HD
ENDBRANCH   2  13
BRANCH   1  15
ATOM     15  O   LIG    1       25.597 -28.099   7.557  0.00  0.00    -0.342 OA
BRANCH  15  18
ATOM     16  C   LIG    1       25.077 -24.627   6.442  0.00  0.00    +0.138 C 
ATOM     17  O   LIG    1       25.688 -25.558   7.408  0.00  0.00    -0.345 OA
ATOM     18  C   LIG    1       26.110 -26.873   6.886  0.00  0.00    +0.268 C 
ATOM     19  C   LIG    1       26.525 -26.714   5.355  0.00  0.00    +0.107 C 
ATOM     20  C   LIG    1       25.394 -26.145   4.470  0.00  0.00    +0.026 C 
ATOM     21  C   LIG    1       24.402 -25.445   5.367  0.00  0.00    +0.035 C 
BRANCH  19  22
ATOM     22  N   LIG    1       27.289 -27.736   4.632  0.00  0.00    -0.323 NA
ATOM     23  H   LIG    1       27.185 -27.572   3.627  0.00  0.00    +0.119 HD
ATOM     24  H   LIG    1       26.845 -28.641   4.789  0.00  0.00    +0.119 HD
ENDBRANCH  19  22
BRANCH  16  25
ATOM     25  C   LIG    1       24.064 -23.645   7.131  0.00  0.00    +0.079 C 
ATOM     26  C   LIG    1       24.794 -22.395   7.671  0.00  0.00    +0.026 C 
BRANCH  25  28
ATOM     27  C   LIG    1       22.753 -21.874   6.087  0.00  0.00    +0.101 C 
ATOM     28  N   LIG    1       22.801 -23.294   6.453  0.00  0.00    -0.314 NA
ATOM     29  H   LIG    1       22.654 -23.873   5.625  0.00  0.00    +0.122 HD
ENDBRANCH  25  28
ENDBRANCH  16  25
ENDBRANCH  15  18
ENDBRANCH   1  15
BRANCH   3  30
ATOM     30  O   LIG    1       25.985 -28.817  10.178  0.00  0.00    -0.341 OA
BRANCH  30  31
ATOM     31  C   LIG    1       25.823 -28.019  11.393  0.00  0.00    +0.281 C 
ATOM     32  C   LIG    1       27.009 -27.248  12.069  0.00  0.00    +0.190 C 
ATOM     33  C   LIG    1       26.591 -26.415  13.322  0.00  0.00    +0.121 C 
ATOM     34  C   LIG    1       25.529 -27.213  14.167  0.00  0.00    +0.104 C 
ATOM     35  C   LIG    1       26.045 -28.508  14.816  0.00  0.00    +0.045 C 
ATOM     36  C   LIG    1       24.384 -27.630  13.218  0.00  0.00    +0.199 C 
ATOM     37  O   LIG    1       24.862 -28.594  12.276  0.00  0.00    -0.346 OA
BRANCH  33  38
ATOM     38  N   LIG    1       27.908 -26.057  13.920  0.00  0.00    -0.311 NA
ATOM     39  H   LIG    1       28.158 -26.851  14.528  0.00  0.00    +0.122 HD
ATOM     40  C   LIG    1       28.152 -24.800  14.576  0.00  0.00    +0.101 C 
ENDBRANCH  33  38
BRANCH  32  41
ATOM     41  O   LIG    1       28.072 -28.054  12.588  0.00  0.00    -0.385 OA
ATOM     42  H   LIG    1       28.328 -28.649  11.870  0.00  0.00    +0.210 HD
ENDBRANCH  32  41
BRANCH  34  43
ATOM     43  O   LIG    1       24.965 -26.371  15.177  0.00  0.00    -0.385 OA
ATOM     44  H   LIG    1       24.009 -26.547  15.209  0.00  0.00    +0.210 HD
ENDBRANCH  34  43
ENDBRANCH  30  31
ENDBRANCH   3  30
TORSDOF 13
ENDMDL
MODEL 3
REMARK VINA RESULT:      -5.8      3.116      7.342
REMARK  Name = *****
REMARK                            x       y       z     vdW  Elec       q    Type
REMARK                         _______ _______ _______ _____ _____    ______ ____
ROOT
ATOM      1  C   LIG    1       26.149 -30.230  11.479  0.00  0.00    +0.169 C 
ATOM      2  C   LIG    1       25.615 -31.263  10.381  0.00  0.00    +0.175 C 
ATOM      3  C   LIG    1       24.695 -30.576   9.411  0.00  0.00    +0.169 C 
ATOM      4  C   LIG    1       25.827 -29.619   8.658  0.00  0.00    +0.084 C 
ATOM      5  C   LIG    1       26.885 -28.886   9.571  0.00  0.00    +0.042 C 
ATOM      6  C   LIG    1       27.398 -29.692  10.751  0.00  0.00    +0.084 C 
ENDROOT
BRANCH   4   7
ATOM      7  N   LIG    1       25.455 -28.713   7.550  0.00  0.00    -0.325 NA
ATOM      8  H   LIG    1       24.665 -29.073   7.014  0.00  0.00    +0.118 HD
ATOM      9  H   LIG    1       25.163 -27.783   7.913  0.00  0.00    +0.118 HD
ENDBRANCH   4   7
BRANCH   6  10
ATOM     10  N   LIG    1       28.389 -28.973  11.545  0.00  0.00    -0.325 NA
ATOM     11  H   LIG    1       28.101 -28.956  12.525  0.00  0.00    +0.118 HD
ATOM     12  H   LIG    1       28.441 -27.998  11.235  0.00  0.00    +0.118 HD
ENDBRANCH   6  10
BRANCH   2  13
ATOM     13  O   LIG    1       25.146 -32.519  10.827  0.00  0.00    -0.387 OA
ATOM     14  H   LIG    1       24.810 -33.013  10.050  0.00  0.00    +0.210 HD
ENDBRANCH   2  13
BRANCH   1  15
ATOM     15  O   LIG    1       25.310 -29.288  12.217  0.00  0.00    -0.342 OA
BRANCH  15  18
ATOM     16  C   LIG    1       23.259 -27.237  14.487  0.00  0.00    +0.138 C 
ATOM     17  O   LIG    1       23.833 -28.555  14.157  0.00  0.00    -0.345 OA
ATOM     18  C   LIG    1       25.157 -28.557  13.504  0.00  0.00    +0.268 C 
ATOM     19  C   LIG    1       25.977 -27.280  13.991  0.00  0.00    +0.107 C 
ATOM     20  C   LIG    1       25.259 -25.944  13.699  0.00  0.00    +0.026 C 
ATOM     21  C   LIG    1       23.792 -26.233  13.492  0.00  0.00    +0.035 C 
BRANCH  19  22
ATOM     22  N   LIG    1       27.425 -27.147  13.796  0.00  0.00    -0.323 NA
ATOM     23  H   LIG    1       27.763 -26.372  14.373  0.00  0.00    +0.119 HD
ATOM     24  H   LIG    1       27.594 -26.844  12.837  0.00  0.00    +0.119 HD
ENDBRANCH  19  22
BRANCH  16  25
ATOM     25  C   LIG    1       21.689 -27.262  14.486  0.00  0.00    +0.079 C 
ATOM     26  C   LIG    1       21.134 -26.745  13.140  0.00  0.00    +0.026 C 
BRANCH  25  28
ATOM     27  C   LIG    1       19.650 -28.133  15.499  0.00  0.00    +0.101 C 
ATOM     28  N   LIG    1       20.971 -28.462  14.952  0.00  0.00    -0.314 NA
ATOM     29  H   LIG    1       20.876 -29.150  14.202  0.00  0.00    +0.122 HD
ENDBRANCH  25  28
ENDBRANCH  16  25
ENDBRANCH  15  18
ENDBRANCH   1  15
BRANCH   3  30
ATOM     30  O   LIG    1       23.627 -30.024  10.176  0.00  0.00    -0.341 OA
BRANCH  30  31
ATOM     31  C   LIG    1       22.310 -30.620  10.397  0.00  0.00    +0.281 C 
ATOM     32  C   LIG    1       21.329 -30.127  11.516  0.00  0.00    +0.190 C 
ATOM     33  C   LIG    1       19.956 -30.870  11.529  0.00  0.00    +0.121 C 
ATOM     34  C   LIG    1       20.171 -32.400  11.228  0.00  0.00    +0.104 C 
ATOM     35  C   LIG    1       20.952 -33.176  12.301  0.00  0.00    +0.045 C 
ATOM     36  C   LIG    1       20.993 -32.516   9.925  0.00  0.00    +0.199 C 
ATOM     37  O   LIG    1       22.318 -32.023  10.141  0.00  0.00    -0.346 OA
BRANCH  33  38
ATOM     38  N   LIG    1       19.372 -30.437  12.829  0.00  0.00    -0.311 NA
ATOM     39  H   LIG    1       20.044 -30.744  13.548  0.00  0.00    +0.122 HD
ATOM     40  C   LIG    1       18.020 -30.739  13.217  0.00  0.00    +0.101 C 
ENDBRANCH  33  38
BRANCH  32  41
ATOM     41  O   LIG    1       21.773 -30.298  12.866  0.00  0.00    -0.385 OA
ATOM     42  H   LIG    1       21.048 -29.985  13.425  0.00  0.00    +0.210 HD
ENDBRANCH  32  41
BRANCH  34  43
ATOM     43  O   LIG    1       18.914 -33.043  11.001  0.00  0.00    -0.385 OA
ATOM     44  H   LIG    1       18.215 -32.382  11.141  0.00  0.00    +0.210 HD
ENDBRANCH  34  43
ENDBRANCH  30  31
ENDBRANCH   3  30
TORSDOF 13
ENDMDL
MODEL 4
REMARK VINA RESULT:      -5.8      3.722      7.512
REMARK  Name = *****
REMARK                            x       y       z     vdW  Elec       q    Type
REMARK                         _______ _______ _______ _____ _____    ______ ____
ROOT
ATOM      1  C   LIG    1       20.421 -31.688  12.452  0.00  0.00    +0.169 C 
ATOM      2  C   LIG    1       20.067 -31.669  10.893  0.00  0.00    +0.175 C 
ATOM      3  C   LIG    1       21.322 -31.629  10.065  0.00  0.00    +0.169 C 
ATOM      4  C   LIG    1       21.876 -33.158  10.413  0.00  0.00    +0.084 C 
ATOM      5  C   LIG    1       21.802 -33.636  11.914  0.00  0.00    +0.042 C 
ATOM      6  C   LIG    1       20.559 -33.209  12.674  0.00  0.00    +0.084 C 
ENDROOT
BRANCH   4   7
ATOM      7  N   LIG    1       23.125 -33.678   9.815  0.00  0.00    -0.325 NA
ATOM      8  H   LIG    1       23.948 -33.381  10.338  0.00  0.00    +0.118 HD
ATOM      9  H   LIG    1       23.134 -34.718   9.821  0.00  0.00    +0.118 HD
ENDBRANCH   4   7
BRANCH   6  10
ATOM     10  N   LIG    1       20.533 -33.698  14.049  0.00  0.00    -0.325 NA
ATOM     11  H   LIG    1       21.272 -33.247  14.591  0.00  0.00    +0.118 HD
ATOM     12  H   LIG    1       20.729 -34.703  14.062  0.00  0.00    +0.118 HD
ENDBRANCH   6  10
BRANCH   2  13
ATOM     13  O   LIG    1       19.060 -30.782  10.453  0.00  0.00    -0.387 OA
ATOM     14  H   LIG    1       19.269 -29.888  10.796  0.00  0.00    +0.210 HD
ENDBRANCH   2  13
BRANCH   1  15
ATOM     15  O   LIG    1       21.381 -30.797  13.101  0.00  0.00    -0.342 OA
BRANCH  15  18
ATOM     16  C   LIG    1       20.042 -27.643  14.449  0.00  0.00    +0.138 C 
ATOM     17  O   LIG    1       20.307 -29.080  14.643  0.00  0.00    -0.345 OA
ATOM     18  C   LIG    1       21.522 -29.623  14.004  0.00  0.00    +0.268 C 
ATOM     19  C   LIG    1       22.625 -28.475  13.928  0.00  0.00    +0.107 C 
ATOM     20  C   LIG    1       22.152 -27.222  13.159  0.00  0.00    +0.026 C 
ATOM     21  C   LIG    1       20.643 -27.231  13.126  0.00  0.00    +0.035 C 
BRANCH  19  22
ATOM     22  N   LIG    1       24.039 -28.752  13.654  0.00  0.00    -0.323 NA
ATOM     23  H   LIG    1       24.491 -27.885  13.353  0.00  0.00    +0.119 HD
ATOM     24  H   LIG    1       24.095 -29.365  12.840  0.00  0.00    +0.119 HD
ENDBRANCH  19  22
BRANCH  16  25
ATOM     25  C   LIG    1       18.508 -27.313  14.505  0.00  0.00    +0.079 C 
ATOM     26  C   LIG    1       18.213 -25.960  13.820  0.00  0.00    +0.026 C 
BRANCH  25  28
ATOM     27  C   LIG    1       16.146 -27.908  14.409  0.00  0.00    +0.101 C 
ATOM     28  N   LIG    1       17.519 -28.343  14.134  0.00  0.00    -0.314 NA
ATOM     29  H   LIG    1       17.612 -28.607  13.151  0.00  0.00    +0.122 HD
ENDBRANCH  25  28
ENDBRANCH  16  25
ENDBRANCH  15  18
ENDBRANCH   1  15
BRANCH   3  30
ATOM     30  O   LIG    1       22.035 -30.460  10.456  0.00  0.00    -0.341 OA
BRANCH  30  31
ATOM     31  C   LIG    1       23.358 -30.045   9.988  0.00  0.00    +0.281 C 
ATOM     32  C   LIG    1       23.771 -30.064   8.476  0.00  0.00    +0.190 C 
ATOM     33  C   LIG    1       25.210 -29.523   8.205  0.00  0.00    +0.121 C 
ATOM     34  C   LIG    1       26.189 -30.007   9.340  0.00  0.00    +0.104 C 
ATOM     35  C   LIG    1       26.434 -31.524   9.391  0.00  0.00    +0.045 C 
ATOM     36  C   LIG    1       25.564 -29.623  10.699  0.00  0.00    +0.199 C 
ATOM     37  O   LIG    1       24.378 -30.389  10.924  0.00  0.00    -0.346 OA
BRANCH  33  38
ATOM     38  N   LIG    1       25.443 -29.932   6.791  0.00  0.00    -0.311 NA
ATOM     39  H   LIG    1       26.406 -30.299   6.766  0.00  0.00    +0.122 HD
ATOM     40  C   LIG    1       25.188 -29.061   5.674  0.00  0.00    +0.101 C 
ENDBRANCH  33  38
BRANCH  32  41
ATOM     41  O   LIG    1       23.814 -31.350   7.849  0.00  0.00    -0.385 OA
ATOM     42  H   LIG    1       23.179 -31.900   8.330  0.00  0.00    +0.210 HD
ENDBRANCH  32  41
BRANCH  34  43
ATOM     43  O   LIG    1       27.443 -29.329   9.236  0.00  0.00    -0.385 OA
ATOM     44  H   LIG    1       28.004 -29.836   8.625  0.00  0.00    +0.210 HD
ENDBRANCH  34  43
ENDBRANCH  30  31
ENDBRANCH   3  30
TORSDOF 13
ENDMDL
MODEL 5
REMARK VINA RESULT:      -5.7      2.171      2.855
REMARK  Name = *****
REMARK                            x       y       z     vdW  Elec       q    Type
REMARK                         _______ _______ _______ _____ _____    ______ ____
ROOT
ATOM      1  C   LIG    1       23.756 -31.456  10.647  0.00  0.00    +0.169 C 
ATOM      2  C   LIG    1       23.622 -31.265  12.229  0.00  0.00    +0.175 C 
ATOM      3  C   LIG    1       23.125 -29.884  12.556  0.00  0.00    +0.169 C 
ATOM      4  C   LIG    1       21.582 -30.048  11.960  0.00  0.00    +0.084 C 
ATOM      5  C   LIG    1       21.411 -30.759  10.562  0.00  0.00    +0.042 C 
ATOM      6  C   LIG    1       22.330 -31.943  10.317  0.00  0.00    +0.084 C 
ENDROOT
BRANCH   4   7
ATOM      7  N   LIG    1       20.602 -28.942  12.047  0.00  0.00    -0.325 NA
ATOM      8  H   LIG    1       20.685 -28.430  12.925  0.00  0.00    +0.118 HD
ATOM      9  H   LIG    1       20.757 -28.249  11.287  0.00  0.00    +0.118 HD
ENDBRANCH   4   7
BRANCH   6  10
ATOM     10  N   LIG    1       22.113 -32.575   9.020  0.00  0.00    -0.325 NA
ATOM     11  H   LIG    1       21.184 -32.336   8.669  0.00  0.00    +0.118 HD
ATOM     12  H   LIG    1       22.135 -33.594   9.123  0.00  0.00    +0.118 HD
ENDBRANCH   6  10
BRANCH   2  13
ATOM     13  O   LIG    1       24.693 -31.698  13.041  0.00  0.00    -0.387 OA
ATOM     14  H   LIG    1       24.348 -32.359  13.676  0.00  0.00    +0.210 HD
ENDBRANCH   2  13
BRANCH   1  15
ATOM     15  O   LIG    1       24.396 -30.503   9.743  0.00  0.00    -0.342 OA
BRANCH  15  18
ATOM     16  C   LIG    1       25.310 -28.585   6.734  0.00  0.00    +0.138 C 
ATOM     17  O   LIG    1       25.659 -29.025   8.098  0.00  0.00    -0.345 OA
ATOM     18  C   LIG    1       25.201 -30.370   8.497  0.00  0.00    +0.268 C 
ATOM     19  C   LIG    1       25.138 -31.302   7.206  0.00  0.00    +0.107 C 
ATOM     20  C   LIG    1       24.216 -30.750   6.097  0.00  0.00    +0.026 C 
ATOM     21  C   LIG    1       24.026 -29.272   6.335  0.00  0.00    +0.035 C 
BRANCH  19  22
ATOM     22  N   LIG    1       25.039 -32.763   7.288  0.00  0.00    -0.323 NA
ATOM     23  H   LIG    1       25.985 -33.155   7.305  0.00  0.00    +0.119 HD
ATOM     24  H   LIG    1       24.636 -33.108   6.416  0.00  0.00    +0.119 HD
ENDBRANCH  19  22
BRANCH  16  25
ATOM     25  C   LIG    1       25.176 -27.024   6.635  0.00  0.00    +0.079 C 
ATOM     26  C   LIG    1       26.450 -26.402   6.020  0.00  0.00    +0.026 C 
BRANCH  25  28
ATOM     27  C   LIG    1       23.882 -24.980   6.332  0.00  0.00    +0.101 C 
ATOM     28  N   LIG    1       23.948 -26.424   6.079  0.00  0.00    -0.314 NA
ATOM     29  H   LIG    1       23.869 -26.606   5.077  0.00  0.00    +0.122 HD
ENDBRANCH  25  28
ENDBRANCH  16  25
ENDBRANCH  15  18
ENDBRANCH   1  15
BRANCH   3  30
ATOM     30  O   LIG    1       24.059 -28.967  11.994  0.00  0.00    -0.341 OA
BRANCH  30  31
ATOM     31  C   LIG    1       25.390 -28.647  12.509  0.00  0.00    +0.281 C 
ATOM     32  C   LIG    1       26.710 -29.022  11.751  0.00  0.00    +0.190 C 
ATOM     33  C   LIG    1       28.011 -28.530  12.460  0.00  0.00    +0.121 C 
ATOM     34  C   LIG    1       27.870 -28.702  14.019  0.00  0.00    +0.104 C 
ATOM     35  C   LIG    1       27.781 -30.156  14.513  0.00  0.00    +0.045 C 
ATOM     36  C   LIG    1       26.558 -28.014  14.456  0.00  0.00    +0.199 C 
ATOM     37  O   LIG    1       25.437 -28.731  13.933  0.00  0.00    -0.346 OA
BRANCH  33  38
ATOM     38  N   LIG    1       29.075 -29.263  11.719  0.00  0.00    -0.311 NA
ATOM     39  H   LIG    1       28.627 -30.128  11.379  0.00  0.00    +0.122 HD
ATOM     40  C   LIG    1       30.373 -29.533  12.279  0.00  0.00    +0.101 C 
ENDBRANCH  33  38
BRANCH  32  41
ATOM     41  O   LIG    1       26.970 -30.421  11.590  0.00  0.00    -0.385 OA
ATOM     42  H   LIG    1       27.238 -30.535  10.667  0.00  0.00    +0.210 HD
ENDBRANCH  32  41
BRANCH  34  43
ATOM     43  O   LIG    1       28.946 -28.041  14.690  0.00  0.00    -0.385 OA
ATOM     44  H   LIG    1       28.945 -27.111  14.407  0.00  0.00    +0.210 HD
ENDBRANCH  34  43
ENDBRANCH  30  31
ENDBRANCH   3  30
TORSDOF 13
ENDMDL
MODEL 6
REMARK VINA RESULT:      -5.6      3.165      7.474
REMARK  Name = *****
REMARK                            x       y       z     vdW  Elec       q    Type
REMARK                         _______ _______ _______ _____ _____    ______ ____
ROOT
ATOM      1  C   LIG    1       25.040 -29.457  13.108  0.00  0.00    +0.169 C 
ATOM      2  C   LIG    1       26.333 -30.377  12.914  0.00  0.00    +0.175 C 
ATOM      3  C   LIG    1       26.566 -30.664  11.457  0.00  0.00    +0.169 C 
ATOM      4  C   LIG    1       26.995 -29.129  10.986  0.00  0.00    +0.084 C 
ATOM      5  C   LIG    1       26.136 -27.928  11.542  0.00  0.00    +0.042 C 
ATOM      6  C   LIG    1       25.687 -28.062  12.986  0.00  0.00    +0.084 C 
ENDROOT
BRANCH   4   7
ATOM      7  N   LIG    1       27.370 -28.829   9.586  0.00  0.00    -0.325 NA
ATOM      8  H   LIG    1       27.558 -27.837   9.448  0.00  0.00    +0.118 HD
ATOM      9  H   LIG    1       28.239 -29.333   9.319  0.00  0.00    +0.118 HD
ENDBRANCH   4   7
BRANCH   6  10
ATOM     10  N   LIG    1       24.917 -26.914  13.453  0.00  0.00    -0.325 NA
ATOM     11  H   LIG    1       25.259 -26.616  14.368  0.00  0.00    +0.118 HD
ATOM     12  H   LIG    1       23.936 -27.183  13.578  0.00  0.00    +0.118 HD
ENDBRANCH   6  10
BRANCH   2  13
ATOM     13  O   LIG    1       26.474 -31.506  13.752  0.00  0.00    -0.387 OA
ATOM     14  H   LIG    1       26.407 -31.207  14.682  0.00  0.00    +0.210 HD
ENDBRANCH   2  13
BRANCH   1  15
ATOM     15  O   LIG    1       23.748 -29.686  12.464  0.00  0.00    -0.342 OA
BRANCH  15  18
ATOM     16  C   LIG    1       20.666 -28.034  13.619  0.00  0.00    +0.138 C 
ATOM     17  O   LIG    1       21.982 -27.922  12.964  0.00  0.00    -0.345 OA
ATOM     18  C   LIG    1       22.423 -29.079  12.161  0.00  0.00    +0.268 C 
ATOM     19  C   LIG    1       21.143 -29.811  11.558  0.00  0.00    +0.107 C 
ATOM     20  C   LIG    1       20.143 -30.282  12.637  0.00  0.00    +0.026 C 
ATOM     21  C   LIG    1       20.406 -29.496  13.898  0.00  0.00    +0.035 C 
BRANCH  19  22
ATOM     22  N   LIG    1       21.229 -30.786  10.466  0.00  0.00    -0.323 NA
ATOM     23  H   LIG    1       22.051 -30.568   9.896  0.00  0.00    +0.119 HD
ATOM     24  H   LIG    1       20.437 -30.638   9.839  0.00  0.00    +0.119 HD
ENDBRANCH  19  22
BRANCH  16  25
ATOM     25  C   LIG    1       20.589 -27.181  14.935  0.00  0.00    +0.079 C 
ATOM     26  C   LIG    1       21.929 -26.460  15.201  0.00  0.00    +0.026 C 
BRANCH  25  28
ATOM     27  C   LIG    1       18.532 -26.249  14.015  0.00  0.00    +0.101 C 
ATOM     28  N   LIG    1       19.433 -26.296  15.172  0.00  0.00    -0.314 NA
ATOM     29  H   LIG    1       18.914 -26.580  16.006  0.00  0.00    +0.122 HD
ENDBRANCH  25  28
ENDBRANCH  16  25
ENDBRANCH  15  18
ENDBRANCH   1  15
BRANCH   3  30
ATOM     30  O   LIG    1       25.389 -31.302  10.970  0.00  0.00    -0.341 OA
BRANCH  30  31
ATOM     31  C   LIG    1       24.919 -31.333   9.585  0.00  0.00    +0.281 C 
ATOM     32  C   LIG    1       25.733 -32.003   8.425  0.00  0.00    +0.190 C 
ATOM     33  C   LIG    1       25.011 -31.967   7.041  0.00  0.00    +0.121 C 
ATOM     34  C   LIG    1       24.279 -30.586   6.853  0.00  0.00    +0.104 C 
ATOM     35  C   LIG    1       25.204 -29.362   6.750  0.00  0.00    +0.045 C 
ATOM     36  C   LIG    1       23.385 -30.351   8.090  0.00  0.00    +0.199 C 
ATOM     37  O   LIG    1       24.201 -30.148   9.247  0.00  0.00    -0.346 OA
BRANCH  33  38
ATOM     38  N   LIG    1       26.097 -32.373   6.105  0.00  0.00    -0.311 NA
ATOM     39  H   LIG    1       26.857 -31.693   6.254  0.00  0.00    +0.122 HD
ATOM     40  C   LIG    1       25.874 -32.605   4.703  0.00  0.00    +0.101 C 
ENDBRANCH  33  38
BRANCH  32  41
ATOM     41  O   LIG    1       26.999 -31.409   8.116  0.00  0.00    -0.385 OA
ATOM     42  H   LIG    1       27.618 -31.746   8.778  0.00  0.00    +0.210 HD
ENDBRANCH  32  41
BRANCH  34  43
ATOM     43  O   LIG    1       23.424 -30.630   5.707  0.00  0.00    -0.385 OA
ATOM     44  H   LIG    1       22.570 -30.242   5.960  0.00  0.00    +0.210 HD
ENDBRANCH  34  43
ENDBRANCH  30  31
ENDBRANCH   3  30
TORSDOF 13
ENDMDL
MODEL 7
REMARK VINA RESULT:      -5.5      3.134      7.593
REMARK  Name = *****
REMARK                            x       y       z     vdW  Elec       q    Type
REMARK                         _______ _______ _______ _____ _____    ______ ____
ROOT
ATOM      1  C   LIG    1       24.124 -28.682  13.986  0.00  0.00    +0.169 C 
ATOM      2  C   LIG    1       25.303 -29.747  14.164  0.00  0.00    +0.175 C 
ATOM      3  C   LIG    1       26.110 -29.860  12.901  0.00  0.00    +0.169 C 
ATOM      4  C   LIG    1       26.814 -28.355  12.941  0.00  0.00    +0.084 C 
ATOM      5  C   LIG    1       25.893 -27.129  13.315  0.00  0.00    +0.042 C 
ATOM      6  C   LIG    1       24.865 -27.394  14.400  0.00  0.00    +0.084 C 
ENDROOT
BRANCH   4   7
ATOM      7  N   LIG    1       27.768 -27.923  11.897  0.00  0.00    -0.325 NA
ATOM      8  H   LIG    1       28.131 -28.713  11.364  0.00  0.00    +0.118 HD
ATOM      9  H   LIG    1       27.307 -27.293  11.210  0.00  0.00    +0.118 HD
ENDBRANCH   4   7
BRANCH   6  10
ATOM     10  N   LIG    1       24.057 -26.221  14.720  0.00  0.00    -0.325 NA
ATOM     11  H   LIG    1       23.312 -26.479  15.369  0.00  0.00    +0.118 HD
ATOM     12  H   LIG    1       23.602 -25.872  13.872  0.00  0.00    +0.118 HD
ENDBRANCH   6  10
BRANCH   2  13
ATOM     13  O   LIG    1       24.989 -30.989  14.759  0.00  0.00    -0.387 OA
ATOM     14  H   LIG    1       25.399 -31.698  14.222  0.00  0.00    +0.210 HD
ENDBRANCH   2  13
BRANCH   1  15
ATOM     15  O   LIG    1       23.214 -28.628  12.843  0.00  0.00    -0.342 OA
BRANCH  15  18
ATOM     16  C   LIG    1       19.669 -27.988  13.607  0.00  0.00    +0.138 C 
ATOM     17  O   LIG    1       20.893 -27.581  12.895  0.00  0.00    -0.345 OA
ATOM     18  C   LIG    1       21.783 -28.664  12.433  0.00  0.00    +0.268 C 
ATOM     19  C   LIG    1       20.906 -29.955  12.111  0.00  0.00    +0.107 C 
ATOM     20  C   LIG    1       20.076 -30.446  13.318  0.00  0.00    +0.026 C 
ATOM     21  C   LIG    1       19.944 -29.304  14.295  0.00  0.00    +0.035 C 
BRANCH  19  22
ATOM     22  N   LIG    1       21.419 -31.088  11.335  0.00  0.00    -0.323 NA
ATOM     23  H   LIG    1       22.110 -30.740  10.665  0.00  0.00    +0.119 HD
ATOM     24  H   LIG    1       20.662 -31.450  10.755  0.00  0.00    +0.119 HD
ENDBRANCH  19  22
BRANCH  16  25
ATOM     25  C   LIG    1       19.193 -26.898  14.631  0.00  0.00    +0.079 C 
ATOM     26  C   LIG    1       20.389 -26.341  15.435  0.00  0.00    +0.026 C 
BRANCH  25  28
ATOM     27  C   LIG    1       16.882 -26.275  14.163  0.00  0.00    +0.101 C 
ATOM     28  N   LIG    1       18.278 -25.825  14.195  0.00  0.00    -0.314 NA
ATOM     29  H   LIG    1       18.365 -25.000  14.792  0.00  0.00    +0.122 HD
ENDBRANCH  25  28
ENDBRANCH  16  25
ENDBRANCH  15  18
ENDBRANCH   1  15
BRANCH   3  30
ATOM     30  O   LIG    1       25.207 -30.245  11.868  0.00  0.00    -0.341 OA
BRANCH  30  31
ATOM     31  C   LIG    1       25.516 -30.393  10.446  0.00  0.00    +0.281 C 
ATOM     32  C   LIG    1       24.588 -29.838   9.311  0.00  0.00    +0.190 C 
ATOM     33  C   LIG    1       25.147 -30.060   7.870  0.00  0.00    +0.121 C 
ATOM     34  C   LIG    1       25.825 -31.477   7.770  0.00  0.00    +0.104 C 
ATOM     35  C   LIG    1       24.870 -32.674   7.919  0.00  0.00    +0.045 C 
ATOM     36  C   LIG    1       26.850 -31.595   8.920  0.00  0.00    +0.199 C 
ATOM     37  O   LIG    1       26.167 -31.633  10.176  0.00  0.00    -0.346 OA
BRANCH  33  38
ATOM     38  N   LIG    1       23.969 -29.731   7.018  0.00  0.00    -0.311 NA
ATOM     39  H   LIG    1       23.426 -30.605   6.952  0.00  0.00    +0.122 HD
ATOM     40  C   LIG    1       24.088 -29.093   5.734  0.00  0.00    +0.101 C 
ENDBRANCH  33  38
BRANCH  32  41
ATOM     41  O   LIG    1       23.285 -30.422   9.218  0.00  0.00    -0.385 OA
ATOM     42  H   LIG    1       22.685 -29.696   8.995  0.00  0.00    +0.210 HD
ENDBRANCH  32  41
BRANCH  34  43
ATOM     43  O   LIG    1       26.544 -31.597   6.540  0.00  0.00    -0.385 OA
ATOM     44  H   LIG    1       26.067 -32.231   5.978  0.00  0.00    +0.210 HD
ENDBRANCH  34  43
ENDBRANCH  30  31
ENDBRANCH   3  30
TORSDOF 13
ENDMDL
MODEL 8
REMARK VINA RESULT:      -5.5      3.008      7.294
REMARK  Name = *****
REMARK                            x       y       z     vdW  Elec       q    Type
REMARK                         _______ _______ _______ _____ _____    ______ ____
ROOT
ATOM      1  C   LIG    1       19.894 -30.423  12.353  0.00  0.00    +0.169 C 
ATOM      2  C   LIG    1       19.857 -31.107  10.908  0.00  0.00    +0.175 C 
ATOM      3  C   LIG    1       21.245 -31.461  10.453  0.00  0.00    +0.169 C 
ATOM      4  C   LIG    1       21.545 -32.674  11.550  0.00  0.00    +0.084 C 
ATOM      5  C   LIG    1       21.125 -32.421  13.050  0.00  0.00    +0.042 C 
ATOM      6  C   LIG    1       19.814 -31.681  13.243  0.00  0.00    +0.084 C 
ENDROOT
BRANCH   4   7
ATOM      7  N   LIG    1       22.820 -33.423  11.540  0.00  0.00    -0.325 NA
ATOM      8  H   LIG    1       23.140 -33.615  10.591  0.00  0.00    +0.118 HD
ATOM      9  H   LIG    1       23.576 -32.876  11.999  0.00  0.00    +0.118 HD
ENDBRANCH   4   7
BRANCH   6  10
ATOM     10  N   LIG    1       19.464 -31.495  14.648  0.00  0.00    -0.325 NA
ATOM     11  H   LIG    1       19.136 -30.540  14.800  0.00  0.00    +0.118 HD
ATOM     12  H   LIG    1       20.298 -31.617  15.231  0.00  0.00    +0.118 HD
ENDBRANCH   6  10
BRANCH   2  13
ATOM     13  O   LIG    1       19.062 -30.502   9.909  0.00  0.00    -0.387 OA
ATOM     14  H   LIG    1       18.460 -31.183   9.543  0.00  0.00    +0.210 HD
ENDBRANCH   2  13
BRANCH   1  15
ATOM     15  O   LIG    1       20.803 -29.347  12.743  0.00  0.00    -0.342 OA
BRANCH  15  18
ATOM     16  C   LIG    1       22.742 -26.428  13.876  0.00  0.00    +0.138 C 
ATOM     17  O   LIG    1       22.276 -27.271  12.759  0.00  0.00    -0.345 OA
ATOM     18  C   LIG    1       20.936 -27.872  12.897  0.00  0.00    +0.268 C 
ATOM     19  C   LIG    1       20.022 -26.909  13.779  0.00  0.00    +0.107 C 
ATOM     20  C   LIG    1       20.608 -26.626  15.180  0.00  0.00    +0.026 C 
ATOM     21  C   LIG    1       22.086 -26.926  15.142  0.00  0.00    +0.035 C 
BRANCH  19  22
ATOM     22  N   LIG    1       18.563 -27.039  13.840  0.00  0.00    -0.323 NA
ATOM     23  H   LIG    1       18.197 -27.074  12.885  0.00  0.00    +0.119 HD
ATOM     24  H   LIG    1       18.179 -26.176  14.228  0.00  0.00    +0.119 HD
ENDBRANCH  19  22
BRANCH  16  25
ATOM     25  C   LIG    1       24.307 -26.432  14.005  0.00  0.00    +0.079 C 
ATOM     26  C   LIG    1       24.908 -27.694  13.346  0.00  0.00    +0.026 C 
BRANCH  25  28
ATOM     27  C   LIG    1       26.406 -25.542  13.144  0.00  0.00    +0.101 C 
ATOM     28  N   LIG    1       25.076 -25.219  13.671  0.00  0.00    -0.314 NA
ATOM     29  H   LIG    1       24.570 -24.632  13.005  0.00  0.00    +0.122 HD
ENDBRANCH  25  28
ENDBRANCH  16  25
ENDBRANCH  15  18
ENDBRANCH   1  15
BRANCH   3  30
ATOM     30  O   LIG    1       21.996 -30.250  10.442  0.00  0.00    -0.341 OA
BRANCH  30  31
ATOM     31  C   LIG    1       23.385 -30.086  10.012  0.00  0.00    +0.281 C 
ATOM     32  C   LIG    1       23.813 -30.064   8.505  0.00  0.00    +0.190 C 
ATOM     33  C   LIG    1       25.339 -29.818   8.282  0.00  0.00    +0.121 C 
ATOM     34  C   LIG    1       26.172 -30.591   9.372  0.00  0.00    +0.104 C 
ATOM     35  C   LIG    1       26.091 -32.125   9.292  0.00  0.00    +0.045 C 
ATOM     36  C   LIG    1       25.617 -30.200  10.759  0.00  0.00    +0.199 C 
ATOM     37  O   LIG    1       24.292 -30.715  10.915  0.00  0.00    -0.346 OA
BRANCH  33  38
ATOM     38  N   LIG    1       25.507 -30.146   6.839  0.00  0.00    -0.311 NA
ATOM     39  H   LIG    1       26.461 -30.527   6.753  0.00  0.00    +0.122 HD
ATOM     40  C   LIG    1       25.224 -29.207   5.786  0.00  0.00    +0.101 C 
ENDBRANCH  33  38
BRANCH  32  41
ATOM     41  O   LIG    1       23.596 -31.273   7.769  0.00  0.00    -0.385 OA
ATOM     42  H   LIG    1       24.361 -31.367   7.184  0.00  0.00    +0.210 HD
ENDBRANCH  32  41
BRANCH  34  43
ATOM     43  O   LIG    1       27.543 -30.187   9.327  0.00  0.00    -0.385 OA
ATOM     44  H   LIG    1       27.599 -29.394   8.768  0.00  0.00    +0.210 HD
ENDBRANCH  34  43
ENDBRANCH  30  31
ENDBRANCH   3  30
TORSDOF 13
ENDMDL
MODEL 9
REMARK VINA RESULT:      -5.5      3.806      6.328
REMARK  Name = *****
REMARK                            x       y       z     vdW  Elec       q    Type
REMARK                         _______ _______ _______ _____ _____    ______ ____
ROOT
ATOM      1  C   LIG    1       25.721 -32.737   9.035  0.00  0.00    +0.169 C 
ATOM      2  C   LIG    1       24.214 -32.904   8.527  0.00  0.00    +0.175 C 
ATOM      3  C   LIG    1       23.714 -31.621   7.923  0.00  0.00    +0.169 C 
ATOM      4  C   LIG    1       24.678 -31.613   6.568  0.00  0.00    +0.084 C 
ATOM      5  C   LIG    1       26.199 -31.989   6.754  0.00  0.00    +0.042 C 
ATOM      6  C   LIG    1       26.478 -33.107   7.742  0.00  0.00    +0.084 C 
ENDROOT
BRANCH   4   7
ATOM      7  N   LIG    1       24.580 -30.535   5.560  0.00  0.00    -0.325 NA
ATOM      8  H   LIG    1       24.203 -29.676   5.958  0.00  0.00    +0.118 HD
ATOM      9  H   LIG    1       25.519 -30.296   5.181  0.00  0.00    +0.118 HD
ENDBRANCH   4   7
BRANCH   6  10
ATOM     10  N   LIG    1       27.898 -33.427   7.856  0.00  0.00    -0.325 NA
ATOM     11  H   LIG    1       28.453 -32.710   7.387  0.00  0.00    +0.118 HD
ATOM     12  H   LIG    1       28.093 -34.311   7.378  0.00  0.00    +0.118 HD
ENDBRANCH   6  10
BRANCH   2  13
ATOM     13  O   LIG    1       23.290 -33.530   9.392  0.00  0.00    -0.387 OA
ATOM     14  H   LIG    1       22.457 -33.675   8.897  0.00  0.00    +0.210 HD
ENDBRANCH   2  13
BRANCH   1  15
ATOM     15  O   LIG    1       26.213 -31.619   9.837  0.00  0.00    -0.342 OA
BRANCH  15  18
ATOM     16  C   LIG    1       28.264 -29.183  11.687  0.00  0.00    +0.138 C 
ATOM     17  O   LIG    1       28.204 -30.385  10.836  0.00  0.00    -0.345 OA
ATOM     18  C   LIG    1       27.119 -30.437   9.838  0.00  0.00    +0.268 C 
ATOM     19  C   LIG    1       26.766 -28.952   9.377  0.00  0.00    +0.107 C 
ATOM     20  C   LIG    1       26.350 -28.032  10.546  0.00  0.00    +0.026 C 
ATOM     21  C   LIG    1       26.862 -28.640  11.829  0.00  0.00    +0.035 C 
BRANCH  19  22
ATOM     22  N   LIG    1       25.974 -28.662   8.178  0.00  0.00    -0.323 NA
ATOM     23  H   LIG    1       26.383 -29.165   7.386  0.00  0.00    +0.119 HD
ATOM     24  H   LIG    1       26.094 -27.677   7.943  0.00  0.00    +0.119 HD
ENDBRANCH  19  22
BRANCH  16  25
ATOM     25  C   LIG    1       28.903 -29.485  13.090  0.00  0.00    +0.079 C 
ATOM     26  C   LIG    1       27.872 -30.153  14.029  0.00  0.00    +0.026 C 
BRANCH  25  28
ATOM     27  C   LIG    1       30.943 -29.760  14.395  0.00  0.00    +0.101 C 
ATOM     28  N   LIG    1       30.224 -30.136  13.173  0.00  0.00    -0.314 NA
ATOM     29  H   LIG    1       30.138 -31.153  13.118  0.00  0.00    +0.122 HD
ENDBRANCH  25  28
ENDBRANCH  16  25
ENDBRANCH  15  18
ENDBRANCH   1  15
BRANCH   3  30
ATOM     30  O   LIG    1       23.821 -30.621   8.932  0.00  0.00    -0.341 OA
BRANCH  30  31
ATOM     31  C   LIG    1       22.950 -30.456  10.096  0.00  0.00    +0.281 C 
ATOM     32  C   LIG    1       23.476 -30.532  11.570  0.00  0.00    +0.190 C 
ATOM     33  C   LIG    1       22.380 -30.268  12.650  0.00  0.00    +0.121 C 
ATOM     34  C   LIG    1       21.025 -30.943  12.215  0.00  0.00    +0.104 C 
ATOM     35  C   LIG    1       21.045 -32.480  12.164  0.00  0.00    +0.045 C 
ATOM     36  C   LIG    1       20.696 -30.466  10.783  0.00  0.00    +0.199 C 
ATOM     37  O   LIG    1       21.652 -30.999   9.862  0.00  0.00    -0.346 OA
BRANCH  33  38
ATOM     38  N   LIG    1       23.060 -30.694  13.905  0.00  0.00    -0.311 NA
ATOM     39  H   LIG    1       22.401 -31.336  14.370  0.00  0.00    +0.122 HD
ATOM     40  C   LIG    1       23.626 -29.760  14.842  0.00  0.00    +0.101 C 
ENDBRANCH  33  38
BRANCH  32  41
ATOM     41  O   LIG    1       24.007 -31.795  11.988  0.00  0.00    -0.385 OA
ATOM     42  H   LIG    1       24.322 -32.229  11.182  0.00  0.00    +0.210 HD
ENDBRANCH  32  41
BRANCH  34  43
ATOM     43  O   LIG    1       19.960 -30.512  13.067  0.00  0.00    -0.385 OA
ATOM     44  H   LIG    1       19.160 -30.998  12.809  0.00  0.00    +0.210 HD
ENDBRANCH  34  43
ENDBRANCH  30  31
ENDBRANCH   3  30
TORSDOF 13
ENDMDL
