MODEL 1
REMARK VINA RESULT:       2.3      0.000      0.000
REMARK  Name = *****
REMARK                            x       y       z     vdW  Elec       q    Type
REMARK                         _______ _______ _______ _____ _____    ______ ____
ROOT
ATOM      1  C   LIG    1       25.155 -18.938   4.243  0.00  0.00    +0.065 C 
ATOM      2  C   LIG    1       23.657 -18.694   3.980  0.00  0.00    +0.096 C 
ATOM      3  C   LIG    1       22.770 -19.770   4.616  0.00  0.00    +0.065 C 
ATOM      4  C   LIG    1       23.249 -20.506   5.644  0.00  0.00    +0.016 C 
ATOM      5  C   LIG    1       22.472 -21.539   6.416  0.00  0.00    +0.061 C 
ATOM      6  N   LIG    1       24.566 -20.343   6.052  0.00  0.00    -0.321 N 
ATOM      7  H   LIG    1       24.904 -21.032   6.722  0.00  0.00    +0.152 HD
ATOM      8  C   LIG    1       25.541 -19.739   5.267  0.00  0.00    +0.016 C 
ATOM      9  C   LIG    1       26.954 -20.129   5.634  0.00  0.00    +0.061 C 
ENDROOT
BRANCH   2  10
ATOM     10  C   LIG    1       23.226 -17.287   4.436  0.00  0.00    -0.029 A 
ATOM     11  C   LIG    1       23.802 -16.135   3.871  0.00  0.00    +0.088 A 
ATOM     12  C   LIG    1       23.467 -14.863   4.358  0.00  0.00    +0.273 A 
ATOM     13  C   LIG    1       22.535 -14.716   5.391  0.00  0.00    +0.084 A 
ATOM     14  C   LIG    1       21.943 -15.852   5.941  0.00  0.00    +0.007 A 
ATOM     15  C   LIG    1       22.284 -17.125   5.468  0.00  0.00    +0.005 A 
BRANCH  12  16
ATOM     16  N   LIG    1       24.123 -13.676   3.797  0.00  0.00    +0.080 N 
ATOM     17  O   LIG    1       24.898 -13.043   4.529  0.00  0.00    -0.576 OA
ATOM     18  O   LIG    1       23.860 -13.370   2.625  0.00  0.00    +0.041 OA
ENDBRANCH  12  16
ENDBRANCH   2  10
BRANCH   1  19
ATOM     19  C   LIG    1       26.028 -18.316   3.216  0.00  0.00    +0.338 C 
ATOM     20  O   LIG    1       25.950 -18.602   2.029  0.00  0.00    -0.245 OA
BRANCH  19  21
ATOM     21  O   LIG    1       26.888 -17.412   3.734  0.00  0.00    -0.459 OA
BRANCH  21  22
ATOM     22  C   LIG    1       26.747 -16.061   3.273  0.00  0.00    +0.260 C 
BRANCH  22  23
ATOM     23  C   LIG    1       27.662 -15.076   4.008  0.00  0.00    +0.200 C 
BRANCH  23  25
ATOM     24  C   LIG    1       28.465 -12.837   4.031  0.00  0.00    +0.194 C 
ATOM     25  O   LIG    1       27.938 -13.901   3.247  0.00  0.00    -0.380 OA
ENDBRANCH  23  25
ENDBRANCH  22  23
ENDBRANCH  21  22
ENDBRANCH  19  21
ENDBRANCH   1  19
BRANCH   3  26
ATOM     26  C   LIG    1       21.449 -20.052   3.985  0.00  0.00    +0.338 C 
ATOM     27  O   LIG    1       20.827 -21.077   4.143  0.00  0.00    -0.245 OA
BRANCH  26  28
ATOM     28  O   LIG    1       21.071 -19.027   3.152  0.00  0.00    -0.459 OA
BRANCH  28  29
ATOM     29  C   LIG    1       19.669 -18.704   3.145  0.00  0.00    +0.171 C 
ATOM     30  C   LIG    1       19.350 -18.036   1.812  0.00  0.00    +0.051 C 
ATOM     31  C   LIG    1       19.350 -17.762   4.301  0.00  0.00    +0.051 C 
ENDBRANCH  28  29
ENDBRANCH  26  28
ENDBRANCH   3  26
TORSDOF 10
ENDMDL
MODEL 2
REMARK VINA RESULT:       3.3      2.100      5.206
REMARK  Name = *****
REMARK                            x       y       z     vdW  Elec       q    Type
REMARK                         _______ _______ _______ _____ _____    ______ ____
ROOT
ATOM      1  C   LIG    1       26.254 -14.806   3.279  0.00  0.00    +0.065 C 
ATOM      2  C   LIG    1       25.632 -16.212   3.184  0.00  0.00    +0.096 C 
ATOM      3  C   LIG    1       26.606 -17.312   3.619  0.00  0.00    +0.065 C 
ATOM      4  C   LIG    1       27.651 -16.999   4.417  0.00  0.00    +0.016 C 
ATOM      5  C   LIG    1       28.642 -17.981   4.985  0.00  0.00    +0.061 C 
ATOM      6  N   LIG    1       27.883 -15.673   4.758  0.00  0.00    -0.321 N 
ATOM      7  H   LIG    1       28.769 -15.492   5.228  0.00  0.00    +0.152 HD
ATOM      8  C   LIG    1       27.340 -14.598   4.064  0.00  0.00    +0.016 C 
ATOM      9  C   LIG    1       28.107 -13.307   4.234  0.00  0.00    +0.061 C 
ENDROOT
BRANCH   2  10
ATOM     10  C   LIG    1       24.314 -16.300   3.977  0.00  0.00    -0.029 A 
ATOM     11  C   LIG    1       23.520 -17.461   3.936  0.00  0.00    +0.088 A 
ATOM     12  C   LIG    1       22.279 -17.495   4.590  0.00  0.00    +0.273 A 
ATOM     13  C   LIG    1       21.823 -16.388   5.315  0.00  0.00    +0.084 A 
ATOM     14  C   LIG    1       22.614 -15.242   5.379  0.00  0.00    +0.007 A 
ATOM     15  C   LIG    1       23.847 -15.198   4.718  0.00  0.00    +0.005 A 
BRANCH  12  16
ATOM     16  N   LIG    1       21.438 -18.693   4.486  0.00  0.00    +0.080 N 
ATOM     17  O   LIG    1       20.441 -18.638   3.751  0.00  0.00    -0.576 OA
ATOM     18  O   LIG    1       21.768 -19.690   5.145  0.00  0.00    +0.041 OA
ENDBRANCH  12  16
ENDBRANCH   2  10
BRANCH   1  19
ATOM     19  C   LIG    1       25.613 -13.829   2.363  0.00  0.00    +0.338 C 
ATOM     20  O   LIG    1       24.544 -14.052   1.812  0.00  0.00    -0.245 OA
BRANCH  19  21
ATOM     21  O   LIG    1       26.327 -12.692   2.224  0.00  0.00    -0.459 OA
BRANCH  21  22
ATOM     22  C   LIG    1       25.639 -11.468   2.515  0.00  0.00    +0.260 C 
BRANCH  22  23
ATOM     23  C   LIG    1       24.117 -11.586   2.382  0.00  0.00    +0.200 C 
BRANCH  23  25
ATOM     24  C   LIG    1       24.267 -11.723   4.752  0.00  0.00    +0.194 C 
ATOM     25  O   LIG    1       23.438 -11.447   3.630  0.00  0.00    -0.380 OA
ENDBRANCH  23  25
ENDBRANCH  22  23
ENDBRANCH  21  22
ENDBRANCH  19  21
ENDBRANCH   1  19
BRANCH   3  26
ATOM     26  C   LIG    1       26.432 -18.673   3.034  0.00  0.00    +0.338 C 
ATOM     27  O   LIG    1       26.166 -18.883   1.874  0.00  0.00    -0.245 OA
BRANCH  26  28
ATOM     28  O   LIG    1       26.548 -19.643   4.000  0.00  0.00    -0.459 OA
BRANCH  28  29
ATOM     29  C   LIG    1       25.323 -20.053   4.632  0.00  0.00    +0.171 C 
ATOM     30  C   LIG    1       25.677 -20.680   5.976  0.00  0.00    +0.051 C 
ATOM     31  C   LIG    1       24.598 -21.062   3.749  0.00  0.00    +0.051 C 
ENDBRANCH  28  29
ENDBRANCH  26  28
ENDBRANCH   3  26
TORSDOF 10
ENDMDL
MODEL 3
REMARK VINA RESULT:       3.4      1.795      2.696
REMARK  Name = *****
REMARK                            x       y       z     vdW  Elec       q    Type
REMARK                         _______ _______ _______ _____ _____    ______ ____
ROOT
ATOM      1  C   LIG    1       26.851 -17.829   4.086  0.00  0.00    +0.065 C 
ATOM      2  C   LIG    1       25.492 -18.425   3.674  0.00  0.00    +0.096 C 
ATOM      3  C   LIG    1       25.283 -19.839   4.227  0.00  0.00    +0.065 C 
ATOM      4  C   LIG    1       25.993 -20.246   5.302  0.00  0.00    +0.016 C 
ATOM      5  C   LIG    1       25.841 -21.572   6.000  0.00  0.00    +0.061 C 
ATOM      6  N   LIG    1       26.968 -19.414   5.837  0.00  0.00    -0.321 N 
ATOM      7  H   LIG    1       27.567 -19.841   6.542  0.00  0.00    +0.152 HD
ATOM      8  C   LIG    1       27.521 -18.341   5.149  0.00  0.00    +0.016 C 
ATOM      9  C   LIG    1       28.880 -17.919   5.657  0.00  0.00    +0.061 C 
ENDROOT
BRANCH   2  10
ATOM     10  C   LIG    1       24.326 -17.501   4.075  0.00  0.00    -0.029 A 
ATOM     11  C   LIG    1       24.454 -16.102   4.003  0.00  0.00    +0.088 A 
ATOM     12  C   LIG    1       23.418 -15.271   4.456  0.00  0.00    +0.273 A 
ATOM     13  C   LIG    1       22.233 -15.817   4.960  0.00  0.00    +0.084 A 
ATOM     14  C   LIG    1       22.089 -17.203   5.014  0.00  0.00    +0.007 A 
ATOM     15  C   LIG    1       23.125 -18.037   4.575  0.00  0.00    +0.005 A 
BRANCH  12  16
ATOM     16  N   LIG    1       23.593 -13.814   4.429  0.00  0.00    +0.080 N 
ATOM     17  O   LIG    1       23.691 -13.264   3.322  0.00  0.00    -0.576 OA
ATOM     18  O   LIG    1       23.640 -13.217   5.514  0.00  0.00    +0.041 OA
ENDBRANCH  12  16
ENDBRANCH   2  10
BRANCH   1  19
ATOM     19  C   LIG    1       27.330 -16.784   3.147  0.00  0.00    +0.338 C 
ATOM     20  O   LIG    1       27.085 -16.818   1.949  0.00  0.00    -0.245 OA
BRANCH  19  21
ATOM     21  O   LIG    1       28.039 -15.812   3.758  0.00  0.00    -0.459 OA
BRANCH  21  22
ATOM     22  C   LIG    1       27.559 -14.471   3.591  0.00  0.00    +0.260 C 
BRANCH  22  23
ATOM     23  C   LIG    1       27.112 -13.823   4.906  0.00  0.00    +0.200 C 
BRANCH  23  25
ATOM     24  C   LIG    1       28.918 -12.389   4.322  0.00  0.00    +0.194 C 
ATOM     25  O   LIG    1       27.834 -12.630   5.211  0.00  0.00    -0.380 OA
ENDBRANCH  23  25
ENDBRANCH  22  23
ENDBRANCH  21  22
ENDBRANCH  19  21
ENDBRANCH   1  19
BRANCH   3  26
ATOM     26  C   LIG    1       24.389 -20.762   3.470  0.00  0.00    +0.338 C 
ATOM     27  O   LIG    1       24.267 -20.753   2.267  0.00  0.00    -0.245 OA
BRANCH  26  28
ATOM     28  O   LIG    1       23.679 -21.571   4.324  0.00  0.00    -0.459 OA
BRANCH  28  29
ATOM     29  C   LIG    1       22.651 -20.925   5.096  0.00  0.00    +0.171 C 
ATOM     30  C   LIG    1       22.763 -21.423   6.532  0.00  0.00    +0.051 C 
ATOM     31  C   LIG    1       21.282 -21.266   4.521  0.00  0.00    +0.051 C 
ENDBRANCH  28  29
ENDBRANCH  26  28
ENDBRANCH   3  26
TORSDOF 10
ENDMDL
MODEL 4
REMARK VINA RESULT:       4.3      2.384      6.136
REMARK  Name = *****
REMARK                            x       y       z     vdW  Elec       q    Type
REMARK                         _______ _______ _______ _____ _____    ______ ____
ROOT
ATOM      1  C   LIG    1       27.070 -15.134   3.805  0.00  0.00    +0.065 C 
ATOM      2  C   LIG    1       25.588 -15.324   4.176  0.00  0.00    +0.096 C 
ATOM      3  C   LIG    1       24.695 -14.220   3.599  0.00  0.00    +0.065 C 
ATOM      4  C   LIG    1       25.124 -13.506   2.534  0.00  0.00    +0.016 C 
ATOM      5  C   LIG    1       24.330 -12.448   1.814  0.00  0.00    +0.061 C 
ATOM      6  N   LIG    1       26.402 -13.716   2.034  0.00  0.00    -0.321 N 
ATOM      7  H   LIG    1       26.715 -13.041   1.337  0.00  0.00    +0.152 HD
ATOM      8  C   LIG    1       27.410 -14.351   2.751  0.00  0.00    +0.016 C 
ATOM      9  C   LIG    1       28.805 -14.012   2.280  0.00  0.00    +0.061 C 
ENDROOT
BRANCH   2  10
ATOM     10  C   LIG    1       25.076 -16.717   3.761  0.00  0.00    -0.029 A 
ATOM     11  C   LIG    1       23.794 -17.159   4.135  0.00  0.00    +0.088 A 
ATOM     12  C   LIG    1       23.376 -18.463   3.828  0.00  0.00    +0.273 A 
ATOM     13  C   LIG    1       24.213 -19.334   3.123  0.00  0.00    +0.084 A 
ATOM     14  C   LIG    1       25.477 -18.896   2.728  0.00  0.00    +0.007 A 
ATOM     15  C   LIG    1       25.904 -17.600   3.043  0.00  0.00    +0.005 A 
BRANCH  12  16
ATOM     16  N   LIG    1       22.059 -18.926   4.280  0.00  0.00    +0.080 N 
ATOM     17  O   LIG    1       22.022 -19.869   5.084  0.00  0.00    -0.576 OA
ATOM     18  O   LIG    1       21.058 -18.353   3.826  0.00  0.00    +0.041 OA
ENDBRANCH  12  16
ENDBRANCH   2  10
BRANCH   1  19
ATOM     19  C   LIG    1       27.993 -15.783   4.770  0.00  0.00    +0.338 C 
ATOM     20  O   LIG    1       28.479 -15.180   5.717  0.00  0.00    -0.245 OA
BRANCH  19  21
ATOM     21  O   LIG    1       28.217 -17.085   4.491  0.00  0.00    -0.459 OA
BRANCH  21  22
ATOM     22  C   LIG    1       29.222 -17.742   5.276  0.00  0.00    +0.260 C 
BRANCH  22  23
ATOM     23  C   LIG    1       28.762 -19.091   5.836  0.00  0.00    +0.200 C 
BRANCH  23  25
ATOM     24  C   LIG    1       26.769 -20.347   6.171  0.00  0.00    +0.194 C 
ATOM     25  O   LIG    1       27.521 -19.529   5.284  0.00  0.00    -0.380 OA
ENDBRANCH  23  25
ENDBRANCH  22  23
ENDBRANCH  21  22
ENDBRANCH  19  21
ENDBRANCH   1  19
BRANCH   3  26
ATOM     26  C   LIG    1       23.433 -13.889   4.321  0.00  0.00    +0.338 C 
ATOM     27  O   LIG    1       22.807 -14.679   4.988  0.00  0.00    -0.245 OA
BRANCH  26  28
ATOM     28  O   LIG    1       23.048 -12.595   4.071  0.00  0.00    -0.459 OA
BRANCH  28  29
ATOM     29  C   LIG    1       23.528 -11.604   4.997  0.00  0.00    +0.171 C 
ATOM     30  C   LIG    1       24.882 -12.069   5.520  0.00  0.00    +0.051 C 
ATOM     31  C   LIG    1       22.539 -11.449   6.147  0.00  0.00    +0.051 C 
ENDBRANCH  28  29
ENDBRANCH  26  28
ENDBRANCH   3  26
TORSDOF 10
ENDMDL
MODEL 5
REMARK VINA RESULT:       5.0      2.185      4.974
REMARK  Name = *****
REMARK                            x       y       z     vdW  Elec       q    Type
REMARK                         _______ _______ _______ _____ _____    ______ ____
ROOT
ATOM      1  C   LIG    1       22.550 -17.354   4.371  0.00  0.00    +0.065 C 
ATOM      2  C   LIG    1       23.879 -17.876   4.947  0.00  0.00    +0.096 C 
ATOM      3  C   LIG    1       23.986 -19.403   4.878  0.00  0.00    +0.065 C 
ATOM      4  C   LIG    1       23.225 -20.085   3.993  0.00  0.00    +0.016 C 
ATOM      5  C   LIG    1       23.277 -21.572   3.759  0.00  0.00    +0.061 C 
ATOM      6  N   LIG    1       22.291 -19.406   3.223  0.00  0.00    -0.321 N 
ATOM      7  H   LIG    1       21.649 -19.996   2.695  0.00  0.00    +0.152 HD
ATOM      8  C   LIG    1       21.824 -18.134   3.532  0.00  0.00    +0.016 C 
ATOM      9  C   LIG    1       20.481 -17.808   2.919  0.00  0.00    +0.061 C 
ENDROOT
BRANCH   2  10
ATOM     10  C   LIG    1       25.090 -17.209   4.266  0.00  0.00    -0.029 A 
ATOM     11  C   LIG    1       25.477 -15.898   4.598  0.00  0.00    +0.088 A 
ATOM     12  C   LIG    1       26.524 -15.271   3.906  0.00  0.00    +0.273 A 
ATOM     13  C   LIG    1       27.218 -15.946   2.896  0.00  0.00    +0.084 A 
ATOM     14  C   LIG    1       26.855 -17.254   2.576  0.00  0.00    +0.007 A 
ATOM     15  C   LIG    1       25.803 -17.880   3.254  0.00  0.00    +0.005 A 
BRANCH  12  16
ATOM     16  N   LIG    1       26.874 -13.882   4.226  0.00  0.00    +0.080 N 
ATOM     17  O   LIG    1       27.241 -13.150   3.295  0.00  0.00    -0.576 OA
ATOM     18  O   LIG    1       26.788 -13.522   5.408  0.00  0.00    +0.041 OA
ENDBRANCH  12  16
ENDBRANCH   2  10
BRANCH   1  19
ATOM     19  C   LIG    1       22.161 -16.033   4.925  0.00  0.00    +0.338 C 
ATOM     20  O   LIG    1       21.749 -15.900   6.069  0.00  0.00    -0.245 OA
BRANCH  19  21
ATOM     21  O   LIG    1       22.322 -15.024   4.043  0.00  0.00    -0.459 OA
BRANCH  21  22
ATOM     22  C   LIG    1       23.300 -14.031   4.383  0.00  0.00    +0.260 C 
BRANCH  22  23
ATOM     23  C   LIG    1       23.715 -13.162   3.191  0.00  0.00    +0.200 C 
BRANCH  23  25
ATOM     24  C   LIG    1       23.728 -11.509   4.902  0.00  0.00    +0.194 C 
ATOM     25  O   LIG    1       23.749 -11.770   3.504  0.00  0.00    -0.380 OA
ENDBRANCH  23  25
ENDBRANCH  22  23
ENDBRANCH  21  22
ENDBRANCH  19  21
ENDBRANCH   1  19
BRANCH   3  26
ATOM     26  C   LIG    1       24.840 -20.092   5.889  0.00  0.00    +0.338 C 
ATOM     27  O   LIG    1       24.479 -20.360   7.011  0.00  0.00    -0.245 OA
BRANCH  26  28
ATOM     28  O   LIG    1       26.102 -20.318   5.397  0.00  0.00    -0.459 OA
BRANCH  28  29
ATOM     29  C   LIG    1       27.187 -20.082   6.311  0.00  0.00    +0.171 C 
ATOM     30  C   LIG    1       28.302 -19.381   5.542  0.00  0.00    +0.051 C 
ATOM     31  C   LIG    1       27.684 -21.407   6.877  0.00  0.00    +0.051 C 
ENDBRANCH  28  29
ENDBRANCH  26  28
ENDBRANCH   3  26
TORSDOF 10
ENDMDL
MODEL 6
REMARK VINA RESULT:       5.1      2.277      6.900
REMARK  Name = *****
REMARK                            x       y       z     vdW  Elec       q    Type
REMARK                         _______ _______ _______ _____ _____    ______ ____
ROOT
ATOM      1  C   LIG    1       24.498 -18.555   3.449  0.00  0.00    +0.065 C 
ATOM      2  C   LIG    1       25.740 -17.654   3.316  0.00  0.00    +0.096 C 
ATOM      3  C   LIG    1       25.415 -16.174   3.546  0.00  0.00    +0.065 C 
ATOM      4  C   LIG    1       24.305 -15.836   4.239  0.00  0.00    +0.016 C 
ATOM      5  C   LIG    1       23.899 -14.433   4.608  0.00  0.00    +0.061 C 
ATOM      6  N   LIG    1       23.425 -16.826   4.654  0.00  0.00    -0.321 N 
ATOM      7  H   LIG    1       22.539 -16.492   5.031  0.00  0.00    +0.152 HD
ATOM      8  C   LIG    1       23.405 -18.107   4.117  0.00  0.00    +0.016 C 
ATOM      9  C   LIG    1       22.090 -18.829   4.298  0.00  0.00    +0.061 C 
ENDROOT
BRANCH   2  10
ATOM     10  C   LIG    1       26.876 -18.118   4.248  0.00  0.00    -0.029 A 
ATOM     11  C   LIG    1       26.794 -19.343   4.935  0.00  0.00    +0.088 A 
ATOM     12  C   LIG    1       27.793 -19.711   5.849  0.00  0.00    +0.273 A 
ATOM     13  C   LIG    1       28.898 -18.883   6.071  0.00  0.00    +0.084 A 
ATOM     14  C   LIG    1       28.998 -17.678   5.377  0.00  0.00    +0.007 A 
ATOM     15  C   LIG    1       27.998 -17.300   4.474  0.00  0.00    +0.005 A 
BRANCH  12  16
ATOM     16  N   LIG    1       27.660 -20.964   6.601  0.00  0.00    +0.080 N 
ATOM     17  O   LIG    1       26.515 -21.362   6.864  0.00  0.00    -0.576 OA
ATOM     18  O   LIG    1       28.699 -21.550   6.937  0.00  0.00    +0.041 OA
ENDBRANCH  12  16
ENDBRANCH   2  10
BRANCH   1  19
ATOM     19  C   LIG    1       24.625 -19.826   2.694  0.00  0.00    +0.338 C 
ATOM     20  O   LIG    1       25.459 -19.984   1.813  0.00  0.00    -0.245 OA
BRANCH  19  21
ATOM     21  O   LIG    1       23.743 -20.767   3.094  0.00  0.00    -0.459 OA
BRANCH  21  22
ATOM     22  C   LIG    1       24.005 -21.391   4.358  0.00  0.00    +0.260 C 
BRANCH  22  23
ATOM     23  C   LIG    1       22.747 -21.572   5.214  0.00  0.00    +0.200 C 
BRANCH  23  25
ATOM     24  C   LIG    1       23.952 -20.356   6.866  0.00  0.00    +0.194 C 
ATOM     25  O   LIG    1       22.988 -21.369   6.606  0.00  0.00    -0.380 OA
ENDBRANCH  23  25
ENDBRANCH  22  23
ENDBRANCH  21  22
ENDBRANCH  19  21
ENDBRANCH   1  19
BRANCH   3  26
ATOM     26  C   LIG    1       26.277 -15.155   2.879  0.00  0.00    +0.338 C 
ATOM     27  O   LIG    1       26.024 -14.648   1.812  0.00  0.00    -0.245 OA
BRANCH  26  28
ATOM     28  O   LIG    1       27.421 -14.926   3.605  0.00  0.00    -0.459 OA
BRANCH  28  29
ATOM     29  C   LIG    1       27.594 -13.588   4.104  0.00  0.00    +0.171 C 
ATOM     30  C   LIG    1       29.001 -13.131   3.736  0.00  0.00    +0.051 C 
ATOM     31  C   LIG    1       27.409 -13.572   5.616  0.00  0.00    +0.051 C 
ENDBRANCH  28  29
ENDBRANCH  26  28
ENDBRANCH   3  26
TORSDOF 10
ENDMDL
MODEL 7
REMARK VINA RESULT:       5.1      2.193      4.784
REMARK  Name = *****
REMARK                            x       y       z     vdW  Elec       q    Type
REMARK                         _______ _______ _______ _____ _____    ______ ____
ROOT
ATOM      1  C   LIG    1       22.007 -17.456   4.488  0.00  0.00    +0.065 C 
ATOM      2  C   LIG    1       23.031 -18.500   4.969  0.00  0.00    +0.096 C 
ATOM      3  C   LIG    1       22.453 -19.919   4.986  0.00  0.00    +0.065 C 
ATOM      4  C   LIG    1       21.378 -20.210   4.220  0.00  0.00    +0.016 C 
ATOM      5  C   LIG    1       20.751 -21.572   4.074  0.00  0.00    +0.061 C 
ATOM      6  N   LIG    1       20.754 -19.201   3.499  0.00  0.00    -0.321 N 
ATOM      7  H   LIG    1       19.865 -19.456   3.071  0.00  0.00    +0.152 HD
ATOM      8  C   LIG    1       20.925 -17.848   3.770  0.00  0.00    +0.016 C 
ATOM      9  C   LIG    1       19.800 -16.974   3.267  0.00  0.00    +0.061 C 
ENDROOT
BRANCH   2  10
ATOM     10  C   LIG    1       24.327 -18.444   4.138  0.00  0.00    -0.029 A 
ATOM     11  C   LIG    1       25.179 -17.326   4.200  0.00  0.00    +0.088 A 
ATOM     12  C   LIG    1       26.308 -17.249   3.371  0.00  0.00    +0.273 A 
ATOM     13  C   LIG    1       26.621 -18.290   2.491  0.00  0.00    +0.084 A 
ATOM     14  C   LIG    1       25.794 -19.412   2.440  0.00  0.00    +0.007 A 
ATOM     15  C   LIG    1       24.659 -19.488   3.255  0.00  0.00    +0.005 A 
BRANCH  12  16
ATOM     16  N   LIG    1       27.152 -16.049   3.406  0.00  0.00    +0.080 N 
ATOM     17  O   LIG    1       26.899 -15.140   2.600  0.00  0.00    -0.576 OA
ATOM     18  O   LIG    1       28.072 -16.013   4.234  0.00  0.00    +0.041 OA
ENDBRANCH  12  16
ENDBRANCH   2  10
BRANCH   1  19
ATOM     19  C   LIG    1       22.295 -16.090   4.993  0.00  0.00    +0.338 C 
ATOM     20  O   LIG    1       21.799 -15.654   6.023  0.00  0.00    -0.245 OA
BRANCH  19  21
ATOM     21  O   LIG    1       23.158 -15.409   4.209  0.00  0.00    -0.459 OA
BRANCH  21  22
ATOM     22  C   LIG    1       23.455 -14.064   4.605  0.00  0.00    +0.260 C 
BRANCH  22  23
ATOM     23  C   LIG    1       24.527 -13.401   3.733  0.00  0.00    +0.200 C 
BRANCH  23  25
ATOM     24  C   LIG    1       24.251 -11.864   1.939  0.00  0.00    +0.194 C 
ATOM     25  O   LIG    1       24.102 -13.206   2.385  0.00  0.00    -0.380 OA
ENDBRANCH  23  25
ENDBRANCH  22  23
ENDBRANCH  21  22
ENDBRANCH  19  21
ENDBRANCH   1  19
BRANCH   3  26
ATOM     26  C   LIG    1       23.027 -20.899   5.953  0.00  0.00    +0.338 C 
ATOM     27  O   LIG    1       22.580 -21.101   7.058  0.00  0.00    -0.245 OA
BRANCH  26  28
ATOM     28  O   LIG    1       24.163 -21.483   5.447  0.00  0.00    -0.459 OA
BRANCH  28  29
ATOM     29  C   LIG    1       25.333 -21.416   6.282  0.00  0.00    +0.171 C 
ATOM     30  C   LIG    1       25.278 -20.106   7.060  0.00  0.00    +0.051 C 
ATOM     31  C   LIG    1       26.587 -21.469   5.419  0.00  0.00    +0.051 C 
ENDBRANCH  28  29
ENDBRANCH  26  28
ENDBRANCH   3  26
TORSDOF 10
ENDMDL
