MODEL 1
REMARK VINA RESULT:      -7.8      0.000      0.000
REMARK  Name = *****
REMARK                            x       y       z     vdW  Elec       q    Type
REMARK                         _______ _______ _______ _____ _____    ______ ____
ROOT
ATOM      1  C   LIG    1       26.040 -20.035   4.775  0.00  0.00    +0.339 C 
ATOM      2  O   LIG    1       25.764 -19.158   3.988  0.00  0.00    -0.245 OA
ENDROOT
BRANCH   1   3
ATOM      3  C   LIG    1       27.185 -20.003   5.726  0.00  0.00    +0.059 A 
ATOM      4  C   LIG    1       27.153 -20.733   6.915  0.00  0.00    +0.017 A 
ATOM      5  C   LIG    1       28.231 -20.698   7.798  0.00  0.00    +0.024 A 
ATOM      6  C   LIG    1       29.369 -19.929   7.531  0.00  0.00    +0.029 A 
ATOM      7  C   LIG    1       29.389 -19.194   6.332  0.00  0.00    +0.024 A 
ATOM      8  C   LIG    1       28.315 -19.233   5.429  0.00  0.00    +0.017 A 
BRANCH   6   9
ATOM      9  N   LIG    1       30.472 -19.875   8.401  0.00  0.00    -0.336 N 
ATOM     10  C   LIG    1       30.987 -21.199   8.760  0.00  0.00    +0.129 C 
ATOM     11  C   LIG    1       31.494 -18.871   8.105  0.00  0.00    +0.129 C 
ENDBRANCH   6   9
ENDBRANCH   1   3
BRANCH   1  12
ATOM     12  O   LIG    1       25.373 -21.208   4.955  0.00  0.00    -0.461 OA
BRANCH  12  13
ATOM     13  C   LIG    1       24.067 -21.304   4.383  0.00  0.00    +0.236 C 
BRANCH  13  14
ATOM     14  C   LIG    1       22.966 -21.147   5.449  0.00  0.00    +0.026 C 
BRANCH  14  15
ATOM     15  C   LIG    1       22.577 -19.664   5.679  0.00  0.00    +0.003 C 
ATOM     16  C   LIG    1       22.282 -18.840   4.433  0.00  0.00    +0.004 C 
ENDBRANCH  14  15
BRANCH  14  17
ATOM     17  C   LIG    1       23.402 -21.926   6.712  0.00  0.00    +0.007 C 
BRANCH  17  18
ATOM     18  C   LIG    1       22.848 -23.352   6.814  0.00  0.00    +0.000 C 
BRANCH  18  20
ATOM     19  C   LIG    1       25.282 -24.002   6.981  0.00  0.00    +0.004 C 
ATOM     20  C   LIG    1       23.906 -24.411   6.474  0.00  0.00    -0.003 C 
ENDBRANCH  18  20
ENDBRANCH  17  18
ENDBRANCH  14  17
ENDBRANCH  13  14
ENDBRANCH  12  13
ENDBRANCH   1  12
TORSDOF 9
ENDMDL
MODEL 2
REMARK VINA RESULT:      -7.4      2.874      6.326
REMARK  Name = *****
REMARK                            x       y       z     vdW  Elec       q    Type
REMARK                         _______ _______ _______ _____ _____    ______ ____
ROOT
ATOM      1  C   LIG    1       24.585 -21.911   7.822  0.00  0.00    +0.339 C 
ATOM      2  O   LIG    1       23.565 -21.287   8.006  0.00  0.00    -0.245 OA
ENDROOT
BRANCH   1   3
ATOM      3  C   LIG    1       24.663 -23.263   7.203  0.00  0.00    +0.059 A 
ATOM      4  C   LIG    1       23.520 -23.900   6.720  0.00  0.00    +0.017 A 
ATOM      5  C   LIG    1       23.603 -25.165   6.141  0.00  0.00    +0.024 A 
ATOM      6  C   LIG    1       24.825 -25.839   6.032  0.00  0.00    +0.029 A 
ATOM      7  C   LIG    1       25.971 -25.190   6.525  0.00  0.00    +0.024 A 
ATOM      8  C   LIG    1       25.900 -23.910   7.099  0.00  0.00    +0.017 A 
BRANCH   6   9
ATOM      9  N   LIG    1       24.941 -27.114   5.452  0.00  0.00    -0.336 N 
ATOM     10  C   LIG    1       26.239 -27.340   4.812  0.00  0.00    +0.129 C 
ATOM     11  C   LIG    1       24.431 -28.240   6.235  0.00  0.00    +0.129 C 
ENDBRANCH   6   9
ENDBRANCH   1   3
BRANCH   1  12
ATOM     12  O   LIG    1       25.849 -21.515   8.133  0.00  0.00    -0.461 OA
BRANCH  12  13
ATOM     13  C   LIG    1       26.322 -20.315   7.517  0.00  0.00    +0.236 C 
BRANCH  13  14
ATOM     14  C   LIG    1       27.013 -20.601   6.169  0.00  0.00    +0.026 C 
BRANCH  14  15
ATOM     15  C   LIG    1       28.529 -20.283   6.208  0.00  0.00    +0.003 C 
ATOM     16  C   LIG    1       29.223 -20.453   7.553  0.00  0.00    +0.004 C 
ENDBRANCH  14  15
BRANCH  14  17
ATOM     17  C   LIG    1       26.210 -19.892   5.054  0.00  0.00    +0.007 C 
BRANCH  17  18
ATOM     18  C   LIG    1       24.980 -20.660   4.557  0.00  0.00    +0.000 C 
BRANCH  18  20
ATOM     19  C   LIG    1       22.721 -19.648   5.060  0.00  0.00    +0.004 C 
ATOM     20  C   LIG    1       23.870 -19.720   4.063  0.00  0.00    -0.003 C 
ENDBRANCH  18  20
ENDBRANCH  17  18
ENDBRANCH  14  17
ENDBRANCH  13  14
ENDBRANCH  12  13
ENDBRANCH   1  12
TORSDOF 9
ENDMDL
MODEL 3
REMARK VINA RESULT:      -7.0      2.816      7.178
REMARK  Name = *****
REMARK                            x       y       z     vdW  Elec       q    Type
REMARK                         _______ _______ _______ _____ _____    ______ ____
ROOT
ATOM      1  C   LIG    1       27.096 -21.320   7.860  0.00  0.00    +0.339 C 
ATOM      2  O   LIG    1       27.034 -21.621   9.030  0.00  0.00    -0.245 OA
ENDROOT
BRANCH   1   3
ATOM      3  C   LIG    1       25.932 -20.961   7.004  0.00  0.00    +0.059 A 
ATOM      4  C   LIG    1       24.629 -21.026   7.498  0.00  0.00    +0.017 A 
ATOM      5  C   LIG    1       23.545 -20.687   6.689  0.00  0.00    +0.024 A 
ATOM      6  C   LIG    1       23.724 -20.280   5.362  0.00  0.00    +0.029 A 
ATOM      7  C   LIG    1       25.041 -20.221   4.873  0.00  0.00    +0.024 A 
ATOM      8  C   LIG    1       26.140 -20.549   5.683  0.00  0.00    +0.017 A 
BRANCH   6   9
ATOM      9  N   LIG    1       22.651 -19.930   4.524  0.00  0.00    -0.336 N 
ATOM     10  C   LIG    1       21.530 -20.869   4.603  0.00  0.00    +0.129 C 
ATOM     11  C   LIG    1       22.276 -18.516   4.492  0.00  0.00    +0.129 C 
ENDBRANCH   6   9
ENDBRANCH   1   3
BRANCH   1  12
ATOM     12  O   LIG    1       28.221 -21.244   7.097  0.00  0.00    -0.461 OA
BRANCH  12  13
ATOM     13  C   LIG    1       29.450 -20.991   7.780  0.00  0.00    +0.236 C 
BRANCH  13  14
ATOM     14  C   LIG    1       29.830 -19.499   7.736  0.00  0.00    +0.026 C 
BRANCH  14  15
ATOM     15  C   LIG    1       30.269 -19.046   6.320  0.00  0.00    +0.003 C 
ATOM     16  C   LIG    1       29.219 -18.329   5.481  0.00  0.00    +0.004 C 
ENDBRANCH  14  15
BRANCH  14  17
ATOM     17  C   LIG    1       30.846 -19.225   8.869  0.00  0.00    +0.007 C 
BRANCH  17  18
ATOM     18  C   LIG    1       31.744 -18.003   8.648  0.00  0.00    +0.000 C 
BRANCH  18  20
ATOM     19  C   LIG    1       30.410 -17.296  10.673  0.00  0.00    +0.004 C 
ATOM     20  C   LIG    1       31.408 -16.854   9.611  0.00  0.00    -0.003 C 
ENDBRANCH  18  20
ENDBRANCH  17  18
ENDBRANCH  14  17
ENDBRANCH  13  14
ENDBRANCH  12  13
ENDBRANCH   1  12
TORSDOF 9
ENDMDL
MODEL 4
REMARK VINA RESULT:      -6.9      3.924      7.205
REMARK  Name = *****
REMARK                            x       y       z     vdW  Elec       q    Type
REMARK                         _______ _______ _______ _____ _____    ______ ____
ROOT
ATOM      1  C   LIG    1       25.159 -24.496   5.468  0.00  0.00    +0.339 C 
ATOM      2  O   LIG    1       24.829 -24.176   4.349  0.00  0.00    -0.245 OA
ENDROOT
BRANCH   1   3
ATOM      3  C   LIG    1       25.158 -25.887   5.998  0.00  0.00    +0.059 A 
ATOM      4  C   LIG    1       26.030 -26.269   7.018  0.00  0.00    +0.017 A 
ATOM      5  C   LIG    1       26.021 -27.574   7.508  0.00  0.00    +0.024 A 
ATOM      6  C   LIG    1       25.150 -28.542   6.992  0.00  0.00    +0.029 A 
ATOM      7  C   LIG    1       24.279 -28.147   5.962  0.00  0.00    +0.024 A 
ATOM      8  C   LIG    1       24.271 -26.832   5.470  0.00  0.00    +0.017 A 
BRANCH   6   9
ATOM      9  N   LIG    1       25.118 -29.865   7.467  0.00  0.00    -0.336 N 
ATOM     10  C   LIG    1       24.155 -30.063   8.553  0.00  0.00    +0.129 C 
ATOM     11  C   LIG    1       25.142 -30.925   6.459  0.00  0.00    +0.129 C 
ENDBRANCH   6   9
ENDBRANCH   1   3
BRANCH   1  12
ATOM     12  O   LIG    1       25.593 -23.668   6.457  0.00  0.00    -0.461 OA
BRANCH  12  13
ATOM     13  C   LIG    1       24.620 -22.808   7.054  0.00  0.00    +0.236 C 
BRANCH  13  14
ATOM     14  C   LIG    1       24.730 -21.367   6.518  0.00  0.00    +0.026 C 
BRANCH  14  15
ATOM     15  C   LIG    1       25.916 -20.594   7.149  0.00  0.00    +0.003 C 
ATOM     16  C   LIG    1       26.020 -20.633   8.667  0.00  0.00    +0.004 C 
ENDBRANCH  14  15
BRANCH  14  17
ATOM     17  C   LIG    1       23.344 -20.693   6.659  0.00  0.00    +0.007 C 
BRANCH  17  18
ATOM     18  C   LIG    1       22.519 -20.640   5.368  0.00  0.00    +0.000 C 
BRANCH  18  20
ATOM     19  C   LIG    1       23.652 -18.996   3.822  0.00  0.00    +0.004 C 
ATOM     20  C   LIG    1       22.478 -19.229   4.763  0.00  0.00    -0.003 C 
ENDBRANCH  18  20
ENDBRANCH  17  18
ENDBRANCH  14  17
ENDBRANCH  13  14
ENDBRANCH  12  13
ENDBRANCH   1  12
TORSDOF 9
ENDMDL
MODEL 5
REMARK VINA RESULT:      -6.9      0.964      1.698
REMARK  Name = *****
REMARK                            x       y       z     vdW  Elec       q    Type
REMARK                         _______ _______ _______ _____ _____    ______ ____
ROOT
ATOM      1  C   LIG    1       26.275 -20.136   5.128  0.00  0.00    +0.339 C 
ATOM      2  O   LIG    1       25.902 -19.553   4.135  0.00  0.00    -0.245 OA
ENDROOT
BRANCH   1   3
ATOM      3  C   LIG    1       27.516 -19.826   5.888  0.00  0.00    +0.059 A 
ATOM      4  C   LIG    1       28.508 -19.010   5.344  0.00  0.00    +0.017 A 
ATOM      5  C   LIG    1       29.667 -18.723   6.065  0.00  0.00    +0.024 A 
ATOM      6  C   LIG    1       29.878 -19.248   7.346  0.00  0.00    +0.029 A 
ATOM      7  C   LIG    1       28.874 -20.072   7.883  0.00  0.00    +0.024 A 
ATOM      8  C   LIG    1       27.697 -20.356   7.171  0.00  0.00    +0.017 A 
BRANCH   6   9
ATOM      9  N   LIG    1       31.035 -18.976   8.096  0.00  0.00    -0.336 N 
ATOM     10  C   LIG    1       31.000 -17.667   8.753  0.00  0.00    +0.129 C 
ATOM     11  C   LIG    1       31.556 -20.068   8.919  0.00  0.00    +0.129 C 
ENDBRANCH   6   9
ENDBRANCH   1   3
BRANCH   1  12
ATOM     12  O   LIG    1       25.650 -21.175   5.745  0.00  0.00    -0.461 OA
BRANCH  12  13
ATOM     13  C   LIG    1       24.634 -21.853   5.002  0.00  0.00    +0.236 C 
BRANCH  13  14
ATOM     14  C   LIG    1       23.290 -21.868   5.756  0.00  0.00    +0.026 C 
BRANCH  14  15
ATOM     15  C   LIG    1       22.885 -20.460   6.260  0.00  0.00    +0.003 C 
ATOM     16  C   LIG    1       22.495 -19.444   5.195  0.00  0.00    +0.004 C 
ENDBRANCH  14  15
BRANCH  14  17
ATOM     17  C   LIG    1       23.356 -22.972   6.837  0.00  0.00    +0.007 C 
BRANCH  17  18
ATOM     18  C   LIG    1       24.488 -23.988   6.653  0.00  0.00    +0.000 C 
BRANCH  18  20
ATOM     19  C   LIG    1       24.905 -26.474   6.489  0.00  0.00    +0.004 C 
ATOM     20  C   LIG    1       23.980 -25.328   6.100  0.00  0.00    -0.003 C 
ENDBRANCH  18  20
ENDBRANCH  17  18
ENDBRANCH  14  17
ENDBRANCH  13  14
ENDBRANCH  12  13
ENDBRANCH   1  12
TORSDOF 9
ENDMDL
MODEL 6
REMARK VINA RESULT:      -6.9      1.027      3.183
REMARK  Name = *****
REMARK                            x       y       z     vdW  Elec       q    Type
REMARK                         _______ _______ _______ _____ _____    ______ ____
ROOT
ATOM      1  C   LIG    1       26.427 -20.277   5.568  0.00  0.00    +0.339 C 
ATOM      2  O   LIG    1       26.196 -20.106   4.392  0.00  0.00    -0.245 OA
ENDROOT
BRANCH   1   3
ATOM      3  C   LIG    1       27.760 -20.113   6.212  0.00  0.00    +0.059 A 
ATOM      4  C   LIG    1       28.685 -19.189   5.725  0.00  0.00    +0.017 A 
ATOM      5  C   LIG    1       29.930 -19.042   6.335  0.00  0.00    +0.024 A 
ATOM      6  C   LIG    1       30.295 -19.815   7.443  0.00  0.00    +0.029 A 
ATOM      7  C   LIG    1       29.357 -20.746   7.923  0.00  0.00    +0.024 A 
ATOM      8  C   LIG    1       28.096 -20.893   7.324  0.00  0.00    +0.017 A 
BRANCH   6   9
ATOM      9  N   LIG    1       31.542 -19.688   8.081  0.00  0.00    -0.336 N 
ATOM     10  C   LIG    1       31.850 -18.311   8.473  0.00  0.00    +0.129 C 
ATOM     11  C   LIG    1       31.877 -20.707   9.076  0.00  0.00    +0.129 C 
ENDBRANCH   6   9
ENDBRANCH   1   3
BRANCH   1  12
ATOM     12  O   LIG    1       25.536 -20.645   6.528  0.00  0.00    -0.461 OA
BRANCH  12  13
ATOM     13  C   LIG    1       24.892 -21.910   6.363  0.00  0.00    +0.236 C 
BRANCH  13  14
ATOM     14  C   LIG    1       23.467 -21.904   6.948  0.00  0.00    +0.026 C 
BRANCH  14  15
ATOM     15  C   LIG    1       22.696 -23.209   6.628  0.00  0.00    +0.003 C 
ATOM     16  C   LIG    1       23.520 -24.489   6.582  0.00  0.00    +0.004 C 
ENDBRANCH  14  15
BRANCH  14  17
ATOM     17  C   LIG    1       22.771 -20.594   6.510  0.00  0.00    +0.007 C 
BRANCH  17  18
ATOM     18  C   LIG    1       22.356 -20.545   5.035  0.00  0.00    +0.000 C 
BRANCH  18  20
ATOM     19  C   LIG    1       22.044 -18.100   4.486  0.00  0.00    +0.004 C 
ATOM     20  C   LIG    1       22.935 -19.322   4.309  0.00  0.00    -0.003 C 
ENDBRANCH  18  20
ENDBRANCH  17  18
ENDBRANCH  14  17
ENDBRANCH  13  14
ENDBRANCH  12  13
ENDBRANCH   1  12
TORSDOF 9
ENDMDL
MODEL 7
REMARK VINA RESULT:      -6.9      2.335      4.306
REMARK  Name = *****
REMARK                            x       y       z     vdW  Elec       q    Type
REMARK                         _______ _______ _______ _____ _____    ______ ____
ROOT
ATOM      1  C   LIG    1       28.788 -20.114   7.214  0.00  0.00    +0.339 C 
ATOM      2  O   LIG    1       28.703 -20.151   6.007  0.00  0.00    -0.245 OA
ENDROOT
BRANCH   1   3
ATOM      3  C   LIG    1       29.768 -19.296   7.979  0.00  0.00    +0.059 A 
ATOM      4  C   LIG    1       31.093 -19.179   7.558  0.00  0.00    +0.017 A 
ATOM      5  C   LIG    1       32.003 -18.409   8.280  0.00  0.00    +0.024 A 
ATOM      6  C   LIG    1       31.625 -17.738   9.449  0.00  0.00    +0.029 A 
ATOM      7  C   LIG    1       30.289 -17.866   9.867  0.00  0.00    +0.024 A 
ATOM      8  C   LIG    1       29.361 -18.628   9.140  0.00  0.00    +0.017 A 
BRANCH   6   9
ATOM      9  N   LIG    1       32.519 -16.953  10.198  0.00  0.00    -0.336 N 
ATOM     10  C   LIG    1       32.787 -15.648   9.590  0.00  0.00    +0.129 C 
ATOM     11  C   LIG    1       32.321 -16.934  11.647  0.00  0.00    +0.129 C 
ENDBRANCH   6   9
ENDBRANCH   1   3
BRANCH   1  12
ATOM     12  O   LIG    1       28.020 -20.797   8.106  0.00  0.00    -0.461 OA
BRANCH  12  13
ATOM     13  C   LIG    1       26.661 -20.377   8.243  0.00  0.00    +0.236 C 
BRANCH  13  14
ATOM     14  C   LIG    1       25.682 -21.415   7.661  0.00  0.00    +0.026 C 
BRANCH  14  15
ATOM     15  C   LIG    1       26.379 -22.760   7.333  0.00  0.00    +0.003 C 
ATOM     16  C   LIG    1       25.472 -23.910   6.916  0.00  0.00    +0.004 C 
ENDBRANCH  14  15
BRANCH  14  17
ATOM     17  C   LIG    1       24.920 -20.755   6.488  0.00  0.00    +0.007 C 
BRANCH  17  18
ATOM     18  C   LIG    1       23.406 -20.632   6.691  0.00  0.00    +0.000 C 
BRANCH  18  20
ATOM     19  C   LIG    1       23.669 -19.797   4.322  0.00  0.00    +0.004 C 
ATOM     20  C   LIG    1       22.712 -19.964   5.495  0.00  0.00    -0.003 C 
ENDBRANCH  18  20
ENDBRANCH  17  18
ENDBRANCH  14  17
ENDBRANCH  13  14
ENDBRANCH  12  13
ENDBRANCH   1  12
TORSDOF 9
ENDMDL
MODEL 8
REMARK VINA RESULT:      -6.8      2.582      7.217
REMARK  Name = *****
REMARK                            x       y       z     vdW  Elec       q    Type
REMARK                         _______ _______ _______ _____ _____    ______ ____
ROOT
ATOM      1  C   LIG    1       28.848 -19.279   5.882  0.00  0.00    +0.339 C 
ATOM      2  O   LIG    1       29.057 -18.305   5.195  0.00  0.00    -0.245 OA
ENDROOT
BRANCH   1   3
ATOM      3  C   LIG    1       27.513 -19.901   6.102  0.00  0.00    +0.059 A 
ATOM      4  C   LIG    1       27.160 -20.424   7.346  0.00  0.00    +0.017 A 
ATOM      5  C   LIG    1       25.907 -21.004   7.543  0.00  0.00    +0.024 A 
ATOM      6  C   LIG    1       24.971 -21.089   6.505  0.00  0.00    +0.029 A 
ATOM      7  C   LIG    1       25.339 -20.562   5.255  0.00  0.00    +0.024 A 
ATOM      8  C   LIG    1       26.593 -19.965   5.049  0.00  0.00    +0.017 A 
BRANCH   6   9
ATOM      9  N   LIG    1       23.701 -21.666   6.674  0.00  0.00    -0.336 N 
ATOM     10  C   LIG    1       22.707 -21.155   5.727  0.00  0.00    +0.129 C 
ATOM     11  C   LIG    1       23.661 -23.112   6.896  0.00  0.00    +0.129 C 
ENDBRANCH   6   9
ENDBRANCH   1   3
BRANCH   1  12
ATOM     12  O   LIG    1       29.769 -19.996   6.581  0.00  0.00    -0.461 OA
BRANCH  12  13
ATOM     13  C   LIG    1       31.046 -19.387   6.782  0.00  0.00    +0.236 C 
BRANCH  13  14
ATOM     14  C   LIG    1       31.531 -19.548   8.236  0.00  0.00    +0.026 C 
BRANCH  14  15
ATOM     15  C   LIG    1       30.723 -20.621   9.009  0.00  0.00    +0.003 C 
ATOM     16  C   LIG    1       31.330 -22.017   9.065  0.00  0.00    +0.004 C 
ENDBRANCH  14  15
BRANCH  14  17
ATOM     17  C   LIG    1       31.573 -18.146   8.889  0.00  0.00    +0.007 C 
BRANCH  17  18
ATOM     18  C   LIG    1       30.232 -17.651   9.441  0.00  0.00    +0.000 C 
BRANCH  18  20
ATOM     19  C   LIG    1       31.688 -16.938  11.377  0.00  0.00    +0.004 C 
ATOM     20  C   LIG    1       30.293 -17.373  10.951  0.00  0.00    -0.003 C 
ENDBRANCH  18  20
ENDBRANCH  17  18
ENDBRANCH  14  17
ENDBRANCH  13  14
ENDBRANCH  12  13
ENDBRANCH   1  12
TORSDOF 9
ENDMDL
MODEL 9
REMARK VINA RESULT:      -6.7      3.622      6.773
REMARK  Name = *****
REMARK                            x       y       z     vdW  Elec       q    Type
REMARK                         _______ _______ _______ _____ _____    ______ ____
ROOT
ATOM      1  C   LIG    1       24.959 -23.827   5.690  0.00  0.00    +0.339 C 
ATOM      2  O   LIG    1       24.773 -23.349   4.594  0.00  0.00    -0.245 OA
ENDROOT
BRANCH   1   3
ATOM      3  C   LIG    1       25.026 -25.284   5.990  0.00  0.00    +0.059 A 
ATOM      4  C   LIG    1       24.187 -26.191   5.342  0.00  0.00    +0.017 A 
ATOM      5  C   LIG    1       24.258 -27.554   5.628  0.00  0.00    +0.024 A 
ATOM      6  C   LIG    1       25.161 -28.055   6.572  0.00  0.00    +0.029 A 
ATOM      7  C   LIG    1       25.999 -27.132   7.222  0.00  0.00    +0.024 A 
ATOM      8  C   LIG    1       25.945 -25.759   6.932  0.00  0.00    +0.017 A 
BRANCH   6   9
ATOM      9  N   LIG    1       25.257 -29.423   6.880  0.00  0.00    -0.336 N 
ATOM     10  C   LIG    1       24.448 -29.810   8.038  0.00  0.00    +0.129 C 
ATOM     11  C   LIG    1       25.211 -30.355   5.753  0.00  0.00    +0.129 C 
ENDBRANCH   6   9
ENDBRANCH   1   3
BRANCH   1  12
ATOM     12  O   LIG    1       25.145 -23.148   6.855  0.00  0.00    -0.461 OA
BRANCH  12  13
ATOM     13  C   LIG    1       24.011 -22.468   7.395  0.00  0.00    +0.236 C 
BRANCH  13  14
ATOM     14  C   LIG    1       24.120 -20.942   7.209  0.00  0.00    +0.026 C 
BRANCH  14  15
ATOM     15  C   LIG    1       23.072 -20.396   6.207  0.00  0.00    +0.003 C 
ATOM     16  C   LIG    1       23.587 -20.023   4.823  0.00  0.00    +0.004 C 
ENDBRANCH  14  15
BRANCH  14  17
ATOM     17  C   LIG    1       25.593 -20.599   6.888  0.00  0.00    +0.007 C 
BRANCH  17  18
ATOM     18  C   LIG    1       26.495 -20.418   8.115  0.00  0.00    +0.000 C 
BRANCH  18  20
ATOM     19  C   LIG    1       28.153 -20.119   6.233  0.00  0.00    +0.004 C 
ATOM     20  C   LIG    1       27.979 -20.316   7.733  0.00  0.00    -0.003 C 
ENDBRANCH  18  20
ENDBRANCH  17  18
ENDBRANCH  14  17
ENDBRANCH  13  14
ENDBRANCH  12  13
ENDBRANCH   1  12
TORSDOF 9
ENDMDL
