MODEL 1
REMARK VINA RESULT:       6.9      0.000      0.000
REMARK  Name = *****
REMARK                            x       y       z     vdW  Elec       q    Type
REMARK                         _______ _______ _______ _____ _____    ______ ____
ROOT
ATOM      1  C   LIG    1       25.392 -15.086   4.092  0.00  0.00    +0.064 A 
ATOM      2  C   LIG    1       26.715 -15.563   3.981  0.00  0.00    +0.049 A 
ATOM      3  I   LIG    1       28.260 -14.241   3.302  0.00  0.00    -0.041 I 
ATOM      4  C   LIG    1       26.962 -16.946   4.014  0.00  0.00    +0.065 A 
ATOM      5  C   LIG    1       25.889 -17.812   3.724  0.00  0.00    +0.040 A 
ATOM      6  I   LIG    1       26.410 -19.612   2.670  0.00  0.00    -0.042 I 
ATOM      7  C   LIG    1       24.552 -17.374   3.850  0.00  0.00    +0.065 A 
ATOM      8  C   LIG    1       24.342 -16.024   4.196  0.00  0.00    +0.049 A 
ATOM      9  I   LIG    1       22.531 -15.370   5.198  0.00  0.00    -0.041 I 
ENDROOT
BRANCH   1  11
ATOM     10  C   LIG    1       25.282 -12.894   5.235  0.00  0.00    +0.138 C 
ATOM     11  N   LIG    1       25.082 -13.691   4.031  0.00  0.00    -0.271 N 
ATOM     12  C   LIG    1       24.558 -13.167   2.845  0.00  0.00    +0.245 C 
ATOM     13  O   LIG    1       24.430 -13.835   1.814  0.00  0.00    -0.273 OA
BRANCH  12  14
ATOM     14  C   LIG    1       24.218 -11.672   2.828  0.00  0.00    +0.252 C 
BRANCH  14  15
ATOM     15  O   LIG    1       22.822 -11.447   2.741  0.00  0.00    -0.386 OA
ATOM     16  H   LIG    1       22.458 -12.143   2.161  0.00  0.00    +0.210 HD
ENDBRANCH  14  15
ENDBRANCH  12  14
ENDBRANCH   1  11
BRANCH   4  17
ATOM     17  C   LIG    1       28.225 -17.483   4.638  0.00  0.00    +0.246 C 
ATOM     18  N   LIG    1       28.073 -18.576   5.479  0.00  0.00    -0.309 N 
ATOM     19  H   LIG    1       27.170 -19.027   5.566  0.00  0.00    +0.149 HD
ATOM     20  O   LIG    1       29.324 -16.938   4.489  0.00  0.00    -0.270 OA
BRANCH  18  21
ATOM     21  C   LIG    1       29.190 -19.156   6.227  0.00  0.00    +0.138 C 
BRANCH  21  22
ATOM     22  C   LIG    1       28.970 -20.610   6.711  0.00  0.00    +0.157 C 
BRANCH  22  23
ATOM     23  O   LIG    1       29.325 -21.569   5.703  0.00  0.00    -0.388 OA
ATOM     24  H   LIG    1       28.530 -21.733   5.162  0.00  0.00    +0.210 HD
ENDBRANCH  22  23
BRANCH  22  25
ATOM     25  C   LIG    1       27.485 -20.819   7.059  0.00  0.00    +0.188 C 
BRANCH  25  26
ATOM     26  O   LIG    1       26.676 -20.882   5.887  0.00  0.00    -0.392 OA
ATOM     27  H   LIG    1       26.235 -21.753   5.903  0.00  0.00    +0.209 HD
ENDBRANCH  25  26
ENDBRANCH  22  25
ENDBRANCH  21  22
ENDBRANCH  18  21
ENDBRANCH   4  17
BRANCH   7  28
ATOM     28  C   LIG    1       23.407 -18.298   3.620  0.00  0.00    +0.246 C 
ATOM     29  N   LIG    1       22.386 -18.251   4.536  0.00  0.00    -0.309 N 
ATOM     30  H   LIG    1       22.541 -17.788   5.433  0.00  0.00    +0.149 HD
ATOM     31  O   LIG    1       23.389 -19.067   2.645  0.00  0.00    -0.270 OA
BRANCH  29  32
ATOM     32  C   LIG    1       21.269 -19.172   4.489  0.00  0.00    +0.138 C 
BRANCH  32  33
ATOM     33  C   LIG    1       21.735 -20.632   4.440  0.00  0.00    +0.157 C 
BRANCH  33  34
ATOM     34  O   LIG    1       20.593 -21.498   4.506  0.00  0.00    -0.388 OA
ATOM     35  H   LIG    1       19.942 -21.154   3.863  0.00  0.00    +0.210 HD
ENDBRANCH  33  34
BRANCH  33  36
ATOM     36  C   LIG    1       22.690 -20.943   5.596  0.00  0.00    +0.188 C 
BRANCH  36  37
ATOM     37  O   LIG    1       23.957 -21.377   5.098  0.00  0.00    -0.392 OA
ATOM     38  H   LIG    1       24.355 -20.645   4.595  0.00  0.00    +0.209 HD
ENDBRANCH  36  37
ENDBRANCH  33  36
ENDBRANCH  32  33
ENDBRANCH  29  32
ENDBRANCH   7  28
TORSDOF 15
ENDMDL
