MODEL 1
REMARK VINA RESULT:      -4.4      0.000      0.000
REMARK  Name = *****
REMARK                            x       y       z     vdW  Elec       q    Type
REMARK                         _______ _______ _______ _____ _____    ______ ____
ROOT
ATOM      1  C   LIG    1       24.259 -28.983  12.870  0.00  0.00    +0.062 A 
ATOM      2  C   LIG    1       23.368 -30.023  12.521  0.00  0.00    +0.058 A 
ATOM      3  I   LIG    1       21.879 -30.607  13.974  0.00  0.00    -0.040 I 
ATOM      4  C   LIG    1       23.547 -30.738  11.318  0.00  0.00    +0.065 A 
ATOM      5  C   LIG    1       24.607 -30.348  10.443  0.00  0.00    +0.051 A 
ATOM      6  I   LIG    1       24.420 -31.069   8.369  0.00  0.00    -0.041 I 
ATOM      7  C   LIG    1       25.588 -29.390  10.826  0.00  0.00    +0.089 A 
ATOM      8  C   LIG    1       25.391 -28.714  12.060  0.00  0.00    +0.051 A 
ATOM      9  I   LIG    1       26.669 -27.092  12.724  0.00  0.00    -0.041 I 
ENDROOT
BRANCH   1  12
ATOM     10  C   LIG    1       22.978 -26.383  15.252  0.00  0.00    +0.109 C 
ATOM     11  C   LIG    1       23.149 -27.136  13.959  0.00  0.00    +0.214 C 
ATOM     12  N   LIG    1       24.017 -28.222  14.051  0.00  0.00    -0.284 N 
ATOM     13  H   LIG    1       24.834 -28.016  14.616  0.00  0.00    +0.155 HD
ATOM     14  O   LIG    1       22.566 -26.800  12.931  0.00  0.00    -0.276 OA
ENDBRANCH   1  12
BRANCH   4  15
ATOM     15  N   LIG    1       22.759 -31.905  11.016  0.00  0.00    -0.273 N 
ATOM     16  C   LIG    1       21.499 -31.729  10.434  0.00  0.00    +0.216 C 
ATOM     17  O   LIG    1       21.048 -30.617  10.143  0.00  0.00    -0.276 OA
ATOM     18  C   LIG    1       20.661 -32.955  10.148  0.00  0.00    +0.110 C 
ATOM     19  C   LIG    1       23.305 -33.210  11.368  0.00  0.00    +0.138 C 
ENDBRANCH   4  15
BRANCH   7  20
ATOM     20  C   LIG    1       26.846 -29.154  10.043  0.00  0.00    +0.339 C 
ATOM     21  O   LIG    1       27.914 -29.704  10.313  0.00  0.00    -0.245 OA
BRANCH  20  22
ATOM     22  O   LIG    1       26.793 -28.279   9.028  0.00  0.00    -0.477 OA
ATOM     23  H   LIG    1       27.304 -27.460   9.158  0.00  0.00    +0.295 HD
ENDBRANCH  20  22
ENDBRANCH   7  20
TORSDOF 4
ENDMDL
MODEL 2
REMARK VINA RESULT:      -4.3      2.587      4.610
REMARK  Name = *****
REMARK                            x       y       z     vdW  Elec       q    Type
REMARK                         _______ _______ _______ _____ _____    ______ ____
ROOT
ATOM      1  C   LIG    1       23.915 -29.499  11.411  0.00  0.00    +0.062 A 
ATOM      2  C   LIG    1       24.711 -30.005  10.358  0.00  0.00    +0.058 A 
ATOM      3  I   LIG    1       26.630 -29.076  10.007  0.00  0.00    -0.040 I 
ATOM      4  C   LIG    1       24.196 -30.990   9.489  0.00  0.00    +0.065 A 
ATOM      5  C   LIG    1       22.885 -31.501   9.734  0.00  0.00    +0.051 A 
ATOM      6  I   LIG    1       22.430 -33.422   8.755  0.00  0.00    -0.041 I 
ATOM      7  C   LIG    1       22.021 -30.924  10.707  0.00  0.00    +0.089 A 
ATOM      8  C   LIG    1       22.564 -29.910  11.542  0.00  0.00    +0.051 A 
ATOM      9  I   LIG    1       21.467 -29.046  13.202  0.00  0.00    -0.041 I 
ENDROOT
BRANCH   1  12
ATOM     10  C   LIG    1       25.680 -27.991  14.357  0.00  0.00    +0.109 C 
ATOM     11  C   LIG    1       25.143 -29.060  13.442  0.00  0.00    +0.214 C 
ATOM     12  N   LIG    1       24.478 -28.561  12.324  0.00  0.00    -0.284 N 
ATOM     13  H   LIG    1       23.894 -27.761  12.548  0.00  0.00    +0.155 HD
ATOM     14  O   LIG    1       25.290 -30.255  13.685  0.00  0.00    -0.276 OA
ENDBRANCH   1  12
BRANCH   4  15
ATOM     15  N   LIG    1       24.920 -31.404   8.314  0.00  0.00    -0.273 N 
ATOM     16  C   LIG    1       24.638 -30.773   7.098  0.00  0.00    +0.216 C 
ATOM     17  O   LIG    1       23.816 -29.858   6.995  0.00  0.00    -0.276 OA
ATOM     18  C   LIG    1       25.377 -31.232   5.861  0.00  0.00    +0.110 C 
ATOM     19  C   LIG    1       25.886 -32.487   8.451  0.00  0.00    +0.138 C 
ENDBRANCH   4  15
BRANCH   7  20
ATOM     20  C   LIG    1       20.562 -31.263  10.806  0.00  0.00    +0.339 C 
ATOM     21  O   LIG    1       20.141 -32.214  11.465  0.00  0.00    -0.245 OA
BRANCH  20  22
ATOM     22  O   LIG    1       19.698 -30.504  10.116  0.00  0.00    -0.477 OA
ATOM     23  H   LIG    1       19.594 -29.592  10.443  0.00  0.00    +0.295 HD
ENDBRANCH  20  22
ENDBRANCH   7  20
TORSDOF 4
ENDMDL
MODEL 3
REMARK VINA RESULT:      -4.3      2.276      2.458
REMARK  Name = *****
REMARK                            x       y       z     vdW  Elec       q    Type
REMARK                         _______ _______ _______ _____ _____    ______ ____
ROOT
ATOM      1  C   LIG    1       23.022 -28.200  12.841  0.00  0.00    +0.062 A 
ATOM      2  C   LIG    1       22.850 -29.353  12.042  0.00  0.00    +0.058 A 
ATOM      3  I   LIG    1       20.881 -30.238  11.955  0.00  0.00    -0.040 I 
ATOM      4  C   LIG    1       23.967 -29.973  11.442  0.00  0.00    +0.065 A 
ATOM      5  C   LIG    1       25.254 -29.376  11.611  0.00  0.00    +0.051 A 
ATOM      6  I   LIG    1       26.783 -30.020  10.161  0.00  0.00    -0.041 I 
ATOM      7  C   LIG    1       25.469 -28.291  12.507  0.00  0.00    +0.089 A 
ATOM      8  C   LIG    1       24.324 -27.714  13.119  0.00  0.00    +0.051 A 
ATOM      9  I   LIG    1       24.429 -25.939  14.363  0.00  0.00    -0.041 I 
ENDROOT
BRANCH   1  12
ATOM     10  C   LIG    1       20.213 -27.191  15.114  0.00  0.00    +0.109 C 
ATOM     11  C   LIG    1       21.444 -27.923  14.647  0.00  0.00    +0.214 C 
ATOM     12  N   LIG    1       21.875 -27.545  13.377  0.00  0.00    -0.284 N 
ATOM     13  H   LIG    1       21.103 -27.412  12.732  0.00  0.00    +0.155 HD
ATOM     14  O   LIG    1       21.996 -28.773  15.342  0.00  0.00    -0.276 OA
ENDBRANCH   1  12
BRANCH   4  15
ATOM     15  N   LIG    1       23.845 -31.236  10.761  0.00  0.00    -0.273 N 
ATOM     16  C   LIG    1       23.448 -31.239   9.420  0.00  0.00    +0.216 C 
ATOM     17  O   LIG    1       23.225 -30.202   8.788  0.00  0.00    -0.276 OA
ATOM     18  C   LIG    1       23.291 -32.569   8.718  0.00  0.00    +0.110 C 
ATOM     19  C   LIG    1       24.110 -32.452  11.521  0.00  0.00    +0.138 C 
ENDBRANCH   4  15
BRANCH   7  20
ATOM     20  C   LIG    1       26.838 -27.817  12.900  0.00  0.00    +0.339 C 
ATOM     21  O   LIG    1       27.460 -28.289  13.852  0.00  0.00    -0.245 OA
BRANCH  20  22
ATOM     22  O   LIG    1       27.378 -26.816  12.189  0.00  0.00    -0.477 OA
ATOM     23  H   LIG    1       27.935 -27.093  11.439  0.00  0.00    +0.295 HD
ENDBRANCH  20  22
ENDBRANCH   7  20
TORSDOF 4
ENDMDL
MODEL 4
REMARK VINA RESULT:      -4.2      2.286      2.645
REMARK  Name = *****
REMARK                            x       y       z     vdW  Elec       q    Type
REMARK                         _______ _______ _______ _____ _____    ______ ____
ROOT
ATOM      1  C   LIG    1       23.235 -28.432  13.624  0.00  0.00    +0.062 A 
ATOM      2  C   LIG    1       23.188 -29.541  12.750  0.00  0.00    +0.058 A 
ATOM      3  I   LIG    1       21.557 -30.940  12.982  0.00  0.00    -0.040 I 
ATOM      4  C   LIG    1       24.252 -29.787  11.857  0.00  0.00    +0.065 A 
ATOM      5  C   LIG    1       25.339 -28.861  11.817  0.00  0.00    +0.051 A 
ATOM      6  I   LIG    1       26.593 -28.968  10.008  0.00  0.00    -0.041 I 
ATOM      7  C   LIG    1       25.469 -27.809  12.767  0.00  0.00    +0.089 A 
ATOM      8  C   LIG    1       24.392 -27.613  13.673  0.00  0.00    +0.051 A 
ATOM      9  I   LIG    1       24.319 -25.951  15.065  0.00  0.00    -0.041 I 
ENDROOT
BRANCH   1  12
ATOM     10  C   LIG    1       20.019 -27.037  14.960  0.00  0.00    +0.109 C 
ATOM     11  C   LIG    1       21.144 -27.282  13.990  0.00  0.00    +0.214 C 
ATOM     12  N   LIG    1       22.118 -28.157  14.466  0.00  0.00    -0.284 N 
ATOM     13  H   LIG    1       22.334 -27.998  15.445  0.00  0.00    +0.155 HD
ATOM     14  O   LIG    1       21.177 -26.743  12.886  0.00  0.00    -0.276 OA
ENDBRANCH   1  12
BRANCH   4  15
ATOM     15  N   LIG    1       24.308 -30.995  11.074  0.00  0.00    -0.273 N 
ATOM     16  C   LIG    1       23.596 -31.046   9.871  0.00  0.00    +0.216 C 
ATOM     17  O   LIG    1       22.946 -30.090   9.438  0.00  0.00    -0.276 OA
ATOM     18  C   LIG    1       23.632 -32.327   9.068  0.00  0.00    +0.110 C 
ATOM     19  C   LIG    1       25.079 -32.116  11.599  0.00  0.00    +0.138 C 
ENDBRANCH   4  15
BRANCH   7  20
ATOM     20  C   LIG    1       26.718 -26.991  12.912  0.00  0.00    +0.339 C 
ATOM     21  O   LIG    1       26.828 -25.853  12.456  0.00  0.00    -0.245 OA
BRANCH  20  22
ATOM     22  O   LIG    1       27.760 -27.552  13.543  0.00  0.00    -0.477 OA
ATOM     23  H   LIG    1       27.711 -28.520  13.645  0.00  0.00    +0.295 HD
ENDBRANCH  20  22
ENDBRANCH   7  20
TORSDOF 4
ENDMDL
MODEL 5
REMARK VINA RESULT:      -4.1      2.730      4.409
REMARK  Name = *****
REMARK                            x       y       z     vdW  Elec       q    Type
REMARK                         _______ _______ _______ _____ _____    ______ ____
ROOT
ATOM      1  C   LIG    1       24.832 -28.165  12.747  0.00  0.00    +0.062 A 
ATOM      2  C   LIG    1       25.070 -29.084  11.700  0.00  0.00    +0.058 A 
ATOM      3  I   LIG    1       27.051 -29.145  10.840  0.00  0.00    -0.040 I 
ATOM      4  C   LIG    1       24.003 -29.829  11.153  0.00  0.00    +0.065 A 
ATOM      5  C   LIG    1       22.701 -29.676  11.721  0.00  0.00    +0.051 A 
ATOM      6  I   LIG    1       21.279 -31.293  11.251  0.00  0.00    -0.041 I 
ATOM      7  C   LIG    1       22.413 -28.672  12.688  0.00  0.00    +0.089 A 
ATOM      8  C   LIG    1       23.508 -27.919  13.191  0.00  0.00    +0.051 A 
ATOM      9  I   LIG    1       23.299 -26.480  14.801  0.00  0.00    -0.041 I 
ENDROOT
BRANCH   1  12
ATOM     10  C   LIG    1       27.717 -27.275  14.973  0.00  0.00    +0.109 C 
ATOM     11  C   LIG    1       26.585 -28.090  14.404  0.00  0.00    +0.214 C 
ATOM     12  N   LIG    1       25.932 -27.478  13.337  0.00  0.00    -0.284 N 
ATOM     13  H   LIG    1       25.800 -26.483  13.486  0.00  0.00    +0.155 HD
ATOM     14  O   LIG    1       26.285 -29.191  14.861  0.00  0.00    -0.276 OA
ENDBRANCH   1  12
BRANCH   4  15
ATOM     15  N   LIG    1       24.185 -30.648   9.982  0.00  0.00    -0.273 N 
ATOM     16  C   LIG    1       24.664 -31.951  10.145  0.00  0.00    +0.216 C 
ATOM     17  O   LIG    1       24.910 -32.439  11.252  0.00  0.00    -0.276 OA
ATOM     18  C   LIG    1       24.883 -32.797   8.910  0.00  0.00    +0.110 C 
ATOM     19  C   LIG    1       23.891 -30.057   8.682  0.00  0.00    +0.138 C 
ENDBRANCH   4  15
BRANCH   7  20
ATOM     20  C   LIG    1       21.015 -28.318  13.105  0.00  0.00    +0.339 C 
ATOM     21  O   LIG    1       20.414 -28.912  14.000  0.00  0.00    -0.245 OA
BRANCH  20  22
ATOM     22  O   LIG    1       20.400 -27.328  12.441  0.00  0.00    -0.477 OA
ATOM     23  H   LIG    1       20.832 -26.457  12.501  0.00  0.00    +0.295 HD
ENDBRANCH  20  22
ENDBRANCH   7  20
TORSDOF 4
ENDMDL
MODEL 6
REMARK VINA RESULT:      -4.0      2.651      6.374
REMARK  Name = *****
REMARK                            x       y       z     vdW  Elec       q    Type
REMARK                         _______ _______ _______ _____ _____    ______ ____
ROOT
ATOM      1  C   LIG    1       24.951 -29.922  11.353  0.00  0.00    +0.062 A 
ATOM      2  C   LIG    1       25.829 -29.101  12.096  0.00  0.00    +0.058 A 
ATOM      3  I   LIG    1       27.953 -29.413  11.854  0.00  0.00    -0.040 I 
ATOM      4  C   LIG    1       25.319 -28.208  13.063  0.00  0.00    +0.065 A 
ATOM      5  C   LIG    1       23.902 -28.114  13.226  0.00  0.00    +0.051 A 
ATOM      6  I   LIG    1       23.198 -26.299  14.259  0.00  0.00    -0.041 I 
ATOM      7  C   LIG    1       23.007 -29.013  12.581  0.00  0.00    +0.089 A 
ATOM      8  C   LIG    1       23.563 -29.921  11.638  0.00  0.00    +0.051 A 
ATOM      9  I   LIG    1       22.342 -31.235  10.418  0.00  0.00    -0.041 I 
ENDROOT
BRANCH   1  12
ATOM     10  C   LIG    1       26.170 -31.189   8.039  0.00  0.00    +0.109 C 
ATOM     11  C   LIG    1       25.629 -30.218   9.055  0.00  0.00    +0.214 C 
ATOM     12  N   LIG    1       25.479 -30.761  10.329  0.00  0.00    -0.284 N 
ATOM     13  H   LIG    1       25.113 -31.707  10.304  0.00  0.00    +0.155 HD
ATOM     14  O   LIG    1       25.351 -29.058   8.759  0.00  0.00    -0.276 OA
ENDBRANCH   1  12
BRANCH   4  15
ATOM     15  N   LIG    1       26.193 -27.482  13.947  0.00  0.00    -0.273 N 
ATOM     16  C   LIG    1       26.740 -26.274  13.502  0.00  0.00    +0.216 C 
ATOM     17  O   LIG    1       26.482 -25.790  12.396  0.00  0.00    -0.276 OA
ATOM     18  C   LIG    1       27.684 -25.530  14.422  0.00  0.00    +0.110 C 
ATOM     19  C   LIG    1       26.490 -28.066  15.249  0.00  0.00    +0.138 C 
ENDBRANCH   4  15
BRANCH   7  20
ATOM     20  C   LIG    1       21.551 -29.107  12.931  0.00  0.00    +0.339 C 
ATOM     21  O   LIG    1       21.118 -29.886  13.780  0.00  0.00    -0.245 OA
BRANCH  20  22
ATOM     22  O   LIG    1       20.697 -28.321  12.259  0.00  0.00    -0.477 OA
ATOM     23  H   LIG    1       21.091 -27.811  11.528  0.00  0.00    +0.295 HD
ENDBRANCH  20  22
ENDBRANCH   7  20
TORSDOF 4
ENDMDL
MODEL 7
REMARK VINA RESULT:      -3.9      2.958      5.062
REMARK  Name = *****
REMARK                            x       y       z     vdW  Elec       q    Type
REMARK                         _______ _______ _______ _____ _____    ______ ____
ROOT
ATOM      1  C   LIG    1       24.431 -29.389  11.834  0.00  0.00    +0.062 A 
ATOM      2  C   LIG    1       23.163 -29.161  12.416  0.00  0.00    +0.058 A 
ATOM      3  I   LIG    1       21.504 -30.360  11.724  0.00  0.00    -0.040 I 
ATOM      4  C   LIG    1       22.977 -28.090  13.316  0.00  0.00    +0.065 A 
ATOM      5  C   LIG    1       24.105 -27.287  13.665  0.00  0.00    +0.051 A 
ATOM      6  I   LIG    1       23.869 -26.089  15.500  0.00  0.00    -0.041 I 
ATOM      7  C   LIG    1       25.358 -27.417  13.003  0.00  0.00    +0.089 A 
ATOM      8  C   LIG    1       25.498 -28.488  12.078  0.00  0.00    +0.051 A 
ATOM      9  I   LIG    1       27.382 -28.965  11.114  0.00  0.00    -0.041 I 
ENDROOT
BRANCH   1  12
ATOM     10  C   LIG    1       25.217 -32.842  10.599  0.00  0.00    +0.109 C 
ATOM     11  C   LIG    1       25.023 -31.715  11.578  0.00  0.00    +0.214 C 
ATOM     12  N   LIG    1       24.618 -30.520  10.988  0.00  0.00    -0.284 N 
ATOM     13  H   LIG    1       25.100 -30.339  10.113  0.00  0.00    +0.155 HD
ATOM     14  O   LIG    1       25.214 -31.863  12.783  0.00  0.00    -0.276 OA
ENDBRANCH   1  12
BRANCH   4  15
ATOM     15  N   LIG    1       21.666 -27.735  13.795  0.00  0.00    -0.273 N 
ATOM     16  C   LIG    1       21.150 -28.419  14.901  0.00  0.00    +0.216 C 
ATOM     17  O   LIG    1       21.782 -29.294  15.500  0.00  0.00    -0.276 OA
ATOM     18  C   LIG    1       19.760 -28.065  15.382  0.00  0.00    +0.110 C 
ATOM     19  C   LIG    1       20.931 -26.701  13.077  0.00  0.00    +0.138 C 
ENDBRANCH   4  15
BRANCH   7  20
ATOM     20  C   LIG    1       26.473 -26.425  13.162  0.00  0.00    +0.339 C 
ATOM     21  O   LIG    1       26.444 -25.302  12.660  0.00  0.00    -0.245 OA
BRANCH  20  22
ATOM     22  O   LIG    1       27.551 -26.808  13.861  0.00  0.00    -0.477 OA
ATOM     23  H   LIG    1       27.408 -27.554  14.471  0.00  0.00    +0.295 HD
ENDBRANCH  20  22
ENDBRANCH   7  20
TORSDOF 4
ENDMDL
MODEL 8
REMARK VINA RESULT:      -3.8      2.565      4.655
REMARK  Name = *****
REMARK                            x       y       z     vdW  Elec       q    Type
REMARK                         _______ _______ _______ _____ _____    ______ ____
ROOT
ATOM      1  C   LIG    1       22.450 -31.595  11.124  0.00  0.00    +0.062 A 
ATOM      2  C   LIG    1       23.155 -31.950   9.952  0.00  0.00    +0.058 A 
ATOM      3  I   LIG    1       22.429 -33.632   8.806  0.00  0.00    -0.040 I 
ATOM      4  C   LIG    1       24.370 -31.307   9.632  0.00  0.00    +0.065 A 
ATOM      5  C   LIG    1       24.832 -30.256  10.483  0.00  0.00    +0.051 A 
ATOM      6  I   LIG    1       26.342 -28.923   9.589  0.00  0.00    -0.041 I 
ATOM      7  C   LIG    1       24.208 -29.965  11.728  0.00  0.00    +0.089 A 
ATOM      8  C   LIG    1       23.004 -30.657  12.031  0.00  0.00    +0.051 A 
ATOM      9  I   LIG    1       21.808 -30.215  13.787  0.00  0.00    -0.041 I 
ENDROOT
BRANCH   1  12
ATOM     10  C   LIG    1       18.766 -32.297  11.221  0.00  0.00    +0.109 C 
ATOM     11  C   LIG    1       20.050 -31.595  10.864  0.00  0.00    +0.214 C 
ATOM     12  N   LIG    1       21.188 -32.202  11.391  0.00  0.00    -0.284 N 
ATOM     13  H   LIG    1       21.048 -32.523  12.343  0.00  0.00    +0.155 HD
ATOM     14  O   LIG    1       20.063 -30.580  10.170  0.00  0.00    -0.276 OA
ENDBRANCH   1  12
BRANCH   4  15
ATOM     15  N   LIG    1       25.191 -31.759   8.538  0.00  0.00    -0.273 N 
ATOM     16  C   LIG    1       24.886 -31.317   7.246  0.00  0.00    +0.216 C 
ATOM     17  O   LIG    1       23.962 -30.534   7.009  0.00  0.00    -0.276 OA
ATOM     18  C   LIG    1       25.731 -31.819   6.096  0.00  0.00    +0.110 C 
ATOM     19  C   LIG    1       26.277 -32.685   8.834  0.00  0.00    +0.138 C 
ENDBRANCH   4  15
BRANCH   7  20
ATOM     20  C   LIG    1       24.818 -29.055  12.754  0.00  0.00    +0.339 C 
ATOM     21  O   LIG    1       24.580 -27.848  12.802  0.00  0.00    -0.245 OA
BRANCH  20  22
ATOM     22  O   LIG    1       25.681 -29.593  13.628  0.00  0.00    -0.477 OA
ATOM     23  H   LIG    1       26.409 -30.105  13.231  0.00  0.00    +0.295 HD
ENDBRANCH  20  22
ENDBRANCH   7  20
TORSDOF 4
ENDMDL
MODEL 9
REMARK VINA RESULT:      -3.8      2.635      4.823
REMARK  Name = *****
REMARK                            x       y       z     vdW  Elec       q    Type
REMARK                         _______ _______ _______ _____ _____    ______ ____
ROOT
ATOM      1  C   LIG    1       23.993 -30.233  11.101  0.00  0.00    +0.062 A 
ATOM      2  C   LIG    1       22.792 -29.921  11.778  0.00  0.00    +0.058 A 
ATOM      3  I   LIG    1       20.964 -30.821  11.059  0.00  0.00    -0.040 I 
ATOM      4  C   LIG    1       22.785 -28.946  12.798  0.00  0.00    +0.065 A 
ATOM      5  C   LIG    1       24.022 -28.331  13.166  0.00  0.00    +0.051 A 
ATOM      6  I   LIG    1       24.023 -27.333  15.131  0.00  0.00    -0.041 I 
ATOM      7  C   LIG    1       25.217 -28.537  12.420  0.00  0.00    +0.089 A 
ATOM      8  C   LIG    1       25.177 -29.503  11.378  0.00  0.00    +0.051 A 
ATOM      9  I   LIG    1       26.939 -30.092  10.258  0.00  0.00    -0.041 I 
ENDROOT
BRANCH   1  12
ATOM     10  C   LIG    1       23.776 -32.090   7.850  0.00  0.00    +0.109 C 
ATOM     11  C   LIG    1       23.778 -30.920   8.798  0.00  0.00    +0.214 C 
ATOM     12  N   LIG    1       23.996 -31.273  10.127  0.00  0.00    -0.284 N 
ATOM     13  H   LIG    1       23.501 -32.120  10.387  0.00  0.00    +0.155 HD
ATOM     14  O   LIG    1       23.599 -29.768   8.406  0.00  0.00    -0.276 OA
ENDBRANCH   1  12
BRANCH   4  15
ATOM     15  N   LIG    1       21.553 -28.491  13.390  0.00  0.00    -0.273 N 
ATOM     16  C   LIG    1       20.991 -29.244  14.426  0.00  0.00    +0.216 C 
ATOM     17  O   LIG    1       21.520 -30.266  14.872  0.00  0.00    -0.276 OA
ATOM     18  C   LIG    1       19.681 -28.780  15.023  0.00  0.00    +0.110 C 
ATOM     19  C   LIG    1       20.939 -27.283  12.851  0.00  0.00    +0.138 C 
ENDBRANCH   4  15
BRANCH   7  20
ATOM     20  C   LIG    1       26.455 -27.713  12.621  0.00  0.00    +0.339 C 
ATOM     21  O   LIG    1       26.660 -26.659  12.019  0.00  0.00    -0.245 OA
BRANCH  20  22
ATOM     22  O   LIG    1       27.380 -28.177  13.473  0.00  0.00    -0.477 OA
ATOM     23  H   LIG    1       27.048 -28.795  14.150  0.00  0.00    +0.295 HD
ENDBRANCH  20  22
ENDBRANCH   7  20
TORSDOF 4
ENDMDL
