MODEL 1
REMARK VINA RESULT:      -4.9      0.000      0.000
REMARK  Name = *****
REMARK                            x       y       z     vdW  Elec       q    Type
REMARK                         _______ _______ _______ _____ _____    ______ ____
ROOT
ATOM      1  C   LIG    1       26.211 -19.191   4.705  0.00  0.00    +0.005 C 
ATOM      2  C   LIG    1       26.567 -18.135   3.935  0.00  0.00    -0.001 C 
ENDROOT
BRANCH   1   7
ATOM      3  C   LIG    1       20.780 -21.211   4.488  0.00  0.00    +0.044 C 
ATOM      4  C   LIG    1       22.179 -20.683   4.610  0.00  0.00    -0.050 A 
ATOM      5  C   LIG    1       23.248 -21.540   4.893  0.00  0.00    +0.004 A 
ATOM      6  C   LIG    1       24.560 -21.053   4.929  0.00  0.00    +0.009 A 
ATOM      7  C   LIG    1       24.822 -19.701   4.670  0.00  0.00    -0.016 A 
ATOM      8  C   LIG    1       23.751 -18.841   4.409  0.00  0.00    +0.009 A 
ATOM      9  C   LIG    1       22.438 -19.325   4.383  0.00  0.00    +0.004 A 
ENDBRANCH   1   7
BRANCH   1  10
ATOM     10  C   LIG    1       27.275 -19.792   5.560  0.00  0.00    +0.071 A 
ATOM     11  N   LIG    1       28.487 -19.180   5.548  0.00  0.00    -0.255 NA
ATOM     12  C   LIG    1       29.475 -19.725   6.285  0.00  0.00    +0.111 A 
ATOM     13  C   LIG    1       29.319 -20.870   7.044  0.00  0.00    +0.020 A 
ATOM     14  C   LIG    1       28.075 -21.484   7.060  0.00  0.00    +0.004 A 
ATOM     15  C   LIG    1       27.035 -20.941   6.309  0.00  0.00    +0.028 A 
ENDBRANCH   1  10
BRANCH   2  16
ATOM     16  C   LIG    1       25.741 -17.361   2.949  0.00  0.00    +0.112 C 
BRANCH  16  17
ATOM     17  N   LIG    1       26.032 -15.923   3.015  0.00  0.00    -0.299 NA
ATOM     18  C   LIG    1       25.030 -15.150   3.751  0.00  0.00    +0.085 C 
ATOM     19  C   LIG    1       25.731 -13.813   3.926  0.00  0.00    +0.017 C 
ATOM     20  C   LIG    1       27.201 -14.176   4.095  0.00  0.00    +0.017 C 
ATOM     21  C   LIG    1       27.301 -15.645   3.690  0.00  0.00    +0.085 C 
ENDBRANCH  16  17
ENDBRANCH   2  16
TORSDOF 4
ENDMDL
MODEL 2
REMARK VINA RESULT:      -4.3      1.295      5.303
REMARK  Name = *****
REMARK                            x       y       z     vdW  Elec       q    Type
REMARK                         _______ _______ _______ _____ _____    ______ ____
ROOT
ATOM      1  C   LIG    1       25.664 -16.787   3.604  0.00  0.00    +0.005 C 
ATOM      2  C   LIG    1       26.974 -17.132   3.599  0.00  0.00    -0.001 C 
ENDROOT
BRANCH   1   7
ATOM      3  C   LIG    1       21.612 -20.836   4.500  0.00  0.00    +0.044 C 
ATOM      4  C   LIG    1       22.634 -19.777   4.209  0.00  0.00    -0.050 A 
ATOM      5  C   LIG    1       22.359 -18.426   4.449  0.00  0.00    +0.004 A 
ATOM      6  C   LIG    1       23.344 -17.452   4.247  0.00  0.00    +0.009 A 
ATOM      7  C   LIG    1       24.624 -17.819   3.812  0.00  0.00    -0.016 A 
ATOM      8  C   LIG    1       24.893 -19.166   3.551  0.00  0.00    +0.009 A 
ATOM      9  C   LIG    1       23.905 -20.139   3.743  0.00  0.00    +0.004 A 
ENDBRANCH   1   7
BRANCH   1  10
ATOM     10  C   LIG    1       25.346 -15.345   3.398  0.00  0.00    +0.071 A 
ATOM     11  N   LIG    1       26.119 -14.670   2.508  0.00  0.00    -0.255 NA
ATOM     12  C   LIG    1       25.875 -13.356   2.331  0.00  0.00    +0.111 A 
ATOM     13  C   LIG    1       24.886 -12.665   3.008  0.00  0.00    +0.020 A 
ATOM     14  C   LIG    1       24.094 -13.363   3.906  0.00  0.00    +0.004 A 
ATOM     15  C   LIG    1       24.323 -14.722   4.108  0.00  0.00    +0.028 A 
ENDBRANCH   1  10
BRANCH   2  16
ATOM     16  C   LIG    1       27.599 -18.478   3.824  0.00  0.00    +0.112 C 
BRANCH  16  17
ATOM     17  N   LIG    1       27.876 -18.712   5.247  0.00  0.00    -0.299 NA
ATOM     18  C   LIG    1       27.562 -20.070   5.696  0.00  0.00    +0.085 C 
ATOM     19  C   LIG    1       28.227 -20.111   7.062  0.00  0.00    +0.017 C 
ATOM     20  C   LIG    1       29.475 -19.252   6.901  0.00  0.00    +0.017 C 
ATOM     21  C   LIG    1       29.289 -18.518   5.576  0.00  0.00    +0.085 C 
ENDBRANCH  16  17
ENDBRANCH   2  16
TORSDOF 4
ENDMDL
MODEL 3
REMARK VINA RESULT:      -4.1      1.433      5.844
REMARK  Name = *****
REMARK                            x       y       z     vdW  Elec       q    Type
REMARK                         _______ _______ _______ _____ _____    ______ ____
ROOT
ATOM      1  C   LIG    1       26.120 -17.534   3.673  0.00  0.00    +0.005 C 
ATOM      2  C   LIG    1       25.185 -18.095   2.868  0.00  0.00    -0.001 C 
ENDROOT
BRANCH   1   7
ATOM      3  C   LIG    1       29.457 -20.851   7.062  0.00  0.00    +0.044 C 
ATOM      4  C   LIG    1       28.612 -20.029   6.133  0.00  0.00    -0.050 A 
ATOM      5  C   LIG    1       27.317 -20.434   5.791  0.00  0.00    +0.004 A 
ATOM      6  C   LIG    1       26.508 -19.623   4.986  0.00  0.00    +0.009 A 
ATOM      7  C   LIG    1       26.980 -18.390   4.521  0.00  0.00    -0.016 A 
ATOM      8  C   LIG    1       28.282 -17.995   4.844  0.00  0.00    +0.009 A 
ATOM      9  C   LIG    1       29.095 -18.809   5.640  0.00  0.00    +0.004 A 
ENDBRANCH   1   7
BRANCH   1  10
ATOM     10  C   LIG    1       26.226 -16.047   3.648  0.00  0.00    +0.071 A 
ATOM     11  N   LIG    1       27.479 -15.525   3.606  0.00  0.00    -0.255 NA
ATOM     12  C   LIG    1       27.602 -14.182   3.620  0.00  0.00    +0.111 A 
ATOM     13  C   LIG    1       26.525 -13.317   3.677  0.00  0.00    +0.020 A 
ATOM     14  C   LIG    1       25.248 -13.858   3.709  0.00  0.00    +0.004 A 
ATOM     15  C   LIG    1       25.091 -15.242   3.694  0.00  0.00    +0.028 A 
ENDBRANCH   1  10
BRANCH   2  16
ATOM     16  C   LIG    1       24.878 -19.547   2.643  0.00  0.00    +0.112 C 
BRANCH  16  17
ATOM     17  N   LIG    1       23.623 -19.939   3.297  0.00  0.00    -0.299 NA
ATOM     18  C   LIG    1       23.787 -20.973   4.321  0.00  0.00    +0.085 C 
ATOM     19  C   LIG    1       22.437 -20.940   5.019  0.00  0.00    +0.017 C 
ATOM     20  C   LIG    1       22.022 -19.476   4.972  0.00  0.00    +0.017 C 
ATOM     21  C   LIG    1       22.982 -18.817   3.985  0.00  0.00    +0.085 C 
ENDBRANCH  16  17
ENDBRANCH   2  16
TORSDOF 4
ENDMDL
MODEL 4
REMARK VINA RESULT:      -2.8      1.606      5.998
REMARK  Name = *****
REMARK                            x       y       z     vdW  Elec       q    Type
REMARK                         _______ _______ _______ _____ _____    ______ ____
ROOT
ATOM      1  C   LIG    1       24.564 -18.284   4.077  0.00  0.00    +0.005 C 
ATOM      2  C   LIG    1       25.689 -19.033   4.173  0.00  0.00    -0.001 C 
ENDROOT
BRANCH   1   7
ATOM      3  C   LIG    1       24.902 -12.553   3.258  0.00  0.00    +0.044 C 
ATOM      4  C   LIG    1       24.837 -14.027   3.531  0.00  0.00    -0.050 A 
ATOM      5  C   LIG    1       23.726 -14.594   4.164  0.00  0.00    +0.004 A 
ATOM      6  C   LIG    1       23.639 -15.979   4.346  0.00  0.00    +0.009 A 
ATOM      7  C   LIG    1       24.662 -16.819   3.886  0.00  0.00    -0.016 A 
ATOM      8  C   LIG    1       25.783 -16.252   3.273  0.00  0.00    +0.009 A 
ATOM      9  C   LIG    1       25.874 -14.866   3.100  0.00  0.00    +0.004 A 
ENDBRANCH   1   7
BRANCH   1  10
ATOM     10  C   LIG    1       23.263 -19.006   4.167  0.00  0.00    +0.071 A 
ATOM     11  N   LIG    1       23.281 -20.224   4.766  0.00  0.00    -0.255 NA
ATOM     12  C   LIG    1       22.123 -20.912   4.827  0.00  0.00    +0.111 A 
ATOM     13  C   LIG    1       20.928 -20.446   4.311  0.00  0.00    +0.020 A 
ATOM     14  C   LIG    1       20.916 -19.195   3.711  0.00  0.00    +0.004 A 
ATOM     15  C   LIG    1       22.097 -18.461   3.635  0.00  0.00    +0.028 A 
ENDBRANCH   1  10
BRANCH   2  16
ATOM     16  C   LIG    1       27.124 -18.604   4.073  0.00  0.00    +0.112 C 
BRANCH  16  17
ATOM     17  N   LIG    1       27.986 -19.396   4.959  0.00  0.00    -0.299 NA
ATOM     18  C   LIG    1       28.972 -18.600   5.693  0.00  0.00    +0.085 C 
ATOM     19  C   LIG    1       29.475 -19.596   6.724  0.00  0.00    +0.017 C 
ATOM     20  C   LIG    1       28.254 -20.442   7.061  0.00  0.00    +0.017 C 
ATOM     21  C   LIG    1       27.222 -20.103   5.989  0.00  0.00    +0.085 C 
ENDBRANCH  16  17
ENDBRANCH   2  16
TORSDOF 4
ENDMDL
MODEL 5
REMARK VINA RESULT:      -2.6      1.499      5.024
REMARK  Name = *****
REMARK                            x       y       z     vdW  Elec       q    Type
REMARK                         _______ _______ _______ _____ _____    ______ ____
ROOT
ATOM      1  C   LIG    1       26.487 -18.727   4.191  0.00  0.00    +0.005 C 
ATOM      2  C   LIG    1       25.706 -19.674   3.619  0.00  0.00    -0.001 C 
ENDROOT
BRANCH   1   7
ATOM      3  C   LIG    1       25.786 -13.166   2.705  0.00  0.00    +0.044 C 
ATOM      4  C   LIG    1       25.959 -14.588   3.153  0.00  0.00    -0.050 A 
ATOM      5  C   LIG    1       24.851 -15.416   3.359  0.00  0.00    +0.004 A 
ATOM      6  C   LIG    1       25.023 -16.763   3.702  0.00  0.00    +0.009 A 
ATOM      7  C   LIG    1       26.309 -17.302   3.832  0.00  0.00    -0.016 A 
ATOM      8  C   LIG    1       27.417 -16.469   3.648  0.00  0.00    +0.009 A 
ATOM      9  C   LIG    1       27.245 -15.120   3.315  0.00  0.00    +0.004 A 
ENDBRANCH   1   7
BRANCH   1  10
ATOM     10  C   LIG    1       27.502 -19.195   5.178  0.00  0.00    +0.071 A 
ATOM     11  N   LIG    1       27.310 -20.427   5.715  0.00  0.00    -0.255 NA
ATOM     12  C   LIG    1       28.194 -20.857   6.637  0.00  0.00    +0.111 A 
ATOM     13  C   LIG    1       29.278 -20.112   7.062  0.00  0.00    +0.020 A 
ATOM     14  C   LIG    1       29.475 -18.859   6.500  0.00  0.00    +0.004 A 
ATOM     15  C   LIG    1       28.577 -18.389   5.545  0.00  0.00    +0.028 A 
ENDBRANCH   1  10
BRANCH   2  16
ATOM     16  C   LIG    1       24.580 -19.509   2.640  0.00  0.00    +0.112 C 
BRANCH  16  17
ATOM     17  N   LIG    1       23.288 -19.868   3.239  0.00  0.00    -0.299 NA
ATOM     18  C   LIG    1       23.362 -20.987   4.180  0.00  0.00    +0.085 C 
ATOM     19  C   LIG    1       22.003 -20.920   4.856  0.00  0.00    +0.017 C 
ATOM     20  C   LIG    1       21.684 -19.432   4.919  0.00  0.00    +0.017 C 
ATOM     21  C   LIG    1       22.706 -18.763   4.004  0.00  0.00    +0.085 C 
ENDBRANCH  16  17
ENDBRANCH   2  16
TORSDOF 4
ENDMDL
MODEL 6
REMARK VINA RESULT:      -2.4      1.521      5.884
REMARK  Name = *****
REMARK                            x       y       z     vdW  Elec       q    Type
REMARK                         _______ _______ _______ _____ _____    ______ ____
ROOT
ATOM      1  C   LIG    1       24.516 -18.412   4.075  0.00  0.00    +0.005 C 
ATOM      2  C   LIG    1       25.660 -19.136   4.122  0.00  0.00    -0.001 C 
ENDROOT
BRANCH   1   7
ATOM      3  C   LIG    1       24.781 -12.637   3.629  0.00  0.00    +0.044 C 
ATOM      4  C   LIG    1       24.693 -14.134   3.682  0.00  0.00    -0.050 A 
ATOM      5  C   LIG    1       25.753 -14.933   3.242  0.00  0.00    +0.004 A 
ATOM      6  C   LIG    1       25.693 -16.326   3.366  0.00  0.00    +0.009 A 
ATOM      7  C   LIG    1       24.573 -16.939   3.943  0.00  0.00    -0.016 A 
ATOM      8  C   LIG    1       23.504 -16.142   4.362  0.00  0.00    +0.009 A 
ATOM      9  C   LIG    1       23.559 -14.750   4.229  0.00  0.00    +0.004 A 
ENDBRANCH   1   7
BRANCH   1  10
ATOM     10  C   LIG    1       23.234 -19.170   4.158  0.00  0.00    +0.071 A 
ATOM     11  N   LIG    1       22.128 -18.557   3.664  0.00  0.00    -0.255 NA
ATOM     12  C   LIG    1       20.952 -19.207   3.761  0.00  0.00    +0.111 A 
ATOM     13  C   LIG    1       20.814 -20.457   4.336  0.00  0.00    +0.020 A 
ATOM     14  C   LIG    1       21.950 -21.082   4.829  0.00  0.00    +0.004 A 
ATOM     15  C   LIG    1       23.180 -20.434   4.741  0.00  0.00    +0.028 A 
ENDBRANCH   1  10
BRANCH   2  16
ATOM     16  C   LIG    1       27.082 -18.667   4.015  0.00  0.00    +0.112 C 
BRANCH  16  17
ATOM     17  N   LIG    1       27.964 -19.412   4.923  0.00  0.00    -0.299 NA
ATOM     18  C   LIG    1       28.947 -18.574   5.612  0.00  0.00    +0.085 C 
ATOM     19  C   LIG    1       29.475 -19.521   6.677  0.00  0.00    +0.017 C 
ATOM     20  C   LIG    1       28.269 -20.368   7.062  0.00  0.00    +0.017 C 
ATOM     21  C   LIG    1       27.221 -20.086   5.989  0.00  0.00    +0.085 C 
ENDBRANCH  16  17
ENDBRANCH   2  16
TORSDOF 4
ENDMDL
