MODEL 1
REMARK VINA RESULT:      -6.6      0.000      0.000
REMARK  Name = *****
REMARK                            x       y       z     vdW  Elec       q    Type
REMARK                         _______ _______ _______ _____ _____    ______ ____
ROOT
ATOM      1  C   LIG    1       26.254 -27.523   7.058  0.00  0.00    +0.172 C 
ATOM      2  C   LIG    1       26.720 -26.334   6.049  0.00  0.00    +0.175 C 
ATOM      3  C   LIG    1       25.748 -25.220   6.230  0.00  0.00    +0.170 C 
ATOM      4  C   LIG    1       24.360 -25.869   6.547  0.00  0.00    +0.084 C 
ATOM      5  C   LIG    1       24.080 -27.357   6.057  0.00  0.00    +0.046 C 
ATOM      6  C   LIG    1       25.005 -28.389   6.710  0.00  0.00    +0.106 C 
ENDROOT
BRANCH   6   7
ATOM      7  N   LIG    1       25.350 -29.712   5.763  0.00  0.00    -0.308 N 
ATOM      8  H   LIG    1       25.581 -29.492   4.805  0.00  0.00    +0.149 HD
ATOM      9  C   LIG    1       25.770 -30.895   6.174  0.00  0.00    +0.242 C 
ATOM     10  O   LIG    1       25.997 -31.855   5.173  0.00  0.00    -0.273 OA
BRANCH   9  11
ATOM     11  C   LIG    1       26.192 -31.372   7.489  0.00  0.00    +0.201 C 
BRANCH  11  12
ATOM     12  O   LIG    1       26.550 -30.728   8.674  0.00  0.00    -0.383 OA
ATOM     13  H   LIG    1       27.223 -30.119   8.396  0.00  0.00    +0.210 HD
ENDBRANCH  11  12
BRANCH  11  14
ATOM     14  C   LIG    1       24.922 -32.012   7.834  0.00  0.00    +0.056 C 
BRANCH  14  15
ATOM     15  C   LIG    1       23.543 -31.794   8.647  0.00  0.00    +0.080 C 
BRANCH  15  16
ATOM     16  N   LIG    1       23.213 -30.426   8.907  0.00  0.00    -0.330 NA
ATOM     17  H   LIG    1       22.355 -30.439   9.468  0.00  0.00    +0.118 HD
ATOM     18  H   LIG    1       23.956 -30.183   9.556  0.00  0.00    +0.118 HD
ENDBRANCH  15  16
ENDBRANCH  14  15
ENDBRANCH  11  14
ENDBRANCH   9  11
ENDBRANCH   6   7
BRANCH   4  19
ATOM     19  N   LIG    1       23.302 -25.028   5.995  0.00  0.00    -0.325 NA
ATOM     20  H   LIG    1       23.645 -24.067   5.982  0.00  0.00    +0.118 HD
ATOM     21  H   LIG    1       23.160 -25.284   5.015  0.00  0.00    +0.118 HD
ENDBRANCH   4  19
BRANCH   2  22
ATOM     22  O   LIG    1       26.584 -26.790   4.628  0.00  0.00    -0.387 OA
ATOM     23  H   LIG    1       26.158 -27.673   4.597  0.00  0.00    +0.210 HD
ENDBRANCH   2  22
BRANCH   3  24
ATOM     24  O   LIG    1       26.146 -24.153   7.109  0.00  0.00    -0.333 OA
BRANCH  24  25
ATOM     25  C   LIG    1       26.463 -22.822   6.630  0.00  0.00    +0.324 C 
ATOM     26  C   LIG    1       26.760 -21.872   7.872  0.00  0.00    +0.124 C 
ATOM     27  C   LIG    1       25.489 -21.898   8.724  0.00  0.00    +0.055 C 
ATOM     28  C   LIG    1       24.251 -21.798   7.897  0.00  0.00    +0.017 C 
ATOM     29  C   LIG    1       24.219 -21.947   6.563  0.00  0.00    +0.111 C 
ATOM     30  O   LIG    1       25.368 -22.272   5.851  0.00  0.00    -0.465 OA
BRANCH  26  31
ATOM     31  N   LIG    1       27.890 -22.190   8.793  0.00  0.00    -0.322 NA
ATOM     32  H   LIG    1       27.621 -21.880   9.736  0.00  0.00    +0.119 HD
ATOM     33  H   LIG    1       27.959 -23.204   8.883  0.00  0.00    +0.119 HD
ENDBRANCH  26  31
BRANCH  29  34
ATOM     34  C   LIG    1       22.947 -21.672   5.751  0.00  0.00    +0.155 C 
BRANCH  34  35
ATOM     35  N   LIG    1       23.123 -21.196   4.379  0.00  0.00    -0.307 NA
ATOM     36  H   LIG    1       22.262 -21.333   3.862  0.00  0.00    +0.122 HD
BRANCH  35  37
ATOM     37  C   LIG    1       23.571 -19.799   4.268  0.00  0.00    +0.109 C 
BRANCH  37  38
ATOM     38  C   LIG    1       24.909 -19.575   3.533  0.00  0.00    +0.171 C 
BRANCH  38  39
ATOM     39  O   LIG    1       26.049 -20.180   4.110  0.00  0.00    -0.394 OA
ATOM     40  H   LIG    1       26.677 -20.347   3.377  0.00  0.00    +0.209 HD
ENDBRANCH  38  39
ENDBRANCH  37  38
ENDBRANCH  35  37
ENDBRANCH  34  35
ENDBRANCH  29  34
ENDBRANCH  24  25
ENDBRANCH   3  24
BRANCH   1  41
ATOM     41  O   LIG    1       26.882 -27.563   8.653  0.00  0.00    -0.341 OA
BRANCH  41  47
ATOM     42  C   LIG    1       27.000 -28.906  12.579  0.00  0.00    +0.121 C 
ATOM     43  C   LIG    1       25.644 -29.772  12.645  0.00  0.00    +0.104 C 
ATOM     44  C   LIG    1       25.822 -31.253  12.199  0.00  0.00    +0.045 C 
ATOM     45  C   LIG    1       24.667 -29.124  11.711  0.00  0.00    +0.199 C 
ATOM     46  O   LIG    1       25.492 -29.070  10.552  0.00  0.00    -0.346 OA
ATOM     47  C   LIG    1       26.257 -27.839  10.258  0.00  0.00    +0.281 C 
ATOM     48  C   LIG    1       27.410 -28.290  11.157  0.00  0.00    +0.190 C 
BRANCH  42  50
ATOM     49  C   LIG    1       28.073 -28.101  14.587  0.00  0.00    +0.101 C 
ATOM     50  N   LIG    1       27.012 -27.856  13.618  0.00  0.00    -0.311 NA
ATOM     51  H   LIG    1       27.090 -26.931  13.203  0.00  0.00    +0.122 HD
ENDBRANCH  42  50
BRANCH  48  52
ATOM     52  O   LIG    1       28.037 -29.376  10.476  0.00  0.00    -0.385 OA
ATOM     53  H   LIG    1       27.699 -29.257   9.565  0.00  0.00    +0.210 HD
ENDBRANCH  48  52
BRANCH  43  54
ATOM     54  O   LIG    1       25.099 -29.830  13.963  0.00  0.00    -0.385 OA
ATOM     55  H   LIG    1       25.873 -29.811  14.553  0.00  0.00    +0.210 HD
ENDBRANCH  43  54
ENDBRANCH  41  47
ENDBRANCH   1  41
TORSDOF 21
ENDMDL
MODEL 2
REMARK VINA RESULT:      -6.3      1.390      2.022
REMARK  Name = *****
REMARK                            x       y       z     vdW  Elec       q    Type
REMARK                         _______ _______ _______ _____ _____    ______ ____
ROOT
ATOM      1  C   LIG    1       26.157 -27.554   7.202  0.00  0.00    +0.172 C 
ATOM      2  C   LIG    1       26.750 -26.407   6.213  0.00  0.00    +0.175 C 
ATOM      3  C   LIG    1       25.796 -25.265   6.268  0.00  0.00    +0.170 C 
ATOM      4  C   LIG    1       24.366 -25.870   6.466  0.00  0.00    +0.084 C 
ATOM      5  C   LIG    1       24.094 -27.364   5.991  0.00  0.00    +0.046 C 
ATOM      6  C   LIG    1       24.924 -28.399   6.757  0.00  0.00    +0.106 C 
ENDROOT
BRANCH   6   7
ATOM      7  N   LIG    1       25.322 -29.756   5.883  0.00  0.00    -0.308 N 
ATOM      8  H   LIG    1       26.173 -29.674   5.345  0.00  0.00    +0.149 HD
ATOM      9  C   LIG    1       24.944 -30.998   6.129  0.00  0.00    +0.242 C 
ATOM     10  O   LIG    1       25.419 -31.979   5.241  0.00  0.00    -0.273 OA
BRANCH   9  11
ATOM     11  C   LIG    1       24.224 -31.589   7.255  0.00  0.00    +0.201 C 
BRANCH  11  12
ATOM     12  O   LIG    1       23.159 -32.486   7.349  0.00  0.00    -0.383 OA
ATOM     13  H   LIG    1       23.496 -33.164   7.920  0.00  0.00    +0.210 HD
ENDBRANCH  11  12
BRANCH  11  14
ATOM     14  C   LIG    1       25.354 -32.368   7.766  0.00  0.00    +0.056 C 
BRANCH  14  15
ATOM     15  C   LIG    1       26.667 -32.279   8.703  0.00  0.00    +0.080 C 
BRANCH  15  16
ATOM     16  N   LIG    1       26.719 -33.253   9.750  0.00  0.00    -0.330 NA
ATOM     17  H   LIG    1       27.481 -33.895   9.507  0.00  0.00    +0.118 HD
ATOM     18  H   LIG    1       27.079 -32.682  10.509  0.00  0.00    +0.118 HD
ENDBRANCH  15  16
ENDBRANCH  14  15
ENDBRANCH  11  14
ENDBRANCH   9  11
ENDBRANCH   6   7
BRANCH   4  19
ATOM     19  N   LIG    1       23.390 -25.019   5.792  0.00  0.00    -0.325 NA
ATOM     20  H   LIG    1       23.007 -24.376   6.486  0.00  0.00    +0.118 HD
ATOM     21  H   LIG    1       23.883 -24.432   5.114  0.00  0.00    +0.118 HD
ENDBRANCH   4  19
BRANCH   2  22
ATOM     22  O   LIG    1       26.739 -26.900   4.798  0.00  0.00    -0.387 OA
ATOM     23  H   LIG    1       25.892 -27.355   4.606  0.00  0.00    +0.210 HD
ENDBRANCH   2  22
BRANCH   3  24
ATOM     24  O   LIG    1       26.137 -24.182   7.154  0.00  0.00    -0.333 OA
BRANCH  24  25
ATOM     25  C   LIG    1       26.448 -22.850   6.677  0.00  0.00    +0.324 C 
ATOM     26  C   LIG    1       26.707 -21.892   7.921  0.00  0.00    +0.124 C 
ATOM     27  C   LIG    1       25.418 -21.929   8.745  0.00  0.00    +0.055 C 
ATOM     28  C   LIG    1       24.197 -21.847   7.892  0.00  0.00    +0.017 C 
ATOM     29  C   LIG    1       24.196 -22.002   6.558  0.00  0.00    +0.111 C 
ATOM     30  O   LIG    1       25.364 -22.315   5.872  0.00  0.00    -0.465 OA
BRANCH  26  31
ATOM     31  N   LIG    1       27.820 -22.192   8.867  0.00  0.00    -0.322 NA
ATOM     32  H   LIG    1       27.554 -21.825   9.790  0.00  0.00    +0.119 HD
ATOM     33  H   LIG    1       27.859 -23.202   9.012  0.00  0.00    +0.119 HD
ENDBRANCH  26  31
BRANCH  29  34
ATOM     34  C   LIG    1       22.938 -21.745   5.718  0.00  0.00    +0.155 C 
BRANCH  34  35
ATOM     35  N   LIG    1       23.128 -21.115   4.411  0.00  0.00    -0.307 NA
ATOM     36  H   LIG    1       22.251 -21.120   3.904  0.00  0.00    +0.122 HD
BRANCH  35  37
ATOM     37  C   LIG    1       23.683 -19.752   4.463  0.00  0.00    +0.109 C 
BRANCH  37  38
ATOM     38  C   LIG    1       24.988 -19.525   3.672  0.00  0.00    +0.171 C 
BRANCH  38  39
ATOM     39  O   LIG    1       26.139 -20.185   4.160  0.00  0.00    -0.394 OA
ATOM     40  H   LIG    1       26.686 -20.408   3.378  0.00  0.00    +0.209 HD
ENDBRANCH  38  39
ENDBRANCH  37  38
ENDBRANCH  35  37
ENDBRANCH  34  35
ENDBRANCH  29  34
ENDBRANCH  24  25
ENDBRANCH   3  24
BRANCH   1  41
ATOM     41  O   LIG    1       26.627 -27.564   8.851  0.00  0.00    -0.341 OA
BRANCH  41  47
ATOM     42  C   LIG    1       26.314 -29.790  12.340  0.00  0.00    +0.121 C 
ATOM     43  C   LIG    1       27.772 -29.559  12.982  0.00  0.00    +0.104 C 
ATOM     44  C   LIG    1       27.871 -28.287  13.876  0.00  0.00    +0.045 C 
ATOM     45  C   LIG    1       28.729 -29.393  11.840  0.00  0.00    +0.199 C 
ATOM     46  O   LIG    1       28.029 -28.379  11.127  0.00  0.00    -0.346 OA
ATOM     47  C   LIG    1       27.118 -28.757  10.025  0.00  0.00    +0.281 C 
ATOM     48  C   LIG    1       25.962 -28.982  11.002  0.00  0.00    +0.190 C 
BRANCH  42  50
ATOM     49  C   LIG    1       24.606 -31.459  11.975  0.00  0.00    +0.101 C 
ATOM     50  N   LIG    1       26.033 -31.230  12.163  0.00  0.00    -0.311 NA
ATOM     51  H   LIG    1       26.579 -31.617  11.397  0.00  0.00    +0.122 HD
ENDBRANCH  42  50
BRANCH  48  52
ATOM     52  O   LIG    1       25.583 -27.688  11.467  0.00  0.00    -0.385 OA
ATOM     53  H   LIG    1       24.658 -27.628  11.151  0.00  0.00    +0.210 HD
ENDBRANCH  48  52
BRANCH  43  54
ATOM     54  O   LIG    1       28.181 -30.646  13.812  0.00  0.00    -0.385 OA
ATOM     55  H   LIG    1       28.765 -31.182  13.246  0.00  0.00    +0.210 HD
ENDBRANCH  43  54
ENDBRANCH  41  47
ENDBRANCH   1  41
TORSDOF 21
ENDMDL
MODEL 3
REMARK VINA RESULT:      -6.0      4.476      9.801
REMARK  Name = *****
REMARK                            x       y       z     vdW  Elec       q    Type
REMARK                         _______ _______ _______ _____ _____    ______ ____
ROOT
ATOM      1  C   LIG    1       24.074 -29.607  12.916  0.00  0.00    +0.172 C 
ATOM      2  C   LIG    1       22.869 -30.001  13.937  0.00  0.00    +0.175 C 
ATOM      3  C   LIG    1       21.656 -29.282  13.457  0.00  0.00    +0.170 C 
ATOM      4  C   LIG    1       22.138 -27.924  12.846  0.00  0.00    +0.084 C 
ATOM      5  C   LIG    1       23.520 -27.311  13.339  0.00  0.00    +0.046 C 
ATOM      6  C   LIG    1       24.726 -28.192  12.997  0.00  0.00    +0.106 C 
ENDROOT
BRANCH   6   7
ATOM      7  N   LIG    1       25.987 -28.096  14.076  0.00  0.00    -0.308 N 
ATOM      8  H   LIG    1       26.401 -28.985  14.317  0.00  0.00    +0.149 HD
ATOM      9  C   LIG    1       26.759 -27.048  14.305  0.00  0.00    +0.242 C 
ATOM     10  O   LIG    1       27.766 -27.218  15.269  0.00  0.00    -0.273 OA
BRANCH   9  11
ATOM     11  C   LIG    1       26.864 -25.755  13.632  0.00  0.00    +0.201 C 
BRANCH  11  12
ATOM     12  O   LIG    1       26.004 -25.029  12.807  0.00  0.00    -0.383 OA
ATOM     13  H   LIG    1       25.272 -25.620  12.683  0.00  0.00    +0.210 HD
ENDBRANCH  11  12
BRANCH  11  14
ATOM     14  C   LIG    1       26.904 -24.950  14.853  0.00  0.00    +0.056 C 
BRANCH  14  15
ATOM     15  C   LIG    1       26.432 -23.542  15.491  0.00  0.00    +0.080 C 
BRANCH  15  16
ATOM     16  N   LIG    1       25.619 -22.740  14.629  0.00  0.00    -0.330 NA
ATOM     17  H   LIG    1       25.082 -23.395  14.050  0.00  0.00    +0.118 HD
ATOM     18  H   LIG    1       24.955 -22.369  15.302  0.00  0.00    +0.118 HD
ENDBRANCH  15  16
ENDBRANCH  14  15
ENDBRANCH  11  14
ENDBRANCH   9  11
ENDBRANCH   6   7
BRANCH   4  19
ATOM     19  N   LIG    1       21.112 -26.910  13.070  0.00  0.00    -0.325 NA
ATOM     20  H   LIG    1       21.054 -26.336  12.228  0.00  0.00    +0.118 HD
ATOM     21  H   LIG    1       20.205 -27.376  13.149  0.00  0.00    +0.118 HD
ENDBRANCH   4  19
BRANCH   2  22
ATOM     22  O   LIG    1       23.165 -29.466  15.305  0.00  0.00    -0.387 OA
ATOM     23  H   LIG    1       22.815 -28.553  15.393  0.00  0.00    +0.210 HD
ENDBRANCH   2  22
BRANCH   3  24
ATOM     24  O   LIG    1       20.740 -30.037  12.640  0.00  0.00    -0.333 OA
BRANCH  24  25
ATOM     25  C   LIG    1       20.423 -31.426  12.902  0.00  0.00    +0.324 C 
ATOM     26  C   LIG    1       20.782 -32.299  11.622  0.00  0.00    +0.124 C 
ATOM     27  C   LIG    1       19.948 -31.716  10.479  0.00  0.00    +0.055 C 
ATOM     28  C   LIG    1       18.547 -31.415  10.895  0.00  0.00    +0.017 C 
ATOM     29  C   LIG    1       18.127 -31.389  12.171  0.00  0.00    +0.111 C 
ATOM     30  O   LIG    1       19.016 -31.591  13.221  0.00  0.00    -0.465 OA
BRANCH  26  31
ATOM     31  N   LIG    1       22.190 -32.350  11.132  0.00  0.00    -0.322 NA
ATOM     32  H   LIG    1       22.789 -32.601  11.928  0.00  0.00    +0.119 HD
ATOM     33  H   LIG    1       22.285 -33.145  10.499  0.00  0.00    +0.119 HD
ENDBRANCH  26  31
BRANCH  29  34
ATOM     34  C   LIG    1       16.643 -31.236  12.528  0.00  0.00    +0.155 C 
BRANCH  34  35
ATOM     35  N   LIG    1       16.181 -29.896  12.889  0.00  0.00    -0.307 NA
ATOM     36  H   LIG    1       15.236 -29.763  12.548  0.00  0.00    +0.122 HD
BRANCH  35  37
ATOM     37  C   LIG    1       16.257 -29.588  14.326  0.00  0.00    +0.109 C 
BRANCH  37  38
ATOM     38  C   LIG    1       17.520 -28.830  14.787  0.00  0.00    +0.171 C 
BRANCH  38  39
ATOM     39  O   LIG    1       18.423 -28.441  13.771  0.00  0.00    -0.394 OA
ATOM     40  H   LIG    1       18.824 -29.265  13.424  0.00  0.00    +0.209 HD
ENDBRANCH  38  39
ENDBRANCH  37  38
ENDBRANCH  35  37
ENDBRANCH  34  35
ENDBRANCH  29  34
ENDBRANCH  24  25
ENDBRANCH   3  24
BRANCH   1  41
ATOM     41  O   LIG    1       24.350 -30.578  11.531  0.00  0.00    -0.341 OA
BRANCH  41  47
ATOM     42  C   LIG    1       24.676 -29.807   7.466  0.00  0.00    +0.121 C 
ATOM     43  C   LIG    1       25.467 -31.119   6.969  0.00  0.00    +0.104 C 
ATOM     44  C   LIG    1       24.537 -32.313   6.604  0.00  0.00    +0.045 C 
ATOM     45  C   LIG    1       26.349 -31.552   8.102  0.00  0.00    +0.199 C 
ATOM     46  O   LIG    1       25.364 -31.586   9.130  0.00  0.00    -0.346 OA
ATOM     47  C   LIG    1       25.182 -30.410  10.007  0.00  0.00    +0.281 C 
ATOM     48  C   LIG    1       24.228 -29.757   9.003  0.00  0.00    +0.190 C 
BRANCH  42  50
ATOM     49  C   LIG    1       24.572 -27.706   6.280  0.00  0.00    +0.101 C 
ATOM     50  N   LIG    1       25.406 -28.576   7.100  0.00  0.00    -0.311 NA
ATOM     51  H   LIG    1       25.749 -28.095   7.927  0.00  0.00    +0.122 HD
ENDBRANCH  42  50
BRANCH  48  52
ATOM     52  O   LIG    1       23.029 -30.529   9.041  0.00  0.00    -0.385 OA
ATOM     53  H   LIG    1       23.119 -31.071   8.231  0.00  0.00    +0.210 HD
ENDBRANCH  48  52
BRANCH  43  54
ATOM     54  O   LIG    1       26.253 -30.873   5.803  0.00  0.00    -0.385 OA
ATOM     55  H   LIG    1       26.488 -31.758   5.471  0.00  0.00    +0.210 HD
ENDBRANCH  43  54
ENDBRANCH  41  47
ENDBRANCH   1  41
TORSDOF 21
ENDMDL
MODEL 4
REMARK VINA RESULT:      -5.8      4.013      7.581
REMARK  Name = *****
REMARK                            x       y       z     vdW  Elec       q    Type
REMARK                         _______ _______ _______ _____ _____    ______ ____
ROOT
ATOM      1  C   LIG    1       26.006 -21.819   5.846  0.00  0.00    +0.172 C 
ATOM      2  C   LIG    1       24.709 -21.791   4.863  0.00  0.00    +0.175 C 
ATOM      3  C   LIG    1       23.596 -21.188   5.648  0.00  0.00    +0.170 C 
ATOM      4  C   LIG    1       23.798 -21.621   7.139  0.00  0.00    +0.084 C 
ATOM      5  C   LIG    1       24.620 -22.948   7.446  0.00  0.00    +0.046 C 
ATOM      6  C   LIG    1       26.083 -22.867   6.998  0.00  0.00    +0.106 C 
ENDROOT
BRANCH   6   7
ATOM      7  N   LIG    1       26.751 -24.319   6.539  0.00  0.00    -0.308 N 
ATOM      8  H   LIG    1       27.709 -24.451   6.831  0.00  0.00    +0.149 HD
ATOM      9  C   LIG    1       26.104 -25.435   6.250  0.00  0.00    +0.242 C 
ATOM     10  O   LIG    1       26.898 -26.537   5.890  0.00  0.00    -0.273 OA
BRANCH   9  11
ATOM     11  C   LIG    1       24.695 -25.799   6.372  0.00  0.00    +0.201 C 
BRANCH  11  12
ATOM     12  O   LIG    1       23.626 -25.810   5.475  0.00  0.00    -0.383 OA
ATOM     13  H   LIG    1       22.880 -26.004   6.029  0.00  0.00    +0.210 HD
ENDBRANCH  11  12
BRANCH  11  14
ATOM     14  C   LIG    1       24.925 -27.222   6.625  0.00  0.00    +0.056 C 
BRANCH  14  15
ATOM     15  C   LIG    1       24.233 -28.679   6.542  0.00  0.00    +0.080 C 
BRANCH  15  16
ATOM     16  N   LIG    1       23.543 -28.943   5.317  0.00  0.00    -0.330 NA
ATOM     17  H   LIG    1       23.015 -29.809   5.466  0.00  0.00    +0.118 HD
ATOM     18  H   LIG    1       22.852 -28.199   5.337  0.00  0.00    +0.118 HD
ENDBRANCH  15  16
ENDBRANCH  14  15
ENDBRANCH  11  14
ENDBRANCH   9  11
ENDBRANCH   6   7
BRANCH   4  19
ATOM     19  N   LIG    1       22.492 -21.765   7.775  0.00  0.00    -0.325 NA
ATOM     20  H   LIG    1       22.648 -21.922   8.771  0.00  0.00    +0.118 HD
ATOM     21  H   LIG    1       21.998 -20.872   7.711  0.00  0.00    +0.118 HD
ENDBRANCH   4  19
BRANCH   2  22
ATOM     22  O   LIG    1       24.288 -23.191   4.537  0.00  0.00    -0.387 OA
ATOM     23  H   LIG    1       23.667 -23.524   5.220  0.00  0.00    +0.210 HD
ENDBRANCH   2  22
BRANCH   3  24
ATOM     24  O   LIG    1       23.346 -19.785   5.441  0.00  0.00    -0.333 OA
BRANCH  24  25
ATOM     25  C   LIG    1       22.589 -19.286   4.311  0.00  0.00    +0.324 C 
ATOM     26  C   LIG    1       23.408 -19.545   2.971  0.00  0.00    +0.124 C 
ATOM     27  C   LIG    1       24.738 -18.810   3.153  0.00  0.00    +0.055 C 
ATOM     28  C   LIG    1       24.560 -17.455   3.751  0.00  0.00    +0.017 C 
ATOM     29  C   LIG    1       23.423 -17.025   4.322  0.00  0.00    +0.111 C 
ATOM     30  O   LIG    1       22.322 -17.865   4.446  0.00  0.00    -0.465 OA
BRANCH  26  31
ATOM     31  N   LIG    1       23.751 -20.941   2.572  0.00  0.00    -0.322 NA
ATOM     32  H   LIG    1       23.292 -21.130   1.671  0.00  0.00    +0.119 HD
ATOM     33  H   LIG    1       24.746 -20.980   2.348  0.00  0.00    +0.119 HD
ENDBRANCH  26  31
BRANCH  29  34
ATOM     34  C   LIG    1       23.248 -15.569   4.772  0.00  0.00    +0.155 C 
BRANCH  34  35
ATOM     35  N   LIG    1       23.784 -14.531   3.891  0.00  0.00    -0.307 NA
ATOM     36  H   LIG    1       23.090 -13.804   3.766  0.00  0.00    +0.122 HD
BRANCH  35  37
ATOM     37  C   LIG    1       25.061 -13.951   4.335  0.00  0.00    +0.109 C 
BRANCH  37  38
ATOM     38  C   LIG    1       26.293 -14.291   3.471  0.00  0.00    +0.171 C 
BRANCH  38  39
ATOM     39  O   LIG    1       26.138 -14.143   2.073  0.00  0.00    -0.394 OA
ATOM     40  H   LIG    1       25.568 -13.357   1.937  0.00  0.00    +0.209 HD
ENDBRANCH  38  39
ENDBRANCH  37  38
ENDBRANCH  35  37
ENDBRANCH  34  35
ENDBRANCH  29  34
ENDBRANCH  24  25
ENDBRANCH   3  24
BRANCH   1  41
ATOM     41  O   LIG    1       27.074 -20.477   5.862  0.00  0.00    -0.341 OA
BRANCH  41  47
ATOM     42  C   LIG    1       30.312 -20.275   8.451  0.00  0.00    +0.121 C 
ATOM     43  C   LIG    1       30.844 -18.784   8.158  0.00  0.00    +0.104 C 
ATOM     44  C   LIG    1       30.158 -17.690   9.029  0.00  0.00    +0.045 C 
ATOM     45  C   LIG    1       30.537 -18.486   6.721  0.00  0.00    +0.199 C 
ATOM     46  O   LIG    1       29.155 -18.826   6.728  0.00  0.00    -0.346 OA
ATOM     47  C   LIG    1       28.733 -20.180   6.312  0.00  0.00    +0.281 C 
ATOM     48  C   LIG    1       28.958 -20.730   7.723  0.00  0.00    +0.190 C 
BRANCH  42  50
ATOM     49  C   LIG    1       31.356 -22.292   9.271  0.00  0.00    +0.101 C 
ATOM     50  N   LIG    1       31.378 -21.273   8.230  0.00  0.00    -0.311 NA
ATOM     51  H   LIG    1       31.307 -21.684   7.302  0.00  0.00    +0.122 HD
ENDBRANCH  42  50
BRANCH  48  52
ATOM     52  O   LIG    1       27.924 -20.171   8.531  0.00  0.00    -0.385 OA
ATOM     53  H   LIG    1       27.880 -19.255   8.188  0.00  0.00    +0.210 HD
ENDBRANCH  48  52
BRANCH  43  54
ATOM     54  O   LIG    1       32.244 -18.647   8.400  0.00  0.00    -0.385 OA
ATOM     55  H   LIG    1       32.420 -17.695   8.302  0.00  0.00    +0.210 HD
ENDBRANCH  43  54
ENDBRANCH  41  47
ENDBRANCH   1  41
TORSDOF 21
ENDMDL
MODEL 5
REMARK VINA RESULT:      -5.8      4.354      8.422
REMARK  Name = *****
REMARK                            x       y       z     vdW  Elec       q    Type
REMARK                         _______ _______ _______ _____ _____    ______ ____
ROOT
ATOM      1  C   LIG    1       23.205 -30.460  10.681  0.00  0.00    +0.172 C 
ATOM      2  C   LIG    1       24.351 -30.003   9.620  0.00  0.00    +0.175 C 
ATOM      3  C   LIG    1       25.111 -31.233   9.262  0.00  0.00    +0.170 C 
ATOM      4  C   LIG    1       25.135 -32.145  10.533  0.00  0.00    +0.084 C 
ATOM      5  C   LIG    1       24.963 -31.470  11.964  0.00  0.00    +0.046 C 
ATOM      6  C   LIG    1       23.600 -30.797  12.152  0.00  0.00    +0.106 C 
ENDROOT
BRANCH   6   7
ATOM      7  N   LIG    1       23.610 -29.476  13.161  0.00  0.00    -0.308 N 
ATOM      8  H   LIG    1       24.531 -29.159  13.429  0.00  0.00    +0.149 HD
ATOM      9  C   LIG    1       22.657 -28.570  13.294  0.00  0.00    +0.242 C 
ATOM     10  O   LIG    1       22.904 -27.539  14.216  0.00  0.00    -0.273 OA
BRANCH   9  11
ATOM     11  C   LIG    1       21.421 -28.345  12.547  0.00  0.00    +0.201 C 
BRANCH  11  12
ATOM     12  O   LIG    1       20.294 -29.130  12.297  0.00  0.00    -0.383 OA
ATOM     13  H   LIG    1       19.577 -28.575  12.578  0.00  0.00    +0.210 HD
ENDBRANCH  11  12
BRANCH  11  14
ATOM     14  C   LIG    1       20.901 -27.295  13.424  0.00  0.00    +0.056 C 
BRANCH  14  15
ATOM     15  C   LIG    1       19.542 -26.697  14.061  0.00  0.00    +0.080 C 
BRANCH  15  16
ATOM     16  N   LIG    1       18.409 -27.567  13.973  0.00  0.00    -0.330 NA
ATOM     17  H   LIG    1       18.634 -28.259  13.251  0.00  0.00    +0.118 HD
ATOM     18  H   LIG    1       18.493 -28.061  14.857  0.00  0.00    +0.118 HD
ENDBRANCH  15  16
ENDBRANCH  14  15
ENDBRANCH  11  14
ENDBRANCH   9  11
ENDBRANCH   6   7
BRANCH   4  19
ATOM     19  N   LIG    1       26.386 -32.896  10.559  0.00  0.00    -0.325 NA
ATOM     20  H   LIG    1       26.199 -33.824  10.178  0.00  0.00    +0.118 HD
ATOM     21  H   LIG    1       27.042 -32.458   9.908  0.00  0.00    +0.118 HD
ENDBRANCH   4  19
BRANCH   2  22
ATOM     22  O   LIG    1       25.325 -29.082  10.290  0.00  0.00    -0.387 OA
ATOM     23  H   LIG    1       25.110 -28.999  11.243  0.00  0.00    +0.210 HD
ENDBRANCH   2  22
BRANCH   3  24
ATOM     24  O   LIG    1       24.734 -31.890   8.037  0.00  0.00    -0.333 OA
BRANCH  24  25
ATOM     25  C   LIG    1       23.624 -31.443   7.221  0.00  0.00    +0.324 C 
ATOM     26  C   LIG    1       23.521 -32.359   5.924  0.00  0.00    +0.124 C 
ATOM     27  C   LIG    1       24.866 -32.213   5.209  0.00  0.00    +0.055 C 
ATOM     28  C   LIG    1       25.338 -30.798   5.174  0.00  0.00    +0.017 C 
ATOM     29  C   LIG    1       24.809 -29.807   5.908  0.00  0.00    +0.111 C 
ATOM     30  O   LIG    1       23.791 -30.057   6.822  0.00  0.00    -0.465 OA
BRANCH  26  31
ATOM     31  N   LIG    1       23.280 -33.825   6.070  0.00  0.00    -0.322 NA
ATOM     32  H   LIG    1       23.966 -34.188   6.744  0.00  0.00    +0.119 HD
ATOM     33  H   LIG    1       22.385 -33.960   6.542  0.00  0.00    +0.119 HD
ENDBRANCH  26  31
BRANCH  29  34
ATOM     34  C   LIG    1       25.227 -28.344   5.709  0.00  0.00    +0.155 C 
BRANCH  34  35
ATOM     35  N   LIG    1       24.175 -27.332   5.809  0.00  0.00    -0.307 NA
ATOM     36  H   LIG    1       23.806 -27.323   6.752  0.00  0.00    +0.122 HD
BRANCH  35  37
ATOM     37  C   LIG    1       24.588 -25.978   5.406  0.00  0.00    +0.109 C 
BRANCH  37  38
ATOM     38  C   LIG    1       24.263 -24.849   6.405  0.00  0.00    +0.171 C 
BRANCH  38  39
ATOM     39  O   LIG    1       22.912 -24.437   6.468  0.00  0.00    -0.394 OA
ATOM     40  H   LIG    1       22.369 -25.248   6.385  0.00  0.00    +0.209 HD
ENDBRANCH  38  39
ENDBRANCH  37  38
ENDBRANCH  35  37
ENDBRANCH  34  35
ENDBRANCH  29  34
ENDBRANCH  24  25
ENDBRANCH   3  24
BRANCH   1  41
ATOM     41  O   LIG    1       21.666 -30.942  10.097  0.00  0.00    -0.341 OA
BRANCH  41  47
ATOM     42  C   LIG    1       17.793 -32.423  10.266  0.00  0.00    +0.121 C 
ATOM     43  C   LIG    1       17.582 -32.545  11.858  0.00  0.00    +0.104 C 
ATOM     44  C   LIG    1       17.046 -31.242  12.522  0.00  0.00    +0.045 C 
ATOM     45  C   LIG    1       18.925 -32.846  12.454  0.00  0.00    +0.199 C 
ATOM     46  O   LIG    1       19.662 -31.788  11.851  0.00  0.00    -0.346 OA
ATOM     47  C   LIG    1       20.404 -32.037  10.596  0.00  0.00    +0.281 C 
ATOM     48  C   LIG    1       19.157 -31.757   9.753  0.00  0.00    +0.190 C 
BRANCH  42  50
ATOM     49  C   LIG    1       17.754 -33.602   8.159  0.00  0.00    +0.101 C 
ATOM     50  N   LIG    1       17.570 -33.722   9.600  0.00  0.00    -0.311 NA
ATOM     51  H   LIG    1       18.169 -34.444   9.995  0.00  0.00    +0.122 HD
ENDBRANCH  42  50
BRANCH  48  52
ATOM     52  O   LIG    1       18.920 -30.354   9.858  0.00  0.00    -0.385 OA
ATOM     53  H   LIG    1       17.950 -30.309   9.729  0.00  0.00    +0.210 HD
ENDBRANCH  48  52
BRANCH  43  54
ATOM     54  O   LIG    1       16.649 -33.567  12.208  0.00  0.00    -0.385 OA
ATOM     55  H   LIG    1       16.283 -33.870  11.358  0.00  0.00    +0.210 HD
ENDBRANCH  43  54
ENDBRANCH  41  47
ENDBRANCH   1  41
TORSDOF 21
ENDMDL
MODEL 6
REMARK VINA RESULT:      -5.7      4.722      9.627
REMARK  Name = *****
REMARK                            x       y       z     vdW  Elec       q    Type
REMARK                         _______ _______ _______ _____ _____    ______ ____
ROOT
ATOM      1  C   LIG    1       23.724 -29.384  13.050  0.00  0.00    +0.172 C 
ATOM      2  C   LIG    1       22.496 -29.751  14.053  0.00  0.00    +0.175 C 
ATOM      3  C   LIG    1       21.280 -29.101  13.490  0.00  0.00    +0.170 C 
ATOM      4  C   LIG    1       21.744 -27.769  12.811  0.00  0.00    +0.084 C 
ATOM      5  C   LIG    1       23.091 -27.084  13.309  0.00  0.00    +0.046 C 
ATOM      6  C   LIG    1       24.332 -27.948  13.062  0.00  0.00    +0.106 C 
ENDROOT
BRANCH   6   7
ATOM      7  N   LIG    1       25.552 -27.746  14.174  0.00  0.00    -0.308 N 
ATOM      8  H   LIG    1       25.239 -27.672  15.131  0.00  0.00    +0.149 HD
ATOM      9  C   LIG    1       26.819 -28.094  14.034  0.00  0.00    +0.242 C 
ATOM     10  O   LIG    1       27.661 -27.821  15.125  0.00  0.00    -0.273 OA
BRANCH   9  11
ATOM     11  C   LIG    1       27.507 -28.857  12.995  0.00  0.00    +0.201 C 
BRANCH  11  12
ATOM     12  O   LIG    1       28.102 -28.507  11.783  0.00  0.00    -0.383 OA
ATOM     13  H   LIG    1       27.506 -28.863  11.137  0.00  0.00    +0.210 HD
ENDBRANCH  11  12
BRANCH  11  14
ATOM     14  C   LIG    1       28.652 -29.243  13.822  0.00  0.00    +0.056 C 
BRANCH  14  15
ATOM     15  C   LIG    1       30.192 -29.725  13.755  0.00  0.00    +0.080 C 
BRANCH  15  16
ATOM     16  N   LIG    1       30.883 -29.348  12.560  0.00  0.00    -0.330 NA
ATOM     17  H   LIG    1       31.865 -29.606  12.703  0.00  0.00    +0.118 HD
ATOM     18  H   LIG    1       30.514 -30.039  11.914  0.00  0.00    +0.118 HD
ENDBRANCH  15  16
ENDBRANCH  14  15
ENDBRANCH  11  14
ENDBRANCH   9  11
ENDBRANCH   6   7
BRANCH   4  19
ATOM     19  N   LIG    1       20.683 -26.775  12.936  0.00  0.00    -0.325 NA
ATOM     20  H   LIG    1       19.802 -27.275  13.064  0.00  0.00    +0.118 HD
ATOM     21  H   LIG    1       20.830 -26.249  13.801  0.00  0.00    +0.118 HD
ENDBRANCH   4  19
BRANCH   2  22
ATOM     22  O   LIG    1       22.730 -29.123  15.394  0.00  0.00    -0.387 OA
ATOM     23  H   LIG    1       23.008 -28.189  15.284  0.00  0.00    +0.210 HD
ENDBRANCH   2  22
BRANCH   3  24
ATOM     24  O   LIG    1       20.416 -29.932  12.693  0.00  0.00    -0.333 OA
BRANCH  24  25
ATOM     25  C   LIG    1       20.079 -31.292  13.065  0.00  0.00    +0.324 C 
ATOM     26  C   LIG    1       20.522 -32.281  11.900  0.00  0.00    +0.124 C 
ATOM     27  C   LIG    1       19.767 -31.814  10.653  0.00  0.00    +0.055 C 
ATOM     28  C   LIG    1       18.342 -31.482  10.945  0.00  0.00    +0.017 C 
ATOM     29  C   LIG    1       17.838 -31.337  12.182  0.00  0.00    +0.111 C 
ATOM     30  O   LIG    1       18.654 -31.433  13.304  0.00  0.00    -0.465 OA
BRANCH  26  31
ATOM     31  N   LIG    1       21.960 -32.370  11.511  0.00  0.00    -0.322 NA
ATOM     32  H   LIG    1       22.279 -33.327  11.714  0.00  0.00    +0.119 HD
ATOM     33  H   LIG    1       22.026 -32.305  10.495  0.00  0.00    +0.119 HD
ENDBRANCH  26  31
BRANCH  29  34
ATOM     34  C   LIG    1       16.334 -31.158  12.423  0.00  0.00    +0.155 C 
BRANCH  34  35
ATOM     35  N   LIG    1       15.920 -30.733  13.761  0.00  0.00    -0.307 NA
ATOM     36  H   LIG    1       16.562 -31.112  14.447  0.00  0.00    +0.122 HD
BRANCH  35  37
ATOM     37  C   LIG    1       15.789 -29.277  13.928  0.00  0.00    +0.109 C 
BRANCH  37  38
ATOM     38  C   LIG    1       16.967 -28.570  14.630  0.00  0.00    +0.171 C 
BRANCH  38  39
ATOM     39  O   LIG    1       18.118 -28.339  13.843  0.00  0.00    -0.394 OA
ATOM     40  H   LIG    1       17.831 -27.788  13.085  0.00  0.00    +0.209 HD
ENDBRANCH  38  39
ENDBRANCH  37  38
ENDBRANCH  35  37
ENDBRANCH  34  35
ENDBRANCH  29  34
ENDBRANCH  24  25
ENDBRANCH   3  24
BRANCH   1  41
ATOM     41  O   LIG    1       24.075 -30.431  11.738  0.00  0.00    -0.341 OA
BRANCH  41  47
ATOM     42  C   LIG    1       24.671 -30.009   7.652  0.00  0.00    +0.121 C 
ATOM     43  C   LIG    1       25.557 -31.316   7.337  0.00  0.00    +0.104 C 
ATOM     44  C   LIG    1       24.714 -32.586   7.020  0.00  0.00    +0.045 C 
ATOM     45  C   LIG    1       26.370 -31.598   8.565  0.00  0.00    +0.199 C 
ATOM     46  O   LIG    1       25.313 -31.593   9.519  0.00  0.00    -0.346 OA
ATOM     47  C   LIG    1       25.011 -30.355  10.268  0.00  0.00    +0.281 C 
ATOM     48  C   LIG    1       24.106 -29.846   9.143  0.00  0.00    +0.190 C 
BRANCH  42  50
ATOM     49  C   LIG    1       24.558 -28.031   6.272  0.00  0.00    +0.101 C 
ATOM     50  N   LIG    1       25.367 -28.778   7.226  0.00  0.00    -0.311 NA
ATOM     51  H   LIG    1       25.624 -28.207   8.028  0.00  0.00    +0.122 HD
ENDBRANCH  42  50
BRANCH  48  52
ATOM     52  O   LIG    1       22.945 -30.675   9.167  0.00  0.00    -0.385 OA
ATOM     53  H   LIG    1       23.318 -31.542   8.906  0.00  0.00    +0.210 HD
ENDBRANCH  48  52
BRANCH  43  54
ATOM     54  O   LIG    1       26.416 -31.133   6.211  0.00  0.00    -0.385 OA
ATOM     55  H   LIG    1       25.986 -31.625   5.489  0.00  0.00    +0.210 HD
ENDBRANCH  43  54
ENDBRANCH  41  47
ENDBRANCH   1  41
TORSDOF 21
ENDMDL
MODEL 7
REMARK VINA RESULT:      -5.7      1.706      2.375
REMARK  Name = *****
REMARK                            x       y       z     vdW  Elec       q    Type
REMARK                         _______ _______ _______ _____ _____    ______ ____
ROOT
ATOM      1  C   LIG    1       26.058 -27.388   6.977  0.00  0.00    +0.172 C 
ATOM      2  C   LIG    1       26.526 -26.062   6.158  0.00  0.00    +0.175 C 
ATOM      3  C   LIG    1       25.416 -25.076   6.279  0.00  0.00    +0.170 C 
ATOM      4  C   LIG    1       24.081 -25.891   6.320  0.00  0.00    +0.084 C 
ATOM      5  C   LIG    1       24.048 -27.342   5.668  0.00  0.00    +0.046 C 
ATOM      6  C   LIG    1       24.981 -28.336   6.366  0.00  0.00    +0.106 C 
ENDROOT
BRANCH   6   7
ATOM      7  N   LIG    1       25.610 -29.514   5.375  0.00  0.00    -0.308 N 
ATOM      8  H   LIG    1       26.473 -29.259   4.917  0.00  0.00    +0.149 HD
ATOM      9  C   LIG    1       25.388 -30.815   5.447  0.00  0.00    +0.242 C 
ATOM     10  O   LIG    1       26.042 -31.610   4.492  0.00  0.00    -0.273 OA
BRANCH   9  11
ATOM     11  C   LIG    1       24.687 -31.626   6.440  0.00  0.00    +0.201 C 
BRANCH  11  12
ATOM     12  O   LIG    1       23.392 -31.601   6.959  0.00  0.00    -0.383 OA
ATOM     13  H   LIG    1       23.073 -30.743   6.707  0.00  0.00    +0.210 HD
ENDBRANCH  11  12
BRANCH  11  14
ATOM     14  C   LIG    1       24.704 -32.867   5.663  0.00  0.00    +0.056 C 
BRANCH  14  15
ATOM     15  C   LIG    1       23.795 -33.821   4.729  0.00  0.00    +0.080 C 
BRANCH  15  16
ATOM     16  N   LIG    1       22.425 -33.422   4.624  0.00  0.00    -0.330 NA
ATOM     17  H   LIG    1       22.160 -33.061   5.546  0.00  0.00    +0.118 HD
ATOM     18  H   LIG    1       22.521 -32.603   4.031  0.00  0.00    +0.118 HD
ENDBRANCH  15  16
ENDBRANCH  14  15
ENDBRANCH  11  14
ENDBRANCH   9  11
ENDBRANCH   6   7
BRANCH   4  19
ATOM     19  N   LIG    1       23.024 -25.109   5.684  0.00  0.00    -0.325 NA
ATOM     20  H   LIG    1       23.153 -24.134   5.957  0.00  0.00    +0.118 HD
ATOM     21  H   LIG    1       23.167 -25.133   4.671  0.00  0.00    +0.118 HD
ENDBRANCH   4  19
BRANCH   2  22
ATOM     22  O   LIG    1       26.651 -26.383   4.699  0.00  0.00    -0.387 OA
ATOM     23  H   LIG    1       26.180 -27.219   4.497  0.00  0.00    +0.210 HD
ENDBRANCH   2  22
BRANCH   3  24
ATOM     24  O   LIG    1       25.557 -24.069   7.298  0.00  0.00    -0.333 OA
BRANCH  24  25
ATOM     25  C   LIG    1       26.094 -22.751   7.025  0.00  0.00    +0.324 C 
ATOM     26  C   LIG    1       25.494 -21.711   8.069  0.00  0.00    +0.124 C 
ATOM     27  C   LIG    1       23.976 -21.771   7.884  0.00  0.00    +0.055 C 
ATOM     28  C   LIG    1       23.581 -21.805   6.446  0.00  0.00    +0.017 C 
ATOM     29  C   LIG    1       24.433 -22.035   5.433  0.00  0.00    +0.111 C 
ATOM     30  O   LIG    1       25.771 -22.323   5.675  0.00  0.00    -0.465 OA
BRANCH  26  31
ATOM     31  N   LIG    1       25.748 -21.896   9.527  0.00  0.00    -0.322 NA
ATOM     32  H   LIG    1       25.686 -20.972   9.975  0.00  0.00    +0.119 HD
ATOM     33  H   LIG    1       24.964 -22.412   9.929  0.00  0.00    +0.119 HD
ENDBRANCH  26  31
BRANCH  29  34
ATOM     34  C   LIG    1       24.000 -21.895   3.968  0.00  0.00    +0.155 C 
BRANCH  34  35
ATOM     35  N   LIG    1       23.709 -20.544   3.486  0.00  0.00    -0.307 NA
ATOM     36  H   LIG    1       22.732 -20.332   3.650  0.00  0.00    +0.122 HD
BRANCH  35  37
ATOM     37  C   LIG    1       24.566 -19.493   4.057  0.00  0.00    +0.109 C 
BRANCH  37  38
ATOM     38  C   LIG    1       26.044 -19.512   3.614  0.00  0.00    +0.171 C 
BRANCH  38  39
ATOM     39  O   LIG    1       26.999 -19.757   4.628  0.00  0.00    -0.394 OA
ATOM     40  H   LIG    1       27.569 -20.486   4.305  0.00  0.00    +0.209 HD
ENDBRANCH  38  39
ENDBRANCH  37  38
ENDBRANCH  35  37
ENDBRANCH  34  35
ENDBRANCH  29  34
ENDBRANCH  24  25
ENDBRANCH   3  24
BRANCH   1  41
ATOM     41  O   LIG    1       26.449 -27.527   8.641  0.00  0.00    -0.341 OA
BRANCH  41  47
ATOM     42  C   LIG    1       25.756 -31.202  10.439  0.00  0.00    +0.121 C 
ATOM     43  C   LIG    1       25.702 -30.777  11.991  0.00  0.00    +0.104 C 
ATOM     44  C   LIG    1       24.286 -30.344  12.475  0.00  0.00    +0.045 C 
ATOM     45  C   LIG    1       26.622 -29.605  12.155  0.00  0.00    +0.199 C 
ATOM     46  O   LIG    1       26.104 -28.787  11.111  0.00  0.00    -0.346 OA
ATOM     47  C   LIG    1       26.736 -28.821   9.775  0.00  0.00    +0.281 C 
ATOM     48  C   LIG    1       25.890 -30.027   9.359  0.00  0.00    +0.190 C 
BRANCH  42  50
ATOM     49  C   LIG    1       27.125 -32.318   8.793  0.00  0.00    +0.101 C 
ATOM     50  N   LIG    1       26.784 -32.237  10.207  0.00  0.00    -0.311 NA
ATOM     51  H   LIG    1       27.606 -32.072  10.782  0.00  0.00    +0.122 HD
ENDBRANCH  42  50
BRANCH  48  52
ATOM     52  O   LIG    1       24.558 -29.539   9.208  0.00  0.00    -0.385 OA
ATOM     53  H   LIG    1       24.049 -30.193   9.730  0.00  0.00    +0.210 HD
ENDBRANCH  48  52
BRANCH  43  54
ATOM     54  O   LIG    1       26.098 -31.838  12.861  0.00  0.00    -0.385 OA
ATOM     55  H   LIG    1       27.069 -31.775  12.901  0.00  0.00    +0.210 HD
ENDBRANCH  43  54
ENDBRANCH  41  47
ENDBRANCH   1  41
TORSDOF 21
ENDMDL
MODEL 8
REMARK VINA RESULT:      -5.7      3.054      5.006
REMARK  Name = *****
REMARK                            x       y       z     vdW  Elec       q    Type
REMARK                         _______ _______ _______ _____ _____    ______ ____
ROOT
ATOM      1  C   LIG    1       24.278 -30.399   8.792  0.00  0.00    +0.172 C 
ATOM      2  C   LIG    1       25.402 -29.280   8.428  0.00  0.00    +0.175 C 
ATOM      3  C   LIG    1       25.134 -28.851   7.027  0.00  0.00    +0.170 C 
ATOM      4  C   LIG    1       24.583 -30.100   6.262  0.00  0.00    +0.084 C 
ATOM      5  C   LIG    1       24.952 -31.552   6.799  0.00  0.00    +0.046 C 
ATOM      6  C   LIG    1       24.394 -31.836   8.197  0.00  0.00    +0.106 C 
ENDROOT
BRANCH   6   7
ATOM      7  N   LIG    1       25.315 -32.870   9.117  0.00  0.00    -0.308 N 
ATOM      8  H   LIG    1       26.064 -33.324   8.615  0.00  0.00    +0.149 HD
ATOM      9  C   LIG    1       25.471 -32.840  10.429  0.00  0.00    +0.242 C 
ATOM     10  O   LIG    1       26.310 -33.825  10.977  0.00  0.00    -0.273 OA
BRANCH   9  11
ATOM     11  C   LIG    1       25.043 -31.871  11.436  0.00  0.00    +0.201 C 
BRANCH  11  12
ATOM     12  O   LIG    1       24.632 -31.985  12.764  0.00  0.00    -0.383 OA
ATOM     13  H   LIG    1       25.124 -32.733  13.080  0.00  0.00    +0.210 HD
ENDBRANCH  11  12
BRANCH  11  14
ATOM     14  C   LIG    1       26.334 -31.189  11.549  0.00  0.00    +0.056 C 
BRANCH  14  15
ATOM     15  C   LIG    1       27.024 -29.784  11.951  0.00  0.00    +0.080 C 
BRANCH  15  16
ATOM     16  N   LIG    1       28.067 -29.358  11.069  0.00  0.00    -0.330 NA
ATOM     17  H   LIG    1       27.627 -29.216  10.154  0.00  0.00    +0.118 HD
ATOM     18  H   LIG    1       28.240 -28.426  11.433  0.00  0.00    +0.118 HD
ENDBRANCH  15  16
ENDBRANCH  14  15
ENDBRANCH  11  14
ENDBRANCH   9  11
ENDBRANCH   6   7
BRANCH   4  19
ATOM     19  N   LIG    1       25.013 -30.035   4.868  0.00  0.00    -0.325 NA
ATOM     20  H   LIG    1       24.894 -29.072   4.552  0.00  0.00    +0.118 HD
ATOM     21  H   LIG    1       26.019 -30.216   4.829  0.00  0.00    +0.118 HD
ENDBRANCH   4  19
BRANCH   2  22
ATOM     22  O   LIG    1       26.763 -29.907   8.427  0.00  0.00    -0.387 OA
ATOM     23  H   LIG    1       26.825 -30.578   9.140  0.00  0.00    +0.210 HD
ENDBRANCH   2  22
BRANCH   3  24
ATOM     24  O   LIG    1       24.377 -27.639   6.857  0.00  0.00    -0.333 OA
BRANCH  24  25
ATOM     25  C   LIG    1       24.347 -26.905   5.608  0.00  0.00    +0.324 C 
ATOM     26  C   LIG    1       25.822 -26.438   5.235  0.00  0.00    +0.124 C 
ATOM     27  C   LIG    1       26.289 -25.573   6.408  0.00  0.00    +0.055 C 
ATOM     28  C   LIG    1       25.228 -24.634   6.877  0.00  0.00    +0.017 C 
ATOM     29  C   LIG    1       23.937 -24.712   6.517  0.00  0.00    +0.111 C 
ATOM     30  O   LIG    1       23.481 -25.743   5.703  0.00  0.00    -0.465 OA
BRANCH  26  31
ATOM     31  N   LIG    1       26.888 -27.458   5.015  0.00  0.00    -0.322 NA
ATOM     32  H   LIG    1       26.602 -28.318   5.501  0.00  0.00    +0.119 HD
ATOM     33  H   LIG    1       26.882 -27.725   4.030  0.00  0.00    +0.119 HD
ENDBRANCH  26  31
BRANCH  29  34
ATOM     34  C   LIG    1       22.926 -23.623   6.899  0.00  0.00    +0.155 C 
BRANCH  34  35
ATOM     35  N   LIG    1       22.632 -22.604   5.891  0.00  0.00    -0.307 NA
ATOM     36  H   LIG    1       21.628 -22.489   5.812  0.00  0.00    +0.122 HD
BRANCH  35  37
ATOM     37  C   LIG    1       23.282 -21.305   6.126  0.00  0.00    +0.109 C 
BRANCH  37  38
ATOM     38  C   LIG    1       23.482 -20.416   4.880  0.00  0.00    +0.171 C 
BRANCH  38  39
ATOM     39  O   LIG    1       24.551 -20.769   4.024  0.00  0.00    -0.394 OA
ATOM     40  H   LIG    1       25.152 -19.995   3.995  0.00  0.00    +0.209 HD
ENDBRANCH  38  39
ENDBRANCH  37  38
ENDBRANCH  35  37
ENDBRANCH  34  35
ENDBRANCH  29  34
ENDBRANCH  24  25
ENDBRANCH   3  24
BRANCH   1  41
ATOM     41  O   LIG    1       22.793 -29.899   9.491  0.00  0.00    -0.341 OA
BRANCH  41  47
ATOM     42  C   LIG    1       20.329 -30.759  12.718  0.00  0.00    +0.121 C 
ATOM     43  C   LIG    1       20.334 -32.369  12.685  0.00  0.00    +0.104 C 
ATOM     44  C   LIG    1       21.504 -33.010  13.488  0.00  0.00    +0.045 C 
ATOM     45  C   LIG    1       20.484 -32.775  11.249  0.00  0.00    +0.199 C 
ATOM     46  O   LIG    1       21.630 -31.993  10.931  0.00  0.00    -0.346 OA
ATOM     47  C   LIG    1       21.455 -30.662  10.310  0.00  0.00    +0.281 C 
ATOM     48  C   LIG    1       21.284 -29.999  11.679  0.00  0.00    +0.190 C 
BRANCH  42  50
ATOM     49  C   LIG    1       18.563 -29.607  13.894  0.00  0.00    +0.101 C 
ATOM     50  N   LIG    1       18.952 -30.230  12.636  0.00  0.00    -0.311 NA
ATOM     51  H   LIG    1       18.853 -29.588  11.853  0.00  0.00    +0.122 HD
ENDBRANCH  42  50
BRANCH  48  52
ATOM     52  O   LIG    1       22.569 -30.036  12.297  0.00  0.00    -0.385 OA
ATOM     53  H   LIG    1       22.345 -29.828  13.227  0.00  0.00    +0.210 HD
ENDBRANCH  48  52
BRANCH  43  54
ATOM     54  O   LIG    1       19.140 -32.929  13.231  0.00  0.00    -0.385 OA
ATOM     55  H   LIG    1       19.255 -32.865  14.196  0.00  0.00    +0.210 HD
ENDBRANCH  43  54
ENDBRANCH  41  47
ENDBRANCH   1  41
TORSDOF 21
ENDMDL
MODEL 9
REMARK VINA RESULT:      -5.4      2.824      5.630
REMARK  Name = *****
REMARK                            x       y       z     vdW  Elec       q    Type
REMARK                         _______ _______ _______ _____ _____    ______ ____
ROOT
ATOM      1  C   LIG    1       25.361 -29.974  10.657  0.00  0.00    +0.172 C 
ATOM      2  C   LIG    1       26.343 -29.818   9.369  0.00  0.00    +0.175 C 
ATOM      3  C   LIG    1       25.459 -29.679   8.178  0.00  0.00    +0.170 C 
ATOM      4  C   LIG    1       24.182 -30.542   8.450  0.00  0.00    +0.084 C 
ATOM      5  C   LIG    1       24.283 -31.759   9.470  0.00  0.00    +0.046 C 
ATOM      6  C   LIG    1       24.610 -31.319  10.901  0.00  0.00    +0.106 C 
ENDROOT
BRANCH   6   7
ATOM      7  N   LIG    1       25.483 -32.423  11.786  0.00  0.00    -0.308 N 
ATOM      8  H   LIG    1       26.288 -32.802  11.307  0.00  0.00    +0.149 HD
ATOM      9  C   LIG    1       25.524 -32.532  13.102  0.00  0.00    +0.242 C 
ATOM     10  O   LIG    1       26.346 -33.550  13.616  0.00  0.00    -0.273 OA
BRANCH   9  11
ATOM     11  C   LIG    1       24.978 -31.689  14.163  0.00  0.00    +0.201 C 
BRANCH  11  12
ATOM     12  O   LIG    1       24.419 -31.960  15.413  0.00  0.00    -0.383 OA
ATOM     13  H   LIG    1       23.585 -31.509  15.380  0.00  0.00    +0.210 HD
ENDBRANCH  11  12
BRANCH  11  14
ATOM     14  C   LIG    1       26.243 -31.035  14.504  0.00  0.00    +0.056 C 
BRANCH  14  15
ATOM     15  C   LIG    1       27.247 -29.849  14.061  0.00  0.00    +0.080 C 
BRANCH  15  16
ATOM     16  N   LIG    1       27.923 -30.074  12.820  0.00  0.00    -0.330 NA
ATOM     17  H   LIG    1       28.926 -30.044  13.030  0.00  0.00    +0.118 HD
ATOM     18  H   LIG    1       27.707 -31.056  12.673  0.00  0.00    +0.118 HD
ENDBRANCH  15  16
ENDBRANCH  14  15
ENDBRANCH  11  14
ENDBRANCH   9  11
ENDBRANCH   6   7
BRANCH   4  19
ATOM     19  N   LIG    1       23.691 -31.080   7.185  0.00  0.00    -0.325 NA
ATOM     20  H   LIG    1       24.499 -31.384   6.642  0.00  0.00    +0.118 HD
ATOM     21  H   LIG    1       23.153 -31.928   7.379  0.00  0.00    +0.118 HD
ENDBRANCH   4  19
BRANCH   2  22
ATOM     22  O   LIG    1       27.126 -31.079   9.170  0.00  0.00    -0.387 OA
ATOM     23  H   LIG    1       27.421 -31.433  10.037  0.00  0.00    +0.210 HD
ENDBRANCH   2  22
BRANCH   3  24
ATOM     24  O   LIG    1       25.211 -28.339   7.712  0.00  0.00    -0.333 OA
BRANCH  24  25
ATOM     25  C   LIG    1       24.411 -28.056   6.538  0.00  0.00    +0.324 C 
ATOM     26  C   LIG    1       25.246 -28.413   5.231  0.00  0.00    +0.124 C 
ATOM     27  C   LIG    1       26.507 -27.548   5.300  0.00  0.00    +0.055 C 
ATOM     28  C   LIG    1       26.211 -26.148   5.723  0.00  0.00    +0.017 C 
ATOM     29  C   LIG    1       25.042 -25.749   6.249  0.00  0.00    +0.111 C 
ATOM     30  O   LIG    1       24.019 -26.658   6.495  0.00  0.00    -0.465 OA
BRANCH  26  31
ATOM     31  N   LIG    1       25.709 -29.814   5.009  0.00  0.00    -0.322 NA
ATOM     32  H   LIG    1       26.667 -29.771   4.639  0.00  0.00    +0.119 HD
ATOM     33  H   LIG    1       25.821 -30.266   5.917  0.00  0.00    +0.119 HD
ENDBRANCH  26  31
BRANCH  29  34
ATOM     34  C   LIG    1       24.741 -24.268   6.513  0.00  0.00    +0.155 C 
BRANCH  34  35
ATOM     35  N   LIG    1       25.094 -23.319   5.456  0.00  0.00    -0.307 NA
ATOM     36  H   LIG    1       24.604 -23.566   4.605  0.00  0.00    +0.122 HD
BRANCH  35  37
ATOM     37  C   LIG    1       24.854 -21.907   5.796  0.00  0.00    +0.109 C 
BRANCH  37  38
ATOM     38  C   LIG    1       24.967 -20.904   4.629  0.00  0.00    +0.171 C 
BRANCH  38  39
ATOM     39  O   LIG    1       26.238 -20.318   4.429  0.00  0.00    -0.394 OA
ATOM     40  H   LIG    1       26.081 -19.369   4.241  0.00  0.00    +0.209 HD
ENDBRANCH  38  39
ENDBRANCH  37  38
ENDBRANCH  35  37
ENDBRANCH  34  35
ENDBRANCH  29  34
ENDBRANCH  24  25
ENDBRANCH   3  24
BRANCH   1  41
ATOM     41  O   LIG    1       24.859 -28.569  11.504  0.00  0.00    -0.341 OA
BRANCH  41  47
ATOM     42  C   LIG    1       21.573 -28.840  14.025  0.00  0.00    +0.121 C 
ATOM     43  C   LIG    1       21.229 -27.283  14.246  0.00  0.00    +0.104 C 
ATOM     44  C   LIG    1       20.274 -26.691  13.167  0.00  0.00    +0.045 C 
ATOM     45  C   LIG    1       22.526 -26.535  14.171  0.00  0.00    +0.199 C 
ATOM     46  O   LIG    1       22.995 -27.054  12.931  0.00  0.00    -0.346 OA
ATOM     47  C   LIG    1       23.913 -28.214  12.925  0.00  0.00    +0.281 C 
ATOM     48  C   LIG    1       22.740 -29.196  12.986  0.00  0.00    +0.190 C 
BRANCH  42  50
ATOM     49  C   LIG    1       21.054 -30.768  15.383  0.00  0.00    +0.101 C 
ATOM     50  N   LIG    1       21.805 -29.522  15.315  0.00  0.00    -0.311 NA
ATOM     51  H   LIG    1       22.798 -29.674  15.475  0.00  0.00    +0.122 HD
ENDBRANCH  42  50
BRANCH  48  52
ATOM     52  O   LIG    1       22.104 -29.126  11.711  0.00  0.00    -0.385 OA
ATOM     53  H   LIG    1       21.606 -29.969  11.694  0.00  0.00    +0.210 HD
ENDBRANCH  48  52
BRANCH  43  54
ATOM     54  O   LIG    1       20.592 -27.038  15.500  0.00  0.00    -0.385 OA
ATOM     55  H   LIG    1       19.733 -26.642  15.268  0.00  0.00    +0.210 HD
ENDBRANCH  43  54
ENDBRANCH  41  47
ENDBRANCH   1  41
TORSDOF 21
ENDMDL
