MODEL 1
REMARK VINA RESULT:      -5.2      0.000      0.000
REMARK  Name = *****
REMARK                            x       y       z     vdW  Elec       q    Type
REMARK                         _______ _______ _______ _____ _____    ______ ____
ROOT
ATOM      1  C   LIG    1       24.124 -29.984  12.549  0.00  0.00    +0.169 C 
ATOM      2  C   LIG    1       23.172 -29.541  11.407  0.00  0.00    +0.175 C 
ATOM      3  C   LIG    1       23.102 -30.552  10.237  0.00  0.00    +0.169 C 
ATOM      4  C   LIG    1       22.859 -32.026  10.724  0.00  0.00    +0.084 C 
ATOM      5  C   LIG    1       23.774 -32.410  11.907  0.00  0.00    +0.042 C 
ATOM      6  C   LIG    1       23.748 -31.406  13.069  0.00  0.00    +0.084 C 
ENDROOT
BRANCH   6   7
ATOM      7  N   LIG    1       22.429 -31.454  13.739  0.00  0.00    -0.325 NA
ATOM      8  H   LIG    1       22.543 -31.854  14.676  0.00  0.00    +0.118 HD
ATOM      9  H   LIG    1       21.841 -32.140  13.248  0.00  0.00    +0.118 HD
ENDBRANCH   6   7
BRANCH   4  10
ATOM     10  N   LIG    1       21.443 -32.295  11.042  0.00  0.00    -0.325 NA
ATOM     11  H   LIG    1       20.865 -31.489  10.762  0.00  0.00    +0.118 HD
ATOM     12  H   LIG    1       21.098 -33.068  10.472  0.00  0.00    +0.118 HD
ENDBRANCH   4  10
BRANCH   2  13
ATOM     13  O   LIG    1       21.867 -29.259  11.924  0.00  0.00    -0.387 OA
ATOM     14  H   LIG    1       21.231 -29.522  11.223  0.00  0.00    +0.210 HD
ENDBRANCH   2  13
BRANCH   3  15
ATOM     15  O   LIG    1       24.302 -30.547   9.428  0.00  0.00    -0.341 OA
BRANCH  15  16
ATOM     16  C   LIG    1       24.193 -30.746   7.997  0.00  0.00    +0.281 C 
ATOM     17  C   LIG    1       24.467 -32.199   7.593  0.00  0.00    +0.189 C 
ATOM     18  C   LIG    1       24.532 -32.359   6.058  0.00  0.00    +0.116 C 
ATOM     19  C   LIG    1       25.593 -31.384   5.500  0.00  0.00    +0.165 C 
ATOM     20  C   LIG    1       25.448 -29.947   6.030  0.00  0.00    +0.177 C 
ATOM     21  O   LIG    1       25.175 -29.862   7.442  0.00  0.00    -0.341 OA
BRANCH  18  22
ATOM     22  N   LIG    1       23.230 -32.241   5.381  0.00  0.00    -0.323 NA
ATOM     23  H   LIG    1       23.352 -32.144   4.373  0.00  0.00    +0.119 HD
ATOM     24  H   LIG    1       22.652 -33.076   5.539  0.00  0.00    +0.119 HD
ENDBRANCH  18  22
BRANCH  17  25
ATOM     25  O   LIG    1       25.730 -32.595   8.168  0.00  0.00    -0.385 OA
ATOM     26  H   LIG    1       25.729 -33.576   8.144  0.00  0.00    +0.210 HD
ENDBRANCH  17  25
BRANCH  19  27
ATOM     27  O   LIG    1       26.908 -31.861   5.858  0.00  0.00    -0.388 OA
ATOM     28  H   LIG    1       27.284 -31.209   6.484  0.00  0.00    +0.210 HD
ENDBRANCH  19  27
BRANCH  20  29
ATOM     29  C   LIG    1       24.514 -29.086   5.160  0.00  0.00    +0.190 C 
BRANCH  29  30
ATOM     30  O   LIG    1       23.133 -29.377   5.369  0.00  0.00    -0.392 OA
ATOM     31  H   LIG    1       23.125 -30.121   6.004  0.00  0.00    +0.209 HD
ENDBRANCH  29  30
ENDBRANCH  20  29
ENDBRANCH  15  16
ENDBRANCH   3  15
BRANCH   1  32
ATOM     32  O   LIG    1       25.520 -30.002  12.177  0.00  0.00    -0.342 OA
BRANCH  32  37
ATOM     33  C   LIG    1       27.486 -28.727  13.898  0.00  0.00    +0.163 C 
ATOM     34  C   LIG    1       28.700 -29.168  13.038  0.00  0.00    +0.146 C 
ATOM     35  C   LIG    1       28.352 -29.673  11.638  0.00  0.00    +0.057 C 
ATOM     36  C   LIG    1       27.329 -28.754  11.015  0.00  0.00    +0.110 C 
ATOM     37  C   LIG    1       26.095 -28.712  11.958  0.00  0.00    +0.268 C 
ATOM     38  O   LIG    1       26.461 -28.056  13.165  0.00  0.00    -0.343 OA
BRANCH  36  39
ATOM     39  N   LIG    1       27.078 -29.110   9.610  0.00  0.00    -0.323 NA
ATOM     40  H   LIG    1       26.117 -29.456   9.472  0.00  0.00    +0.119 HD
ATOM     41  H   LIG    1       27.185 -28.311   8.985  0.00  0.00    +0.119 HD
ENDBRANCH  36  39
BRANCH  34  42
ATOM     42  O   LIG    1       29.431 -30.194  13.716  0.00  0.00    -0.389 OA
ATOM     43  H   LIG    1       29.730 -29.847  14.565  0.00  0.00    +0.210 HD
ENDBRANCH  34  42
BRANCH  33  44
ATOM     44  C   LIG    1       27.947 -27.736  14.996  0.00  0.00    +0.112 C 
BRANCH  44  45
ATOM     45  N   LIG    1       29.389 -27.432  14.965  0.00  0.00    -0.328 NA
ATOM     46  H   LIG    1       29.772 -27.519  15.910  0.00  0.00    +0.118 HD
ATOM     47  H   LIG    1       29.510 -26.447  14.737  0.00  0.00    +0.118 HD
ENDBRANCH  44  45
ENDBRANCH  33  44
ENDBRANCH  32  37
ENDBRANCH   1  32
TORSDOF 16
ENDMDL
MODEL 2
REMARK VINA RESULT:      -5.2      2.553      3.637
REMARK  Name = *****
REMARK                            x       y       z     vdW  Elec       q    Type
REMARK                         _______ _______ _______ _____ _____    ______ ____
ROOT
ATOM      1  C   LIG    1       24.071 -31.090  10.759  0.00  0.00    +0.169 C 
ATOM      2  C   LIG    1       23.256 -30.474   9.591  0.00  0.00    +0.175 C 
ATOM      3  C   LIG    1       24.044 -30.408   8.260  0.00  0.00    +0.169 C 
ATOM      4  C   LIG    1       24.735 -31.771   7.897  0.00  0.00    +0.084 C 
ATOM      5  C   LIG    1       25.477 -32.390   9.102  0.00  0.00    +0.042 C 
ATOM      6  C   LIG    1       24.623 -32.496  10.374  0.00  0.00    +0.084 C 
ENDROOT
BRANCH   6   7
ATOM      7  N   LIG    1       23.562 -33.509  10.179  0.00  0.00    -0.325 NA
ATOM      8  H   LIG    1       23.995 -34.413   9.967  0.00  0.00    +0.118 HD
ATOM      9  H   LIG    1       23.046 -33.277   9.319  0.00  0.00    +0.118 HD
ENDBRANCH   6   7
BRANCH   4  10
ATOM     10  N   LIG    1       23.800 -32.742   7.296  0.00  0.00    -0.325 NA
ATOM     11  H   LIG    1       24.010 -33.689   7.644  0.00  0.00    +0.118 HD
ATOM     12  H   LIG    1       22.850 -32.556   7.618  0.00  0.00    +0.118 HD
ENDBRANCH   4  10
BRANCH   2  13
ATOM     13  O   LIG    1       22.017 -31.170   9.423  0.00  0.00    -0.387 OA
ATOM     14  H   LIG    1       21.921 -31.757  10.205  0.00  0.00    +0.210 HD
ENDBRANCH   2  13
BRANCH   3  15
ATOM     15  O   LIG    1       25.066 -29.384   8.272  0.00  0.00    -0.341 OA
BRANCH  15  16
ATOM     16  C   LIG    1       24.935 -28.241   7.391  0.00  0.00    +0.281 C 
ATOM     17  C   LIG    1       24.827 -28.654   5.920  0.00  0.00    +0.189 C 
ATOM     18  C   LIG    1       24.876 -27.429   4.980  0.00  0.00    +0.116 C 
ATOM     19  C   LIG    1       26.166 -26.629   5.272  0.00  0.00    +0.165 C 
ATOM     20  C   LIG    1       26.392 -26.351   6.769  0.00  0.00    +0.177 C 
ATOM     21  O   LIG    1       26.125 -27.477   7.627  0.00  0.00    -0.341 OA
BRANCH  18  22
ATOM     22  N   LIG    1       23.663 -26.594   5.009  0.00  0.00    -0.323 NA
ATOM     23  H   LIG    1       22.836 -27.161   5.196  0.00  0.00    +0.119 HD
ATOM     24  H   LIG    1       23.719 -25.884   5.750  0.00  0.00    +0.119 HD
ENDBRANCH  18  22
BRANCH  17  25
ATOM     25  O   LIG    1       25.931 -29.532   5.617  0.00  0.00    -0.385 OA
ATOM     26  H   LIG    1       26.611 -29.336   6.297  0.00  0.00    +0.210 HD
ENDBRANCH  17  25
BRANCH  19  27
ATOM     27  O   LIG    1       27.303 -27.370   4.779  0.00  0.00    -0.388 OA
ATOM     28  H   LIG    1       27.368 -27.181   3.820  0.00  0.00    +0.210 HD
ENDBRANCH  19  27
BRANCH  20  29
ATOM     29  C   LIG    1       25.733 -25.040   7.234  0.00  0.00    +0.190 C 
BRANCH  29  30
ATOM     30  O   LIG    1       25.395 -24.172   6.153  0.00  0.00    -0.392 OA
ATOM     31  H   LIG    1       25.344 -24.754   5.368  0.00  0.00    +0.209 HD
ENDBRANCH  29  30
ENDBRANCH  20  29
ENDBRANCH  15  16
ENDBRANCH   3  15
BRANCH   1  32
ATOM     32  O   LIG    1       25.184 -30.277  11.192  0.00  0.00    -0.342 OA
BRANCH  32  37
ATOM     33  C   LIG    1       27.657 -29.344  12.403  0.00  0.00    +0.163 C 
ATOM     34  C   LIG    1       27.033 -28.033  12.951  0.00  0.00    +0.146 C 
ATOM     35  C   LIG    1       25.505 -27.997  12.957  0.00  0.00    +0.057 C 
ATOM     36  C   LIG    1       24.975 -29.313  13.473  0.00  0.00    +0.110 C 
ATOM     37  C   LIG    1       25.542 -30.439  12.566  0.00  0.00    +0.268 C 
ATOM     38  O   LIG    1       26.947 -30.528  12.767  0.00  0.00    -0.343 OA
BRANCH  36  39
ATOM     39  N   LIG    1       23.515 -29.271  13.644  0.00  0.00    -0.323 NA
ATOM     40  H   LIG    1       23.249 -28.829  14.537  0.00  0.00    +0.119 HD
ATOM     41  H   LIG    1       23.057 -28.728  12.912  0.00  0.00    +0.119 HD
ENDBRANCH  36  39
BRANCH  34  42
ATOM     42  O   LIG    1       27.505 -26.915  12.194  0.00  0.00    -0.389 OA
ATOM     43  H   LIG    1       27.347 -27.090  11.258  0.00  0.00    +0.210 HD
ENDBRANCH  34  42
BRANCH  33  44
ATOM     44  C   LIG    1       29.093 -29.518  12.957  0.00  0.00    +0.112 C 
BRANCH  44  45
ATOM     45  N   LIG    1       30.155 -29.300  11.958  0.00  0.00    -0.328 NA
ATOM     46  H   LIG    1       30.913 -28.762  12.384  0.00  0.00    +0.118 HD
ATOM     47  H   LIG    1       29.795 -28.689  11.227  0.00  0.00    +0.118 HD
ENDBRANCH  44  45
ENDBRANCH  33  44
ENDBRANCH  32  37
ENDBRANCH   1  32
TORSDOF 16
ENDMDL
MODEL 3
REMARK VINA RESULT:      -5.1      2.554      3.397
REMARK  Name = *****
REMARK                            x       y       z     vdW  Elec       q    Type
REMARK                         _______ _______ _______ _____ _____    ______ ____
ROOT
ATOM      1  C   LIG    1       24.268 -31.353  10.577  0.00  0.00    +0.169 C 
ATOM      2  C   LIG    1       23.329 -30.524   9.663  0.00  0.00    +0.175 C 
ATOM      3  C   LIG    1       23.858 -30.369   8.216  0.00  0.00    +0.169 C 
ATOM      4  C   LIG    1       24.306 -31.737   7.585  0.00  0.00    +0.084 C 
ATOM      5  C   LIG    1       25.181 -32.568   8.550  0.00  0.00    +0.042 C 
ATOM      6  C   LIG    1       24.571 -32.748   9.948  0.00  0.00    +0.084 C 
ENDROOT
BRANCH   6   7
ATOM      7  N   LIG    1       23.381 -33.623   9.863  0.00  0.00    -0.325 NA
ATOM      8  H   LIG    1       23.128 -33.752   8.879  0.00  0.00    +0.118 HD
ATOM      9  H   LIG    1       22.577 -33.117  10.259  0.00  0.00    +0.118 HD
ENDBRANCH   6   7
BRANCH   4  10
ATOM     10  N   LIG    1       23.168 -32.533   7.084  0.00  0.00    -0.325 NA
ATOM     11  H   LIG    1       23.454 -33.057   6.244  0.00  0.00    +0.118 HD
ATOM     12  H   LIG    1       22.921 -33.253   7.764  0.00  0.00    +0.118 HD
ENDBRANCH   4  10
BRANCH   2  13
ATOM     13  O   LIG    1       22.007 -31.072   9.671  0.00  0.00    -0.387 OA
ATOM     14  H   LIG    1       21.431 -30.398  10.095  0.00  0.00    +0.210 HD
ENDBRANCH   2  13
BRANCH   3  15
ATOM     15  O   LIG    1       24.979 -29.456   8.131  0.00  0.00    -0.341 OA
BRANCH  15  16
ATOM     16  C   LIG    1       24.879 -28.290   7.277  0.00  0.00    +0.281 C 
ATOM     17  C   LIG    1       24.781 -28.666   5.794  0.00  0.00    +0.189 C 
ATOM     18  C   LIG    1       24.864 -27.419   4.885  0.00  0.00    +0.116 C 
ATOM     19  C   LIG    1       26.165 -26.651   5.211  0.00  0.00    +0.165 C 
ATOM     20  C   LIG    1       26.378 -26.413   6.717  0.00  0.00    +0.177 C 
ATOM     21  O   LIG    1       26.079 -27.554   7.544  0.00  0.00    -0.341 OA
BRANCH  18  22
ATOM     22  N   LIG    1       23.666 -26.564   4.920  0.00  0.00    -0.323 NA
ATOM     23  H   LIG    1       23.857 -25.654   4.501  0.00  0.00    +0.119 HD
ATOM     24  H   LIG    1       22.893 -26.987   4.391  0.00  0.00    +0.119 HD
ENDBRANCH  18  22
BRANCH  17  25
ATOM     25  O   LIG    1       25.873 -29.557   5.483  0.00  0.00    -0.385 OA
ATOM     26  H   LIG    1       26.683 -29.083   5.770  0.00  0.00    +0.210 HD
ENDBRANCH  17  25
BRANCH  19  27
ATOM     27  O   LIG    1       27.294 -27.401   4.714  0.00  0.00    -0.388 OA
ATOM     28  H   LIG    1       27.534 -27.008   3.849  0.00  0.00    +0.210 HD
ENDBRANCH  19  27
BRANCH  20  29
ATOM     29  C   LIG    1       25.737 -25.102   7.206  0.00  0.00    +0.190 C 
BRANCH  29  30
ATOM     30  O   LIG    1       25.419 -24.207   6.142  0.00  0.00    -0.392 OA
ATOM     31  H   LIG    1       24.605 -24.572   5.739  0.00  0.00    +0.209 HD
ENDBRANCH  29  30
ENDBRANCH  20  29
ENDBRANCH  15  16
ENDBRANCH   3  15
BRANCH   1  32
ATOM     32  O   LIG    1       25.530 -30.710  10.862  0.00  0.00    -0.342 OA
BRANCH  32  37
ATOM     33  C   LIG    1       25.919 -30.154  13.689  0.00  0.00    +0.163 C 
ATOM     34  C   LIG    1       27.393 -29.698  13.518  0.00  0.00    +0.146 C 
ATOM     35  C   LIG    1       27.817 -29.403  12.080  0.00  0.00    +0.057 C 
ATOM     36  C   LIG    1       26.735 -28.602  11.394  0.00  0.00    +0.110 C 
ATOM     37  C   LIG    1       25.418 -29.422  11.472  0.00  0.00    +0.268 C 
ATOM     38  O   LIG    1       24.996 -29.486  12.829  0.00  0.00    -0.343 OA
BRANCH  36  39
ATOM     39  N   LIG    1       27.164 -28.162  10.058  0.00  0.00    -0.323 NA
ATOM     40  H   LIG    1       27.214 -27.134   9.995  0.00  0.00    +0.119 HD
ATOM     41  H   LIG    1       28.093 -28.507   9.818  0.00  0.00    +0.119 HD
ENDBRANCH  36  39
BRANCH  34  42
ATOM     42  O   LIG    1       28.275 -30.691  14.050  0.00  0.00    -0.389 OA
ATOM     43  H   LIG    1       27.865 -31.076  14.835  0.00  0.00    +0.210 HD
ENDBRANCH  34  42
BRANCH  33  44
ATOM     44  C   LIG    1       25.442 -29.867  15.135  0.00  0.00    +0.112 C 
BRANCH  44  45
ATOM     45  N   LIG    1       24.955 -28.493  15.348  0.00  0.00    -0.328 NA
ATOM     46  H   LIG    1       24.038 -28.388  14.907  0.00  0.00    +0.118 HD
ATOM     47  H   LIG    1       25.555 -27.851  14.831  0.00  0.00    +0.118 HD
ENDBRANCH  44  45
ENDBRANCH  33  44
ENDBRANCH  32  37
ENDBRANCH   1  32
TORSDOF 16
ENDMDL
MODEL 4
REMARK VINA RESULT:      -5.1      2.344      5.109
REMARK  Name = *****
REMARK                            x       y       z     vdW  Elec       q    Type
REMARK                         _______ _______ _______ _____ _____    ______ ____
ROOT
ATOM      1  C   LIG    1       25.638 -29.147  13.592  0.00  0.00    +0.169 C 
ATOM      2  C   LIG    1       26.355 -30.405  13.034  0.00  0.00    +0.175 C 
ATOM      3  C   LIG    1       26.637 -30.328  11.513  0.00  0.00    +0.169 C 
ATOM      4  C   LIG    1       27.314 -28.975  11.089  0.00  0.00    +0.084 C 
ATOM      5  C   LIG    1       26.618 -27.750  11.720  0.00  0.00    +0.042 C 
ATOM      6  C   LIG    1       26.431 -27.851  13.241  0.00  0.00    +0.084 C 
ENDROOT
BRANCH   6   7
ATOM      7  N   LIG    1       27.748 -27.770  13.912  0.00  0.00    -0.325 NA
ATOM      8  H   LIG    1       27.781 -28.458  14.671  0.00  0.00    +0.118 HD
ATOM      9  H   LIG    1       27.810 -26.865  14.397  0.00  0.00    +0.118 HD
ENDBRANCH   6   7
BRANCH   4  10
ATOM     10  N   LIG    1       28.765 -28.956  11.359  0.00  0.00    -0.325 NA
ATOM     11  H   LIG    1       29.213 -29.770  10.913  0.00  0.00    +0.118 HD
ATOM     12  H   LIG    1       29.194 -28.148  10.907  0.00  0.00    +0.118 HD
ENDBRANCH   4  10
BRANCH   2  13
ATOM     13  O   LIG    1       27.557 -30.664  13.767  0.00  0.00    -0.387 OA
ATOM     14  H   LIG    1       28.294 -30.314  13.221  0.00  0.00    +0.210 HD
ENDBRANCH   2  13
BRANCH   3  15
ATOM     15  O   LIG    1       25.436 -30.488  10.720  0.00  0.00    -0.341 OA
BRANCH  15  16
ATOM     16  C   LIG    1       25.547 -30.581   9.278  0.00  0.00    +0.281 C 
ATOM     17  C   LIG    1       24.382 -29.890   8.562  0.00  0.00    +0.189 C 
ATOM     18  C   LIG    1       24.412 -30.156   7.041  0.00  0.00    +0.116 C 
ATOM     19  C   LIG    1       24.424 -31.683   6.802  0.00  0.00    +0.165 C 
ATOM     20  C   LIG    1       25.474 -32.428   7.645  0.00  0.00    +0.177 C 
ATOM     21  O   LIG    1       25.552 -31.990   9.016  0.00  0.00    -0.341 OA
BRANCH  18  22
ATOM     22  N   LIG    1       25.489 -29.453   6.324  0.00  0.00    -0.323 NA
ATOM     23  H   LIG    1       26.162 -29.056   6.978  0.00  0.00    +0.119 HD
ATOM     24  H   LIG    1       26.004 -30.094   5.707  0.00  0.00    +0.119 HD
ENDBRANCH  18  22
BRANCH  17  25
ATOM     25  O   LIG    1       23.150 -30.401   9.112  0.00  0.00    -0.385 OA
ATOM     26  H   LIG    1       22.513 -30.399   8.364  0.00  0.00    +0.210 HD
ENDBRANCH  17  25
BRANCH  19  27
ATOM     27  O   LIG    1       23.125 -32.223   7.126  0.00  0.00    -0.388 OA
ATOM     28  H   LIG    1       23.091 -33.125   6.746  0.00  0.00    +0.210 HD
ENDBRANCH  19  27
BRANCH  20  29
ATOM     29  C   LIG    1       26.839 -32.526   6.942  0.00  0.00    +0.190 C 
BRANCH  29  30
ATOM     30  O   LIG    1       26.763 -32.270   5.541  0.00  0.00    -0.392 OA
ATOM     31  H   LIG    1       25.822 -32.406   5.309  0.00  0.00    +0.209 HD
ENDBRANCH  29  30
ENDBRANCH  20  29
ENDBRANCH  15  16
ENDBRANCH   3  15
BRANCH   1  32
ATOM     32  O   LIG    1       24.284 -28.983  13.116  0.00  0.00    -0.342 OA
BRANCH  32  37
ATOM     33  C   LIG    1       21.796 -28.075  14.315  0.00  0.00    +0.163 C 
ATOM     34  C   LIG    1       20.934 -28.413  13.070  0.00  0.00    +0.146 C 
ATOM     35  C   LIG    1       21.609 -29.321  12.042  0.00  0.00    +0.057 C 
ATOM     36  C   LIG    1       22.310 -30.451  12.757  0.00  0.00    +0.110 C 
ATOM     37  C   LIG    1       23.321 -29.825  13.756  0.00  0.00    +0.268 C 
ATOM     38  O   LIG    1       22.599 -29.159  14.784  0.00  0.00    -0.343 OA
BRANCH  36  39
ATOM     39  N   LIG    1       22.844 -31.435  11.803  0.00  0.00    -0.323 NA
ATOM     40  H   LIG    1       22.786 -32.395  12.175  0.00  0.00    +0.119 HD
ATOM     41  H   LIG    1       22.326 -31.440  10.924  0.00  0.00    +0.119 HD
ENDBRANCH  36  39
BRANCH  34  42
ATOM     42  O   LIG    1       20.536 -27.207  12.411  0.00  0.00    -0.389 OA
ATOM     43  H   LIG    1       20.908 -26.458  12.892  0.00  0.00    +0.210 HD
ENDBRANCH  34  42
BRANCH  33  44
ATOM     44  C   LIG    1       20.880 -27.677  15.500  0.00  0.00    +0.112 C 
BRANCH  44  45
ATOM     45  N   LIG    1       20.245 -26.355  15.352  0.00  0.00    -0.328 NA
ATOM     46  H   LIG    1       19.738 -26.322  14.464  0.00  0.00    +0.118 HD
ATOM     47  H   LIG    1       20.974 -25.652  15.250  0.00  0.00    +0.118 HD
ENDBRANCH  44  45
ENDBRANCH  33  44
ENDBRANCH  32  37
ENDBRANCH   1  32
TORSDOF 16
ENDMDL
MODEL 5
REMARK VINA RESULT:      -5.0      1.762      6.796
REMARK  Name = *****
REMARK                            x       y       z     vdW  Elec       q    Type
REMARK                         _______ _______ _______ _____ _____    ______ ____
ROOT
ATOM      1  C   LIG    1       23.319 -31.830  10.298  0.00  0.00    +0.169 C 
ATOM      2  C   LIG    1       23.593 -31.787  11.824  0.00  0.00    +0.175 C 
ATOM      3  C   LIG    1       22.933 -30.579  12.534  0.00  0.00    +0.169 C 
ATOM      4  C   LIG    1       21.415 -30.413  12.161  0.00  0.00    +0.084 C 
ATOM      5  C   LIG    1       21.170 -30.533  10.641  0.00  0.00    +0.042 C 
ATOM      6  C   LIG    1       21.787 -31.787  10.005  0.00  0.00    +0.084 C 
ENDROOT
BRANCH   6   7
ATOM      7  N   LIG    1       21.067 -32.991  10.477  0.00  0.00    -0.325 NA
ATOM      8  H   LIG    1       21.189 -33.745   9.794  0.00  0.00    +0.118 HD
ATOM      9  H   LIG    1       20.057 -32.796  10.449  0.00  0.00    +0.118 HD
ENDBRANCH   6   7
BRANCH   4  10
ATOM     10  N   LIG    1       20.540 -31.334  12.912  0.00  0.00    -0.325 NA
ATOM     11  H   LIG    1       19.585 -30.948  12.955  0.00  0.00    +0.118 HD
ATOM     12  H   LIG    1       20.439 -32.212  12.403  0.00  0.00    +0.118 HD
ENDBRANCH   4  10
BRANCH   2  13
ATOM     13  O   LIG    1       23.206 -33.020  12.439  0.00  0.00    -0.387 OA
ATOM     14  H   LIG    1       22.808 -32.783  13.306  0.00  0.00    +0.210 HD
ENDBRANCH   2  13
BRANCH   3  15
ATOM     15  O   LIG    1       23.600 -29.329  12.236  0.00  0.00    -0.341 OA
BRANCH  15  16
ATOM     16  C   LIG    1       24.860 -29.027  12.884  0.00  0.00    +0.281 C 
ATOM     17  C   LIG    1       24.718 -27.923  13.937  0.00  0.00    +0.189 C 
ATOM     18  C   LIG    1       26.093 -27.480  14.485  0.00  0.00    +0.116 C 
ATOM     19  C   LIG    1       26.986 -27.049  13.300  0.00  0.00    +0.165 C 
ATOM     20  C   LIG    1       27.007 -28.065  12.144  0.00  0.00    +0.177 C 
ATOM     21  O   LIG    1       25.716 -28.611  11.812  0.00  0.00    -0.341 OA
BRANCH  18  22
ATOM     22  N   LIG    1       26.741 -28.468  15.364  0.00  0.00    -0.323 NA
ATOM     23  H   LIG    1       26.555 -29.417  15.043  0.00  0.00    +0.119 HD
ATOM     24  H   LIG    1       27.762 -28.343  15.373  0.00  0.00    +0.119 HD
ENDBRANCH  18  22
BRANCH  17  25
ATOM     25  O   LIG    1       24.065 -26.794  13.320  0.00  0.00    -0.385 OA
ATOM     26  H   LIG    1       24.474 -26.712  12.432  0.00  0.00    +0.210 HD
ENDBRANCH  17  25
BRANCH  19  27
ATOM     27  O   LIG    1       26.506 -25.791  12.779  0.00  0.00    -0.388 OA
ATOM     28  H   LIG    1       26.249 -25.950  11.848  0.00  0.00    +0.210 HD
ENDBRANCH  19  27
BRANCH  20  29
ATOM     29  C   LIG    1       28.110 -29.126  12.308  0.00  0.00    +0.190 C 
BRANCH  29  30
ATOM     30  O   LIG    1       28.423 -29.797  11.088  0.00  0.00    -0.392 OA
ATOM     31  H   LIG    1       28.558 -30.732  11.342  0.00  0.00    +0.209 HD
ENDBRANCH  29  30
ENDBRANCH  20  29
ENDBRANCH  15  16
ENDBRANCH   3  15
BRANCH   1  32
ATOM     32  O   LIG    1       23.944 -30.759   9.557  0.00  0.00    -0.342 OA
BRANCH  32  37
ATOM     33  C   LIG    1       23.922 -31.727   6.816  0.00  0.00    +0.163 C 
ATOM     34  C   LIG    1       24.263 -30.344   6.200  0.00  0.00    +0.146 C 
ATOM     35  C   LIG    1       24.781 -29.303   7.191  0.00  0.00    +0.057 C 
ATOM     36  C   LIG    1       25.793 -29.947   8.108  0.00  0.00    +0.110 C 
ATOM     37  C   LIG    1       25.100 -31.146   8.810  0.00  0.00    +0.268 C 
ATOM     38  O   LIG    1       24.822 -32.149   7.840  0.00  0.00    -0.343 OA
BRANCH  36  39
ATOM     39  N   LIG    1       26.434 -28.949   8.979  0.00  0.00    -0.323 NA
ATOM     40  H   LIG    1       26.907 -28.215   8.431  0.00  0.00    +0.119 HD
ATOM     41  H   LIG    1       25.761 -28.470   9.576  0.00  0.00    +0.119 HD
ENDBRANCH  36  39
BRANCH  34  42
ATOM     42  O   LIG    1       23.109 -29.805   5.546  0.00  0.00    -0.389 OA
ATOM     43  H   LIG    1       22.343 -30.342   5.783  0.00  0.00    +0.210 HD
ENDBRANCH  34  42
BRANCH  33  44
ATOM     44  C   LIG    1       23.976 -32.821   5.721  0.00  0.00    +0.112 C 
BRANCH  44  45
ATOM     45  N   LIG    1       24.639 -32.395   4.475  0.00  0.00    -0.328 NA
ATOM     46  H   LIG    1       24.315 -32.982   3.703  0.00  0.00    +0.118 HD
ATOM     47  H   LIG    1       25.633 -32.604   4.547  0.00  0.00    +0.118 HD
ENDBRANCH  44  45
ENDBRANCH  33  44
ENDBRANCH  32  37
ENDBRANCH   1  32
TORSDOF 16
ENDMDL
MODEL 6
REMARK VINA RESULT:      -4.9      1.851      7.089
REMARK  Name = *****
REMARK                            x       y       z     vdW  Elec       q    Type
REMARK                         _______ _______ _______ _____ _____    ______ ____
ROOT
ATOM      1  C   LIG    1       23.623 -31.642  10.443  0.00  0.00    +0.169 C 
ATOM      2  C   LIG    1       24.568 -31.569  11.671  0.00  0.00    +0.175 C 
ATOM      3  C   LIG    1       24.446 -30.244  12.462  0.00  0.00    +0.169 C 
ATOM      4  C   LIG    1       22.956 -29.868  12.790  0.00  0.00    +0.084 C 
ATOM      5  C   LIG    1       22.031 -30.021  11.563  0.00  0.00    +0.042 C 
ATOM      6  C   LIG    1       22.143 -31.383  10.861  0.00  0.00    +0.084 C 
ENDROOT
BRANCH   6   7
ATOM      7  N   LIG    1       21.587 -32.440  11.734  0.00  0.00    -0.325 NA
ATOM      8  H   LIG    1       20.835 -32.043  12.306  0.00  0.00    +0.118 HD
ATOM      9  H   LIG    1       22.306 -32.704  12.422  0.00  0.00    +0.118 HD
ENDBRANCH   6   7
BRANCH   4  10
ATOM     10  N   LIG    1       22.424 -30.611  13.950  0.00  0.00    -0.325 NA
ATOM     11  H   LIG    1       23.004 -31.444  14.125  0.00  0.00    +0.118 HD
ATOM     12  H   LIG    1       22.519 -30.049  14.797  0.00  0.00    +0.118 HD
ENDBRANCH   4  10
BRANCH   2  13
ATOM     13  O   LIG    1       24.369 -32.699  12.525  0.00  0.00    -0.387 OA
ATOM     14  H   LIG    1       23.403 -32.746  12.700  0.00  0.00    +0.210 HD
ENDBRANCH   2  13
BRANCH   3  15
ATOM     15  O   LIG    1       25.039 -29.124  11.762  0.00  0.00    -0.341 OA
BRANCH  15  16
ATOM     16  C   LIG    1       25.385 -27.928  12.503  0.00  0.00    +0.281 C 
ATOM     17  C   LIG    1       26.663 -27.269  11.973  0.00  0.00    +0.189 C 
ATOM     18  C   LIG    1       27.123 -26.108  12.883  0.00  0.00    +0.116 C 
ATOM     19  C   LIG    1       27.291 -26.641  14.324  0.00  0.00    +0.165 C 
ATOM     20  C   LIG    1       26.087 -27.461  14.821  0.00  0.00    +0.177 C 
ATOM     21  O   LIG    1       25.560 -28.386  13.849  0.00  0.00    -0.341 OA
BRANCH  18  22
ATOM     22  N   LIG    1       26.273 -24.907  12.809  0.00  0.00    -0.323 NA
ATOM     23  H   LIG    1       25.900 -24.784  11.869  0.00  0.00    +0.119 HD
ATOM     24  H   LIG    1       25.471 -24.980  13.449  0.00  0.00    +0.119 HD
ENDBRANCH  18  22
BRANCH  17  25
ATOM     25  O   LIG    1       27.698 -28.272  11.921  0.00  0.00    -0.385 OA
ATOM     26  H   LIG    1       27.453 -28.859  11.173  0.00  0.00    +0.210 HD
ENDBRANCH  17  25
BRANCH  19  27
ATOM     27  O   LIG    1       28.461 -27.484  14.382  0.00  0.00    -0.388 OA
ATOM     28  H   LIG    1       28.810 -27.547  13.469  0.00  0.00    +0.210 HD
ENDBRANCH  19  27
BRANCH  20  29
ATOM     29  C   LIG    1       25.016 -26.590  15.500  0.00  0.00    +0.190 C 
BRANCH  29  30
ATOM     30  O   LIG    1       24.093 -26.018  14.573  0.00  0.00    -0.392 OA
ATOM     31  H   LIG    1       23.388 -25.627  15.127  0.00  0.00    +0.209 HD
ENDBRANCH  29  30
ENDBRANCH  20  29
ENDBRANCH  15  16
ENDBRANCH   3  15
BRANCH   1  32
ATOM     32  O   LIG    1       23.956 -30.713   9.388  0.00  0.00    -0.342 OA
BRANCH  32  37
ATOM     33  C   LIG    1       23.941 -31.503   6.590  0.00  0.00    +0.163 C 
ATOM     34  C   LIG    1       24.304 -30.088   6.066  0.00  0.00    +0.146 C 
ATOM     35  C   LIG    1       24.829 -29.119   7.125  0.00  0.00    +0.057 C 
ATOM     36  C   LIG    1       25.826 -29.834   8.005  0.00  0.00    +0.110 C 
ATOM     37  C   LIG    1       25.112 -31.067   8.624  0.00  0.00    +0.268 C 
ATOM     38  O   LIG    1       24.829 -32.001   7.591  0.00  0.00    -0.343 OA
BRANCH  36  39
ATOM     39  N   LIG    1       26.474 -28.903   8.942  0.00  0.00    -0.323 NA
ATOM     40  H   LIG    1       25.793 -28.252   9.361  0.00  0.00    +0.119 HD
ATOM     41  H   LIG    1       26.920 -29.388   9.720  0.00  0.00    +0.119 HD
ENDBRANCH  36  39
BRANCH  34  42
ATOM     42  O   LIG    1       23.163 -29.493   5.441  0.00  0.00    -0.389 OA
ATOM     43  H   LIG    1       22.377 -29.726   5.951  0.00  0.00    +0.210 HD
ENDBRANCH  34  42
BRANCH  33  44
ATOM     44  C   LIG    1       23.989 -32.525   5.427  0.00  0.00    +0.112 C 
BRANCH  44  45
ATOM     45  N   LIG    1       25.069 -32.282   4.454  0.00  0.00    -0.328 NA
ATOM     46  H   LIG    1       25.661 -31.520   4.792  0.00  0.00    +0.118 HD
ATOM     47  H   LIG    1       24.659 -31.918   3.596  0.00  0.00    +0.118 HD
ENDBRANCH  44  45
ENDBRANCH  33  44
ENDBRANCH  32  37
ENDBRANCH   1  32
TORSDOF 16
ENDMDL
MODEL 7
REMARK VINA RESULT:      -4.8      2.439      7.115
REMARK  Name = *****
REMARK                            x       y       z     vdW  Elec       q    Type
REMARK                         _______ _______ _______ _____ _____    ______ ____
ROOT
ATOM      1  C   LIG    1       25.187 -30.894   8.279  0.00  0.00    +0.169 C 
ATOM      2  C   LIG    1       26.028 -31.118   9.563  0.00  0.00    +0.175 C 
ATOM      3  C   LIG    1       25.412 -30.464  10.824  0.00  0.00    +0.169 C 
ATOM      4  C   LIG    1       23.889 -30.806  11.001  0.00  0.00    +0.084 C 
ATOM      5  C   LIG    1       23.096 -30.641   9.686  0.00  0.00    +0.042 C 
ATOM      6  C   LIG    1       23.716 -31.370   8.486  0.00  0.00    +0.084 C 
ENDROOT
BRANCH   6   7
ATOM      7  N   LIG    1       23.596 -32.833   8.676  0.00  0.00    -0.325 NA
ATOM      8  H   LIG    1       24.365 -33.300   8.186  0.00  0.00    +0.118 HD
ATOM      9  H   LIG    1       22.755 -33.157   8.178  0.00  0.00    +0.118 HD
ENDBRANCH   6   7
BRANCH   4  10
ATOM     10  N   LIG    1       23.670 -32.143  11.587  0.00  0.00    -0.325 NA
ATOM     11  H   LIG    1       24.259 -32.835  11.102  0.00  0.00    +0.118 HD
ATOM     12  H   LIG    1       23.999 -32.159  12.553  0.00  0.00    +0.118 HD
ENDBRANCH   4  10
BRANCH   2  13
ATOM     13  O   LIG    1       26.266 -32.514   9.771  0.00  0.00    -0.387 OA
ATOM     14  H   LIG    1       26.540 -32.610  10.709  0.00  0.00    +0.210 HD
ENDBRANCH   2  13
BRANCH   3  15
ATOM     15  O   LIG    1       25.543 -29.022  10.820  0.00  0.00    -0.341 OA
BRANCH  15  16
ATOM     16  C   LIG    1       25.641 -28.316  12.082  0.00  0.00    +0.281 C 
ATOM     17  C   LIG    1       26.731 -27.239  12.058  0.00  0.00    +0.189 C 
ATOM     18  C   LIG    1       26.952 -26.624  13.458  0.00  0.00    +0.116 C 
ATOM     19  C   LIG    1       27.272 -27.760  14.456  0.00  0.00    +0.165 C 
ATOM     20  C   LIG    1       26.289 -28.942  14.378  0.00  0.00    +0.177 C 
ATOM     21  O   LIG    1       25.949 -29.340  13.036  0.00  0.00    -0.341 OA
BRANCH  18  22
ATOM     22  N   LIG    1       25.861 -25.747  13.915  0.00  0.00    -0.323 NA
ATOM     23  H   LIG    1       25.793 -24.916  13.328  0.00  0.00    +0.119 HD
ATOM     24  H   LIG    1       24.954 -26.229  13.868  0.00  0.00    +0.119 HD
ENDBRANCH  18  22
BRANCH  17  25
ATOM     25  O   LIG    1       27.958 -27.849  11.606  0.00  0.00    -0.385 OA
ATOM     26  H   LIG    1       27.980 -28.732  12.035  0.00  0.00    +0.210 HD
ENDBRANCH  17  25
BRANCH  19  27
ATOM     27  O   LIG    1       28.598 -28.264  14.190  0.00  0.00    -0.388 OA
ATOM     28  H   LIG    1       28.714 -29.062  14.747  0.00  0.00    +0.210 HD
ENDBRANCH  19  27
BRANCH  20  29
ATOM     29  C   LIG    1       25.073 -28.764  15.304  0.00  0.00    +0.190 C 
BRANCH  29  30
ATOM     30  O   LIG    1       24.031 -27.990  14.712  0.00  0.00    -0.392 OA
ATOM     31  H   LIG    1       23.727 -27.390  15.423  0.00  0.00    +0.209 HD
ENDBRANCH  29  30
ENDBRANCH  20  29
ENDBRANCH  15  16
ENDBRANCH   3  15
BRANCH   1  32
ATOM     32  O   LIG    1       25.151 -29.521   7.831  0.00  0.00    -0.342 OA
BRANCH  32  37
ATOM     33  C   LIG    1       24.895 -26.992   6.419  0.00  0.00    +0.163 C 
ATOM     34  C   LIG    1       25.852 -27.402   5.269  0.00  0.00    +0.146 C 
ATOM     35  C   LIG    1       26.159 -28.897   5.183  0.00  0.00    +0.057 C 
ATOM     36  C   LIG    1       24.882 -29.681   5.366  0.00  0.00    +0.110 C 
ATOM     37  C   LIG    1       24.269 -29.275   6.734  0.00  0.00    +0.268 C 
ATOM     38  O   LIG    1       23.838 -27.921   6.661  0.00  0.00    -0.343 OA
BRANCH  36  39
ATOM     39  N   LIG    1       25.100 -31.118   5.137  0.00  0.00    -0.323 NA
ATOM     40  H   LIG    1       24.966 -31.664   6.001  0.00  0.00    +0.119 HD
ATOM     41  H   LIG    1       24.449 -31.502   4.453  0.00  0.00    +0.119 HD
ENDBRANCH  36  39
BRANCH  34  42
ATOM     42  O   LIG    1       27.091 -26.697   5.391  0.00  0.00    -0.389 OA
ATOM     43  H   LIG    1       27.078 -26.196   6.215  0.00  0.00    +0.210 HD
ENDBRANCH  34  42
BRANCH  33  44
ATOM     44  C   LIG    1       24.212 -25.643   6.083  0.00  0.00    +0.112 C 
BRANCH  44  45
ATOM     45  N   LIG    1       24.679 -25.027   4.829  0.00  0.00    -0.328 NA
ATOM     46  H   LIG    1       24.917 -25.763   4.160  0.00  0.00    +0.118 HD
ATOM     47  H   LIG    1       25.565 -24.557   5.007  0.00  0.00    +0.118 HD
ENDBRANCH  44  45
ENDBRANCH  33  44
ENDBRANCH  32  37
ENDBRANCH   1  32
TORSDOF 16
ENDMDL
MODEL 8
REMARK VINA RESULT:      -4.7      2.492      7.385
REMARK  Name = *****
REMARK                            x       y       z     vdW  Elec       q    Type
REMARK                         _______ _______ _______ _____ _____    ______ ____
ROOT
ATOM      1  C   LIG    1       23.019 -31.435   9.082  0.00  0.00    +0.169 C 
ATOM      2  C   LIG    1       23.772 -30.103   8.827  0.00  0.00    +0.175 C 
ATOM      3  C   LIG    1       25.074 -29.965   9.654  0.00  0.00    +0.169 C 
ATOM      4  C   LIG    1       25.991 -31.237   9.556  0.00  0.00    +0.084 C 
ATOM      5  C   LIG    1       25.196 -32.548   9.743  0.00  0.00    +0.042 C 
ATOM      6  C   LIG    1       23.955 -32.659   8.845  0.00  0.00    +0.084 C 
ENDROOT
BRANCH   6   7
ATOM      7  N   LIG    1       24.373 -32.813   7.434  0.00  0.00    -0.325 NA
ATOM      8  H   LIG    1       24.847 -33.715   7.321  0.00  0.00    +0.118 HD
ATOM      9  H   LIG    1       25.109 -32.122   7.237  0.00  0.00    +0.118 HD
ENDBRANCH   6   7
BRANCH   4  10
ATOM     10  N   LIG    1       26.784 -31.273   8.311  0.00  0.00    -0.325 NA
ATOM     11  H   LIG    1       26.412 -30.583   7.642  0.00  0.00    +0.118 HD
ATOM     12  H   LIG    1       27.738 -30.961   8.497  0.00  0.00    +0.118 HD
ENDBRANCH   4  10
BRANCH   2  13
ATOM     13  O   LIG    1       24.028 -29.930   7.430  0.00  0.00    -0.387 OA
ATOM     14  H   LIG    1       24.882 -30.381   7.248  0.00  0.00    +0.210 HD
ENDBRANCH   2  13
BRANCH   3  15
ATOM     15  O   LIG    1       24.816 -29.714  11.056  0.00  0.00    -0.341 OA
BRANCH  15  16
ATOM     16  C   LIG    1       25.817 -29.030  11.849  0.00  0.00    +0.281 C 
ATOM     17  C   LIG    1       26.447 -29.949  12.902  0.00  0.00    +0.189 C 
ATOM     18  C   LIG    1       27.372 -29.165  13.859  0.00  0.00    +0.116 C 
ATOM     19  C   LIG    1       26.566 -28.010  14.496  0.00  0.00    +0.165 C 
ATOM     20  C   LIG    1       25.777 -27.173  13.472  0.00  0.00    +0.177 C 
ATOM     21  O   LIG    1       25.101 -27.953  12.467  0.00  0.00    -0.341 OA
BRANCH  18  22
ATOM     22  N   LIG    1       28.635 -28.717  13.250  0.00  0.00    -0.323 NA
ATOM     23  H   LIG    1       28.583 -28.760  12.233  0.00  0.00    +0.119 HD
ATOM     24  H   LIG    1       28.845 -27.743  13.504  0.00  0.00    +0.119 HD
ENDBRANCH  18  22
BRANCH  17  25
ATOM     25  O   LIG    1       25.383 -30.560  13.661  0.00  0.00    -0.385 OA
ATOM     26  H   LIG    1       25.501 -31.527  13.539  0.00  0.00    +0.210 HD
ENDBRANCH  17  25
BRANCH  19  27
ATOM     27  O   LIG    1       25.626 -28.556  15.445  0.00  0.00    -0.388 OA
ATOM     28  H   LIG    1       25.068 -27.811  15.751  0.00  0.00    +0.210 HD
ENDBRANCH  19  27
BRANCH  20  29
ATOM     29  C   LIG    1       26.597 -26.001  12.907  0.00  0.00    +0.190 C 
BRANCH  29  30
ATOM     30  O   LIG    1       27.802 -25.763  13.633  0.00  0.00    -0.392 OA
ATOM     31  H   LIG    1       28.215 -26.644  13.733  0.00  0.00    +0.209 HD
ENDBRANCH  29  30
ENDBRANCH  20  29
ENDBRANCH  15  16
ENDBRANCH   3  15
BRANCH   1  32
ATOM     32  O   LIG    1       22.461 -31.551  10.409  0.00  0.00    -0.342 OA
BRANCH  32  37
ATOM     33  C   LIG    1       19.586 -31.909  10.651  0.00  0.00    +0.163 C 
ATOM     34  C   LIG    1       19.618 -32.090  12.192  0.00  0.00    +0.146 C 
ATOM     35  C   LIG    1       20.922 -31.664  12.867  0.00  0.00    +0.057 C 
ATOM     36  C   LIG    1       21.374 -30.344  12.291  0.00  0.00    +0.110 C 
ATOM     37  C   LIG    1       21.528 -30.524  10.756  0.00  0.00    +0.268 C 
ATOM     38  O   LIG    1       20.241 -30.729  10.186  0.00  0.00    -0.343 OA
BRANCH  36  39
ATOM     39  N   LIG    1       22.540 -29.816  13.017  0.00  0.00    -0.323 NA
ATOM     40  H   LIG    1       22.803 -30.426  13.805  0.00  0.00    +0.119 HD
ATOM     41  H   LIG    1       23.365 -29.749  12.422  0.00  0.00    +0.119 HD
ENDBRANCH  36  39
BRANCH  34  42
ATOM     42  O   LIG    1       19.367 -33.458  12.527  0.00  0.00    -0.389 OA
ATOM     43  H   LIG    1       18.413 -33.583  12.609  0.00  0.00    +0.210 HD
ENDBRANCH  34  42
BRANCH  33  44
ATOM     44  C   LIG    1       18.120 -31.807  10.161  0.00  0.00    +0.112 C 
BRANCH  44  45
ATOM     45  N   LIG    1       17.807 -30.552   9.453  0.00  0.00    -0.328 NA
ATOM     46  H   LIG    1       16.872 -30.238   9.722  0.00  0.00    +0.118 HD
ATOM     47  H   LIG    1       17.727 -30.751   8.458  0.00  0.00    +0.118 HD
ENDBRANCH  44  45
ENDBRANCH  33  44
ENDBRANCH  32  37
ENDBRANCH   1  32
TORSDOF 16
ENDMDL
MODEL 9
REMARK VINA RESULT:      -4.7      2.279      6.249
REMARK  Name = *****
REMARK                            x       y       z     vdW  Elec       q    Type
REMARK                         _______ _______ _______ _____ _____    ______ ____
ROOT
ATOM      1  C   LIG    1       22.730 -31.689  11.608  0.00  0.00    +0.169 C 
ATOM      2  C   LIG    1       22.703 -31.071  13.031  0.00  0.00    +0.175 C 
ATOM      3  C   LIG    1       22.158 -29.622  13.062  0.00  0.00    +0.169 C 
ATOM      4  C   LIG    1       20.803 -29.468  12.282  0.00  0.00    +0.084 C 
ATOM      5  C   LIG    1       20.842 -30.156  10.900  0.00  0.00    +0.042 C 
ATOM      6  C   LIG    1       21.322 -31.614  10.941  0.00  0.00    +0.084 C 
ENDROOT
BRANCH   6   7
ATOM      7  N   LIG    1       20.308 -32.454  11.616  0.00  0.00    -0.325 NA
ATOM      8  H   LIG    1       19.993 -33.185  10.971  0.00  0.00    +0.118 HD
ATOM      9  H   LIG    1       19.466 -31.883  11.772  0.00  0.00    +0.118 HD
ENDBRANCH   6   7
BRANCH   4  10
ATOM     10  N   LIG    1       19.638 -29.923  13.067  0.00  0.00    -0.325 NA
ATOM     11  H   LIG    1       19.959 -30.486  13.868  0.00  0.00    +0.118 HD
ATOM     12  H   LIG    1       19.167 -29.122  13.489  0.00  0.00    +0.118 HD
ENDBRANCH   4  10
BRANCH   2  13
ATOM     13  O   LIG    1       21.976 -31.914  13.930  0.00  0.00    -0.387 OA
ATOM     14  H   LIG    1       21.690 -32.695  13.407  0.00  0.00    +0.210 HD
ENDBRANCH   2  13
BRANCH   3  15
ATOM     15  O   LIG    1       23.095 -28.666  12.512  0.00  0.00    -0.341 OA
BRANCH  15  16
ATOM     16  C   LIG    1       24.428 -28.576  13.073  0.00  0.00    +0.281 C 
ATOM     17  C   LIG    1       24.547 -27.446  14.102  0.00  0.00    +0.189 C 
ATOM     18  C   LIG    1       26.010 -27.240  14.552  0.00  0.00    +0.116 C 
ATOM     19  C   LIG    1       26.886 -26.993  13.304  0.00  0.00    +0.165 C 
ATOM     20  C   LIG    1       26.657 -28.017  12.178  0.00  0.00    +0.177 C 
ATOM     21  O   LIG    1       25.272 -28.335  11.941  0.00  0.00    -0.341 OA
BRANCH  18  22
ATOM     22  N   LIG    1       26.533 -28.310  15.419  0.00  0.00    -0.323 NA
ATOM     23  H   LIG    1       27.272 -27.957  16.026  0.00  0.00    +0.119 HD
ATOM     24  H   LIG    1       25.795 -28.690  16.026  0.00  0.00    +0.119 HD
ENDBRANCH  18  22
BRANCH  17  25
ATOM     25  O   LIG    1       24.060 -26.232  13.493  0.00  0.00    -0.385 OA
ATOM     26  H   LIG    1       23.731 -26.499  12.608  0.00  0.00    +0.210 HD
ENDBRANCH  17  25
BRANCH  19  27
ATOM     27  O   LIG    1       26.598 -25.679  12.777  0.00  0.00    -0.388 OA
ATOM     28  H   LIG    1       27.460 -25.263  12.569  0.00  0.00    +0.210 HD
ENDBRANCH  19  27
BRANCH  20  29
ATOM     29  C   LIG    1       27.568 -29.251  12.305  0.00  0.00    +0.190 C 
BRANCH  29  30
ATOM     30  O   LIG    1       28.533 -29.341  11.258  0.00  0.00    -0.392 OA
ATOM     31  H   LIG    1       28.085 -29.837  10.544  0.00  0.00    +0.209 HD
ENDBRANCH  29  30
ENDBRANCH  20  29
ENDBRANCH  15  16
ENDBRANCH   3  15
BRANCH   1  32
ATOM     32  O   LIG    1       23.679 -31.067  10.714  0.00  0.00    -0.342 OA
BRANCH  32  37
ATOM     33  C   LIG    1       24.655 -29.797   8.288  0.00  0.00    +0.163 C 
ATOM     34  C   LIG    1       26.105 -30.325   8.453  0.00  0.00    +0.146 C 
ATOM     35  C   LIG    1       26.271 -31.455   9.469  0.00  0.00    +0.057 C 
ATOM     36  C   LIG    1       25.160 -32.460   9.284  0.00  0.00    +0.110 C 
ATOM     37  C   LIG    1       23.810 -31.708   9.443  0.00  0.00    +0.268 C 
ATOM     38  O   LIG    1       23.652 -30.811   8.352  0.00  0.00    -0.343 OA
BRANCH  36  39
ATOM     39  N   LIG    1       25.364 -33.643  10.134  0.00  0.00    -0.323 NA
ATOM     40  H   LIG    1       24.588 -34.316  10.042  0.00  0.00    +0.119 HD
ATOM     41  H   LIG    1       26.212 -34.153   9.888  0.00  0.00    +0.119 HD
ENDBRANCH  36  39
BRANCH  34  42
ATOM     42  O   LIG    1       26.974 -29.253   8.830  0.00  0.00    -0.389 OA
ATOM     43  H   LIG    1       27.870 -29.470   8.545  0.00  0.00    +0.210 HD
ENDBRANCH  34  42
BRANCH  33  44
ATOM     44  C   LIG    1       24.493 -29.120   6.904  0.00  0.00    +0.112 C 
BRANCH  44  45
ATOM     45  N   LIG    1       25.631 -28.269   6.513  0.00  0.00    -0.328 NA
ATOM     46  H   LIG    1       25.645 -28.172   5.495  0.00  0.00    +0.118 HD
ATOM     47  H   LIG    1       26.496 -28.762   6.728  0.00  0.00    +0.118 HD
ENDBRANCH  44  45
ENDBRANCH  33  44
ENDBRANCH  32  37
ENDBRANCH   1  32
TORSDOF 16
ENDMDL
