MODEL 1
REMARK VINA RESULT:      -5.1      0.000      0.000
REMARK  Name = *****
REMARK                            x       y       z     vdW  Elec       q    Type
REMARK                         _______ _______ _______ _____ _____    ______ ____
ROOT
ATOM      1  N   LIG    1       25.631 -16.229   3.352  0.00  0.00    -0.180 NA
ATOM      2  C   LIG    1       26.247 -17.363   3.429  0.00  0.00    +0.177 C 
ENDROOT
BRANCH   1   9
ATOM      3  O   LIG    1       29.101 -13.035   3.857  0.00  0.00    -0.274 OA
ATOM      4  C   LIG    1       28.060 -13.587   3.530  0.00  0.00    +0.240 C 
ATOM      5  N   LIG    1       27.122 -13.048   2.714  0.00  0.00    -0.237 N 
ATOM      6  H   LIG    1       27.176 -12.143   2.282  0.00  0.00    +0.159 HD
ATOM      7  C   LIG    1       26.089 -13.910   2.521  0.00  0.00    +0.328 C 
ATOM      8  O   LIG    1       25.130 -13.654   1.812  0.00  0.00    -0.250 OA
ATOM      9  N   LIG    1       26.361 -15.074   3.259  0.00  0.00    -0.168 N 
ATOM     10  C   LIG    1       27.611 -14.964   3.975  0.00  0.00    +0.232 C 
ENDBRANCH   1   9
BRANCH   2  11
ATOM     11  C   LIG    1       25.509 -18.590   3.533  0.00  0.00    +0.154 A 
ATOM     12  O   LIG    1       25.495 -19.215   4.751  0.00  0.00    -0.399 OA
ATOM     13  C   LIG    1       24.750 -20.340   4.596  0.00  0.00    +0.438 A 
ATOM     14  C   LIG    1       24.275 -20.460   3.312  0.00  0.00    +0.132 A 
ATOM     15  C   LIG    1       24.770 -19.323   2.621  0.00  0.00    +0.058 A 
BRANCH  13  16
ATOM     16  N   LIG    1       24.603 -21.168   5.751  0.00  0.00    +0.119 N 
ATOM     17  O   LIG    1       23.456 -21.415   6.144  0.00  0.00    -0.574 OA
ATOM     18  O   LIG    1       25.651 -21.571   6.272  0.00  0.00    +0.045 OA
ENDBRANCH  13  16
ENDBRANCH   2  11
TORSDOF 3
ENDMDL
MODEL 2
REMARK VINA RESULT:      -4.9      1.805      2.482
REMARK  Name = *****
REMARK                            x       y       z     vdW  Elec       q    Type
REMARK                         _______ _______ _______ _____ _____    ______ ____
ROOT
ATOM      1  N   LIG    1       25.223 -16.259   3.584  0.00  0.00    -0.180 NA
ATOM      2  C   LIG    1       24.157 -16.981   3.696  0.00  0.00    +0.177 C 
ENDROOT
BRANCH   1   9
ATOM      3  O   LIG    1       23.738 -11.762   3.845  0.00  0.00    -0.274 OA
ATOM      4  C   LIG    1       24.351 -12.773   3.535  0.00  0.00    +0.240 C 
ATOM      5  N   LIG    1       25.403 -12.808   2.682  0.00  0.00    -0.237 N 
ATOM      6  H   LIG    1       25.802 -12.014   2.215  0.00  0.00    +0.159 HD
ATOM      7  C   LIG    1       25.887 -14.072   2.555  0.00  0.00    +0.328 C 
ATOM      8  O   LIG    1       26.843 -14.354   1.851  0.00  0.00    -0.250 OA
ATOM      9  N   LIG    1       25.102 -14.913   3.362  0.00  0.00    -0.168 N 
ATOM     10  C   LIG    1       24.055 -14.174   4.030  0.00  0.00    +0.232 C 
ENDBRANCH   1   9
BRANCH   2  11
ATOM     11  C   LIG    1       24.252 -18.395   3.924  0.00  0.00    +0.154 A 
ATOM     12  O   LIG    1       23.233 -18.991   4.617  0.00  0.00    -0.399 OA
ATOM     13  C   LIG    1       23.553 -20.308   4.711  0.00  0.00    +0.438 A 
ATOM     14  C   LIG    1       24.747 -20.584   4.091  0.00  0.00    +0.132 A 
ATOM     15  C   LIG    1       25.204 -19.340   3.583  0.00  0.00    +0.058 A 
BRANCH  13  16
ATOM     16  N   LIG    1       22.624 -21.138   5.411  0.00  0.00    +0.119 N 
ATOM     17  O   LIG    1       22.958 -21.571   6.521  0.00  0.00    -0.574 OA
ATOM     18  O   LIG    1       21.549 -21.360   4.838  0.00  0.00    +0.045 OA
ENDBRANCH  13  16
ENDBRANCH   2  11
TORSDOF 3
ENDMDL
MODEL 3
REMARK VINA RESULT:      -4.7      2.088      7.180
REMARK  Name = *****
REMARK                            x       y       z     vdW  Elec       q    Type
REMARK                         _______ _______ _______ _____ _____    ______ ____
ROOT
ATOM      1  N   LIG    1       25.894 -17.574   3.514  0.00  0.00    -0.180 NA
ATOM      2  C   LIG    1       25.088 -16.579   3.691  0.00  0.00    +0.177 C 
ENDROOT
BRANCH   1   9
ATOM      3  O   LIG    1       23.365 -21.564   3.932  0.00  0.00    -0.274 OA
ATOM      4  C   LIG    1       24.245 -20.722   4.040  0.00  0.00    +0.240 C 
ATOM      5  N   LIG    1       25.408 -20.904   4.710  0.00  0.00    -0.237 N 
ATOM      6  H   LIG    1       25.683 -21.744   5.185  0.00  0.00    +0.159 HD
ATOM      7  C   LIG    1       26.193 -19.796   4.635  0.00  0.00    +0.328 C 
ATOM      8  O   LIG    1       27.297 -19.723   5.149  0.00  0.00    -0.250 OA
ATOM      9  N   LIG    1       25.499 -18.832   3.883  0.00  0.00    -0.168 N 
ATOM     10  C   LIG    1       24.206 -19.323   3.464  0.00  0.00    +0.232 C 
ENDBRANCH   1   9
BRANCH   2  11
ATOM     11  C   LIG    1       25.477 -15.248   3.318  0.00  0.00    +0.154 A 
ATOM     12  O   LIG    1       24.513 -14.276   3.359  0.00  0.00    -0.399 OA
ATOM     13  C   LIG    1       25.114 -13.125   2.961  0.00  0.00    +0.438 A 
ATOM     14  C   LIG    1       26.442 -13.321   2.669  0.00  0.00    +0.132 A 
ATOM     15  C   LIG    1       26.677 -14.702   2.899  0.00  0.00    +0.058 A 
BRANCH  13  16
ATOM     16  N   LIG    1       24.287 -11.961   2.917  0.00  0.00    +0.119 N 
ATOM     17  O   LIG    1       24.068 -11.447   1.812  0.00  0.00    -0.574 OA
ATOM     18  O   LIG    1       23.855 -11.556   4.004  0.00  0.00    +0.045 OA
ENDBRANCH  13  16
ENDBRANCH   2  11
TORSDOF 3
ENDMDL
MODEL 4
REMARK VINA RESULT:      -4.7      1.720      7.025
REMARK  Name = *****
REMARK                            x       y       z     vdW  Elec       q    Type
REMARK                         _______ _______ _______ _____ _____    ______ ____
ROOT
ATOM      1  N   LIG    1       26.111 -17.616   3.373  0.00  0.00    -0.180 NA
ATOM      2  C   LIG    1       25.424 -16.566   3.683  0.00  0.00    +0.177 C 
ENDROOT
BRANCH   1   9
ATOM      3  O   LIG    1       23.421 -21.521   3.459  0.00  0.00    -0.274 OA
ATOM      4  C   LIG    1       24.301 -20.704   3.687  0.00  0.00    +0.240 C 
ATOM      5  N   LIG    1       25.344 -20.907   4.528  0.00  0.00    -0.237 N 
ATOM      6  H   LIG    1       25.518 -21.747   5.050  0.00  0.00    +0.159 HD
ATOM      7  C   LIG    1       26.166 -19.825   4.557  0.00  0.00    +0.328 C 
ATOM      8  O   LIG    1       27.182 -19.775   5.231  0.00  0.00    -0.250 OA
ATOM      9  N   LIG    1       25.625 -18.855   3.695  0.00  0.00    -0.168 N 
ATOM     10  C   LIG    1       24.395 -19.315   3.092  0.00  0.00    +0.232 C 
ENDBRANCH   1   9
BRANCH   2  11
ATOM     11  C   LIG    1       25.911 -15.254   3.362  0.00  0.00    +0.154 A 
ATOM     12  O   LIG    1       27.063 -14.842   3.977  0.00  0.00    -0.399 OA
ATOM     13  C   LIG    1       27.310 -13.585   3.524  0.00  0.00    +0.438 A 
ATOM     14  C   LIG    1       26.355 -13.173   2.627  0.00  0.00    +0.132 A 
ATOM     15  C   LIG    1       25.444 -14.256   2.524  0.00  0.00    +0.058 A 
BRANCH  13  16
ATOM     16  N   LIG    1       28.475 -12.942   4.045  0.00  0.00    +0.119 N 
ATOM     17  O   LIG    1       28.401 -12.430   5.168  0.00  0.00    -0.574 OA
ATOM     18  O   LIG    1       29.475 -12.948   3.314  0.00  0.00    +0.045 OA
ENDBRANCH  13  16
ENDBRANCH   2  11
TORSDOF 3
ENDMDL
MODEL 5
REMARK VINA RESULT:      -4.6      1.570      1.803
REMARK  Name = *****
REMARK                            x       y       z     vdW  Elec       q    Type
REMARK                         _______ _______ _______ _____ _____    ______ ____
ROOT
ATOM      1  N   LIG    1       25.571 -15.995   3.497  0.00  0.00    -0.180 NA
ATOM      2  C   LIG    1       26.099 -17.162   3.318  0.00  0.00    +0.177 C 
ENDROOT
BRANCH   1   9
ATOM      3  O   LIG    1       29.167 -12.914   3.771  0.00  0.00    -0.274 OA
ATOM      4  C   LIG    1       28.101 -13.443   3.489  0.00  0.00    +0.240 C 
ATOM      5  N   LIG    1       27.174 -12.917   2.654  0.00  0.00    -0.237 N 
ATOM      6  H   LIG    1       27.256 -12.042   2.168  0.00  0.00    +0.159 HD
ATOM      7  C   LIG    1       26.106 -13.748   2.523  0.00  0.00    +0.328 C 
ATOM      8  O   LIG    1       25.147 -13.497   1.812  0.00  0.00    -0.250 OA
ATOM      9  N   LIG    1       26.344 -14.877   3.326  0.00  0.00    -0.168 N 
ATOM     10  C   LIG    1       27.607 -14.773   4.020  0.00  0.00    +0.232 C 
ENDBRANCH   1   9
BRANCH   2  11
ATOM     11  C   LIG    1       25.315 -18.352   3.494  0.00  0.00    +0.154 A 
ATOM     12  O   LIG    1       23.998 -18.194   3.832  0.00  0.00    -0.399 OA
ATOM     13  C   LIG    1       23.480 -19.444   3.949  0.00  0.00    +0.438 A 
ATOM     14  C   LIG    1       24.423 -20.409   3.689  0.00  0.00    +0.132 A 
ATOM     15  C   LIG    1       25.616 -19.699   3.396  0.00  0.00    +0.058 A 
BRANCH  13  16
ATOM     16  N   LIG    1       22.100 -19.528   4.309  0.00  0.00    +0.119 N 
ATOM     17  O   LIG    1       21.381 -18.549   4.076  0.00  0.00    -0.574 OA
ATOM     18  O   LIG    1       21.736 -20.588   4.834  0.00  0.00    +0.045 OA
ENDBRANCH  13  16
ENDBRANCH   2  11
TORSDOF 3
ENDMDL
MODEL 6
REMARK VINA RESULT:      -4.4      2.028      7.002
REMARK  Name = *****
REMARK                            x       y       z     vdW  Elec       q    Type
REMARK                         _______ _______ _______ _____ _____    ______ ____
ROOT
ATOM      1  N   LIG    1       24.445 -17.013   3.686  0.00  0.00    -0.180 NA
ATOM      2  C   LIG    1       25.652 -16.576   3.529  0.00  0.00    +0.177 C 
ENDROOT
BRANCH   1   9
ATOM      3  O   LIG    1       25.224 -21.568   4.752  0.00  0.00    -0.274 OA
ATOM      4  C   LIG    1       24.677 -20.511   4.473  0.00  0.00    +0.240 C 
ATOM      5  N   LIG    1       23.337 -20.336   4.381  0.00  0.00    -0.237 N 
ATOM      6  H   LIG    1       22.644 -21.045   4.536  0.00  0.00    +0.159 HD
ATOM      7  C   LIG    1       23.033 -19.046   4.077  0.00  0.00    +0.328 C 
ATOM      8  O   LIG    1       21.889 -18.641   3.954  0.00  0.00    -0.250 OA
ATOM      9  N   LIG    1       24.242 -18.341   3.952  0.00  0.00    -0.168 N 
ATOM     10  C   LIG    1       25.380 -19.205   4.168  0.00  0.00    +0.232 C 
ENDBRANCH   1   9
BRANCH   2  11
ATOM     11  C   LIG    1       25.895 -15.190   3.245  0.00  0.00    +0.154 A 
ATOM     12  O   LIG    1       24.819 -14.343   3.272  0.00  0.00    -0.399 OA
ATOM     13  C   LIG    1       25.296 -13.108   2.967  0.00  0.00    +0.438 A 
ATOM     14  C   LIG    1       26.653 -13.129   2.749  0.00  0.00    +0.132 A 
ATOM     15  C   LIG    1       27.041 -14.482   2.927  0.00  0.00    +0.058 A 
BRANCH  13  16
ATOM     16  N   LIG    1       24.337 -12.050   2.927  0.00  0.00    +0.119 N 
ATOM     17  O   LIG    1       23.798 -11.717   3.990  0.00  0.00    -0.574 OA
ATOM     18  O   LIG    1       24.120 -11.551   1.815  0.00  0.00    +0.045 OA
ENDBRANCH  13  16
ENDBRANCH   2  11
TORSDOF 3
ENDMDL
MODEL 7
REMARK VINA RESULT:      -4.1      2.240      7.158
REMARK  Name = *****
REMARK                            x       y       z     vdW  Elec       q    Type
REMARK                         _______ _______ _______ _____ _____    ______ ____
ROOT
ATOM      1  N   LIG    1       24.049 -17.329   3.730  0.00  0.00    -0.180 NA
ATOM      2  C   LIG    1       25.280 -16.935   3.702  0.00  0.00    +0.177 C 
ENDROOT
BRANCH   1   9
ATOM      3  O   LIG    1       21.808 -21.273   5.113  0.00  0.00    -0.274 OA
ATOM      4  C   LIG    1       22.645 -20.500   4.670  0.00  0.00    +0.240 C 
ATOM      5  N   LIG    1       23.830 -20.871   4.128  0.00  0.00    -0.237 N 
ATOM      6  H   LIG    1       24.153 -21.816   4.023  0.00  0.00    +0.159 HD
ATOM      7  C   LIG    1       24.534 -19.788   3.705  0.00  0.00    +0.328 C 
ATOM      8  O   LIG    1       25.627 -19.869   3.170  0.00  0.00    -0.250 OA
ATOM      9  N   LIG    1       23.772 -18.643   3.996  0.00  0.00    -0.168 N 
ATOM     10  C   LIG    1       22.529 -18.990   4.647  0.00  0.00    +0.232 C 
ENDBRANCH   1   9
BRANCH   2  11
ATOM     11  C   LIG    1       25.602 -15.564   3.422  0.00  0.00    +0.154 A 
ATOM     12  O   LIG    1       24.613 -14.635   3.606  0.00  0.00    -0.399 OA
ATOM     13  C   LIG    1       25.150 -13.433   3.271  0.00  0.00    +0.438 A 
ATOM     14  C   LIG    1       26.462 -13.555   2.882  0.00  0.00    +0.132 A 
ATOM     15  C   LIG    1       26.755 -14.940   2.978  0.00  0.00    +0.058 A 
BRANCH  13  16
ATOM     16  N   LIG    1       24.286 -12.300   3.379  0.00  0.00    +0.119 N 
ATOM     17  O   LIG    1       24.078 -11.632   2.359  0.00  0.00    -0.574 OA
ATOM     18  O   LIG    1       23.813 -12.078   4.501  0.00  0.00    +0.045 OA
ENDBRANCH  13  16
ENDBRANCH   2  11
TORSDOF 3
ENDMDL
MODEL 8
REMARK VINA RESULT:      -3.8      1.975      6.903
REMARK  Name = *****
REMARK                            x       y       z     vdW  Elec       q    Type
REMARK                         _______ _______ _______ _____ _____    ______ ____
ROOT
ATOM      1  N   LIG    1       25.026 -17.047   3.463  0.00  0.00    -0.180 NA
ATOM      2  C   LIG    1       24.626 -15.902   3.911  0.00  0.00    +0.177 C 
ENDROOT
BRANCH   1   9
ATOM      3  O   LIG    1       23.956 -21.571   4.399  0.00  0.00    -0.274 OA
ATOM      4  C   LIG    1       23.878 -20.362   4.240  0.00  0.00    +0.240 C 
ATOM      5  N   LIG    1       22.766 -19.622   4.470  0.00  0.00    -0.237 N 
ATOM      6  H   LIG    1       21.888 -19.977   4.802  0.00  0.00    +0.159 HD
ATOM      7  C   LIG    1       22.996 -18.306   4.223  0.00  0.00    +0.328 C 
ATOM      8  O   LIG    1       22.149 -17.440   4.372  0.00  0.00    -0.250 OA
ATOM      9  N   LIG    1       24.329 -18.177   3.796  0.00  0.00    -0.168 N 
ATOM     10  C   LIG    1       24.991 -19.461   3.748  0.00  0.00    +0.232 C 
ENDBRANCH   1   9
BRANCH   2  11
ATOM     11  C   LIG    1       25.339 -14.700   3.582  0.00  0.00    +0.154 A 
ATOM     12  O   LIG    1       26.607 -14.563   4.082  0.00  0.00    -0.399 OA
ATOM     13  C   LIG    1       27.062 -13.360   3.647  0.00  0.00    +0.438 A 
ATOM     14  C   LIG    1       26.129 -12.715   2.873  0.00  0.00    +0.132 A 
ATOM     15  C   LIG    1       25.008 -13.584   2.833  0.00  0.00    +0.058 A 
BRANCH  13  16
ATOM     16  N   LIG    1       28.381 -12.995   4.058  0.00  0.00    +0.119 N 
ATOM     17  O   LIG    1       28.506 -12.390   5.131  0.00  0.00    -0.574 OA
ATOM     18  O   LIG    1       29.301 -13.315   3.294  0.00  0.00    +0.045 OA
ENDBRANCH  13  16
ENDBRANCH   2  11
TORSDOF 3
ENDMDL
MODEL 9
REMARK VINA RESULT:      -3.7      1.510      2.053
REMARK  Name = *****
REMARK                            x       y       z     vdW  Elec       q    Type
REMARK                         _______ _______ _______ _____ _____    ______ ____
ROOT
ATOM      1  N   LIG    1       25.344 -16.500   3.653  0.00  0.00    -0.180 NA
ATOM      2  C   LIG    1       24.295 -17.256   3.654  0.00  0.00    +0.177 C 
ENDROOT
BRANCH   1   9
ATOM      3  O   LIG    1       23.820 -12.047   4.238  0.00  0.00    -0.274 OA
ATOM      4  C   LIG    1       24.430 -13.031   3.843  0.00  0.00    +0.240 C 
ATOM      5  N   LIG    1       25.438 -13.003   2.938  0.00  0.00    -0.237 N 
ATOM      6  H   LIG    1       25.803 -12.179   2.497  0.00  0.00    +0.159 HD
ATOM      7  C   LIG    1       25.930 -14.250   2.717  0.00  0.00    +0.328 C 
ATOM      8  O   LIG    1       26.853 -14.479   1.952  0.00  0.00    -0.250 OA
ATOM      9  N   LIG    1       25.196 -15.146   3.513  0.00  0.00    -0.168 N 
ATOM     10  C   LIG    1       24.175 -14.461   4.272  0.00  0.00    +0.232 C 
ENDBRANCH   1   9
BRANCH   2  11
ATOM     11  C   LIG    1       24.420 -18.679   3.794  0.00  0.00    +0.154 A 
ATOM     12  O   LIG    1       24.699 -19.167   5.043  0.00  0.00    -0.399 OA
ATOM     13  C   LIG    1       24.776 -20.517   4.919  0.00  0.00    +0.438 A 
ATOM     14  C   LIG    1       24.547 -20.920   3.625  0.00  0.00    +0.132 A 
ATOM     15  C   LIG    1       24.319 -19.725   2.894  0.00  0.00    +0.058 A 
BRANCH  13  16
ATOM     16  N   LIG    1       25.071 -21.248   6.110  0.00  0.00    +0.119 N 
ATOM     17  O   LIG    1       24.126 -21.572   6.840  0.00  0.00    -0.574 OA
ATOM     18  O   LIG    1       26.266 -21.496   6.317  0.00  0.00    +0.045 OA
ENDBRANCH  13  16
ENDBRANCH   2  11
TORSDOF 3
ENDMDL
