MODEL 1
REMARK VINA RESULT:      -4.1      0.000      0.000
REMARK  Name = *****
REMARK                            x       y       z     vdW  Elec       q    Type
REMARK                         _______ _______ _______ _____ _____    ______ ____
ROOT
ATOM      1  C   LIG    1       29.304 -18.085   4.816  0.00  0.00    +0.113 C 
ENDROOT
BRANCH   1   2
ATOM      2  C   LIG    1       28.042 -17.282   4.469  0.00  0.00    +0.233 C 
BRANCH   2   3
ATOM      3  N   LIG    1       28.278 -15.834   4.539  0.00  0.00    -0.233 N 
ATOM      4  H   LIG    1       29.263 -15.596   4.611  0.00  0.00    +0.291 HD
BRANCH   3   5
ATOM      5  C   LIG    1       27.594 -14.829   3.859  0.00  0.00    +0.326 C 
ATOM      6  C   LIG    1       26.256 -14.916   3.687  0.00  0.00    +0.474 C 
BRANCH   5   8
ATOM      7  C   LIG    1       28.600 -12.497   4.066  0.00  0.00    +0.273 C 
ATOM      8  N   LIG    1       28.329 -13.750   3.410  0.00  0.00    -0.236 N 
ATOM      9  H   LIG    1       28.826 -13.883   2.527  0.00  0.00    +0.291 HD
ENDBRANCH   5   8
BRANCH   6  10
ATOM     10  N   LIG    1       25.492 -13.975   2.915  0.00  0.00    +0.080 N 
ATOM     11  O   LIG    1       24.466 -13.475   3.422  0.00  0.00    -0.576 OA
ATOM     12  O   LIG    1       25.945 -13.686   1.812  0.00  0.00    +0.041 OA
ENDBRANCH   6  10
ENDBRANCH   3   5
ENDBRANCH   2   3
ENDBRANCH   1   2
BRANCH   1  13
ATOM     13  S   LIG    1       29.224 -18.681   6.548  0.00  0.00    -0.151 S 
BRANCH  13  14
ATOM     14  C   LIG    1       28.826 -20.436   6.255  0.00  0.00    +0.125 C 
BRANCH  14  15
ATOM     15  C   LIG    1       27.358 -20.717   6.201  0.00  0.00    +0.059 A 
ATOM     16  N   LIG    1       26.575 -20.086   5.235  0.00  0.00    -0.247 NA
ATOM     17  C   LIG    1       25.312 -20.454   5.358  0.00  0.00    +0.092 A 
ATOM     18  S   LIG    1       24.983 -21.482   6.703  0.00  0.00    -0.079 S 
ATOM     19  C   LIG    1       26.653 -21.544   7.054  0.00  0.00    +0.071 A 
BRANCH  17  20
ATOM     20  C   LIG    1       24.188 -20.053   4.418  0.00  0.00    +0.146 C 
BRANCH  20  21
ATOM     21  N   LIG    1       22.869 -19.806   5.050  0.00  0.00    -0.302 NA
ATOM     22  C   LIG    1       21.969 -20.950   4.929  0.00  0.00    +0.105 C 
ATOM     23  C   LIG    1       22.236 -18.595   4.527  0.00  0.00    +0.105 C 
ENDBRANCH  20  21
ENDBRANCH  17  20
ENDBRANCH  14  15
ENDBRANCH  13  14
ENDBRANCH   1  13
TORSDOF 10
ENDMDL
MODEL 2
REMARK VINA RESULT:      -4.0      3.147      6.600
REMARK  Name = *****
REMARK                            x       y       z     vdW  Elec       q    Type
REMARK                         _______ _______ _______ _____ _____    ______ ____
ROOT
ATOM      1  C   LIG    1       28.508 -19.809   5.416  0.00  0.00    +0.113 C 
ENDROOT
BRANCH   1   2
ATOM      2  C   LIG    1       27.618 -20.088   6.635  0.00  0.00    +0.233 C 
BRANCH   2   3
ATOM      3  N   LIG    1       26.604 -21.112   6.349  0.00  0.00    -0.233 N 
ATOM      4  H   LIG    1       26.538 -21.819   7.076  0.00  0.00    +0.291 HD
BRANCH   3   5
ATOM      5  C   LIG    1       25.361 -20.931   5.747  0.00  0.00    +0.326 C 
ATOM      6  C   LIG    1       24.282 -20.622   6.500  0.00  0.00    +0.474 C 
BRANCH   5   8
ATOM      7  C   LIG    1       24.944 -20.054   3.391  0.00  0.00    +0.273 C 
ATOM      8  N   LIG    1       25.296 -21.047   4.373  0.00  0.00    -0.236 N 
ATOM      9  H   LIG    1       25.624 -21.933   3.982  0.00  0.00    +0.291 HD
ENDBRANCH   5   8
BRANCH   6  10
ATOM     10  N   LIG    1       22.949 -20.515   5.972  0.00  0.00    +0.080 N 
ATOM     11  O   LIG    1       22.469 -19.379   5.781  0.00  0.00    -0.576 OA
ATOM     12  O   LIG    1       22.393 -21.572   5.692  0.00  0.00    +0.041 OA
ENDBRANCH   6  10
ENDBRANCH   3   5
ENDBRANCH   2   3
ENDBRANCH   1   2
BRANCH   1  13
ATOM     13  S   LIG    1       28.802 -18.007   5.240  0.00  0.00    -0.151 S 
BRANCH  13  14
ATOM     14  C   LIG    1       27.495 -17.594   4.038  0.00  0.00    +0.125 C 
BRANCH  14  15
ATOM     15  C   LIG    1       27.288 -16.124   3.858  0.00  0.00    +0.059 A 
ATOM     16  N   LIG    1       26.290 -15.673   2.997  0.00  0.00    -0.247 NA
ATOM     17  C   LIG    1       26.274 -14.351   2.966  0.00  0.00    +0.092 A 
ATOM     18  S   LIG    1       27.523 -13.590   3.878  0.00  0.00    -0.079 S 
ATOM     19  C   LIG    1       28.024 -15.118   4.454  0.00  0.00    +0.071 A 
BRANCH  17  20
ATOM     20  C   LIG    1       25.258 -13.506   2.220  0.00  0.00    +0.146 C 
BRANCH  20  21
ATOM     21  N   LIG    1       23.984 -13.241   2.931  0.00  0.00    -0.302 NA
ATOM     22  C   LIG    1       23.901 -11.873   3.439  0.00  0.00    +0.105 C 
ATOM     23  C   LIG    1       23.753 -14.203   4.008  0.00  0.00    +0.105 C 
ENDBRANCH  20  21
ENDBRANCH  17  20
ENDBRANCH  14  15
ENDBRANCH  13  14
ENDBRANCH   1  13
TORSDOF 10
ENDMDL
MODEL 3
REMARK VINA RESULT:      -3.4      3.580      7.411
REMARK  Name = *****
REMARK                            x       y       z     vdW  Elec       q    Type
REMARK                         _______ _______ _______ _____ _____    ______ ____
ROOT
ATOM      1  C   LIG    1       22.328 -19.716   4.935  0.00  0.00    +0.113 C 
ENDROOT
BRANCH   1   2
ATOM      2  C   LIG    1       23.120 -20.124   6.185  0.00  0.00    +0.233 C 
BRANCH   2   3
ATOM      3  N   LIG    1       24.198 -21.069   5.867  0.00  0.00    -0.233 N 
ATOM      4  H   LIG    1       23.879 -21.864   5.321  0.00  0.00    +0.291 HD
BRANCH   3   5
ATOM      5  C   LIG    1       25.521 -20.772   5.547  0.00  0.00    +0.326 C 
ATOM      6  C   LIG    1       26.477 -20.823   6.501  0.00  0.00    +0.474 C 
BRANCH   5   8
ATOM      7  C   LIG    1       24.955 -20.559   3.071  0.00  0.00    +0.273 C 
ATOM      8  N   LIG    1       25.803 -20.463   4.231  0.00  0.00    -0.236 N 
ATOM      9  H   LIG    1       26.710 -20.023   4.059  0.00  0.00    +0.291 HD
ENDBRANCH   5   8
BRANCH   6  10
ATOM     10  N   LIG    1       27.844 -20.437   6.277  0.00  0.00    +0.080 N 
ATOM     11  O   LIG    1       28.075 -19.403   5.618  0.00  0.00    -0.576 OA
ATOM     12  O   LIG    1       28.697 -21.140   6.808  0.00  0.00    +0.041 OA
ENDBRANCH   6  10
ENDBRANCH   3   5
ENDBRANCH   2   3
ENDBRANCH   1   2
BRANCH   1  13
ATOM     13  S   LIG    1       22.223 -17.890   4.813  0.00  0.00    -0.151 S 
BRANCH  13  14
ATOM     14  C   LIG    1       23.765 -17.550   3.900  0.00  0.00    +0.125 C 
BRANCH  14  15
ATOM     15  C   LIG    1       24.136 -16.101   3.869  0.00  0.00    +0.059 A 
ATOM     16  N   LIG    1       25.440 -15.736   3.539  0.00  0.00    -0.247 NA
ATOM     17  C   LIG    1       25.571 -14.421   3.578  0.00  0.00    +0.092 A 
ATOM     18  S   LIG    1       24.173 -13.569   4.120  0.00  0.00    -0.079 S 
ATOM     19  C   LIG    1       23.306 -15.039   4.172  0.00  0.00    +0.071 A 
BRANCH  17  20
ATOM     20  C   LIG    1       26.818 -13.653   3.178  0.00  0.00    +0.146 C 
BRANCH  20  21
ATOM     21  N   LIG    1       27.927 -13.656   4.162  0.00  0.00    -0.302 NA
ATOM     22  C   LIG    1       27.458 -13.463   5.533  0.00  0.00    +0.105 C 
ATOM     23  C   LIG    1       28.954 -12.671   3.826  0.00  0.00    +0.105 C 
ENDBRANCH  20  21
ENDBRANCH  17  20
ENDBRANCH  14  15
ENDBRANCH  13  14
ENDBRANCH   1  13
TORSDOF 10
ENDMDL
MODEL 4
REMARK VINA RESULT:      -2.9      2.161      4.574
REMARK  Name = *****
REMARK                            x       y       z     vdW  Elec       q    Type
REMARK                         _______ _______ _______ _____ _____    ______ ____
ROOT
ATOM      1  C   LIG    1       22.313 -16.895   3.672  0.00  0.00    +0.113 C 
ENDROOT
BRANCH   1   2
ATOM      2  C   LIG    1       23.415 -16.149   4.438  0.00  0.00    +0.233 C 
BRANCH   2   3
ATOM      3  N   LIG    1       23.444 -14.719   4.101  0.00  0.00    -0.233 N 
ATOM      4  H   LIG    1       22.667 -14.202   4.500  0.00  0.00    +0.291 HD
BRANCH   3   5
ATOM      5  C   LIG    1       24.562 -13.895   3.997  0.00  0.00    +0.326 C 
ATOM      6  C   LIG    1       25.798 -14.436   3.914  0.00  0.00    +0.474 C 
BRANCH   5   8
ATOM      7  C   LIG    1       23.932 -11.714   2.840  0.00  0.00    +0.273 C 
ATOM      8  N   LIG    1       24.346 -12.532   3.951  0.00  0.00    -0.236 N 
ATOM      9  H   LIG    1       24.401 -12.039   4.844  0.00  0.00    +0.291 HD
ENDBRANCH   5   8
BRANCH   6  10
ATOM     10  N   LIG    1       27.007 -13.657   3.904  0.00  0.00    +0.080 N 
ATOM     11  O   LIG    1       27.406 -13.155   4.974  0.00  0.00    -0.576 OA
ATOM     12  O   LIG    1       27.596 -13.589   2.831  0.00  0.00    +0.041 OA
ENDBRANCH   6  10
ENDBRANCH   3   5
ENDBRANCH   2   3
ENDBRANCH   1   2
BRANCH   1  13
ATOM     13  S   LIG    1       21.924 -18.484   4.500  0.00  0.00    -0.151 S 
BRANCH  13  14
ATOM     14  C   LIG    1       23.312 -19.499   3.892  0.00  0.00    +0.125 C 
BRANCH  14  15
ATOM     15  C   LIG    1       24.106 -20.143   4.984  0.00  0.00    +0.059 A 
ATOM     16  N   LIG    1       25.496 -20.049   4.965  0.00  0.00    -0.247 NA
ATOM     17  C   LIG    1       26.012 -20.688   6.001  0.00  0.00    +0.092 A 
ATOM     18  S   LIG    1       24.866 -21.525   6.981  0.00  0.00    -0.079 S 
ATOM     19  C   LIG    1       23.598 -20.876   6.038  0.00  0.00    +0.071 A 
BRANCH  17  20
ATOM     20  C   LIG    1       27.485 -20.715   6.368  0.00  0.00    +0.146 C 
BRANCH  20  21
ATOM     21  N   LIG    1       28.185 -19.408   6.345  0.00  0.00    -0.302 NA
ATOM     22  C   LIG    1       28.381 -18.903   4.987  0.00  0.00    +0.105 C 
ATOM     23  C   LIG    1       29.459 -19.462   7.062  0.00  0.00    +0.105 C 
ENDBRANCH  20  21
ENDBRANCH  17  20
ENDBRANCH  14  15
ENDBRANCH  13  14
ENDBRANCH   1  13
TORSDOF 10
ENDMDL
MODEL 5
REMARK VINA RESULT:      -2.5      2.009      3.031
REMARK  Name = *****
REMARK                            x       y       z     vdW  Elec       q    Type
REMARK                         _______ _______ _______ _____ _____    ______ ____
ROOT
ATOM      1  C   LIG    1       27.495 -15.091   4.300  0.00  0.00    +0.113 C 
ENDROOT
BRANCH   1   2
ATOM      2  C   LIG    1       27.943 -14.275   3.079  0.00  0.00    +0.233 C 
BRANCH   2   3
ATOM      3  N   LIG    1       26.800 -13.812   2.281  0.00  0.00    -0.233 N 
ATOM      4  H   LIG    1       26.694 -14.321   1.408  0.00  0.00    +0.291 HD
BRANCH   3   5
ATOM      5  C   LIG    1       25.554 -13.396   2.745  0.00  0.00    +0.326 C 
ATOM      6  C   LIG    1       25.232 -13.545   4.049  0.00  0.00    +0.474 C 
BRANCH   5   8
ATOM      7  C   LIG    1       24.177 -11.465   1.812  0.00  0.00    +0.273 C 
ATOM      8  N   LIG    1       24.700 -12.807   1.834  0.00  0.00    -0.236 N 
ATOM      9  H   LIG    1       24.468 -13.366   1.010  0.00  0.00    +0.291 HD
ENDBRANCH   5   8
BRANCH   6  10
ATOM     10  N   LIG    1       23.936 -13.234   4.587  0.00  0.00    +0.080 N 
ATOM     11  O   LIG    1       23.109 -14.157   4.732  0.00  0.00    -0.576 OA
ATOM     12  O   LIG    1       23.755 -12.068   4.921  0.00  0.00    +0.041 OA
ENDBRANCH   6  10
ENDBRANCH   3   5
ENDBRANCH   2   3
ENDBRANCH   1   2
BRANCH   1  13
ATOM     13  S   LIG    1       27.262 -16.850   3.840  0.00  0.00    -0.151 S 
BRANCH  13  14
ATOM     14  C   LIG    1       28.642 -17.599   4.766  0.00  0.00    +0.125 C 
BRANCH  14  15
ATOM     15  C   LIG    1       28.267 -18.851   5.494  0.00  0.00    +0.059 A 
ATOM     16  N   LIG    1       26.973 -19.354   5.369  0.00  0.00    -0.247 NA
ATOM     17  C   LIG    1       26.837 -20.452   6.093  0.00  0.00    +0.092 A 
ATOM     18  S   LIG    1       28.213 -20.869   7.044  0.00  0.00    -0.079 S 
ATOM     19  C   LIG    1       29.083 -19.581   6.336  0.00  0.00    +0.071 A 
BRANCH  17  20
ATOM     20  C   LIG    1       25.600 -21.332   6.123  0.00  0.00    +0.146 C 
BRANCH  20  21
ATOM     21  N   LIG    1       24.313 -20.657   5.825  0.00  0.00    -0.302 NA
ATOM     22  C   LIG    1       23.321 -20.855   6.881  0.00  0.00    +0.105 C 
ATOM     23  C   LIG    1       23.773 -21.065   4.529  0.00  0.00    +0.105 C 
ENDBRANCH  20  21
ENDBRANCH  17  20
ENDBRANCH  14  15
ENDBRANCH  13  14
ENDBRANCH   1  13
TORSDOF 10
ENDMDL
MODEL 6
REMARK VINA RESULT:      -2.3      1.418      2.199
REMARK  Name = *****
REMARK                            x       y       z     vdW  Elec       q    Type
REMARK                         _______ _______ _______ _____ _____    ______ ____
ROOT
ATOM      1  C   LIG    1       29.155 -18.498   6.261  0.00  0.00    +0.113 C 
ENDROOT
BRANCH   1   2
ATOM      2  C   LIG    1       28.564 -18.085   4.906  0.00  0.00    +0.233 C 
BRANCH   2   3
ATOM      3  N   LIG    1       28.398 -16.629   4.802  0.00  0.00    -0.233 N 
ATOM      4  H   LIG    1       29.279 -16.125   4.843  0.00  0.00    +0.291 HD
BRANCH   3   5
ATOM      5  C   LIG    1       27.487 -15.933   4.010  0.00  0.00    +0.326 C 
ATOM      6  C   LIG    1       27.786 -14.693   3.563  0.00  0.00    +0.474 C 
BRANCH   5   8
ATOM      7  C   LIG    1       26.110 -17.820   2.992  0.00  0.00    +0.273 C 
ATOM      8  N   LIG    1       26.308 -16.573   3.684  0.00  0.00    -0.236 N 
ATOM      9  H   LIG    1       25.453 -16.154   4.057  0.00  0.00    +0.291 HD
ENDBRANCH   5   8
BRANCH   6  10
ATOM     10  N   LIG    1       26.866 -13.871   2.825  0.00  0.00    +0.080 N 
ATOM     11  O   LIG    1       26.315 -14.348   1.812  0.00  0.00    -0.576 OA
ATOM     12  O   LIG    1       26.645 -12.757   3.289  0.00  0.00    +0.041 OA
ENDBRANCH   6  10
ENDBRANCH   3   5
ENDBRANCH   2   3
ENDBRANCH   1   2
BRANCH   1  13
ATOM     13  S   LIG    1       28.346 -20.026   6.870  0.00  0.00    -0.151 S 
BRANCH  13  14
ATOM     14  C   LIG    1       27.262 -20.391   5.450  0.00  0.00    +0.125 C 
BRANCH  14  15
ATOM     15  C   LIG    1       25.821 -20.542   5.819  0.00  0.00    +0.059 A 
ATOM     16  N   LIG    1       24.837 -20.206   4.890  0.00  0.00    -0.247 NA
ATOM     17  C   LIG    1       23.636 -20.397   5.406  0.00  0.00    +0.092 A 
ATOM     18  S   LIG    1       23.625 -20.880   7.062  0.00  0.00    -0.079 S 
ATOM     19  C   LIG    1       25.331 -20.969   7.038  0.00  0.00    +0.071 A 
BRANCH  17  20
ATOM     20  C   LIG    1       22.325 -20.237   4.656  0.00  0.00    +0.146 C 
BRANCH  20  21
ATOM     21  N   LIG    1       21.782 -18.859   4.584  0.00  0.00    -0.302 NA
ATOM     22  C   LIG    1       20.736 -18.724   3.572  0.00  0.00    +0.105 C 
ATOM     23  C   LIG    1       22.837 -17.870   4.368  0.00  0.00    +0.105 C 
ENDBRANCH  20  21
ENDBRANCH  17  20
ENDBRANCH  14  15
ENDBRANCH  13  14
ENDBRANCH   1  13
TORSDOF 10
ENDMDL
MODEL 7
REMARK VINA RESULT:      -2.2      2.409      4.521
REMARK  Name = *****
REMARK                            x       y       z     vdW  Elec       q    Type
REMARK                         _______ _______ _______ _____ _____    ______ ____
ROOT
ATOM      1  C   LIG    1       23.215 -15.025   4.086  0.00  0.00    +0.113 C 
ENDROOT
BRANCH   1   2
ATOM      2  C   LIG    1       23.189 -13.701   4.863  0.00  0.00    +0.233 C 
BRANCH   2   3
ATOM      3  N   LIG    1       24.453 -12.966   4.732  0.00  0.00    -0.233 N 
ATOM      4  H   LIG    1       24.897 -12.778   5.627  0.00  0.00    +0.291 HD
BRANCH   3   5
ATOM      5  C   LIG    1       25.422 -13.112   3.743  0.00  0.00    +0.326 C 
ATOM      6  C   LIG    1       26.567 -13.780   4.008  0.00  0.00    +0.474 C 
BRANCH   5   8
ATOM      7  C   LIG    1       24.151 -11.612   2.122  0.00  0.00    +0.273 C 
ATOM      8  N   LIG    1       25.146 -12.584   2.497  0.00  0.00    -0.236 N 
ATOM      9  H   LIG    1       25.786 -12.848   1.746  0.00  0.00    +0.291 HD
ENDBRANCH   5   8
BRANCH   6  10
ATOM     10  N   LIG    1       27.656 -13.891   3.076  0.00  0.00    +0.080 N 
ATOM     11  O   LIG    1       27.432 -14.373   1.947  0.00  0.00    -0.576 OA
ATOM     12  O   LIG    1       28.736 -13.444   3.450  0.00  0.00    +0.041 OA
ENDBRANCH   6  10
ENDBRANCH   3   5
ENDBRANCH   2   3
ENDBRANCH   1   2
BRANCH   1  13
ATOM     13  S   LIG    1       22.392 -16.348   5.052  0.00  0.00    -0.151 S 
BRANCH  13  14
ATOM     14  C   LIG    1       22.357 -17.673   3.799  0.00  0.00    +0.125 C 
BRANCH  14  15
ATOM     15  C   LIG    1       22.715 -19.020   4.340  0.00  0.00    +0.059 A 
ATOM     16  N   LIG    1       24.028 -19.474   4.234  0.00  0.00    -0.247 NA
ATOM     17  C   LIG    1       24.138 -20.683   4.757  0.00  0.00    +0.092 A 
ATOM     18  S   LIG    1       22.656 -21.377   5.299  0.00  0.00    -0.079 S 
ATOM     19  C   LIG    1       21.848 -19.917   4.935  0.00  0.00    +0.071 A 
BRANCH  17  20
ATOM     20  C   LIG    1       25.438 -21.453   4.914  0.00  0.00    +0.146 C 
BRANCH  20  21
ATOM     21  N   LIG    1       26.440 -20.859   5.831  0.00  0.00    -0.302 NA
ATOM     22  C   LIG    1       25.837 -20.349   7.062  0.00  0.00    +0.105 C 
ATOM     23  C   LIG    1       27.226 -19.816   5.173  0.00  0.00    +0.105 C 
ENDBRANCH  20  21
ENDBRANCH  17  20
ENDBRANCH  14  15
ENDBRANCH  13  14
ENDBRANCH   1  13
TORSDOF 10
ENDMDL
MODEL 8
REMARK VINA RESULT:      -2.2      2.725      4.603
REMARK  Name = *****
REMARK                            x       y       z     vdW  Elec       q    Type
REMARK                         _______ _______ _______ _____ _____    ______ ____
ROOT
ATOM      1  C   LIG    1       23.935 -13.129   4.172  0.00  0.00    +0.113 C 
ENDROOT
BRANCH   1   2
ATOM      2  C   LIG    1       24.096 -13.398   2.670  0.00  0.00    +0.233 C 
BRANCH   2   3
ATOM      3  N   LIG    1       25.457 -13.101   2.204  0.00  0.00    -0.233 N 
ATOM      4  H   LIG    1       25.530 -12.199   1.742  0.00  0.00    +0.291 HD
BRANCH   3   5
ATOM      5  C   LIG    1       26.658 -13.407   2.840  0.00  0.00    +0.326 C 
ATOM      6  C   LIG    1       27.330 -12.450   3.517  0.00  0.00    +0.474 C 
BRANCH   5   8
ATOM      7  C   LIG    1       27.074 -15.735   3.790  0.00  0.00    +0.273 C 
ATOM      8  N   LIG    1       27.097 -14.715   2.773  0.00  0.00    -0.236 N 
ATOM      9  H   LIG    1       27.404 -15.038   1.854  0.00  0.00    +0.291 HD
ENDBRANCH   5   8
BRANCH   6  10
ATOM     10  N   LIG    1       28.620 -12.659   4.116  0.00  0.00    +0.080 N 
ATOM     11  O   LIG    1       28.797 -12.303   5.299  0.00  0.00    -0.576 OA
ATOM     12  O   LIG    1       29.452 -13.234   3.421  0.00  0.00    +0.041 OA
ENDBRANCH   6  10
ENDBRANCH   3   5
ENDBRANCH   2   3
ENDBRANCH   1   2
BRANCH   1  13
ATOM     13  S   LIG    1       23.675 -14.703   5.078  0.00  0.00    -0.151 S 
BRANCH  13  14
ATOM     14  C   LIG    1       23.273 -15.803   3.680  0.00  0.00    +0.125 C 
BRANCH  14  15
ATOM     15  C   LIG    1       23.179 -17.246   4.060  0.00  0.00    +0.059 A 
ATOM     16  N   LIG    1       24.240 -18.102   3.769  0.00  0.00    -0.247 NA
ATOM     17  C   LIG    1       23.962 -19.330   4.171  0.00  0.00    +0.092 A 
ATOM     18  S   LIG    1       22.376 -19.540   4.814  0.00  0.00    -0.079 S 
ATOM     19  C   LIG    1       22.102 -17.861   4.670  0.00  0.00    +0.071 A 
BRANCH  17  20
ATOM     20  C   LIG    1       24.919 -20.507   4.115  0.00  0.00    +0.146 C 
BRANCH  20  21
ATOM     21  N   LIG    1       25.711 -20.761   5.343  0.00  0.00    -0.302 NA
ATOM     22  C   LIG    1       24.919 -20.601   6.561  0.00  0.00    +0.105 C 
ATOM     23  C   LIG    1       26.911 -19.928   5.396  0.00  0.00    +0.105 C 
ENDBRANCH  20  21
ENDBRANCH  17  20
ENDBRANCH  14  15
ENDBRANCH  13  14
ENDBRANCH   1  13
TORSDOF 10
ENDMDL
MODEL 9
REMARK VINA RESULT:      -2.0      1.832      2.352
REMARK  Name = *****
REMARK                            x       y       z     vdW  Elec       q    Type
REMARK                         _______ _______ _______ _____ _____    ______ ____
ROOT
ATOM      1  C   LIG    1       26.952 -17.560   4.497  0.00  0.00    +0.113 C 
ENDROOT
BRANCH   1   2
ATOM      2  C   LIG    1       26.796 -16.908   3.115  0.00  0.00    +0.233 C 
BRANCH   2   3
ATOM      3  N   LIG    1       26.147 -15.593   3.201  0.00  0.00    -0.233 N 
ATOM      4  H   LIG    1       25.135 -15.654   3.266  0.00  0.00    +0.291 HD
BRANCH   3   5
ATOM      5  C   LIG    1       26.601 -14.466   3.881  0.00  0.00    +0.326 C 
ATOM      6  C   LIG    1       27.859 -14.015   3.683  0.00  0.00    +0.474 C 
BRANCH   5   8
ATOM      7  C   LIG    1       24.459 -13.187   4.405  0.00  0.00    +0.273 C 
ATOM      8  N   LIG    1       25.710 -13.828   4.722  0.00  0.00    -0.236 N 
ATOM      9  H   LIG    1       25.915 -13.888   5.721  0.00  0.00    +0.291 HD
ENDBRANCH   5   8
BRANCH   6  10
ATOM     10  N   LIG    1       28.436 -12.921   4.416  0.00  0.00    +0.080 N 
ATOM     11  O   LIG    1       28.005 -12.672   5.560  0.00  0.00    -0.576 OA
ATOM     12  O   LIG    1       29.366 -12.335   3.871  0.00  0.00    +0.041 OA
ENDBRANCH   6  10
ENDBRANCH   3   5
ENDBRANCH   2   3
ENDBRANCH   1   2
BRANCH   1  13
ATOM     13  S   LIG    1       28.727 -17.756   4.912  0.00  0.00    -0.151 S 
BRANCH  13  14
ATOM     14  C   LIG    1       28.752 -19.529   5.338  0.00  0.00    +0.125 C 
BRANCH  14  15
ATOM     15  C   LIG    1       27.418 -20.066   5.749  0.00  0.00    +0.059 A 
ATOM     16  N   LIG    1       26.443 -20.293   4.779  0.00  0.00    -0.247 NA
ATOM     17  C   LIG    1       25.338 -20.754   5.340  0.00  0.00    +0.092 A 
ATOM     18  S   LIG    1       25.376 -20.830   7.062  0.00  0.00    -0.079 S 
ATOM     19  C   LIG    1       27.014 -20.349   7.040  0.00  0.00    +0.071 A 
BRANCH  17  20
ATOM     20  C   LIG    1       24.101 -21.212   4.588  0.00  0.00    +0.146 C 
BRANCH  20  21
ATOM     21  N   LIG    1       23.179 -20.140   4.139  0.00  0.00    -0.302 NA
ATOM     22  C   LIG    1       23.853 -19.127   3.328  0.00  0.00    +0.105 C 
ATOM     23  C   LIG    1       22.481 -19.518   5.264  0.00  0.00    +0.105 C 
ENDBRANCH  20  21
ENDBRANCH  17  20
ENDBRANCH  14  15
ENDBRANCH  13  14
ENDBRANCH   1  13
TORSDOF 10
ENDMDL
