MODEL 1
REMARK VINA RESULT:      -9.7      0.000      0.000
REMARK  Name = *****
REMARK                            x       y       z     vdW  Elec       q    Type
REMARK                         _______ _______ _______ _____ _____    ______ ____
ROOT
ATOM      1  C   LIG    1       25.473 -26.533   5.817  0.00  0.00    +0.058 C 
ATOM      2  C   LIG    1       24.023 -26.064   5.647  0.00  0.00    +0.026 C 
ATOM      3  C   LIG    1       23.634 -24.894   6.559  0.00  0.00    +0.085 C 
ATOM      4  N   LIG    1       24.598 -23.797   6.387  0.00  0.00    -0.302 NA
ATOM      5  C   LIG    1       25.921 -24.252   6.858  0.00  0.00    +0.085 C 
ATOM      6  C   LIG    1       26.445 -25.358   5.951  0.00  0.00    +0.026 C 
ENDROOT
BRANCH   1   8
ATOM      7  N   LIG    1       24.975 -28.740   7.032  0.00  0.00    -0.325 N 
ATOM      8  C   LIG    1       25.616 -27.515   6.956  0.00  0.00    +0.114 A 
ATOM      9  N   LIG    1       26.368 -27.326   8.027  0.00  0.00    -0.232 NA
ATOM     10  C   LIG    1       26.213 -28.440   8.811  0.00  0.00    +0.089 A 
ATOM     11  C   LIG    1       26.776 -28.744  10.061  0.00  0.00    +0.030 A 
ATOM     12  C   LIG    1       26.439 -29.954  10.683  0.00  0.00    +0.002 A 
ATOM     13  C   LIG    1       25.571 -30.853  10.066  0.00  0.00    +0.002 A 
ATOM     14  C   LIG    1       25.022 -30.576   8.810  0.00  0.00    +0.028 A 
ATOM     15  C   LIG    1       25.352 -29.351   8.213  0.00  0.00    +0.069 A 
BRANCH   7  16
ATOM     16  C   LIG    1       24.048 -29.319   6.081  0.00  0.00    +0.151 C 
BRANCH  16  17
ATOM     17  C   LIG    1       24.367 -30.773   5.756  0.00  0.00    +0.181 C 
BRANCH  17  18
ATOM     18  O   LIG    1       25.606 -30.829   5.048  0.00  0.00    -0.378 OA
BRANCH  18  20
ATOM     19  C   LIG    1       26.903 -32.442   6.232  0.00  0.00    +0.034 C 
ATOM     20  C   LIG    1       26.095 -32.168   4.984  0.00  0.00    +0.156 C 
ENDBRANCH  18  20
ENDBRANCH  17  18
ENDBRANCH  16  17
ENDBRANCH   7  16
ENDBRANCH   1   8
BRANCH   4  21
ATOM     21  C   LIG    1       24.239 -22.547   7.083  0.00  0.00    +0.089 C 
BRANCH  21  22
ATOM     22  C   LIG    1       24.525 -21.225   6.343  0.00  0.00    +0.050 C 
BRANCH  22  23
ATOM     23  C   LIG    1       25.891 -20.695   6.731  0.00  0.00    -0.046 A 
ATOM     24  C   LIG    1       26.268 -20.622   8.075  0.00  0.00    +0.004 A 
ATOM     25  C   LIG    1       27.566 -20.239   8.435  0.00  0.00    +0.005 A 
ATOM     26  C   LIG    1       28.533 -19.924   7.468  0.00  0.00    -0.031 A 
ATOM     27  C   LIG    1       28.129 -19.948   6.119  0.00  0.00    +0.005 A 
ATOM     28  C   LIG    1       26.831 -20.339   5.758  0.00  0.00    +0.004 A 
BRANCH  26  29
ATOM     29  C   LIG    1       29.957 -19.481   7.855  0.00  0.00    +0.087 C 
ATOM     30  C   LIG    1       29.976 -18.214   8.748  0.00  0.00    +0.027 C 
ATOM     31  C   LIG    1       30.736 -19.167   6.578  0.00  0.00    +0.027 C 
BRANCH  29  32
ATOM     32  C   LIG    1       30.730 -20.574   8.641  0.00  0.00    +0.315 C 
ATOM     33  O   LIG    1       30.331 -21.721   8.815  0.00  0.00    -0.250 OA
BRANCH  32  34
ATOM     34  O   LIG    1       31.938 -20.164   9.124  0.00  0.00    -0.480 OA
ATOM     35  H   LIG    1       32.536 -20.869   9.383  0.00  0.00    +0.295 HD
ENDBRANCH  32  34
ENDBRANCH  29  32
ENDBRANCH  26  29
ENDBRANCH  22  23
ENDBRANCH  21  22
ENDBRANCH   4  21
TORSDOF 11
ENDMDL
MODEL 2
REMARK VINA RESULT:      -8.8      2.881      5.532
REMARK  Name = *****
REMARK                            x       y       z     vdW  Elec       q    Type
REMARK                         _______ _______ _______ _____ _____    ______ ____
ROOT
ATOM      1  C   LIG    1       25.294 -30.981   8.689  0.00  0.00    +0.058 C 
ATOM      2  C   LIG    1       24.871 -31.150   7.224  0.00  0.00    +0.026 C 
ATOM      3  C   LIG    1       24.505 -29.835   6.525  0.00  0.00    +0.085 C 
ATOM      4  N   LIG    1       25.608 -28.875   6.679  0.00  0.00    -0.302 NA
ATOM      5  C   LIG    1       25.749 -28.543   8.111  0.00  0.00    +0.085 C 
ATOM      6  C   LIG    1       26.210 -29.771   8.887  0.00  0.00    +0.026 C 
ENDROOT
BRANCH   1   8
ATOM      7  N   LIG    1       24.146 -31.224  10.973  0.00  0.00    -0.325 N 
ATOM      8  C   LIG    1       24.104 -30.945   9.618  0.00  0.00    +0.114 A 
ATOM      9  N   LIG    1       22.869 -30.647   9.251  0.00  0.00    -0.232 NA
ATOM     10  C   LIG    1       22.097 -30.735  10.382  0.00  0.00    +0.089 A 
ATOM     11  C   LIG    1       20.718 -30.533  10.545  0.00  0.00    +0.030 A 
ATOM     12  C   LIG    1       20.150 -30.710  11.814  0.00  0.00    +0.002 A 
ATOM     13  C   LIG    1       20.941 -31.066  12.904  0.00  0.00    +0.002 A 
ATOM     14  C   LIG    1       22.321 -31.246  12.763  0.00  0.00    +0.028 A 
ATOM     15  C   LIG    1       22.868 -31.087  11.482  0.00  0.00    +0.069 A 
BRANCH   7  16
ATOM     16  C   LIG    1       25.295 -31.615  11.765  0.00  0.00    +0.151 C 
BRANCH  16  17
ATOM     17  C   LIG    1       25.894 -30.455  12.550  0.00  0.00    +0.181 C 
BRANCH  17  18
ATOM     18  O   LIG    1       27.257 -30.287  12.162  0.00  0.00    -0.378 OA
BRANCH  18  20
ATOM     19  C   LIG    1       26.974 -27.927  11.957  0.00  0.00    +0.034 C 
ATOM     20  C   LIG    1       27.765 -29.034  12.619  0.00  0.00    +0.156 C 
ENDBRANCH  18  20
ENDBRANCH  17  18
ENDBRANCH  16  17
ENDBRANCH   7  16
ENDBRANCH   1   8
BRANCH   4  21
ATOM     21  C   LIG    1       25.451 -27.628   5.906  0.00  0.00    +0.089 C 
BRANCH  21  22
ATOM     22  C   LIG    1       24.118 -26.868   6.062  0.00  0.00    +0.050 C 
BRANCH  22  23
ATOM     23  C   LIG    1       24.384 -25.422   6.430  0.00  0.00    -0.046 A 
ATOM     24  C   LIG    1       25.694 -24.954   6.569  0.00  0.00    +0.004 A 
ATOM     25  C   LIG    1       25.948 -23.596   6.799  0.00  0.00    +0.005 A 
ATOM     26  C   LIG    1       24.907 -22.660   6.892  0.00  0.00    -0.031 A 
ATOM     27  C   LIG    1       23.590 -23.149   6.805  0.00  0.00    +0.005 A 
ATOM     28  C   LIG    1       23.335 -24.507   6.567  0.00  0.00    +0.004 A 
BRANCH  26  29
ATOM     29  C   LIG    1       25.178 -21.167   7.168  0.00  0.00    +0.087 C 
ATOM     30  C   LIG    1       23.880 -20.327   7.279  0.00  0.00    +0.027 C 
ATOM     31  C   LIG    1       26.008 -20.601   6.016  0.00  0.00    +0.027 C 
BRANCH  29  32
ATOM     32  C   LIG    1       25.956 -20.936   8.491  0.00  0.00    +0.315 C 
ATOM     33  O   LIG    1       25.617 -21.372   9.586  0.00  0.00    -0.250 OA
BRANCH  32  34
ATOM     34  O   LIG    1       27.099 -20.204   8.343  0.00  0.00    -0.480 OA
ATOM     35  H   LIG    1       27.535 -19.956   9.162  0.00  0.00    +0.295 HD
ENDBRANCH  32  34
ENDBRANCH  29  32
ENDBRANCH  26  29
ENDBRANCH  22  23
ENDBRANCH  21  22
ENDBRANCH   4  21
TORSDOF 11
ENDMDL
MODEL 3
REMARK VINA RESULT:      -8.7      2.433      9.388
REMARK  Name = *****
REMARK                            x       y       z     vdW  Elec       q    Type
REMARK                         _______ _______ _______ _____ _____    ______ ____
ROOT
ATOM      1  C   LIG    1       24.596 -23.243   7.159  0.00  0.00    +0.058 C 
ATOM      2  C   LIG    1       23.380 -24.108   6.805  0.00  0.00    +0.026 C 
ATOM      3  C   LIG    1       23.667 -25.188   5.755  0.00  0.00    +0.085 C 
ATOM      4  N   LIG    1       24.818 -25.995   6.183  0.00  0.00    -0.302 NA
ATOM      5  C   LIG    1       26.017 -25.132   6.210  0.00  0.00    +0.085 C 
ATOM      6  C   LIG    1       25.873 -24.076   7.299  0.00  0.00    +0.026 C 
ENDROOT
BRANCH   1   8
ATOM      7  N   LIG    1       25.906 -21.307   6.095  0.00  0.00    -0.325 N 
ATOM      8  C   LIG    1       24.774 -22.099   6.189  0.00  0.00    +0.114 A 
ATOM      9  N   LIG    1       23.867 -21.705   5.312  0.00  0.00    -0.232 NA
ATOM     10  C   LIG    1       24.414 -20.643   4.638  0.00  0.00    +0.089 A 
ATOM     11  C   LIG    1       23.869 -19.850   3.617  0.00  0.00    +0.030 A 
ATOM     12  C   LIG    1       24.627 -18.791   3.099  0.00  0.00    +0.002 A 
ATOM     13  C   LIG    1       25.910 -18.534   3.578  0.00  0.00    +0.002 A 
ATOM     14  C   LIG    1       26.478 -19.331   4.577  0.00  0.00    +0.028 A 
ATOM     15  C   LIG    1       25.696 -20.373   5.099  0.00  0.00    +0.069 A 
BRANCH   7  16
ATOM     16  C   LIG    1       27.117 -21.388   6.887  0.00  0.00    +0.151 C 
BRANCH  16  17
ATOM     17  C   LIG    1       27.142 -20.383   8.031  0.00  0.00    +0.181 C 
BRANCH  17  18
ATOM     18  O   LIG    1       28.487 -19.954   8.243  0.00  0.00    -0.378 OA
BRANCH  18  20
ATOM     19  C   LIG    1       29.730 -18.681   6.654  0.00  0.00    +0.034 C 
ATOM     20  C   LIG    1       29.250 -20.062   7.041  0.00  0.00    +0.156 C 
ENDBRANCH  18  20
ENDBRANCH  17  18
ENDBRANCH  16  17
ENDBRANCH   7  16
ENDBRANCH   1   8
BRANCH   4  21
ATOM     21  C   LIG    1       25.090 -27.175   5.341  0.00  0.00    +0.089 C 
BRANCH  21  22
ATOM     22  C   LIG    1       24.503 -28.522   5.810  0.00  0.00    +0.050 C 
BRANCH  22  23
ATOM     23  C   LIG    1       24.968 -28.830   7.220  0.00  0.00    -0.046 A 
ATOM     24  C   LIG    1       26.063 -28.156   7.769  0.00  0.00    +0.004 A 
ATOM     25  C   LIG    1       26.428 -28.355   9.106  0.00  0.00    +0.005 A 
ATOM     26  C   LIG    1       25.711 -29.226   9.941  0.00  0.00    -0.031 A 
ATOM     27  C   LIG    1       24.644 -29.940   9.365  0.00  0.00    +0.005 A 
ATOM     28  C   LIG    1       24.273 -29.736   8.028  0.00  0.00    +0.004 A 
BRANCH  26  29
ATOM     29  C   LIG    1       26.120 -29.467  11.408  0.00  0.00    +0.087 C 
ATOM     30  C   LIG    1       25.827 -30.911  11.889  0.00  0.00    +0.027 C 
ATOM     31  C   LIG    1       25.333 -28.506  12.299  0.00  0.00    +0.027 C 
BRANCH  29  32
ATOM     32  C   LIG    1       27.634 -29.230  11.652  0.00  0.00    +0.315 C 
ATOM     33  O   LIG    1       28.530 -29.965  11.249  0.00  0.00    -0.250 OA
BRANCH  32  34
ATOM     34  O   LIG    1       27.913 -28.093  12.354  0.00  0.00    -0.480 OA
ATOM     35  H   LIG    1       28.080 -27.313  11.820  0.00  0.00    +0.295 HD
ENDBRANCH  32  34
ENDBRANCH  29  32
ENDBRANCH  26  29
ENDBRANCH  22  23
ENDBRANCH  21  22
ENDBRANCH   4  21
TORSDOF 11
ENDMDL
MODEL 4
REMARK VINA RESULT:      -8.5      3.039      5.708
REMARK  Name = *****
REMARK                            x       y       z     vdW  Elec       q    Type
REMARK                         _______ _______ _______ _____ _____    ______ ____
ROOT
ATOM      1  C   LIG    1       25.350 -31.059   8.875  0.00  0.00    +0.058 C 
ATOM      2  C   LIG    1       25.015 -31.302   7.397  0.00  0.00    +0.026 C 
ATOM      3  C   LIG    1       24.616 -30.035   6.631  0.00  0.00    +0.085 C 
ATOM      4  N   LIG    1       25.655 -29.009   6.805  0.00  0.00    -0.302 NA
ATOM      5  C   LIG    1       25.702 -28.620   8.229  0.00  0.00    +0.085 C 
ATOM      6  C   LIG    1       26.186 -29.792   9.073  0.00  0.00    +0.026 C 
ENDROOT
BRANCH   1   8
ATOM      7  N   LIG    1       24.044 -31.550  11.031  0.00  0.00    -0.325 N 
ATOM      8  C   LIG    1       24.111 -31.057   9.739  0.00  0.00    +0.114 A 
ATOM      9  N   LIG    1       22.932 -30.589   9.367  0.00  0.00    -0.232 NA
ATOM     10  C   LIG    1       22.086 -30.782  10.430  0.00  0.00    +0.089 A 
ATOM     11  C   LIG    1       20.721 -30.479  10.558  0.00  0.00    +0.030 A 
ATOM     12  C   LIG    1       20.062 -30.799  11.753  0.00  0.00    +0.002 A 
ATOM     13  C   LIG    1       20.751 -31.397  12.807  0.00  0.00    +0.002 A 
ATOM     14  C   LIG    1       22.116 -31.682  12.704  0.00  0.00    +0.028 A 
ATOM     15  C   LIG    1       22.754 -31.374  11.493  0.00  0.00    +0.069 A 
BRANCH   7  16
ATOM     16  C   LIG    1       25.104 -32.168  11.803  0.00  0.00    +0.151 C 
BRANCH  16  17
ATOM     17  C   LIG    1       25.667 -31.246  12.877  0.00  0.00    +0.181 C 
BRANCH  17  18
ATOM     18  O   LIG    1       26.787 -30.541  12.343  0.00  0.00    -0.378 OA
BRANCH  18  20
ATOM     19  C   LIG    1       25.505 -28.531  12.416  0.00  0.00    +0.034 C 
ATOM     20  C   LIG    1       26.808 -29.191  12.808  0.00  0.00    +0.156 C 
ENDBRANCH  18  20
ENDBRANCH  17  18
ENDBRANCH  16  17
ENDBRANCH   7  16
ENDBRANCH   1   8
BRANCH   4  21
ATOM     21  C   LIG    1       25.472 -27.801   5.979  0.00  0.00    +0.089 C 
BRANCH  21  22
ATOM     22  C   LIG    1       24.151 -27.025   6.152  0.00  0.00    +0.050 C 
BRANCH  22  23
ATOM     23  C   LIG    1       24.438 -25.552   6.367  0.00  0.00    -0.046 A 
ATOM     24  C   LIG    1       23.392 -24.628   6.442  0.00  0.00    +0.004 A 
ATOM     25  C   LIG    1       23.643 -23.285   6.750  0.00  0.00    +0.005 A 
ATOM     26  C   LIG    1       24.943 -22.820   7.001  0.00  0.00    -0.031 A 
ATOM     27  C   LIG    1       25.996 -23.746   6.870  0.00  0.00    +0.005 A 
ATOM     28  C   LIG    1       25.744 -25.093   6.569  0.00  0.00    +0.004 A 
BRANCH  26  29
ATOM     29  C   LIG    1       25.231 -21.340   7.319  0.00  0.00    +0.087 C 
ATOM     30  C   LIG    1       25.864 -21.133   8.718  0.00  0.00    +0.027 C 
ATOM     31  C   LIG    1       23.913 -20.567   7.280  0.00  0.00    +0.027 C 
BRANCH  29  32
ATOM     32  C   LIG    1       26.207 -20.690   6.303  0.00  0.00    +0.315 C 
ATOM     33  O   LIG    1       27.255 -20.126   6.604  0.00  0.00    -0.250 OA
BRANCH  32  34
ATOM     34  O   LIG    1       25.818 -20.811   5.001  0.00  0.00    -0.480 OA
ATOM     35  H   LIG    1       26.270 -20.232   4.382  0.00  0.00    +0.295 HD
ENDBRANCH  32  34
ENDBRANCH  29  32
ENDBRANCH  26  29
ENDBRANCH  22  23
ENDBRANCH  21  22
ENDBRANCH   4  21
TORSDOF 11
ENDMDL
MODEL 5
REMARK VINA RESULT:      -8.4      3.333      6.016
REMARK  Name = *****
REMARK                            x       y       z     vdW  Elec       q    Type
REMARK                         _______ _______ _______ _____ _____    ______ ____
ROOT
ATOM      1  C   LIG    1       25.564 -30.264   9.963  0.00  0.00    +0.058 C 
ATOM      2  C   LIG    1       24.766 -30.655   8.713  0.00  0.00    +0.026 C 
ATOM      3  C   LIG    1       24.481 -29.485   7.763  0.00  0.00    +0.085 C 
ATOM      4  N   LIG    1       25.741 -28.805   7.430  0.00  0.00    -0.302 NA
ATOM      5  C   LIG    1       26.292 -28.200   8.660  0.00  0.00    +0.085 C 
ATOM      6  C   LIG    1       26.702 -29.293   9.639  0.00  0.00    +0.026 C 
ENDROOT
BRANCH   1   8
ATOM      7  N   LIG    1       25.079 -29.444  12.348  0.00  0.00    -0.325 N 
ATOM      8  C   LIG    1       24.668 -29.736  11.059  0.00  0.00    +0.114 A 
ATOM      9  N   LIG    1       23.376 -29.490  10.925  0.00  0.00    -0.232 NA
ATOM     10  C   LIG    1       22.940 -29.035  12.143  0.00  0.00    +0.089 A 
ATOM     11  C   LIG    1       21.653 -28.647  12.549  0.00  0.00    +0.030 A 
ATOM     12  C   LIG    1       21.452 -28.237  13.874  0.00  0.00    +0.002 A 
ATOM     13  C   LIG    1       22.514 -28.198  14.775  0.00  0.00    +0.002 A 
ATOM     14  C   LIG    1       23.807 -28.556  14.380  0.00  0.00    +0.028 A 
ATOM     15  C   LIG    1       23.985 -28.986  13.056  0.00  0.00    +0.069 A 
BRANCH   7  16
ATOM     16  C   LIG    1       26.405 -29.592  12.914  0.00  0.00    +0.151 C 
BRANCH  16  17
ATOM     17  C   LIG    1       27.104 -28.258  13.139  0.00  0.00    +0.181 C 
BRANCH  17  18
ATOM     18  O   LIG    1       26.427 -27.247  12.392  0.00  0.00    -0.378 OA
BRANCH  18  20
ATOM     19  C   LIG    1       25.390 -25.442  13.556  0.00  0.00    +0.034 C 
ATOM     20  C   LIG    1       26.675 -25.954  12.944  0.00  0.00    +0.156 C 
ENDBRANCH  18  20
ENDBRANCH  17  18
ENDBRANCH  16  17
ENDBRANCH   7  16
ENDBRANCH   1   8
BRANCH   4  21
ATOM     21  C   LIG    1       25.624 -27.766   6.390  0.00  0.00    +0.089 C 
BRANCH  21  22
ATOM     22  C   LIG    1       24.279 -27.017   6.294  0.00  0.00    +0.050 C 
BRANCH  22  23
ATOM     23  C   LIG    1       24.502 -25.526   6.462  0.00  0.00    -0.046 A 
ATOM     24  C   LIG    1       23.419 -24.642   6.460  0.00  0.00    +0.004 A 
ATOM     25  C   LIG    1       23.607 -23.280   6.724  0.00  0.00    +0.005 A 
ATOM     26  C   LIG    1       24.878 -22.755   7.007  0.00  0.00    -0.031 A 
ATOM     27  C   LIG    1       25.969 -23.643   6.953  0.00  0.00    +0.005 A 
ATOM     28  C   LIG    1       25.781 -25.009   6.695  0.00  0.00    +0.004 A 
BRANCH  26  29
ATOM     29  C   LIG    1       25.097 -21.254   7.277  0.00  0.00    +0.087 C 
ATOM     30  C   LIG    1       25.812 -20.979   8.624  0.00  0.00    +0.027 C 
ATOM     31  C   LIG    1       23.735 -20.561   7.319  0.00  0.00    +0.027 C 
BRANCH  29  32
ATOM     32  C   LIG    1       25.959 -20.569   6.183  0.00  0.00    +0.315 C 
ATOM     33  O   LIG    1       25.561 -20.286   5.057  0.00  0.00    -0.250 OA
BRANCH  32  34
ATOM     34  O   LIG    1       27.230 -20.273   6.580  0.00  0.00    -0.480 OA
ATOM     35  H   LIG    1       27.539 -19.395   6.345  0.00  0.00    +0.295 HD
ENDBRANCH  32  34
ENDBRANCH  29  32
ENDBRANCH  26  29
ENDBRANCH  22  23
ENDBRANCH  21  22
ENDBRANCH   4  21
TORSDOF 11
ENDMDL
MODEL 6
REMARK VINA RESULT:      -8.2      2.445      9.799
REMARK  Name = *****
REMARK                            x       y       z     vdW  Elec       q    Type
REMARK                         _______ _______ _______ _____ _____    ______ ____
ROOT
ATOM      1  C   LIG    1       24.625 -23.201   7.209  0.00  0.00    +0.058 C 
ATOM      2  C   LIG    1       23.333 -23.985   6.942  0.00  0.00    +0.026 C 
ATOM      3  C   LIG    1       23.475 -25.073   5.870  0.00  0.00    +0.085 C 
ATOM      4  N   LIG    1       24.601 -25.954   6.212  0.00  0.00    -0.302 NA
ATOM      5  C   LIG    1       25.850 -25.169   6.155  0.00  0.00    +0.085 C 
ATOM      6  C   LIG    1       25.852 -24.113   7.254  0.00  0.00    +0.026 C 
ENDROOT
BRANCH   1   8
ATOM      7  N   LIG    1       25.943 -21.285   6.121  0.00  0.00    -0.325 N 
ATOM      8  C   LIG    1       24.804 -22.063   6.232  0.00  0.00    +0.114 A 
ATOM      9  N   LIG    1       23.891 -21.663   5.364  0.00  0.00    -0.232 NA
ATOM     10  C   LIG    1       24.443 -20.610   4.679  0.00  0.00    +0.089 A 
ATOM     11  C   LIG    1       23.894 -19.814   3.661  0.00  0.00    +0.030 A 
ATOM     12  C   LIG    1       24.659 -18.766   3.130  0.00  0.00    +0.002 A 
ATOM     13  C   LIG    1       25.950 -18.523   3.592  0.00  0.00    +0.002 A 
ATOM     14  C   LIG    1       26.520 -19.322   4.588  0.00  0.00    +0.028 A 
ATOM     15  C   LIG    1       25.733 -20.352   5.124  0.00  0.00    +0.069 A 
BRANCH   7  16
ATOM     16  C   LIG    1       27.162 -21.376   6.899  0.00  0.00    +0.151 C 
BRANCH  16  17
ATOM     17  C   LIG    1       27.211 -20.370   8.042  0.00  0.00    +0.181 C 
BRANCH  17  18
ATOM     18  O   LIG    1       28.567 -19.980   8.260  0.00  0.00    -0.378 OA
BRANCH  18  20
ATOM     19  C   LIG    1       29.684 -18.785   6.524  0.00  0.00    +0.034 C 
ATOM     20  C   LIG    1       29.342 -20.152   7.075  0.00  0.00    +0.156 C 
ENDBRANCH  18  20
ENDBRANCH  17  18
ENDBRANCH  16  17
ENDBRANCH   7  16
ENDBRANCH   1   8
BRANCH   4  21
ATOM     21  C   LIG    1       24.736 -27.143   5.349  0.00  0.00    +0.089 C 
BRANCH  21  22
ATOM     22  C   LIG    1       25.724 -28.234   5.808  0.00  0.00    +0.050 C 
BRANCH  22  23
ATOM     23  C   LIG    1       25.403 -28.662   7.228  0.00  0.00    -0.046 A 
ATOM     24  C   LIG    1       24.312 -29.495   7.489  0.00  0.00    +0.004 A 
ATOM     25  C   LIG    1       24.076 -29.982   8.780  0.00  0.00    +0.005 A 
ATOM     26  C   LIG    1       24.924 -29.661   9.852  0.00  0.00    -0.031 A 
ATOM     27  C   LIG    1       25.989 -28.778   9.590  0.00  0.00    +0.005 A 
ATOM     28  C   LIG    1       26.230 -28.296   8.295  0.00  0.00    +0.004 A 
BRANCH  26  29
ATOM     29  C   LIG    1       24.659 -30.175  11.281  0.00  0.00    +0.087 C 
ATOM     30  C   LIG    1       23.363 -31.017  11.391  0.00  0.00    +0.027 C 
ATOM     31  C   LIG    1       24.520 -28.973  12.214  0.00  0.00    +0.027 C 
BRANCH  29  32
ATOM     32  C   LIG    1       25.806 -31.076  11.813  0.00  0.00    +0.315 C 
ATOM     33  O   LIG    1       26.734 -30.684  12.513  0.00  0.00    -0.250 OA
BRANCH  32  34
ATOM     34  O   LIG    1       25.695 -32.388  11.453  0.00  0.00    -0.480 OA
ATOM     35  H   LIG    1       26.506 -32.797  11.142  0.00  0.00    +0.295 HD
ENDBRANCH  32  34
ENDBRANCH  29  32
ENDBRANCH  26  29
ENDBRANCH  22  23
ENDBRANCH  21  22
ENDBRANCH   4  21
TORSDOF 11
ENDMDL
MODEL 7
REMARK VINA RESULT:      -8.2      2.365     10.252
REMARK  Name = *****
REMARK                            x       y       z     vdW  Elec       q    Type
REMARK                         _______ _______ _______ _____ _____    ______ ____
ROOT
ATOM      1  C   LIG    1       24.568 -23.498   7.102  0.00  0.00    +0.058 C 
ATOM      2  C   LIG    1       23.450 -24.447   6.650  0.00  0.00    +0.026 C 
ATOM      3  C   LIG    1       23.888 -25.469   5.594  0.00  0.00    +0.085 C 
ATOM      4  N   LIG    1       25.074 -26.193   6.074  0.00  0.00    -0.302 NA
ATOM      5  C   LIG    1       26.193 -25.238   6.198  0.00  0.00    +0.085 C 
ATOM      6  C   LIG    1       25.897 -24.230   7.301  0.00  0.00    +0.026 C 
ENDROOT
BRANCH   1   8
ATOM      7  N   LIG    1       25.811 -21.479   6.117  0.00  0.00    -0.325 N 
ATOM      8  C   LIG    1       24.709 -22.315   6.173  0.00  0.00    +0.114 A 
ATOM      9  N   LIG    1       23.795 -21.926   5.301  0.00  0.00    -0.232 NA
ATOM     10  C   LIG    1       24.307 -20.821   4.670  0.00  0.00    +0.089 A 
ATOM     11  C   LIG    1       23.740 -20.014   3.671  0.00  0.00    +0.030 A 
ATOM     12  C   LIG    1       24.462 -18.910   3.197  0.00  0.00    +0.002 A 
ATOM     13  C   LIG    1       25.730 -18.622   3.697  0.00  0.00    +0.002 A 
ATOM     14  C   LIG    1       26.320 -19.431   4.673  0.00  0.00    +0.028 A 
ATOM     15  C   LIG    1       25.574 -20.519   5.152  0.00  0.00    +0.069 A 
BRANCH   7  16
ATOM     16  C   LIG    1       27.017 -21.541   6.917  0.00  0.00    +0.151 C 
BRANCH  16  17
ATOM     17  C   LIG    1       26.998 -20.571   8.091  0.00  0.00    +0.181 C 
BRANCH  17  18
ATOM     18  O   LIG    1       28.276 -19.943   8.196  0.00  0.00    -0.378 OA
BRANCH  18  20
ATOM     19  C   LIG    1       29.608 -18.898   6.515  0.00  0.00    +0.034 C 
ATOM     20  C   LIG    1       29.069 -20.210   7.040  0.00  0.00    +0.156 C 
ENDBRANCH  18  20
ENDBRANCH  17  18
ENDBRANCH  16  17
ENDBRANCH   7  16
ENDBRANCH   1   8
BRANCH   4  21
ATOM     21  C   LIG    1       25.493 -27.322   5.222  0.00  0.00    +0.089 C 
BRANCH  21  22
ATOM     22  C   LIG    1       24.518 -28.511   5.103  0.00  0.00    +0.050 C 
BRANCH  22  23
ATOM     23  C   LIG    1       24.815 -29.537   6.180  0.00  0.00    -0.046 A 
ATOM     24  C   LIG    1       24.333 -29.361   7.480  0.00  0.00    +0.004 A 
ATOM     25  C   LIG    1       24.510 -30.356   8.450  0.00  0.00    +0.005 A 
ATOM     26  C   LIG    1       25.165 -31.561   8.154  0.00  0.00    -0.031 A 
ATOM     27  C   LIG    1       25.694 -31.707   6.857  0.00  0.00    +0.005 A 
ATOM     28  C   LIG    1       25.511 -30.713   5.883  0.00  0.00    +0.004 A 
BRANCH  26  29
ATOM     29  C   LIG    1       25.383 -32.652   9.220  0.00  0.00    +0.087 C 
ATOM     30  C   LIG    1       26.695 -33.449   9.013  0.00  0.00    +0.027 C 
ATOM     31  C   LIG    1       24.217 -33.639   9.154  0.00  0.00    +0.027 C 
BRANCH  29  32
ATOM     32  C   LIG    1       25.451 -32.075  10.660  0.00  0.00    +0.315 C 
ATOM     33  O   LIG    1       26.404 -31.450  11.116  0.00  0.00    -0.250 OA
BRANCH  32  34
ATOM     34  O   LIG    1       24.330 -32.299  11.404  0.00  0.00    -0.480 OA
ATOM     35  H   LIG    1       23.554 -31.801  11.135  0.00  0.00    +0.295 HD
ENDBRANCH  32  34
ENDBRANCH  29  32
ENDBRANCH  26  29
ENDBRANCH  22  23
ENDBRANCH  21  22
ENDBRANCH   4  21
TORSDOF 11
ENDMDL
MODEL 8
REMARK VINA RESULT:      -8.1      3.764      5.898
REMARK  Name = *****
REMARK                            x       y       z     vdW  Elec       q    Type
REMARK                         _______ _______ _______ _____ _____    ______ ____
ROOT
ATOM      1  C   LIG    1       24.724 -30.939   9.712  0.00  0.00    +0.058 C 
ATOM      2  C   LIG    1       24.075 -30.867   8.324  0.00  0.00    +0.026 C 
ATOM      3  C   LIG    1       24.155 -29.482   7.669  0.00  0.00    +0.085 C 
ATOM      4  N   LIG    1       25.553 -29.027   7.655  0.00  0.00    -0.302 NA
ATOM      5  C   LIG    1       26.003 -28.839   9.049  0.00  0.00    +0.085 C 
ATOM      6  C   LIG    1       26.053 -30.183   9.765  0.00  0.00    +0.026 C 
ENDROOT
BRANCH   1   8
ATOM      7  N   LIG    1       22.844 -31.301  11.424  0.00  0.00    -0.325 N 
ATOM      8  C   LIG    1       23.776 -30.490  10.799  0.00  0.00    +0.114 A 
ATOM      9  N   LIG    1       23.713 -29.263  11.287  0.00  0.00    -0.232 NA
ATOM     10  C   LIG    1       22.727 -29.274  12.240  0.00  0.00    +0.089 A 
ATOM     11  C   LIG    1       22.247 -28.232  13.048  0.00  0.00    +0.030 A 
ATOM     12  C   LIG    1       21.199 -28.491  13.942  0.00  0.00    +0.002 A 
ATOM     13  C   LIG    1       20.648 -29.768  14.042  0.00  0.00    +0.002 A 
ATOM     14  C   LIG    1       21.133 -30.823  13.262  0.00  0.00    +0.028 A 
ATOM     15  C   LIG    1       22.167 -30.540  12.357  0.00  0.00    +0.069 A 
BRANCH   7  16
ATOM     16  C   LIG    1       22.571 -32.701  11.170  0.00  0.00    +0.151 C 
BRANCH  16  17
ATOM     17  C   LIG    1       21.496 -32.911  10.111  0.00  0.00    +0.181 C 
BRANCH  17  18
ATOM     18  O   LIG    1       20.265 -33.233  10.757  0.00  0.00    -0.378 OA
BRANCH  18  20
ATOM     19  C   LIG    1       19.143 -31.196  10.226  0.00  0.00    +0.034 C 
ATOM     20  C   LIG    1       19.157 -32.696  10.034  0.00  0.00    +0.156 C 
ENDBRANCH  18  20
ENDBRANCH  17  18
ENDBRANCH  16  17
ENDBRANCH   7  16
ENDBRANCH   1   8
BRANCH   4  21
ATOM     21  C   LIG    1       25.788 -27.782   6.899  0.00  0.00    +0.089 C 
BRANCH  21  22
ATOM     22  C   LIG    1       24.553 -27.088   6.288  0.00  0.00    +0.050 C 
BRANCH  22  23
ATOM     23  C   LIG    1       24.677 -25.584   6.433  0.00  0.00    -0.046 A 
ATOM     24  C   LIG    1       23.537 -24.776   6.458  0.00  0.00    +0.004 A 
ATOM     25  C   LIG    1       23.639 -23.401   6.703  0.00  0.00    +0.005 A 
ATOM     26  C   LIG    1       24.879 -22.787   6.937  0.00  0.00    -0.031 A 
ATOM     27  C   LIG    1       26.026 -23.599   6.856  0.00  0.00    +0.005 A 
ATOM     28  C   LIG    1       25.924 -24.978   6.618  0.00  0.00    +0.004 A 
BRANCH  26  29
ATOM     29  C   LIG    1       25.002 -21.271   7.185  0.00  0.00    +0.087 C 
ATOM     30  C   LIG    1       25.728 -20.931   8.511  0.00  0.00    +0.027 C 
ATOM     31  C   LIG    1       23.598 -20.671   7.250  0.00  0.00    +0.027 C 
BRANCH  29  32
ATOM     32  C   LIG    1       25.791 -20.545   6.062  0.00  0.00    +0.315 C 
ATOM     33  O   LIG    1       26.947 -20.147   6.167  0.00  0.00    -0.250 OA
BRANCH  32  34
ATOM     34  O   LIG    1       25.092 -20.392   4.901  0.00  0.00    -0.480 OA
ATOM     35  H   LIG    1       24.485 -21.106   4.691  0.00  0.00    +0.295 HD
ENDBRANCH  32  34
ENDBRANCH  29  32
ENDBRANCH  26  29
ENDBRANCH  22  23
ENDBRANCH  21  22
ENDBRANCH   4  21
TORSDOF 11
ENDMDL
MODEL 9
REMARK VINA RESULT:      -8.0      2.874     10.144
REMARK  Name = *****
REMARK                            x       y       z     vdW  Elec       q    Type
REMARK                         _______ _______ _______ _____ _____    ______ ____
ROOT
ATOM      1  C   LIG    1       24.411 -21.105   5.891  0.00  0.00    +0.058 C 
ATOM      2  C   LIG    1       24.368 -22.043   4.677  0.00  0.00    +0.026 C 
ATOM      3  C   LIG    1       24.730 -23.497   5.000  0.00  0.00    +0.085 C 
ATOM      4  N   LIG    1       23.890 -23.978   6.105  0.00  0.00    -0.302 NA
ATOM      5  C   LIG    1       24.216 -23.204   7.320  0.00  0.00    +0.085 C 
ATOM      6  C   LIG    1       23.799 -21.750   7.137  0.00  0.00    +0.026 C 
ENDROOT
BRANCH   1   8
ATOM      7  N   LIG    1       26.596 -19.936   5.219  0.00  0.00    -0.325 N 
ATOM      8  C   LIG    1       25.805 -20.586   6.151  0.00  0.00    +0.114 A 
ATOM      9  N   LIG    1       26.448 -20.691   7.301  0.00  0.00    -0.232 NA
ATOM     10  C   LIG    1       27.674 -20.105   7.115  0.00  0.00    +0.089 A 
ATOM     11  C   LIG    1       28.745 -19.960   8.011  0.00  0.00    +0.030 A 
ATOM     12  C   LIG    1       29.921 -19.336   7.571  0.00  0.00    +0.002 A 
ATOM     13  C   LIG    1       30.024 -18.853   6.268  0.00  0.00    +0.002 A 
ATOM     14  C   LIG    1       28.957 -18.967   5.371  0.00  0.00    +0.028 A 
ATOM     15  C   LIG    1       27.796 -19.613   5.822  0.00  0.00    +0.069 A 
BRANCH   7  16
ATOM     16  C   LIG    1       26.280 -19.638   3.836  0.00  0.00    +0.151 C 
BRANCH  16  17
ATOM     17  C   LIG    1       25.398 -18.405   3.684  0.00  0.00    +0.181 C 
BRANCH  17  18
ATOM     18  O   LIG    1       24.060 -18.822   3.410  0.00  0.00    -0.378 OA
BRANCH  18  20
ATOM     19  C   LIG    1       21.896 -18.909   4.410  0.00  0.00    +0.034 C 
ATOM     20  C   LIG    1       23.124 -18.058   4.171  0.00  0.00    +0.156 C 
ENDBRANCH  18  20
ENDBRANCH  17  18
ENDBRANCH  16  17
ENDBRANCH   7  16
ENDBRANCH   1   8
BRANCH   4  21
ATOM     21  C   LIG    1       24.022 -25.418   6.399  0.00  0.00    +0.089 C 
BRANCH  21  22
ATOM     22  C   LIG    1       25.453 -25.987   6.491  0.00  0.00    +0.050 C 
BRANCH  22  23
ATOM     23  C   LIG    1       25.409 -27.502   6.534  0.00  0.00    -0.046 A 
ATOM     24  C   LIG    1       25.519 -28.181   7.751  0.00  0.00    +0.004 A 
ATOM     25  C   LIG    1       25.368 -29.572   7.811  0.00  0.00    +0.005 A 
ATOM     26  C   LIG    1       25.096 -30.330   6.662  0.00  0.00    -0.031 A 
ATOM     27  C   LIG    1       25.040 -29.645   5.434  0.00  0.00    +0.005 A 
ATOM     28  C   LIG    1       25.184 -28.251   5.374  0.00  0.00    +0.004 A 
BRANCH  26  29
ATOM     29  C   LIG    1       24.950 -31.864   6.716  0.00  0.00    +0.087 C 
ATOM     30  C   LIG    1       23.690 -32.379   5.974  0.00  0.00    +0.027 C 
ATOM     31  C   LIG    1       24.842 -32.294   8.179  0.00  0.00    +0.027 C 
BRANCH  29  32
ATOM     32  C   LIG    1       26.158 -32.601   6.078  0.00  0.00    +0.315 C 
ATOM     33  O   LIG    1       26.073 -33.439   5.186  0.00  0.00    -0.250 OA
BRANCH  32  34
ATOM     34  O   LIG    1       27.369 -32.223   6.582  0.00  0.00    -0.480 OA
ATOM     35  H   LIG    1       27.370 -31.394   7.067  0.00  0.00    +0.295 HD
ENDBRANCH  32  34
ENDBRANCH  29  32
ENDBRANCH  26  29
ENDBRANCH  22  23
ENDBRANCH  21  22
ENDBRANCH   4  21
TORSDOF 11
ENDMDL
