MODEL 1
REMARK VINA RESULT:      -5.5      0.000      0.000
REMARK  Name = *****
REMARK                            x       y       z     vdW  Elec       q    Type
REMARK                         _______ _______ _______ _____ _____    ______ ____
ROOT
ATOM      1  C   LIG    1       29.879 -18.848   8.339  0.00  0.00    +0.086 C 
ENDROOT
BRANCH   1   2
ATOM      2  C   LIG    1       30.916 -19.888   7.973  0.00  0.00    +0.147 C 
ATOM      3  O   LIG    1       31.803 -19.636   7.153  0.00  0.00    -0.296 OA
BRANCH   2   4
ATOM      4  C   LIG    1       30.866 -21.234   8.688  0.00  0.00    +0.152 C 
BRANCH   4   5
ATOM      5  N   LIG    1       32.106 -21.459   9.434  0.00  0.00    -0.324 NA
ATOM      6  H   LIG    1       32.816 -20.813   9.086  0.00  0.00    +0.119 HD
ATOM      7  H   LIG    1       31.953 -21.184  10.409  0.00  0.00    +0.119 HD
ENDBRANCH   4   5
ENDBRANCH   2   4
ENDBRANCH   1   2
BRANCH   1   8
ATOM      8  C   LIG    1       30.494 -17.616   8.988  0.00  0.00    +0.128 C 
BRANCH   8   9
ATOM      9  C   LIG    1       31.138 -17.982  10.303  0.00  0.00    +0.307 C 
ATOM     10  O   LIG    1       30.531 -18.430  11.272  0.00  0.00    -0.251 OA
BRANCH   9  12
ATOM     11  C   LIG    1       32.913 -16.599  10.952  0.00  0.00    +0.280 C 
ATOM     12  O   LIG    1       32.481 -17.774  10.258  0.00  0.00    -0.468 OA
ENDBRANCH   9  12
ENDBRANCH   8   9
ENDBRANCH   1   8
TORSDOF 6
ENDMDL
MODEL 2
REMARK VINA RESULT:      -5.4      1.853      3.990
REMARK  Name = *****
REMARK                            x       y       z     vdW  Elec       q    Type
REMARK                         _______ _______ _______ _____ _____    ______ ____
ROOT
ATOM      1  C   LIG    1       30.244 -17.687   9.075  0.00  0.00    +0.086 C 
ENDROOT
BRANCH   1   2
ATOM      2  C   LIG    1       31.096 -17.613  10.323  0.00  0.00    +0.147 C 
ATOM      3  O   LIG    1       30.756 -18.194  11.357  0.00  0.00    -0.296 OA
BRANCH   2   4
ATOM      4  C   LIG    1       32.414 -16.849  10.248  0.00  0.00    +0.152 C 
BRANCH   4   5
ATOM      5  N   LIG    1       32.587 -16.264   8.917  0.00  0.00    -0.324 NA
ATOM      6  H   LIG    1       32.099 -15.367   8.891  0.00  0.00    +0.119 HD
ATOM      7  H   LIG    1       33.576 -16.032   8.790  0.00  0.00    +0.119 HD
ENDBRANCH   4   5
ENDBRANCH   2   4
ENDBRANCH   1   2
BRANCH   1   8
ATOM      8  C   LIG    1       30.022 -19.118   8.605  0.00  0.00    +0.128 C 
BRANCH   8   9
ATOM      9  C   LIG    1       31.323 -19.724   8.136  0.00  0.00    +0.307 C 
ATOM     10  O   LIG    1       31.846 -19.489   7.050  0.00  0.00    -0.251 OA
BRANCH   9  12
ATOM     11  C   LIG    1       31.249 -21.840   9.138  0.00  0.00    +0.280 C 
ATOM     12  O   LIG    1       31.847 -20.540   9.089  0.00  0.00    -0.468 OA
ENDBRANCH   9  12
ENDBRANCH   8   9
ENDBRANCH   1   8
TORSDOF 6
ENDMDL
MODEL 3
REMARK VINA RESULT:      -5.2      2.630      4.573
REMARK  Name = *****
REMARK                            x       y       z     vdW  Elec       q    Type
REMARK                         _______ _______ _______ _____ _____    ______ ____
ROOT
ATOM      1  C   LIG    1       31.979 -17.418   9.844  0.00  0.00    +0.086 C 
ENDROOT
BRANCH   1   2
ATOM      2  C   LIG    1       31.326 -16.728  11.021  0.00  0.00    +0.147 C 
ATOM      3  O   LIG    1       30.107 -16.539  11.047  0.00  0.00    -0.296 OA
BRANCH   2   4
ATOM      4  C   LIG    1       32.209 -16.327  12.198  0.00  0.00    +0.152 C 
BRANCH   4   5
ATOM      5  N   LIG    1       31.527 -15.333  13.029  0.00  0.00    -0.324 NA
ATOM      6  H   LIG    1       31.150 -15.803  13.853  0.00  0.00    +0.119 HD
ATOM      7  H   LIG    1       32.226 -14.679  13.393  0.00  0.00    +0.119 HD
ENDBRANCH   4   5
ENDBRANCH   2   4
ENDBRANCH   1   2
BRANCH   1   8
ATOM      8  C   LIG    1       30.965 -18.084   8.923  0.00  0.00    +0.128 C 
BRANCH   8   9
ATOM      9  C   LIG    1       31.561 -19.318   8.291  0.00  0.00    +0.307 C 
ATOM     10  O   LIG    1       31.744 -19.462   7.085  0.00  0.00    -0.251 OA
BRANCH   9  12
ATOM     11  C   LIG    1       31.252 -21.504   9.074  0.00  0.00    +0.280 C 
ATOM     12  O   LIG    1       31.892 -20.235   9.240  0.00  0.00    -0.468 OA
ENDBRANCH   9  12
ENDBRANCH   8   9
ENDBRANCH   1   8
TORSDOF 6
ENDMDL
MODEL 4
REMARK VINA RESULT:      -5.2      2.187      4.103
REMARK  Name = *****
REMARK                            x       y       z     vdW  Elec       q    Type
REMARK                         _______ _______ _______ _____ _____    ______ ____
ROOT
ATOM      1  C   LIG    1       30.424 -17.072   9.652  0.00  0.00    +0.086 C 
ENDROOT
BRANCH   1   2
ATOM      2  C   LIG    1       31.500 -17.008  10.714  0.00  0.00    +0.147 C 
ATOM      3  O   LIG    1       31.367 -17.607  11.785  0.00  0.00    -0.296 OA
BRANCH   2   4
ATOM      4  C   LIG    1       32.774 -16.232  10.399  0.00  0.00    +0.152 C 
BRANCH   4   5
ATOM      5  N   LIG    1       32.781 -15.815   8.996  0.00  0.00    -0.324 NA
ATOM      6  H   LIG    1       32.419 -16.582   8.428  0.00  0.00    +0.119 HD
ATOM      7  H   LIG    1       32.104 -15.055   8.879  0.00  0.00    +0.119 HD
ENDBRANCH   4   5
ENDBRANCH   2   4
ENDBRANCH   1   2
BRANCH   1   8
ATOM      8  C   LIG    1       30.118 -18.498   9.217  0.00  0.00    +0.128 C 
BRANCH   8   9
ATOM      9  C   LIG    1       31.344 -19.137   8.612  0.00  0.00    +0.307 C 
ATOM     10  O   LIG    1       32.081 -19.922   9.203  0.00  0.00    -0.251 OA
BRANCH   9  12
ATOM     11  C   LIG    1       30.401 -19.074   6.468  0.00  0.00    +0.280 C 
ATOM     12  O   LIG    1       31.505 -18.746   7.319  0.00  0.00    -0.468 OA
ENDBRANCH   9  12
ENDBRANCH   8   9
ENDBRANCH   1   8
TORSDOF 6
ENDMDL
MODEL 5
REMARK VINA RESULT:      -5.0      2.828      4.407
REMARK  Name = *****
REMARK                            x       y       z     vdW  Elec       q    Type
REMARK                         _______ _______ _______ _____ _____    ______ ____
ROOT
ATOM      1  C   LIG    1       30.285 -18.335   8.304  0.00  0.00    +0.086 C 
ENDROOT
BRANCH   1   2
ATOM      2  C   LIG    1       31.543 -18.504   9.127  0.00  0.00    +0.147 C 
ATOM      3  O   LIG    1       32.103 -19.601   9.210  0.00  0.00    -0.296 OA
BRANCH   2   4
ATOM      4  C   LIG    1       32.131 -17.269   9.801  0.00  0.00    +0.152 C 
BRANCH   4   5
ATOM      5  N   LIG    1       32.596 -16.313   8.794  0.00  0.00    -0.324 NA
ATOM      6  H   LIG    1       31.974 -15.503   8.804  0.00  0.00    +0.119 HD
ATOM      7  H   LIG    1       33.508 -15.951   9.087  0.00  0.00    +0.119 HD
ENDBRANCH   4   5
ENDBRANCH   2   4
ENDBRANCH   1   2
BRANCH   1   8
ATOM      8  C   LIG    1       30.121 -19.430   7.258  0.00  0.00    +0.128 C 
BRANCH   8   9
ATOM      9  C   LIG    1       29.052 -20.407   7.685  0.00  0.00    +0.307 C 
ATOM     10  O   LIG    1       29.250 -21.380   8.408  0.00  0.00    -0.251 OA
BRANCH   9  12
ATOM     11  C   LIG    1       26.730 -20.455   7.989  0.00  0.00    +0.280 C 
ATOM     12  O   LIG    1       27.840 -20.048   7.183  0.00  0.00    -0.468 OA
ENDBRANCH   9  12
ENDBRANCH   8   9
ENDBRANCH   1   8
TORSDOF 6
ENDMDL
MODEL 6
REMARK VINA RESULT:      -5.0      2.882      3.067
REMARK  Name = *****
REMARK                            x       y       z     vdW  Elec       q    Type
REMARK                         _______ _______ _______ _____ _____    ______ ____
ROOT
ATOM      1  C   LIG    1       29.883 -19.549   7.049  0.00  0.00    +0.086 C 
ENDROOT
BRANCH   1   2
ATOM      2  C   LIG    1       28.819 -20.573   7.380  0.00  0.00    +0.147 C 
ATOM      3  O   LIG    1       28.971 -21.364   8.315  0.00  0.00    -0.296 OA
BRANCH   2   4
ATOM      4  C   LIG    1       27.532 -20.561   6.562  0.00  0.00    +0.152 C 
BRANCH   4   5
ATOM      5  N   LIG    1       27.784 -20.015   5.226  0.00  0.00    -0.324 NA
ATOM      6  H   LIG    1       27.135 -20.452   4.570  0.00  0.00    +0.119 HD
ATOM      7  H   LIG    1       27.532 -19.023   5.228  0.00  0.00    +0.119 HD
ENDBRANCH   4   5
ENDBRANCH   2   4
ENDBRANCH   1   2
BRANCH   1   8
ATOM      8  C   LIG    1       30.109 -18.557   8.182  0.00  0.00    +0.128 C 
BRANCH   8   9
ATOM      9  C   LIG    1       31.544 -18.611   8.647  0.00  0.00    +0.307 C 
ATOM     10  O   LIG    1       32.055 -19.575   9.210  0.00  0.00    -0.251 OA
BRANCH   9  12
ATOM     11  C   LIG    1       32.192 -16.483   9.379  0.00  0.00    +0.280 C 
ATOM     12  O   LIG    1       32.197 -17.460   8.334  0.00  0.00    -0.468 OA
ENDBRANCH   9  12
ENDBRANCH   8   9
ENDBRANCH   1   8
TORSDOF 6
ENDMDL
MODEL 7
REMARK VINA RESULT:      -5.0      2.952      4.537
REMARK  Name = *****
REMARK                            x       y       z     vdW  Elec       q    Type
REMARK                         _______ _______ _______ _____ _____    ______ ____
ROOT
ATOM      1  C   LIG    1       30.009 -19.352   8.163  0.00  0.00    +0.086 C 
ENDROOT
BRANCH   1   2
ATOM      2  C   LIG    1       31.092 -20.171   8.831  0.00  0.00    +0.147 C 
ATOM      3  O   LIG    1       32.126 -19.637   9.240  0.00  0.00    -0.296 OA
BRANCH   2   4
ATOM      4  C   LIG    1       30.843 -21.662   9.033  0.00  0.00    +0.152 C 
BRANCH   4   5
ATOM      5  N   LIG    1       32.040 -22.429   8.683  0.00  0.00    -0.324 NA
ATOM      6  H   LIG    1       32.858 -21.936   9.044  0.00  0.00    +0.119 HD
ATOM      7  H   LIG    1       32.018 -23.316   9.193  0.00  0.00    +0.119 HD
ENDBRANCH   4   5
ENDBRANCH   2   4
ENDBRANCH   1   2
BRANCH   1   8
ATOM      8  C   LIG    1       29.305 -20.115   7.048  0.00  0.00    +0.128 C 
BRANCH   8   9
ATOM      9  C   LIG    1       27.829 -20.227   7.341  0.00  0.00    +0.307 C 
ATOM     10  O   LIG    1       27.346 -20.265   8.469  0.00  0.00    -0.251 OA
BRANCH   9  12
ATOM     11  C   LIG    1       25.764 -20.717   6.350  0.00  0.00    +0.280 C 
ATOM     12  O   LIG    1       27.108 -20.254   6.188  0.00  0.00    -0.468 OA
ENDBRANCH   9  12
ENDBRANCH   8   9
ENDBRANCH   1   8
TORSDOF 6
ENDMDL
MODEL 8
REMARK VINA RESULT:      -4.8      3.286      4.121
REMARK  Name = *****
REMARK                            x       y       z     vdW  Elec       q    Type
REMARK                         _______ _______ _______ _____ _____    ______ ____
ROOT
ATOM      1  C   LIG    1       29.106 -20.812   7.522  0.00  0.00    +0.086 C 
ENDROOT
BRANCH   1   2
ATOM      2  C   LIG    1       27.604 -20.943   7.644  0.00  0.00    +0.147 C 
ATOM      3  O   LIG    1       27.089 -21.375   8.679  0.00  0.00    -0.296 OA
BRANCH   2   4
ATOM      4  C   LIG    1       26.745 -20.473   6.475  0.00  0.00    +0.152 C 
BRANCH   4   5
ATOM      5  N   LIG    1       27.583 -20.197   5.307  0.00  0.00    -0.324 NA
ATOM      6  H   LIG    1       27.016 -19.716   4.607  0.00  0.00    +0.119 HD
ATOM      7  H   LIG    1       28.303 -19.519   5.577  0.00  0.00    +0.119 HD
ENDBRANCH   4   5
ENDBRANCH   2   4
ENDBRANCH   1   2
BRANCH   1   8
ATOM      8  C   LIG    1       29.616 -19.464   8.015  0.00  0.00    +0.128 C 
BRANCH   8   9
ATOM      9  C   LIG    1       30.553 -18.856   7.000  0.00  0.00    +0.307 C 
ATOM     10  O   LIG    1       30.213 -18.471   5.884  0.00  0.00    -0.251 OA
BRANCH   9  12
ATOM     11  C   LIG    1       31.903 -18.064   8.744  0.00  0.00    +0.280 C 
ATOM     12  O   LIG    1       31.815 -18.767   7.500  0.00  0.00    -0.468 OA
ENDBRANCH   9  12
ENDBRANCH   8   9
ENDBRANCH   1   8
TORSDOF 6
ENDMDL
MODEL 9
REMARK VINA RESULT:      -4.8      2.484      2.756
REMARK  Name = *****
REMARK                            x       y       z     vdW  Elec       q    Type
REMARK                         _______ _______ _______ _____ _____    ______ ____
ROOT
ATOM      1  C   LIG    1       30.290 -18.248   8.890  0.00  0.00    +0.086 C 
ENDROOT
BRANCH   1   2
ATOM      2  C   LIG    1       29.644 -19.180   7.889  0.00  0.00    +0.147 C 
ATOM      3  O   LIG    1       28.613 -19.796   8.173  0.00  0.00    -0.296 OA
BRANCH   2   4
ATOM      4  C   LIG    1       30.271 -19.292   6.504  0.00  0.00    +0.152 C 
BRANCH   4   5
ATOM      5  N   LIG    1       29.789 -18.213   5.640  0.00  0.00    -0.324 NA
ATOM      6  H   LIG    1       28.774 -18.293   5.556  0.00  0.00    +0.119 HD
ATOM      7  H   LIG    1       29.946 -17.320   6.116  0.00  0.00    +0.119 HD
ENDBRANCH   4   5
ENDBRANCH   2   4
ENDBRANCH   1   2
BRANCH   1   8
ATOM      8  C   LIG    1       31.796 -18.134   8.693  0.00  0.00    +0.128 C 
BRANCH   8   9
ATOM      9  C   LIG    1       32.333 -16.938   9.440  0.00  0.00    +0.307 C 
ATOM     10  O   LIG    1       32.391 -15.800   8.979  0.00  0.00    -0.251 OA
BRANCH   9  12
ATOM     11  C   LIG    1       32.196 -16.436  11.724  0.00  0.00    +0.280 C 
ATOM     12  O   LIG    1       32.719 -17.285  10.697  0.00  0.00    -0.468 OA
ENDBRANCH   9  12
ENDBRANCH   8   9
ENDBRANCH   1   8
TORSDOF 6
ENDMDL
