MODEL 1
REMARK VINA RESULT:      13.7      0.000      0.000
REMARK  Name = *****
REMARK                            x       y       z     vdW  Elec       q    Type
REMARK                         _______ _______ _______ _____ _____    ______ ____
ROOT
ATOM      1  C   LIG    1       22.337 -18.954   4.283  0.00  0.00    +0.021 C 
ATOM      2  C   LIG    1       21.092 -19.437   5.097  0.00  0.00    +0.016 C 
ATOM      3  C   LIG    1       19.755 -18.970   4.534  0.00  0.00    +0.001 C 
ATOM      4  C   LIG    1       19.553 -19.413   3.092  0.00  0.00    +0.000 C 
ATOM      5  C   LIG    1       20.718 -19.000   2.215  0.00  0.00    +0.001 C 
ATOM      6  C   LIG    1       22.061 -19.448   2.806  0.00  0.00    +0.016 C 
ENDROOT
BRANCH   1  10
ATOM      7  C   LIG    1       22.957 -14.593   4.633  0.00  0.00    +0.122 A 
ATOM      8  C   LIG    1       22.218 -15.282   5.575  0.00  0.00    +0.046 A 
ATOM      9  C   LIG    1       21.979 -16.662   5.411  0.00  0.00    +0.008 A 
ATOM     10  C   LIG    1       22.567 -17.417   4.377  0.00  0.00    -0.037 A 
ATOM     11  C   LIG    1       23.418 -16.710   3.517  0.00  0.00    +0.008 A 
ATOM     12  C   LIG    1       23.572 -15.322   3.614  0.00  0.00    +0.046 A 
BRANCH   7  13
ATOM     13  O   LIG    1       23.193 -13.262   4.573  0.00  0.00    -0.475 OA
BRANCH  13  14
ATOM     14  C   LIG    1       24.468 -12.635   4.675  0.00  0.00    +0.203 C 
ATOM     15  C   LIG    1       24.188 -11.533   5.725  0.00  0.00    +0.068 C 
BRANCH  14  17
ATOM     16  C   LIG    1       26.157 -12.357   2.690  0.00  0.00    +0.008 C 
ATOM     17  C   LIG    1       24.853 -11.917   3.347  0.00  0.00    +0.056 C 
ENDBRANCH  14  17
BRANCH  14  18
ATOM     18  C   LIG    1       25.725 -13.381   5.210  0.00  0.00    +0.349 C 
ATOM     19  O   LIG    1       26.179 -14.436   4.724  0.00  0.00    -0.246 OA
BRANCH  18  20
ATOM     20  O   LIG    1       26.386 -12.776   6.224  0.00  0.00    -0.478 OA
ATOM     21  H   LIG    1       27.243 -13.203   6.483  0.00  0.00    +0.295 HD
ENDBRANCH  18  20
ENDBRANCH  14  18
ENDBRANCH  13  14
ENDBRANCH   7  13
ENDBRANCH   1  10
BRANCH   1  22
ATOM     22  C   LIG    1       23.593 -19.676   4.853  0.00  0.00    -0.037 A 
ATOM     23  C   LIG    1       24.718 -20.032   4.072  0.00  0.00    +0.008 A 
ATOM     24  C   LIG    1       25.853 -20.639   4.637  0.00  0.00    +0.046 A 
ATOM     25  C   LIG    1       25.883 -20.909   6.000  0.00  0.00    +0.122 A 
ATOM     26  C   LIG    1       24.762 -20.591   6.755  0.00  0.00    +0.046 A 
ATOM     27  C   LIG    1       23.626 -20.030   6.196  0.00  0.00    +0.008 A 
BRANCH  25  28
ATOM     28  O   LIG    1       27.024 -21.456   6.522  0.00  0.00    -0.475 OA
BRANCH  28  29
ATOM     29  C   LIG    1       28.271 -20.773   6.290  0.00  0.00    +0.203 C 
ATOM     30  C   LIG    1       29.446 -21.563   6.909  0.00  0.00    +0.068 C 
BRANCH  29  31
ATOM     31  C   LIG    1       28.349 -19.280   6.777  0.00  0.00    +0.349 C 
ATOM     32  O   LIG    1       29.363 -18.703   7.059  0.00  0.00    -0.246 OA
BRANCH  31  33
ATOM     33  O   LIG    1       27.132 -18.678   6.918  0.00  0.00    -0.478 OA
ATOM     34  H   LIG    1       26.608 -18.976   7.676  0.00  0.00    +0.295 HD
ENDBRANCH  31  33
ENDBRANCH  29  31
BRANCH  29  35
ATOM     35  C   LIG    1       28.449 -20.722   4.747  0.00  0.00    +0.056 C 
ATOM     36  C   LIG    1       28.239 -19.356   4.110  0.00  0.00    +0.008 C 
ENDBRANCH  29  35
ENDBRANCH  28  29
ENDBRANCH  25  28
ENDBRANCH   1  22
TORSDOF 12
ENDMDL
MODEL 2
REMARK VINA RESULT:      14.9      2.486      6.029
REMARK  Name = *****
REMARK                            x       y       z     vdW  Elec       q    Type
REMARK                         _______ _______ _______ _____ _____    ______ ____
ROOT
ATOM      1  C   LIG    1       26.749 -19.721   5.304  0.00  0.00    +0.021 C 
ATOM      2  C   LIG    1       27.591 -20.844   4.617  0.00  0.00    +0.016 C 
ATOM      3  C   LIG    1       29.096 -20.715   4.823  0.00  0.00    +0.001 C 
ATOM      4  C   LIG    1       29.474 -20.702   6.297  0.00  0.00    +0.000 C 
ATOM      5  C   LIG    1       28.700 -19.647   7.061  0.00  0.00    +0.001 C 
ATOM      6  C   LIG    1       27.189 -19.767   6.822  0.00  0.00    +0.016 C 
ENDROOT
BRANCH   1  10
ATOM      7  C   LIG    1       27.248 -15.750   3.431  0.00  0.00    +0.122 A 
ATOM      8  C   LIG    1       26.115 -16.506   3.200  0.00  0.00    +0.046 A 
ATOM      9  C   LIG    1       26.003 -17.797   3.756  0.00  0.00    +0.008 A 
ATOM     10  C   LIG    1       26.954 -18.322   4.653  0.00  0.00    -0.037 A 
ATOM     11  C   LIG    1       28.025 -17.474   4.968  0.00  0.00    +0.008 A 
ATOM     12  C   LIG    1       28.193 -16.236   4.336  0.00  0.00    +0.046 A 
BRANCH   7  13
ATOM     13  O   LIG    1       27.570 -14.550   2.896  0.00  0.00    -0.475 OA
BRANCH  13  14
ATOM     14  C   LIG    1       27.112 -13.282   3.357  0.00  0.00    +0.203 C 
ATOM     15  C   LIG    1       26.171 -12.854   2.205  0.00  0.00    +0.068 C 
BRANCH  14  17
ATOM     16  C   LIG    1       29.036 -12.143   4.726  0.00  0.00    +0.008 C 
ATOM     17  C   LIG    1       28.275 -12.246   3.408  0.00  0.00    +0.056 C 
ENDBRANCH  14  17
BRANCH  14  18
ATOM     18  C   LIG    1       26.257 -13.121   4.647  0.00  0.00    +0.349 C 
ATOM     19  O   LIG    1       25.086 -12.689   4.668  0.00  0.00    -0.246 OA
BRANCH  18  20
ATOM     20  O   LIG    1       26.827 -13.555   5.794  0.00  0.00    -0.478 OA
ATOM     21  H   LIG    1       26.881 -14.540   5.892  0.00  0.00    +0.295 HD
ENDBRANCH  18  20
ENDBRANCH  14  18
ENDBRANCH  13  14
ENDBRANCH   7  13
ENDBRANCH   1  10
BRANCH   1  22
ATOM     22  C   LIG    1       25.246 -20.105   5.181  0.00  0.00    -0.037 A 
ATOM     23  C   LIG    1       24.267 -19.776   6.149  0.00  0.00    +0.008 A 
ATOM     24  C   LIG    1       22.911 -20.099   5.974  0.00  0.00    +0.046 A 
ATOM     25  C   LIG    1       22.504 -20.767   4.826  0.00  0.00    +0.122 A 
ATOM     26  C   LIG    1       23.472 -21.121   3.896  0.00  0.00    +0.046 A 
ATOM     27  C   LIG    1       24.816 -20.840   4.083  0.00  0.00    +0.008 A 
BRANCH  25  28
ATOM     28  O   LIG    1       21.168 -21.022   4.669  0.00  0.00    -0.475 OA
BRANCH  28  29
ATOM     29  C   LIG    1       20.443 -20.262   3.683  0.00  0.00    +0.203 C 
ATOM     30  C   LIG    1       19.713 -21.204   2.701  0.00  0.00    +0.068 C 
BRANCH  29  31
ATOM     31  C   LIG    1       21.277 -19.214   2.860  0.00  0.00    +0.349 C 
ATOM     32  O   LIG    1       22.457 -19.288   2.652  0.00  0.00    -0.246 OA
BRANCH  31  33
ATOM     33  O   LIG    1       20.550 -18.143   2.428  0.00  0.00    -0.478 OA
ATOM     34  H   LIG    1       20.189 -18.222   1.533  0.00  0.00    +0.295 HD
ENDBRANCH  31  33
ENDBRANCH  29  31
BRANCH  29  35
ATOM     35  C   LIG    1       19.390 -19.435   4.473  0.00  0.00    +0.056 C 
ATOM     36  C   LIG    1       19.351 -17.948   4.150  0.00  0.00    +0.008 C 
ENDBRANCH  29  35
ENDBRANCH  28  29
ENDBRANCH  25  28
ENDBRANCH   1  22
TORSDOF 12
ENDMDL
MODEL 3
REMARK VINA RESULT:      16.1      2.522      6.006
REMARK  Name = *****
REMARK                            x       y       z     vdW  Elec       q    Type
REMARK                         _______ _______ _______ _____ _____    ______ ____
ROOT
ATOM      1  C   LIG    1       26.988 -19.508   4.899  0.00  0.00    +0.021 C 
ATOM      2  C   LIG    1       28.036 -20.495   4.288  0.00  0.00    +0.016 C 
ATOM      3  C   LIG    1       29.441 -20.349   4.860  0.00  0.00    +0.001 C 
ATOM      4  C   LIG    1       29.469 -20.537   6.370  0.00  0.00    +0.000 C 
ATOM      5  C   LIG    1       28.474 -19.627   7.062  0.00  0.00    +0.001 C 
ATOM      6  C   LIG    1       27.069 -19.759   6.458  0.00  0.00    +0.016 C 
ENDROOT
BRANCH   1  10
ATOM      7  C   LIG    1       27.807 -15.303   3.817  0.00  0.00    +0.122 A 
ATOM      8  C   LIG    1       28.682 -16.013   4.617  0.00  0.00    +0.046 A 
ATOM      9  C   LIG    1       28.371 -17.334   5.003  0.00  0.00    +0.008 A 
ATOM     10  C   LIG    1       27.248 -18.025   4.506  0.00  0.00    -0.037 A 
ATOM     11  C   LIG    1       26.454 -17.318   3.592  0.00  0.00    +0.008 A 
ATOM     12  C   LIG    1       26.701 -15.973   3.291  0.00  0.00    +0.046 A 
BRANCH   7  13
ATOM     13  O   LIG    1       27.890 -14.006   3.442  0.00  0.00    -0.475 OA
BRANCH  13  14
ATOM     14  C   LIG    1       26.927 -12.994   3.719  0.00  0.00    +0.203 C 
ATOM     15  C   LIG    1       26.855 -12.253   2.362  0.00  0.00    +0.068 C 
BRANCH  14  17
ATOM     16  C   LIG    1       28.944 -12.087   5.129  0.00  0.00    +0.008 C 
ATOM     17  C   LIG    1       27.465 -11.975   4.770  0.00  0.00    +0.056 C 
ENDBRANCH  14  17
BRANCH  14  18
ATOM     18  C   LIG    1       25.448 -13.322   4.070  0.00  0.00    +0.349 C 
ATOM     19  O   LIG    1       24.487 -13.175   3.287  0.00  0.00    -0.246 OA
BRANCH  18  20
ATOM     20  O   LIG    1       25.235 -13.870   5.289  0.00  0.00    -0.478 OA
ATOM     21  H   LIG    1       24.312 -13.774   5.639  0.00  0.00    +0.295 HD
ENDBRANCH  18  20
ENDBRANCH  14  18
ENDBRANCH  13  14
ENDBRANCH   7  13
ENDBRANCH   1  10
BRANCH   1  22
ATOM     22  C   LIG    1       25.581 -19.917   4.373  0.00  0.00    -0.037 A 
ATOM     23  C   LIG    1       25.110 -21.252   4.341  0.00  0.00    +0.008 A 
ATOM     24  C   LIG    1       23.813 -21.571   3.905  0.00  0.00    +0.046 A 
ATOM     25  C   LIG    1       22.959 -20.560   3.483  0.00  0.00    +0.122 A 
ATOM     26  C   LIG    1       23.438 -19.257   3.482  0.00  0.00    +0.046 A 
ATOM     27  C   LIG    1       24.729 -18.941   3.873  0.00  0.00    +0.008 A 
BRANCH  25  28
ATOM     28  O   LIG    1       21.688 -20.905   3.111  0.00  0.00    -0.475 OA
BRANCH  28  29
ATOM     29  C   LIG    1       20.593 -20.126   3.631  0.00  0.00    +0.203 C 
ATOM     30  C   LIG    1       19.350 -20.263   2.724  0.00  0.00    +0.068 C 
BRANCH  29  31
ATOM     31  C   LIG    1       20.879 -18.600   3.876  0.00  0.00    +0.349 C 
ATOM     32  O   LIG    1       20.902 -17.761   3.018  0.00  0.00    -0.246 OA
BRANCH  31  33
ATOM     33  O   LIG    1       21.165 -18.290   5.174  0.00  0.00    -0.478 OA
ATOM     34  H   LIG    1       20.422 -18.369   5.792  0.00  0.00    +0.295 HD
ENDBRANCH  31  33
ENDBRANCH  29  31
BRANCH  29  35
ATOM     35  C   LIG    1       20.271 -20.724   5.030  0.00  0.00    +0.056 C 
ATOM     36  C   LIG    1       21.386 -21.546   5.661  0.00  0.00    +0.008 C 
ENDBRANCH  29  35
ENDBRANCH  28  29
ENDBRANCH  25  28
ENDBRANCH   1  22
TORSDOF 12
ENDMDL
MODEL 4
REMARK VINA RESULT:      16.4      2.335      7.616
REMARK  Name = *****
REMARK                            x       y       z     vdW  Elec       q    Type
REMARK                         _______ _______ _______ _____ _____    ______ ____
ROOT
ATOM      1  C   LIG    1       27.560 -18.974   4.884  0.00  0.00    +0.021 C 
ATOM      2  C   LIG    1       27.998 -18.830   6.378  0.00  0.00    +0.016 C 
ATOM      3  C   LIG    1       28.336 -20.149   7.062  0.00  0.00    +0.001 C 
ATOM      4  C   LIG    1       29.441 -20.905   6.337  0.00  0.00    +0.000 C 
ATOM      5  C   LIG    1       29.116 -21.089   4.868  0.00  0.00    +0.001 C 
ATOM      6  C   LIG    1       28.748 -19.760   4.197  0.00  0.00    +0.016 C 
ENDROOT
BRANCH   1  10
ATOM      7  C   LIG    1       23.674 -21.002   4.330  0.00  0.00    +0.122 A 
ATOM      8  C   LIG    1       24.470 -20.686   3.245  0.00  0.00    +0.046 A 
ATOM      9  C   LIG    1       25.677 -19.982   3.439  0.00  0.00    +0.008 A 
ATOM     10  C   LIG    1       26.184 -19.682   4.719  0.00  0.00    -0.037 A 
ATOM     11  C   LIG    1       25.414 -20.135   5.799  0.00  0.00    +0.008 A 
ATOM     12  C   LIG    1       24.166 -20.739   5.609  0.00  0.00    +0.046 A 
BRANCH   7  13
ATOM     13  O   LIG    1       22.447 -21.571   4.321  0.00  0.00    -0.475 OA
BRANCH  13  14
ATOM     14  C   LIG    1       21.206 -20.882   4.443  0.00  0.00    +0.203 C 
ATOM     15  C   LIG    1       20.631 -21.505   5.738  0.00  0.00    +0.068 C 
BRANCH  14  17
ATOM     16  C   LIG    1       19.486 -20.104   2.623  0.00  0.00    +0.008 C 
ATOM     17  C   LIG    1       20.235 -21.257   3.283  0.00  0.00    +0.056 C 
ENDBRANCH  14  17
BRANCH  14  18
ATOM     18  C   LIG    1       21.123 -19.346   4.672  0.00  0.00    +0.349 C 
ATOM     19  O   LIG    1       21.907 -18.696   5.393  0.00  0.00    -0.246 OA
BRANCH  18  20
ATOM     20  O   LIG    1       20.168 -18.692   3.971  0.00  0.00    -0.478 OA
ATOM     21  H   LIG    1       19.354 -19.223   3.771  0.00  0.00    +0.295 HD
ENDBRANCH  18  20
ENDBRANCH  14  18
ENDBRANCH  13  14
ENDBRANCH   7  13
ENDBRANCH   1  10
BRANCH   1  22
ATOM     22  C   LIG    1       27.454 -17.545   4.276  0.00  0.00    -0.037 A 
ATOM     23  C   LIG    1       26.476 -17.164   3.326  0.00  0.00    +0.008 A 
ATOM     24  C   LIG    1       26.385 -15.848   2.840  0.00  0.00    +0.046 A 
ATOM     25  C   LIG    1       27.279 -14.884   3.289  0.00  0.00    +0.122 A 
ATOM     26  C   LIG    1       28.260 -15.271   4.192  0.00  0.00    +0.046 A 
ATOM     27  C   LIG    1       28.379 -16.575   4.644  0.00  0.00    +0.008 A 
BRANCH  25  28
ATOM     28  O   LIG    1       27.129 -13.604   2.829  0.00  0.00    -0.475 OA
BRANCH  28  29
ATOM     29  C   LIG    1       26.340 -12.689   3.614  0.00  0.00    +0.203 C 
ATOM     30  C   LIG    1       27.253 -11.775   4.463  0.00  0.00    +0.068 C 
BRANCH  29  31
ATOM     31  C   LIG    1       25.252 -13.332   4.549  0.00  0.00    +0.349 C 
ATOM     32  O   LIG    1       25.467 -13.786   5.639  0.00  0.00    -0.246 OA
BRANCH  31  33
ATOM     33  O   LIG    1       24.008 -13.391   3.992  0.00  0.00    -0.478 OA
ATOM     34  H   LIG    1       23.385 -13.989   4.433  0.00  0.00    +0.295 HD
ENDBRANCH  31  33
ENDBRANCH  29  31
BRANCH  29  35
ATOM     35  C   LIG    1       25.557 -11.818   2.592  0.00  0.00    +0.056 C 
ATOM     36  C   LIG    1       24.188 -12.351   2.194  0.00  0.00    +0.008 C 
ENDBRANCH  29  35
ENDBRANCH  28  29
ENDBRANCH  25  28
ENDBRANCH   1  22
TORSDOF 12
ENDMDL
