MODEL 1
REMARK VINA RESULT:      -8.4      0.000      0.000
REMARK  Name = *****
REMARK                            x       y       z     vdW  Elec       q    Type
REMARK                         _______ _______ _______ _____ _____    ______ ____
ROOT
ATOM      1  C   LIG    1       24.914 -25.838   5.158  0.00  0.00    -0.025 A 
ATOM      2  C   LIG    1       25.894 -26.690   4.643  0.00  0.00    +0.008 A 
ATOM      3  C   LIG    1       25.967 -28.020   5.072  0.00  0.00    +0.008 A 
ATOM      4  C   LIG    1       25.075 -28.506   6.032  0.00  0.00    -0.025 A 
ATOM      5  C   LIG    1       24.123 -27.639   6.582  0.00  0.00    +0.008 A 
ATOM      6  C   LIG    1       24.039 -26.311   6.142  0.00  0.00    +0.008 A 
ENDROOT
BRANCH   1  14
ATOM      7  C   LIG    1       22.887 -22.454   7.143  0.00  0.00    +0.012 C 
ATOM      8  C   LIG    1       24.373 -22.037   7.241  0.00  0.00    -0.014 C 
ATOM      9  C   LIG    1       24.615 -21.624   8.710  0.00  0.00    +0.012 C 
ATOM     10  C   LIG    1       24.867 -21.054   6.096  0.00  0.00    +0.061 C 
ATOM     11  C   LIG    1       24.759 -21.991   4.892  0.00  0.00    +0.168 C 
ATOM     12  O   LIG    1       24.642 -21.686   3.719  0.00  0.00    -0.292 OA
ATOM     13  C   LIG    1       24.986 -23.383   5.387  0.00  0.00    -0.000 C 
ATOM     14  C   LIG    1       24.778 -24.475   4.648  0.00  0.00    +0.015 C 
ATOM     15  C   LIG    1       26.397 -21.000   6.343  0.00  0.00    +0.018 C 
ATOM     16  C   LIG    1       26.732 -22.434   6.834  0.00  0.00    +0.010 C 
ATOM     17  C   LIG    1       25.365 -23.164   6.828  0.00  0.00    +0.029 C 
BRANCH  10  18
ATOM     18  C   LIG    1       24.128 -19.730   5.952  0.00  0.00    +0.213 C 
BRANCH  18  19
ATOM     19  S   LIG    1       22.877 -19.602   4.651  0.00  0.00    +0.081 S 
ATOM     20  O   LIG    1       21.915 -20.664   4.777  0.00  0.00    -0.147 OA
ATOM     21  O   LIG    1       23.562 -19.343   3.398  0.00  0.00    -0.147 OA
BRANCH  19  22
ATOM     22  O   LIG    1       22.138 -18.230   5.053  0.00  0.00    -0.254 OA
ATOM     23  H   LIG    1       21.225 -18.212   4.663  0.00  0.00    +0.244 HD
ENDBRANCH  19  22
ENDBRANCH  18  19
ENDBRANCH  10  18
ENDBRANCH   1  14
BRANCH   4  24
ATOM     24  C   LIG    1       25.104 -29.924   6.400  0.00  0.00    +0.015 C 
ATOM     25  C   LIG    1       25.513 -30.426   7.571  0.00  0.00    -0.000 C 
ATOM     26  C   LIG    1       25.475 -31.867   8.033  0.00  0.00    +0.029 C 
ATOM     27  C   LIG    1       24.869 -31.720   9.456  0.00  0.00    -0.014 C 
ATOM     28  C   LIG    1       26.010 -30.742   9.936  0.00  0.00    +0.061 C 
ATOM     29  C   LIG    1       27.290 -31.564   9.641  0.00  0.00    +0.018 C 
ATOM     30  C   LIG    1       23.443 -31.126   9.466  0.00  0.00    +0.012 C 
ATOM     31  C   LIG    1       24.777 -33.088  10.171  0.00  0.00    +0.012 C 
ATOM     32  C   LIG    1       26.930 -32.311   8.328  0.00  0.00    +0.010 C 
ATOM     33  C   LIG    1       25.987 -29.715   8.801  0.00  0.00    +0.168 C 
ATOM     34  O   LIG    1       26.387 -28.570   8.839  0.00  0.00    -0.292 OA
BRANCH  28  35
ATOM     35  C   LIG    1       25.857 -30.148  11.325  0.00  0.00    +0.213 C 
BRANCH  35  36
ATOM     36  S   LIG    1       27.354 -29.408  12.005  0.00  0.00    +0.081 S 
ATOM     37  O   LIG    1       28.533 -29.725  11.221  0.00  0.00    -0.147 OA
ATOM     38  O   LIG    1       27.333 -29.454  13.440  0.00  0.00    -0.147 OA
BRANCH  36  39
ATOM     39  O   LIG    1       27.040 -27.881  11.580  0.00  0.00    -0.254 OA
ATOM     40  H   LIG    1       27.361 -27.775  10.659  0.00  0.00    +0.244 HD
ENDBRANCH  36  39
ENDBRANCH  35  36
ENDBRANCH  28  35
ENDBRANCH   4  24
TORSDOF 8
ENDMDL
MODEL 2
REMARK VINA RESULT:      -7.5      2.558      3.165
REMARK  Name = *****
REMARK                            x       y       z     vdW  Elec       q    Type
REMARK                         _______ _______ _______ _____ _____    ______ ____
ROOT
ATOM      1  C   LIG    1       25.072 -26.854   6.274  0.00  0.00    -0.025 A 
ATOM      2  C   LIG    1       26.050 -26.811   7.271  0.00  0.00    +0.008 A 
ATOM      3  C   LIG    1       26.265 -27.920   8.096  0.00  0.00    +0.008 A 
ATOM      4  C   LIG    1       25.494 -29.077   7.945  0.00  0.00    -0.025 A 
ATOM      5  C   LIG    1       24.483 -29.103   6.977  0.00  0.00    +0.008 A 
ATOM      6  C   LIG    1       24.278 -27.998   6.141  0.00  0.00    +0.008 A 
ENDROOT
BRANCH   1  14
ATOM      7  C   LIG    1       22.432 -23.356   6.813  0.00  0.00    +0.012 C 
ATOM      8  C   LIG    1       23.835 -22.726   6.983  0.00  0.00    -0.014 C 
ATOM      9  C   LIG    1       23.778 -21.875   8.271  0.00  0.00    +0.012 C 
ATOM     10  C   LIG    1       24.430 -22.059   5.671  0.00  0.00    +0.061 C 
ATOM     11  C   LIG    1       24.620 -23.312   4.813  0.00  0.00    +0.168 C 
ATOM     12  O   LIG    1       24.681 -23.380   3.599  0.00  0.00    -0.292 OA
ATOM     13  C   LIG    1       24.881 -24.454   5.741  0.00  0.00    -0.000 C 
ATOM     14  C   LIG    1       24.905 -25.732   5.354  0.00  0.00    +0.015 C 
ATOM     15  C   LIG    1       25.882 -21.724   6.099  0.00  0.00    +0.018 C 
ATOM     16  C   LIG    1       26.255 -22.892   7.052  0.00  0.00    +0.010 C 
ATOM     17  C   LIG    1       24.981 -23.775   7.082  0.00  0.00    +0.029 C 
BRANCH  10  18
ATOM     18  C   LIG    1       23.611 -20.950   5.022  0.00  0.00    +0.213 C 
BRANCH  18  19
ATOM     19  S   LIG    1       24.456 -19.848   3.863  0.00  0.00    +0.081 S 
ATOM     20  O   LIG    1       25.828 -19.668   4.254  0.00  0.00    -0.147 OA
ATOM     21  O   LIG    1       23.585 -18.716   3.608  0.00  0.00    -0.147 OA
BRANCH  19  22
ATOM     22  O   LIG    1       24.450 -20.734   2.519  0.00  0.00    -0.254 OA
ATOM     23  H   LIG    1       23.536 -20.755   2.132  0.00  0.00    +0.244 HD
ENDBRANCH  19  22
ENDBRANCH  18  19
ENDBRANCH  10  18
ENDBRANCH   1  14
BRANCH   4  24
ATOM     24  C   LIG    1       25.795 -30.262   8.752  0.00  0.00    +0.015 C 
ATOM     25  C   LIG    1       25.096 -30.697   9.806  0.00  0.00    -0.000 C 
ATOM     26  C   LIG    1       25.309 -31.960  10.611  0.00  0.00    +0.029 C 
ATOM     27  C   LIG    1       23.863 -32.523  10.695  0.00  0.00    -0.014 C 
ATOM     28  C   LIG    1       23.299 -31.213  11.370  0.00  0.00    +0.061 C 
ATOM     29  C   LIG    1       24.221 -31.061  12.606  0.00  0.00    +0.018 C 
ATOM     30  C   LIG    1       23.251 -32.871   9.319  0.00  0.00    +0.012 C 
ATOM     31  C   LIG    1       23.812 -33.819  11.537  0.00  0.00    +0.012 C 
ATOM     32  C   LIG    1       25.597 -31.548  12.077  0.00  0.00    +0.010 C 
ATOM     33  C   LIG    1       23.834 -30.154  10.404  0.00  0.00    +0.168 C 
ATOM     34  O   LIG    1       23.403 -29.033  10.232  0.00  0.00    -0.292 OA
BRANCH  28  35
ATOM     35  C   LIG    1       21.798 -31.156  11.598  0.00  0.00    +0.213 C 
BRANCH  35  36
ATOM     36  S   LIG    1       21.294 -30.406  13.157  0.00  0.00    +0.081 S 
ATOM     37  O   LIG    1       21.835 -29.072  13.330  0.00  0.00    -0.147 OA
ATOM     38  O   LIG    1       21.278 -31.386  14.207  0.00  0.00    -0.147 OA
BRANCH  36  39
ATOM     39  O   LIG    1       19.754 -30.120  12.759  0.00  0.00    -0.254 OA
ATOM     40  H   LIG    1       19.253 -30.936  12.975  0.00  0.00    +0.244 HD
ENDBRANCH  36  39
ENDBRANCH  35  36
ENDBRANCH  28  35
ENDBRANCH   4  24
TORSDOF 8
ENDMDL
MODEL 3
REMARK VINA RESULT:      -7.1      2.051      3.028
REMARK  Name = *****
REMARK                            x       y       z     vdW  Elec       q    Type
REMARK                         _______ _______ _______ _____ _____    ______ ____
ROOT
ATOM      1  C   LIG    1       25.271 -26.752   6.423  0.00  0.00    -0.025 A 
ATOM      2  C   LIG    1       24.359 -27.801   6.564  0.00  0.00    +0.008 A 
ATOM      3  C   LIG    1       24.557 -28.781   7.543  0.00  0.00    +0.008 A 
ATOM      4  C   LIG    1       25.677 -28.733   8.378  0.00  0.00    -0.025 A 
ATOM      5  C   LIG    1       26.615 -27.708   8.206  0.00  0.00    +0.008 A 
ATOM      6  C   LIG    1       26.409 -26.718   7.236  0.00  0.00    +0.008 A 
ENDROOT
BRANCH   1  14
ATOM      7  C   LIG    1       22.485 -23.360   6.900  0.00  0.00    +0.012 C 
ATOM      8  C   LIG    1       23.861 -22.659   6.996  0.00  0.00    -0.014 C 
ATOM      9  C   LIG    1       23.803 -21.755   8.248  0.00  0.00    +0.012 C 
ATOM     10  C   LIG    1       24.383 -22.023   5.638  0.00  0.00    +0.061 C 
ATOM     11  C   LIG    1       24.605 -23.302   4.829  0.00  0.00    +0.168 C 
ATOM     12  O   LIG    1       24.632 -23.421   3.617  0.00  0.00    -0.292 OA
ATOM     13  C   LIG    1       24.950 -24.389   5.795  0.00  0.00    -0.000 C 
ATOM     14  C   LIG    1       25.022 -25.680   5.463  0.00  0.00    +0.015 C 
ATOM     15  C   LIG    1       25.830 -21.603   6.004  0.00  0.00    +0.018 C 
ATOM     16  C   LIG    1       26.287 -22.709   6.992  0.00  0.00    +0.010 C 
ATOM     17  C   LIG    1       25.059 -23.648   7.102  0.00  0.00    +0.029 C 
BRANCH  10  18
ATOM     18  C   LIG    1       23.492 -20.983   4.971  0.00  0.00    +0.213 C 
BRANCH  18  19
ATOM     19  S   LIG    1       24.261 -19.853   3.786  0.00  0.00    +0.081 S 
ATOM     20  O   LIG    1       25.631 -19.603   4.150  0.00  0.00    -0.147 OA
ATOM     21  O   LIG    1       23.332 -18.765   3.540  0.00  0.00    -0.147 OA
BRANCH  19  22
ATOM     22  O   LIG    1       24.272 -20.749   2.450  0.00  0.00    -0.254 OA
ATOM     23  H   LIG    1       24.194 -20.166   1.651  0.00  0.00    +0.244 HD
ENDBRANCH  19  22
ENDBRANCH  18  19
ENDBRANCH  10  18
ENDBRANCH   1  14
BRANCH   4  24
ATOM     24  C   LIG    1       25.820 -29.711   9.460  0.00  0.00    +0.015 C 
ATOM     25  C   LIG    1       26.025 -29.433  10.752  0.00  0.00    -0.000 C 
ATOM     26  C   LIG    1       26.087 -30.399  11.916  0.00  0.00    +0.029 C 
ATOM     27  C   LIG    1       25.165 -29.695  12.952  0.00  0.00    -0.014 C 
ATOM     28  C   LIG    1       26.024 -28.372  12.947  0.00  0.00    +0.061 C 
ATOM     29  C   LIG    1       27.439 -28.900  13.293  0.00  0.00    +0.018 C 
ATOM     30  C   LIG    1       23.704 -29.536  12.475  0.00  0.00    +0.012 C 
ATOM     31  C   LIG    1       25.108 -30.485  14.280  0.00  0.00    +0.012 C 
ATOM     32  C   LIG    1       27.487 -30.272  12.568  0.00  0.00    +0.010 C 
ATOM     33  C   LIG    1       26.111 -28.106  11.442  0.00  0.00    +0.168 C 
ATOM     34  O   LIG    1       26.329 -27.045  10.895  0.00  0.00    -0.292 OA
BRANCH  28  35
ATOM     35  C   LIG    1       25.485 -27.208  13.761  0.00  0.00    +0.213 C 
BRANCH  35  36
ATOM     36  S   LIG    1       26.734 -26.042  14.338  0.00  0.00    +0.081 S 
ATOM     37  O   LIG    1       27.328 -25.285  13.253  0.00  0.00    -0.147 OA
ATOM     38  O   LIG    1       27.503 -26.615  15.406  0.00  0.00    -0.147 OA
BRANCH  36  39
ATOM     39  O   LIG    1       25.723 -24.975  15.009  0.00  0.00    -0.254 OA
ATOM     40  H   LIG    1       26.244 -24.159  15.170  0.00  0.00    +0.244 HD
ENDBRANCH  36  39
ENDBRANCH  35  36
ENDBRANCH  28  35
ENDBRANCH   4  24
TORSDOF 8
ENDMDL
MODEL 4
REMARK VINA RESULT:      -7.0      1.354      2.302
REMARK  Name = *****
REMARK                            x       y       z     vdW  Elec       q    Type
REMARK                         _______ _______ _______ _____ _____    ______ ____
ROOT
ATOM      1  C   LIG    1       25.664 -25.059   6.244  0.00  0.00    -0.025 A 
ATOM      2  C   LIG    1       24.355 -25.505   6.443  0.00  0.00    +0.008 A 
ATOM      3  C   LIG    1       24.085 -26.874   6.540  0.00  0.00    +0.008 A 
ATOM      4  C   LIG    1       25.116 -27.811   6.420  0.00  0.00    -0.025 A 
ATOM      5  C   LIG    1       26.419 -27.365   6.173  0.00  0.00    +0.008 A 
ATOM      6  C   LIG    1       26.693 -25.994   6.092  0.00  0.00    +0.008 A 
ENDROOT
BRANCH   1  14
ATOM      7  C   LIG    1       23.806 -21.985   3.675  0.00  0.00    +0.012 C 
ATOM      8  C   LIG    1       23.228 -21.630   5.065  0.00  0.00    -0.014 C 
ATOM      9  C   LIG    1       21.703 -21.467   4.875  0.00  0.00    +0.012 C 
ATOM     10  C   LIG    1       24.011 -20.489   5.843  0.00  0.00    +0.061 C 
ATOM     11  C   LIG    1       25.333 -21.217   6.097  0.00  0.00    +0.168 C 
ATOM     12  O   LIG    1       26.426 -20.723   6.309  0.00  0.00    -0.292 OA
ATOM     13  C   LIG    1       25.027 -22.676   6.201  0.00  0.00    -0.000 C 
ATOM     14  C   LIG    1       25.962 -23.628   6.231  0.00  0.00    +0.015 C 
ATOM     15  C   LIG    1       23.339 -20.519   7.240  0.00  0.00    +0.018 C 
ATOM     16  C   LIG    1       23.013 -22.022   7.450  0.00  0.00    +0.010 C 
ATOM     17  C   LIG    1       23.522 -22.703   6.155  0.00  0.00    +0.029 C 
BRANCH  10  18
ATOM     18  C   LIG    1       24.140 -19.139   5.150  0.00  0.00    +0.213 C 
BRANCH  18  19
ATOM     19  S   LIG    1       25.022 -19.085   3.571  0.00  0.00    +0.081 S 
ATOM     20  O   LIG    1       25.587 -17.779   3.358  0.00  0.00    -0.147 OA
ATOM     21  O   LIG    1       24.184 -19.720   2.570  0.00  0.00    -0.147 OA
BRANCH  19  22
ATOM     22  O   LIG    1       26.240 -20.098   3.850  0.00  0.00    -0.254 OA
ATOM     23  H   LIG    1       26.910 -19.666   4.442  0.00  0.00    +0.244 HD
ENDBRANCH  19  22
ENDBRANCH  18  19
ENDBRANCH  10  18
ENDBRANCH   1  14
BRANCH   4  24
ATOM     24  C   LIG    1       24.831 -29.235   6.618  0.00  0.00    +0.015 C 
ATOM     25  C   LIG    1       25.178 -29.968   7.682  0.00  0.00    -0.000 C 
ATOM     26  C   LIG    1       24.829 -31.411   7.976  0.00  0.00    +0.029 C 
ATOM     27  C   LIG    1       24.358 -31.321   9.454  0.00  0.00    -0.014 C 
ATOM     28  C   LIG    1       25.723 -30.699   9.943  0.00  0.00    +0.061 C 
ATOM     29  C   LIG    1       26.754 -31.742   9.444  0.00  0.00    +0.018 C 
ATOM     30  C   LIG    1       23.115 -30.426   9.657  0.00  0.00    +0.012 C 
ATOM     31  C   LIG    1       23.988 -32.716  10.011  0.00  0.00    +0.012 C 
ATOM     32  C   LIG    1       26.154 -32.208   8.090  0.00  0.00    +0.010 C 
ATOM     33  C   LIG    1       25.876 -29.552   8.941  0.00  0.00    +0.168 C 
ATOM     34  O   LIG    1       26.537 -28.543   9.076  0.00  0.00    -0.292 OA
BRANCH  28  35
ATOM     35  C   LIG    1       25.795 -30.275  11.399  0.00  0.00    +0.213 C 
BRANCH  35  36
ATOM     36  S   LIG    1       27.373 -29.566  11.908  0.00  0.00    +0.081 S 
ATOM     37  O   LIG    1       27.251 -28.181  12.320  0.00  0.00    -0.147 OA
ATOM     38  O   LIG    1       28.434 -30.041  11.065  0.00  0.00    -0.147 OA
BRANCH  36  39
ATOM     39  O   LIG    1       27.507 -30.350  13.315  0.00  0.00    -0.254 OA
ATOM     40  H   LIG    1       26.664 -30.836  13.446  0.00  0.00    +0.244 HD
ENDBRANCH  36  39
ENDBRANCH  35  36
ENDBRANCH  28  35
ENDBRANCH   4  24
TORSDOF 8
ENDMDL
MODEL 5
REMARK VINA RESULT:      -6.6      2.703      9.944
REMARK  Name = *****
REMARK                            x       y       z     vdW  Elec       q    Type
REMARK                         _______ _______ _______ _____ _____    ______ ____
ROOT
ATOM      1  C   LIG    1       25.426 -28.133   6.636  0.00  0.00    -0.025 A 
ATOM      2  C   LIG    1       24.294 -27.937   5.841  0.00  0.00    +0.008 A 
ATOM      3  C   LIG    1       24.097 -26.717   5.185  0.00  0.00    +0.008 A 
ATOM      4  C   LIG    1       25.019 -25.676   5.331  0.00  0.00    -0.025 A 
ATOM      5  C   LIG    1       26.128 -25.856   6.165  0.00  0.00    +0.008 A 
ATOM      6  C   LIG    1       26.334 -27.083   6.811  0.00  0.00    +0.008 A 
ENDROOT
BRANCH   1  14
ATOM      7  C   LIG    1       26.825 -28.890  10.756  0.00  0.00    +0.012 C 
ATOM      8  C   LIG    1       25.363 -29.389  10.819  0.00  0.00    -0.014 C 
ATOM      9  C   LIG    1       24.737 -28.748  12.078  0.00  0.00    +0.012 C 
ATOM     10  C   LIG    1       25.181 -30.952  10.607  0.00  0.00    +0.061 C 
ATOM     11  C   LIG    1       25.612 -31.061   9.143  0.00  0.00    +0.168 C 
ATOM     12  O   LIG    1       26.034 -32.045   8.562  0.00  0.00    -0.292 OA
ATOM     13  C   LIG    1       25.274 -29.765   8.480  0.00  0.00    -0.000 C 
ATOM     14  C   LIG    1       25.680 -29.434   7.252  0.00  0.00    +0.015 C 
ATOM     15  C   LIG    1       23.640 -31.097  10.514  0.00  0.00    +0.018 C 
ATOM     16  C   LIG    1       23.199 -29.792   9.797  0.00  0.00    +0.010 C 
ATOM     17  C   LIG    1       24.525 -29.026   9.557  0.00  0.00    +0.029 C 
BRANCH  10  18
ATOM     18  C   LIG    1       25.920 -31.874  11.568  0.00  0.00    +0.213 C 
BRANCH  18  19
ATOM     19  S   LIG    1       24.936 -32.795  12.775  0.00  0.00    +0.081 S 
ATOM     20  O   LIG    1       24.176 -33.825  12.119  0.00  0.00    -0.147 OA
ATOM     21  O   LIG    1       24.305 -31.835  13.661  0.00  0.00    -0.147 OA
BRANCH  19  22
ATOM     22  O   LIG    1       26.085 -33.519  13.638  0.00  0.00    -0.254 OA
ATOM     23  H   LIG    1       25.741 -34.373  14.009  0.00  0.00    +0.244 HD
ENDBRANCH  19  22
ENDBRANCH  18  19
ENDBRANCH  10  18
ENDBRANCH   1  14
BRANCH   4  24
ATOM     24  C   LIG    1       24.847 -24.440   4.563  0.00  0.00    +0.015 C 
ATOM     25  C   LIG    1       24.460 -23.256   5.050  0.00  0.00    -0.000 C 
ATOM     26  C   LIG    1       24.358 -21.934   4.320  0.00  0.00    +0.029 C 
ATOM     27  C   LIG    1       25.070 -20.975   5.315  0.00  0.00    -0.014 C 
ATOM     28  C   LIG    1       24.087 -21.330   6.496  0.00  0.00    +0.061 C 
ATOM     29  C   LIG    1       22.702 -21.026   5.870  0.00  0.00    +0.018 C 
ATOM     30  C   LIG    1       26.554 -21.328   5.564  0.00  0.00    +0.012 C 
ATOM     31  C   LIG    1       25.048 -19.516   4.802  0.00  0.00    +0.012 C 
ATOM     32  C   LIG    1       22.884 -21.462   4.391  0.00  0.00    +0.010 C 
ATOM     33  C   LIG    1       24.155 -22.858   6.461  0.00  0.00    +0.168 C 
ATOM     34  O   LIG    1       23.896 -23.625   7.365  0.00  0.00    -0.292 OA
BRANCH  28  35
ATOM     35  C   LIG    1       24.399 -20.716   7.850  0.00  0.00    +0.213 C 
BRANCH  35  36
ATOM     36  S   LIG    1       26.091 -20.961   8.423  0.00  0.00    +0.081 S 
ATOM     37  O   LIG    1       27.032 -20.072   7.769  0.00  0.00    -0.147 OA
ATOM     38  O   LIG    1       26.354 -22.356   8.638  0.00  0.00    -0.147 OA
BRANCH  36  39
ATOM     39  O   LIG    1       25.914 -20.287   9.881  0.00  0.00    -0.254 OA
ATOM     40  H   LIG    1       25.986 -19.316   9.751  0.00  0.00    +0.244 HD
ENDBRANCH  36  39
ENDBRANCH  35  36
ENDBRANCH  28  35
ENDBRANCH   4  24
TORSDOF 8
ENDMDL
MODEL 6
REMARK VINA RESULT:      -6.5      2.719     10.174
REMARK  Name = *****
REMARK                            x       y       z     vdW  Elec       q    Type
REMARK                         _______ _______ _______ _____ _____    ______ ____
ROOT
ATOM      1  C   LIG    1       25.416 -27.713   6.891  0.00  0.00    -0.025 A 
ATOM      2  C   LIG    1       25.921 -26.506   7.381  0.00  0.00    +0.008 A 
ATOM      3  C   LIG    1       25.305 -25.296   7.045  0.00  0.00    +0.008 A 
ATOM      4  C   LIG    1       24.189 -25.278   6.202  0.00  0.00    -0.025 A 
ATOM      5  C   LIG    1       23.712 -26.484   5.674  0.00  0.00    +0.008 A 
ATOM      6  C   LIG    1       24.320 -27.697   6.022  0.00  0.00    +0.008 A 
ENDROOT
BRANCH   1  14
ATOM      7  C   LIG    1       25.885 -29.179  11.030  0.00  0.00    +0.012 C 
ATOM      8  C   LIG    1       24.784 -30.117  10.483  0.00  0.00    -0.014 C 
ATOM      9  C   LIG    1       23.651 -30.120  11.533  0.00  0.00    +0.012 C 
ATOM     10  C   LIG    1       25.306 -31.515   9.941  0.00  0.00    +0.061 C 
ATOM     11  C   LIG    1       26.107 -31.035   8.729  0.00  0.00    +0.168 C 
ATOM     12  O   LIG    1       27.022 -31.608   8.167  0.00  0.00    -0.292 OA
ATOM     13  C   LIG    1       25.461 -29.781   8.235  0.00  0.00    -0.000 C 
ATOM     14  C   LIG    1       26.003 -28.984   7.311  0.00  0.00    +0.015 C 
ATOM     15  C   LIG    1       24.034 -32.113   9.286  0.00  0.00    +0.018 C 
ATOM     16  C   LIG    1       23.308 -30.868   8.709  0.00  0.00    +0.010 C 
ATOM     17  C   LIG    1       24.228 -29.682   9.095  0.00  0.00    +0.029 C 
BRANCH  10  18
ATOM     18  C   LIG    1       26.077 -32.394  10.918  0.00  0.00    +0.213 C 
BRANCH  18  19
ATOM     19  S   LIG    1       25.316 -32.737  12.523  0.00  0.00    +0.081 S 
ATOM     20  O   LIG    1       24.045 -33.388  12.344  0.00  0.00    -0.147 OA
ATOM     21  O   LIG    1       25.451 -31.548  13.344  0.00  0.00    -0.147 OA
BRANCH  19  22
ATOM     22  O   LIG    1       26.333 -33.825  13.132  0.00  0.00    -0.254 OA
ATOM     23  H   LIG    1       26.405 -33.707  14.115  0.00  0.00    +0.244 HD
ENDBRANCH  19  22
ENDBRANCH  18  19
ENDBRANCH  10  18
ENDBRANCH   1  14
BRANCH   4  24
ATOM     24  C   LIG    1       23.499 -24.014   5.936  0.00  0.00    +0.015 C 
ATOM     25  C   LIG    1       24.014 -22.788   6.082  0.00  0.00    -0.000 C 
ATOM     26  C   LIG    1       23.377 -21.460   5.734  0.00  0.00    +0.029 C 
ATOM     27  C   LIG    1       24.529 -20.756   4.964  0.00  0.00    -0.014 C 
ATOM     28  C   LIG    1       25.533 -20.884   6.174  0.00  0.00    +0.061 C 
ATOM     29  C   LIG    1       24.746 -20.207   7.324  0.00  0.00    +0.018 C 
ATOM     30  C   LIG    1       24.954 -21.492   3.673  0.00  0.00    +0.012 C 
ATOM     31  C   LIG    1       24.128 -19.324   4.539  0.00  0.00    +0.012 C 
ATOM     32  C   LIG    1       23.278 -20.623   7.035  0.00  0.00    +0.010 C 
ATOM     33  C   LIG    1       25.395 -22.375   6.489  0.00  0.00    +0.168 C 
ATOM     34  O   LIG    1       26.195 -23.080   7.069  0.00  0.00    -0.292 OA
BRANCH  28  35
ATOM     35  C   LIG    1       26.959 -20.422   5.927  0.00  0.00    +0.213 C 
BRANCH  35  36
ATOM     36  S   LIG    1       27.971 -20.255   7.410  0.00  0.00    +0.081 S 
ATOM     37  O   LIG    1       27.188 -20.342   8.627  0.00  0.00    -0.147 OA
ATOM     38  O   LIG    1       29.000 -19.273   7.210  0.00  0.00    -0.147 OA
BRANCH  36  39
ATOM     39  O   LIG    1       28.684 -21.703   7.336  0.00  0.00    -0.254 OA
ATOM     40  H   LIG    1       28.900 -21.861   6.392  0.00  0.00    +0.244 HD
ENDBRANCH  36  39
ENDBRANCH  35  36
ENDBRANCH  28  35
ENDBRANCH   4  24
TORSDOF 8
ENDMDL
MODEL 7
REMARK VINA RESULT:      -6.1      2.717      9.973
REMARK  Name = *****
REMARK                            x       y       z     vdW  Elec       q    Type
REMARK                         _______ _______ _______ _____ _____    ______ ____
ROOT
ATOM      1  C   LIG    1       25.746 -27.472   7.091  0.00  0.00    -0.025 A 
ATOM      2  C   LIG    1       26.717 -26.581   6.631  0.00  0.00    +0.008 A 
ATOM      3  C   LIG    1       26.359 -25.518   5.795  0.00  0.00    +0.008 A 
ATOM      4  C   LIG    1       25.031 -25.346   5.395  0.00  0.00    -0.025 A 
ATOM      5  C   LIG    1       24.065 -26.268   5.818  0.00  0.00    +0.008 A 
ATOM      6  C   LIG    1       24.420 -27.323   6.668  0.00  0.00    +0.008 A 
ENDROOT
BRANCH   1  14
ATOM      7  C   LIG    1       23.192 -30.832   8.393  0.00  0.00    +0.012 C 
ATOM      8  C   LIG    1       24.249 -31.553   7.523  0.00  0.00    -0.014 C 
ATOM      9  C   LIG    1       23.466 -32.470   6.558  0.00  0.00    +0.012 C 
ATOM     10  C   LIG    1       25.464 -32.179   8.330  0.00  0.00    +0.061 C 
ATOM     11  C   LIG    1       26.123 -30.894   8.835  0.00  0.00    +0.168 C 
ATOM     12  O   LIG    1       26.855 -30.762   9.799  0.00  0.00    -0.292 OA
ATOM     13  C   LIG    1       25.842 -29.823   7.830  0.00  0.00    -0.000 C 
ATOM     14  C   LIG    1       26.101 -28.530   8.035  0.00  0.00    +0.015 C 
ATOM     15  C   LIG    1       26.422 -32.624   7.195  0.00  0.00    +0.018 C 
ATOM     16  C   LIG    1       26.219 -31.535   6.107  0.00  0.00    +0.010 C 
ATOM     17  C   LIG    1       25.163 -30.581   6.720  0.00  0.00    +0.029 C 
BRANCH  10  18
ATOM     18  C   LIG    1       25.127 -33.199   9.411  0.00  0.00    +0.213 C 
BRANCH  18  19
ATOM     19  S   LIG    1       24.715 -32.575  11.058  0.00  0.00    +0.081 S 
ATOM     20  O   LIG    1       24.078 -31.289  10.960  0.00  0.00    -0.147 OA
ATOM     21  O   LIG    1       25.866 -32.788  11.916  0.00  0.00    -0.147 OA
BRANCH  19  22
ATOM     22  O   LIG    1       23.598 -33.633  11.530  0.00  0.00    -0.254 OA
ATOM     23  H   LIG    1       23.746 -34.505  11.078  0.00  0.00    +0.244 HD
ENDBRANCH  19  22
ENDBRANCH  18  19
ENDBRANCH  10  18
ENDBRANCH   1  14
BRANCH   4  24
ATOM     24  C   LIG    1       24.656 -24.176   4.598  0.00  0.00    +0.015 C 
ATOM     25  C   LIG    1       24.379 -22.955   5.070  0.00  0.00    -0.000 C 
ATOM     26  C   LIG    1       24.080 -21.696   4.286  0.00  0.00    +0.029 C 
ATOM     27  C   LIG    1       24.996 -20.662   4.998  0.00  0.00    -0.014 C 
ATOM     28  C   LIG    1       24.336 -20.918   6.408  0.00  0.00    +0.061 C 
ATOM     29  C   LIG    1       22.836 -20.662   6.118  0.00  0.00    +0.018 C 
ATOM     30  C   LIG    1       26.502 -20.997   4.904  0.00  0.00    +0.012 C 
ATOM     31  C   LIG    1       24.824 -19.249   4.394  0.00  0.00    +0.012 C 
ATOM     32  C   LIG    1       22.659 -21.216   4.679  0.00  0.00    +0.010 C 
ATOM     33  C   LIG    1       24.421 -22.445   6.478  0.00  0.00    +0.168 C 
ATOM     34  O   LIG    1       24.403 -23.136   7.475  0.00  0.00    -0.292 OA
BRANCH  28  35
ATOM     35  C   LIG    1       24.959 -20.199   7.592  0.00  0.00    +0.213 C 
BRANCH  35  36
ATOM     36  S   LIG    1       26.241 -21.126   8.457  0.00  0.00    +0.081 S 
ATOM     37  O   LIG    1       27.081 -21.886   7.552  0.00  0.00    -0.147 OA
ATOM     38  O   LIG    1       25.731 -21.663   9.688  0.00  0.00    -0.147 OA
BRANCH  36  39
ATOM     39  O   LIG    1       27.177 -19.869   8.847  0.00  0.00    -0.254 OA
ATOM     40  H   LIG    1       27.005 -19.673   9.793  0.00  0.00    +0.244 HD
ENDBRANCH  36  39
ENDBRANCH  35  36
ENDBRANCH  28  35
ENDBRANCH   4  24
TORSDOF 8
ENDMDL
MODEL 8
REMARK VINA RESULT:      -6.1      2.500      3.113
REMARK  Name = *****
REMARK                            x       y       z     vdW  Elec       q    Type
REMARK                         _______ _______ _______ _____ _____    ______ ____
ROOT
ATOM      1  C   LIG    1       25.139 -25.836   5.995  0.00  0.00    -0.025 A 
ATOM      2  C   LIG    1       25.834 -25.667   7.194  0.00  0.00    +0.008 A 
ATOM      3  C   LIG    1       26.232 -26.781   7.941  0.00  0.00    +0.008 A 
ATOM      4  C   LIG    1       25.923 -28.073   7.508  0.00  0.00    -0.025 A 
ATOM      5  C   LIG    1       25.184 -28.241   6.330  0.00  0.00    +0.008 A 
ATOM      6  C   LIG    1       24.799 -27.126   5.573  0.00  0.00    +0.008 A 
ENDROOT
BRANCH   1  14
ATOM      7  C   LIG    1       22.894 -22.246   7.248  0.00  0.00    +0.012 C 
ATOM      8  C   LIG    1       24.323 -21.682   7.068  0.00  0.00    -0.014 C 
ATOM      9  C   LIG    1       24.634 -20.868   8.344  0.00  0.00    +0.012 C 
ATOM     10  C   LIG    1       24.601 -21.002   5.660  0.00  0.00    +0.061 C 
ATOM     11  C   LIG    1       24.506 -22.235   4.760  0.00  0.00    +0.168 C 
ATOM     12  O   LIG    1       24.257 -22.270   3.569  0.00  0.00    -0.292 OA
ATOM     13  C   LIG    1       24.937 -23.415   5.571  0.00  0.00    -0.000 C 
ATOM     14  C   LIG    1       24.800 -24.680   5.168  0.00  0.00    +0.015 C 
ATOM     15  C   LIG    1       26.128 -20.742   5.713  0.00  0.00    +0.018 C 
ATOM     16  C   LIG    1       26.671 -21.953   6.519  0.00  0.00    +0.010 C 
ATOM     17  C   LIG    1       25.405 -22.781   6.855  0.00  0.00    +0.029 C 
BRANCH  10  18
ATOM     18  C   LIG    1       23.700 -19.840   5.261  0.00  0.00    +0.213 C 
BRANCH  18  19
ATOM     19  S   LIG    1       24.146 -18.900   3.781  0.00  0.00    +0.081 S 
ATOM     20  O   LIG    1       25.558 -18.626   3.770  0.00  0.00    -0.147 OA
ATOM     21  O   LIG    1       23.167 -17.842   3.613  0.00  0.00    -0.147 OA
BRANCH  19  22
ATOM     22  O   LIG    1       23.854 -19.974   2.619  0.00  0.00    -0.254 OA
ATOM     23  H   LIG    1       23.142 -20.602   2.911  0.00  0.00    +0.244 HD
ENDBRANCH  19  22
ENDBRANCH  18  19
ENDBRANCH  10  18
ENDBRANCH   1  14
BRANCH   4  24
ATOM     24  C   LIG    1       26.427 -29.230   8.251  0.00  0.00    +0.015 C 
ATOM     25  C   LIG    1       25.686 -30.129   8.909  0.00  0.00    -0.000 C 
ATOM     26  C   LIG    1       26.150 -31.388   9.610  0.00  0.00    +0.029 C 
ATOM     27  C   LIG    1       25.130 -32.433   9.078  0.00  0.00    -0.014 C 
ATOM     28  C   LIG    1       23.887 -31.619   9.606  0.00  0.00    +0.061 C 
ATOM     29  C   LIG    1       24.222 -31.451  11.110  0.00  0.00    +0.018 C 
ATOM     30  C   LIG    1       25.186 -32.631   7.546  0.00  0.00    +0.012 C 
ATOM     31  C   LIG    1       25.371 -33.824   9.707  0.00  0.00    +0.012 C 
ATOM     32  C   LIG    1       25.763 -31.270  11.106  0.00  0.00    +0.010 C 
ATOM     33  C   LIG    1       24.197 -30.237   9.026  0.00  0.00    +0.168 C 
ATOM     34  O   LIG    1       23.410 -29.338   8.809  0.00  0.00    -0.292 OA
BRANCH  28  35
ATOM     35  C   LIG    1       22.515 -32.160   9.244  0.00  0.00    +0.213 C 
BRANCH  35  36
ATOM     36  S   LIG    1       21.228 -31.850  10.469  0.00  0.00    +0.081 S 
ATOM     37  O   LIG    1       19.972 -32.490  10.126  0.00  0.00    -0.147 OA
ATOM     38  O   LIG    1       21.312 -30.503  10.959  0.00  0.00    -0.147 OA
BRANCH  36  39
ATOM     39  O   LIG    1       21.814 -32.809  11.629  0.00  0.00    -0.254 OA
ATOM     40  H   LIG    1       21.884 -33.708  11.241  0.00  0.00    +0.244 HD
ENDBRANCH  36  39
ENDBRANCH  35  36
ENDBRANCH  28  35
ENDBRANCH   4  24
TORSDOF 8
ENDMDL
MODEL 9
REMARK VINA RESULT:      -5.6      2.651      3.662
REMARK  Name = *****
REMARK                            x       y       z     vdW  Elec       q    Type
REMARK                         _______ _______ _______ _____ _____    ______ ____
ROOT
ATOM      1  C   LIG    1       25.367 -27.558   7.157  0.00  0.00    -0.025 A 
ATOM      2  C   LIG    1       26.411 -27.428   8.075  0.00  0.00    +0.008 A 
ATOM      3  C   LIG    1       26.548 -28.348   9.121  0.00  0.00    +0.008 A 
ATOM      4  C   LIG    1       25.634 -29.395   9.269  0.00  0.00    -0.025 A 
ATOM      5  C   LIG    1       24.561 -29.497   8.376  0.00  0.00    +0.008 A 
ATOM      6  C   LIG    1       24.432 -28.586   7.320  0.00  0.00    +0.008 A 
ENDROOT
BRANCH   1  14
ATOM      7  C   LIG    1       22.646 -24.107   6.726  0.00  0.00    +0.012 C 
ATOM      8  C   LIG    1       24.018 -23.413   6.885  0.00  0.00    -0.014 C 
ATOM      9  C   LIG    1       23.832 -22.318   7.959  0.00  0.00    +0.012 C 
ATOM     10  C   LIG    1       24.725 -23.010   5.521  0.00  0.00    +0.061 C 
ATOM     11  C   LIG    1       25.009 -24.405   4.961  0.00  0.00    +0.168 C 
ATOM     12  O   LIG    1       25.184 -24.719   3.797  0.00  0.00    -0.292 OA
ATOM     13  C   LIG    1       25.197 -25.325   6.124  0.00  0.00    -0.000 C 
ATOM     14  C   LIG    1       25.272 -26.653   6.013  0.00  0.00    +0.015 C 
ATOM     15  C   LIG    1       26.127 -22.549   5.998  0.00  0.00    +0.018 C 
ATOM     16  C   LIG    1       26.424 -23.486   7.200  0.00  0.00    +0.010 C 
ATOM     17  C   LIG    1       25.164 -24.383   7.299  0.00  0.00    +0.029 C 
BRANCH  10  18
ATOM     18  C   LIG    1       23.957 -22.083   4.588  0.00  0.00    +0.213 C 
BRANCH  18  19
ATOM     19  S   LIG    1       24.385 -20.326   4.606  0.00  0.00    +0.081 S 
ATOM     20  O   LIG    1       23.193 -19.521   4.604  0.00  0.00    -0.147 OA
ATOM     21  O   LIG    1       25.444 -20.115   3.637  0.00  0.00    -0.147 OA
BRANCH  19  22
ATOM     22  O   LIG    1       25.064 -20.178   6.058  0.00  0.00    -0.254 OA
ATOM     23  H   LIG    1       24.441 -19.716   6.677  0.00  0.00    +0.244 HD
ENDBRANCH  19  22
ENDBRANCH  18  19
ENDBRANCH  10  18
ENDBRANCH   1  14
BRANCH   4  24
ATOM     24  C   LIG    1       25.845 -30.403  10.311  0.00  0.00    +0.015 C 
ATOM     25  C   LIG    1       25.549 -30.271  11.608  0.00  0.00    -0.000 C 
ATOM     26  C   LIG    1       25.661 -31.310  12.703  0.00  0.00    +0.029 C 
ATOM     27  C   LIG    1       24.284 -31.164  13.410  0.00  0.00    -0.014 C 
ATOM     28  C   LIG    1       24.506 -29.633  13.718  0.00  0.00    +0.061 C 
ATOM     29  C   LIG    1       25.854 -29.646  14.482  0.00  0.00    +0.018 C 
ATOM     30  C   LIG    1       23.080 -31.486  12.497  0.00  0.00    +0.012 C 
ATOM     31  C   LIG    1       24.176 -32.112  14.627  0.00  0.00    +0.012 C 
ATOM     32  C   LIG    1       26.648 -30.774  13.770  0.00  0.00    +0.010 C 
ATOM     33  C   LIG    1       24.900 -29.128  12.327  0.00  0.00    +0.168 C 
ATOM     34  O   LIG    1       24.821 -27.991  11.910  0.00  0.00    -0.292 OA
BRANCH  28  35
ATOM     35  C   LIG    1       23.343 -28.890  14.351  0.00  0.00    +0.213 C 
BRANCH  35  36
ATOM     36  S   LIG    1       22.205 -28.122  13.182  0.00  0.00    +0.081 S 
ATOM     37  O   LIG    1       21.933 -28.968  12.036  0.00  0.00    -0.147 OA
ATOM     38  O   LIG    1       22.470 -26.715  13.071  0.00  0.00    -0.147 OA
BRANCH  36  39
ATOM     39  O   LIG    1       20.863 -28.277  14.070  0.00  0.00    -0.254 OA
ATOM     40  H   LIG    1       20.379 -27.426  13.996  0.00  0.00    +0.244 HD
ENDBRANCH  36  39
ENDBRANCH  35  36
ENDBRANCH  28  35
ENDBRANCH   4  24
TORSDOF 8
ENDMDL
