MODEL 1
REMARK VINA RESULT:      -4.3      0.000      0.000
REMARK  Name = *****
REMARK                            x       y       z     vdW  Elec       q    Type
REMARK                         _______ _______ _______ _____ _____    ______ ____
ROOT
ATOM      1  C   LIG    1       26.838 -13.555   5.492  0.00  0.00    +0.243 C 
ATOM      2  N   LIG    1       26.316 -13.390   4.132  0.00  0.00    -0.255 N 
ENDROOT
BRANCH   2   3
ATOM      3  C   LIG    1       27.138 -13.633   3.057  0.00  0.00    +0.379 C 
ATOM      4  N   LIG    1       26.843 -14.194   1.941  0.00  0.00    -0.130 NA
ATOM      5  H   LIG    1       25.856 -14.444   1.894  0.00  0.00    +0.306 HD
BRANCH   3   6
ATOM      6  N   LIG    1       28.420 -13.249   3.209  0.00  0.00    -0.289 N 
ATOM      7  H   LIG    1       28.803 -13.737   4.016  0.00  0.00    +0.255 HD
ATOM      8  H   LIG    1       28.545 -12.252   3.354  0.00  0.00    +0.255 HD
ENDBRANCH   3   6
ENDBRANCH   2   3
BRANCH   2   9
ATOM      9  C   LIG    1       24.865 -13.752   4.016  0.00  0.00    +0.319 C 
BRANCH   9  10
ATOM     10  C   LIG    1       24.068 -12.645   3.336  0.00  0.00    +0.339 C 
ATOM     11  O   LIG    1       23.658 -11.637   3.903  0.00  0.00    -0.247 OA
BRANCH  10  12
ATOM     12  O   LIG    1       23.895 -12.857   2.005  0.00  0.00    -0.478 OA
ATOM     13  H   LIG    1       23.913 -13.834   1.868  0.00  0.00    +0.295 HD
ENDBRANCH  10  12
ENDBRANCH   9  10
ENDBRANCH   2   9
TORSDOF 5
ENDMDL
MODEL 2
REMARK VINA RESULT:      -4.2      2.654      3.564
REMARK  Name = *****
REMARK                            x       y       z     vdW  Elec       q    Type
REMARK                         _______ _______ _______ _____ _____    ______ ____
ROOT
ATOM      1  C   LIG    1       23.705 -14.745   4.346  0.00  0.00    +0.243 C 
ATOM      2  N   LIG    1       24.645 -13.912   3.590  0.00  0.00    -0.255 N 
ENDROOT
BRANCH   2   3
ATOM      3  C   LIG    1       24.225 -12.704   3.085  0.00  0.00    +0.379 C 
ATOM      4  N   LIG    1       24.190 -12.324   1.860  0.00  0.00    -0.130 NA
ATOM      5  H   LIG    1       24.499 -13.060   1.227  0.00  0.00    +0.306 HD
BRANCH   3   6
ATOM      6  N   LIG    1       23.818 -11.804   4.000  0.00  0.00    -0.289 N 
ATOM      7  H   LIG    1       22.817 -11.923   4.138  0.00  0.00    +0.255 HD
ATOM      8  H   LIG    1       23.989 -10.837   3.743  0.00  0.00    +0.255 HD
ENDBRANCH   3   6
ENDBRANCH   2   3
BRANCH   2   9
ATOM      9  C   LIG    1       26.055 -14.024   4.089  0.00  0.00    +0.319 C 
BRANCH   9  10
ATOM     10  C   LIG    1       27.059 -13.933   2.946  0.00  0.00    +0.339 C 
ATOM     11  O   LIG    1       26.858 -14.355   1.812  0.00  0.00    -0.247 OA
BRANCH  10  12
ATOM     12  O   LIG    1       28.200 -13.282   3.293  0.00  0.00    -0.478 OA
ATOM     13  H   LIG    1       28.927 -13.676   2.755  0.00  0.00    +0.295 HD
ENDBRANCH  10  12
ENDBRANCH   9  10
ENDBRANCH   2   9
TORSDOF 5
ENDMDL
MODEL 3
REMARK VINA RESULT:      -4.1      7.390      7.706
REMARK  Name = *****
REMARK                            x       y       z     vdW  Elec       q    Type
REMARK                         _______ _______ _______ _____ _____    ______ ____
ROOT
ATOM      1  C   LIG    1       25.340 -20.872   7.062  0.00  0.00    +0.243 C 
ATOM      2  N   LIG    1       25.012 -20.527   5.674  0.00  0.00    -0.255 N 
ENDROOT
BRANCH   2   3
ATOM      3  C   LIG    1       25.997 -20.044   4.846  0.00  0.00    +0.379 C 
ATOM      4  N   LIG    1       27.269 -20.091   5.010  0.00  0.00    -0.130 NA
ATOM      5  H   LIG    1       27.520 -20.584   5.866  0.00  0.00    +0.306 HD
BRANCH   3   6
ATOM      6  N   LIG    1       25.563 -19.425   3.731  0.00  0.00    -0.289 N 
ATOM      7  H   LIG    1       25.060 -18.585   4.010  0.00  0.00    +0.255 HD
ATOM      8  H   LIG    1       24.946 -19.985   3.152  0.00  0.00    +0.255 HD
ENDBRANCH   3   6
ENDBRANCH   2   3
BRANCH   2   9
ATOM      9  C   LIG    1       23.959 -21.418   5.086  0.00  0.00    +0.319 C 
BRANCH   9  10
ATOM     10  C   LIG    1       22.610 -20.712   5.016  0.00  0.00    +0.339 C 
ATOM     11  O   LIG    1       22.462 -19.495   5.054  0.00  0.00    -0.247 OA
BRANCH  10  12
ATOM     12  O   LIG    1       21.569 -21.571   4.854  0.00  0.00    -0.478 OA
ATOM     13  H   LIG    1       20.923 -21.125   4.256  0.00  0.00    +0.295 HD
ENDBRANCH  10  12
ENDBRANCH   9  10
ENDBRANCH   2   9
TORSDOF 5
ENDMDL
MODEL 4
REMARK VINA RESULT:      -3.9      1.293      1.839
REMARK  Name = *****
REMARK                            x       y       z     vdW  Elec       q    Type
REMARK                         _______ _______ _______ _____ _____    ______ ____
ROOT
ATOM      1  C   LIG    1       26.652 -15.583   3.360  0.00  0.00    +0.243 C 
ATOM      2  N   LIG    1       26.510 -14.145   3.614  0.00  0.00    -0.255 N 
ENDROOT
BRANCH   2   3
ATOM      3  C   LIG    1       27.552 -13.453   4.185  0.00  0.00    +0.379 C 
ATOM      4  N   LIG    1       28.686 -13.152   3.665  0.00  0.00    -0.130 NA
ATOM      5  H   LIG    1       28.754 -13.468   2.699  0.00  0.00    +0.306 HD
BRANCH   3   6
ATOM      6  N   LIG    1       27.358 -13.061   5.459  0.00  0.00    -0.289 N 
ATOM      7  H   LIG    1       27.899 -12.213   5.615  0.00  0.00    +0.255 HD
ATOM      8  H   LIG    1       27.635 -13.745   6.155  0.00  0.00    +0.255 HD
ENDBRANCH   3   6
ENDBRANCH   2   3
BRANCH   2   9
ATOM      9  C   LIG    1       25.672 -13.450   2.583  0.00  0.00    +0.319 C 
BRANCH   9  10
ATOM     10  C   LIG    1       24.485 -12.737   3.219  0.00  0.00    +0.339 C 
ATOM     11  O   LIG    1       24.214 -12.774   4.415  0.00  0.00    -0.247 OA
BRANCH  10  12
ATOM     12  O   LIG    1       23.768 -12.002   2.329  0.00  0.00    -0.478 OA
ATOM     13  H   LIG    1       23.106 -11.490   2.851  0.00  0.00    +0.295 HD
ENDBRANCH  10  12
ENDBRANCH   9  10
ENDBRANCH   2   9
TORSDOF 5
ENDMDL
MODEL 5
REMARK VINA RESULT:      -3.9      7.851      8.462
REMARK  Name = *****
REMARK                            x       y       z     vdW  Elec       q    Type
REMARK                         _______ _______ _______ _____ _____    ______ ____
ROOT
ATOM      1  C   LIG    1       23.283 -19.021   4.066  0.00  0.00    +0.243 C 
ATOM      2  N   LIG    1       23.781 -20.095   4.933  0.00  0.00    -0.255 N 
ENDROOT
BRANCH   2   3
ATOM      3  C   LIG    1       22.888 -20.954   5.528  0.00  0.00    +0.379 C 
ATOM      4  N   LIG    1       21.882 -21.549   4.997  0.00  0.00    -0.130 NA
ATOM      5  H   LIG    1       21.803 -21.341   4.003  0.00  0.00    +0.306 HD
BRANCH   3   6
ATOM      6  N   LIG    1       23.088 -21.179   6.841  0.00  0.00    -0.289 N 
ATOM      7  H   LIG    1       23.371 -20.302   7.273  0.00  0.00    +0.255 HD
ATOM      8  H   LIG    1       23.798 -21.875   7.044  0.00  0.00    +0.255 HD
ENDBRANCH   3   6
ENDBRANCH   2   3
BRANCH   2   9
ATOM      9  C   LIG    1       25.104 -20.640   4.484  0.00  0.00    +0.319 C 
BRANCH   9  10
ATOM     10  C   LIG    1       26.206 -20.320   5.486  0.00  0.00    +0.339 C 
ATOM     11  O   LIG    1       26.067 -20.354   6.704  0.00  0.00    -0.247 OA
BRANCH  10  12
ATOM     12  O   LIG    1       27.396 -20.036   4.893  0.00  0.00    -0.478 OA
ATOM     13  H   LIG    1       27.644 -20.828   4.360  0.00  0.00    +0.295 HD
ENDBRANCH  10  12
ENDBRANCH   9  10
ENDBRANCH   2   9
TORSDOF 5
ENDMDL
MODEL 6
REMARK VINA RESULT:      -3.9      7.157      7.910
REMARK  Name = *****
REMARK                            x       y       z     vdW  Elec       q    Type
REMARK                         _______ _______ _______ _____ _____    ______ ____
ROOT
ATOM      1  C   LIG    1       22.270 -18.630   4.442  0.00  0.00    +0.243 C 
ATOM      2  N   LIG    1       23.248 -19.673   4.771  0.00  0.00    -0.255 N 
ENDROOT
BRANCH   2   3
ATOM      3  C   LIG    1       22.893 -20.686   5.629  0.00  0.00    +0.379 C 
ATOM      4  N   LIG    1       23.318 -20.905   6.820  0.00  0.00    -0.130 NA
ATOM      5  H   LIG    1       23.978 -20.189   7.122  0.00  0.00    +0.306 HD
BRANCH   3   6
ATOM      6  N   LIG    1       22.001 -21.571   5.144  0.00  0.00    -0.289 N 
ATOM      7  H   LIG    1       22.355 -22.508   5.323  0.00  0.00    +0.255 HD
ATOM      8  H   LIG    1       21.823 -21.485   4.148  0.00  0.00    +0.255 HD
ENDBRANCH   3   6
ENDBRANCH   2   3
BRANCH   2   9
ATOM      9  C   LIG    1       24.165 -19.993   3.628  0.00  0.00    +0.319 C 
BRANCH   9  10
ATOM     10  C   LIG    1       25.502 -19.277   3.770  0.00  0.00    +0.339 C 
ATOM     11  O   LIG    1       25.726 -18.141   3.364  0.00  0.00    -0.247 OA
BRANCH  10  12
ATOM     12  O   LIG    1       26.426 -20.008   4.446  0.00  0.00    -0.478 OA
ATOM     13  H   LIG    1       27.294 -19.849   4.005  0.00  0.00    +0.295 HD
ENDBRANCH  10  12
ENDBRANCH   9  10
ENDBRANCH   2   9
TORSDOF 5
ENDMDL
MODEL 7
REMARK VINA RESULT:      -3.8      7.538      7.916
REMARK  Name = *****
REMARK                            x       y       z     vdW  Elec       q    Type
REMARK                         _______ _______ _______ _____ _____    ______ ____
ROOT
ATOM      1  C   LIG    1       24.831 -19.314   3.978  0.00  0.00    +0.243 C 
ATOM      2  N   LIG    1       25.361 -20.496   4.668  0.00  0.00    -0.255 N 
ENDROOT
BRANCH   2   3
ATOM      3  C   LIG    1       26.325 -20.340   5.634  0.00  0.00    +0.379 C 
ATOM      4  N   LIG    1       26.200 -20.444   6.908  0.00  0.00    -0.130 NA
ATOM      5  H   LIG    1       25.251 -20.704   7.172  0.00  0.00    +0.306 HD
BRANCH   3   6
ATOM      6  N   LIG    1       27.552 -20.016   5.182  0.00  0.00    -0.289 N 
ATOM      7  H   LIG    1       27.442 -19.354   4.417  0.00  0.00    +0.255 HD
ATOM      8  H   LIG    1       28.096 -20.803   4.843  0.00  0.00    +0.255 HD
ENDBRANCH   3   6
ENDBRANCH   2   3
BRANCH   2   9
ATOM      9  C   LIG    1       24.332 -21.572   4.853  0.00  0.00    +0.319 C 
BRANCH   9  10
ATOM     10  C   LIG    1       23.093 -21.040   5.563  0.00  0.00    +0.339 C 
ATOM     11  O   LIG    1       23.103 -20.504   6.666  0.00  0.00    -0.247 OA
BRANCH  10  12
ATOM     12  O   LIG    1       21.961 -21.173   4.825  0.00  0.00    -0.478 OA
ATOM     13  H   LIG    1       22.073 -21.984   4.274  0.00  0.00    +0.295 HD
ENDBRANCH  10  12
ENDBRANCH   9  10
ENDBRANCH   2   9
TORSDOF 5
ENDMDL
MODEL 8
REMARK VINA RESULT:      -3.8      6.984      7.347
REMARK  Name = *****
REMARK                            x       y       z     vdW  Elec       q    Type
REMARK                         _______ _______ _______ _____ _____    ______ ____
ROOT
ATOM      1  C   LIG    1       23.580 -20.902   6.946  0.00  0.00    +0.243 C 
ATOM      2  N   LIG    1       24.322 -20.476   5.756  0.00  0.00    -0.255 N 
ENDROOT
BRANCH   2   3
ATOM      3  C   LIG    1       25.654 -20.796   5.637  0.00  0.00    +0.379 C 
ATOM      4  N   LIG    1       26.355 -21.571   6.382  0.00  0.00    -0.130 NA
ATOM      5  H   LIG    1       25.793 -21.994   7.120  0.00  0.00    +0.306 HD
BRANCH   3   6
ATOM      6  N   LIG    1       26.305 -20.201   4.619  0.00  0.00    -0.289 N 
ATOM      7  H   LIG    1       26.853 -20.910   4.136  0.00  0.00    +0.255 HD
ATOM      8  H   LIG    1       26.931 -19.454   4.900  0.00  0.00    +0.255 HD
ENDBRANCH   3   6
ENDBRANCH   2   3
BRANCH   2   9
ATOM      9  C   LIG    1       23.479 -20.463   4.516  0.00  0.00    +0.319 C 
BRANCH   9  10
ATOM     10  C   LIG    1       23.090 -19.043   4.121  0.00  0.00    +0.339 C 
ATOM     11  O   LIG    1       21.993 -18.539   4.341  0.00  0.00    -0.247 OA
BRANCH  10  12
ATOM     12  O   LIG    1       24.107 -18.358   3.538  0.00  0.00    -0.478 OA
ATOM     13  H   LIG    1       24.754 -18.145   4.252  0.00  0.00    +0.295 HD
ENDBRANCH  10  12
ENDBRANCH   9  10
ENDBRANCH   2   9
TORSDOF 5
ENDMDL
MODEL 9
REMARK VINA RESULT:      -3.8      2.605      3.553
REMARK  Name = *****
REMARK                            x       y       z     vdW  Elec       q    Type
REMARK                         _______ _______ _______ _____ _____    ______ ____
ROOT
ATOM      1  C   LIG    1       26.102 -13.174   5.251  0.00  0.00    +0.243 C 
ATOM      2  N   LIG    1       24.973 -13.613   4.424  0.00  0.00    -0.255 N 
ENDROOT
BRANCH   2   3
ATOM      3  C   LIG    1       24.184 -12.675   3.803  0.00  0.00    +0.379 C 
ATOM      4  N   LIG    1       23.691 -11.597   4.296  0.00  0.00    -0.130 NA
ATOM      5  H   LIG    1       23.977 -11.461   5.264  0.00  0.00    +0.306 HD
BRANCH   3   6
ATOM      6  N   LIG    1       23.875 -12.936   2.518  0.00  0.00    -0.289 N 
ATOM      7  H   LIG    1       24.599 -13.541   2.136  0.00  0.00    +0.255 HD
ATOM      8  H   LIG    1       23.806 -12.114   1.927  0.00  0.00    +0.255 HD
ENDBRANCH   3   6
ENDBRANCH   2   3
BRANCH   2   9
ATOM      9  C   LIG    1       25.240 -14.905   3.711  0.00  0.00    +0.319 C 
BRANCH   9  10
ATOM     10  C   LIG    1       26.590 -14.882   3.004  0.00  0.00    +0.339 C 
ATOM     11  O   LIG    1       26.816 -14.275   1.963  0.00  0.00    -0.247 OA
BRANCH  10  12
ATOM     12  O   LIG    1       27.552 -15.569   3.675  0.00  0.00    -0.478 OA
ATOM     13  H   LIG    1       28.265 -14.923   3.890  0.00  0.00    +0.295 HD
ENDBRANCH  10  12
ENDBRANCH   9  10
ENDBRANCH   2   9
TORSDOF 5
ENDMDL
