MODEL 1
REMARK VINA RESULT:      -2.1      0.000      0.000
REMARK  Name = *****
REMARK                            x       y       z     vdW  Elec       q    Type
REMARK                         _______ _______ _______ _____ _____    ______ ____
ROOT
ATOM      1  O   LIG    1       25.135 -19.919   4.590  0.00  0.00    -0.276 OA
ATOM      2  C   LIG    1       24.112 -19.259   4.455  0.00  0.00    +0.216 C 
ATOM      3  N   LIG    1       24.070 -18.096   3.693  0.00  0.00    -0.298 N 
ATOM      4  C   LIG    1       23.020 -17.067   3.800  0.00  0.00    +0.127 C 
ATOM      5  C   LIG    1       23.568 -15.811   4.508  0.00  0.00    +0.127 C 
ATOM      6  N   LIG    1       24.801 -15.352   3.851  0.00  0.00    -0.298 N 
ATOM      7  C   LIG    1       24.808 -14.133   3.188  0.00  0.00    +0.216 C 
ATOM      8  O   LIG    1       23.870 -13.341   3.267  0.00  0.00    -0.276 OA
ATOM      9  C   LIG    1       25.849 -16.386   3.753  0.00  0.00    +0.127 C 
ATOM     10  C   LIG    1       25.294 -17.623   3.029  0.00  0.00    +0.127 C 
ENDROOT
BRANCH   7  11
ATOM     11  C   LIG    1       26.020 -13.835   2.328  0.00  0.00    +0.107 C 
BRANCH  11  12
ATOM     12  C   LIG    1       26.833 -12.686   2.886  0.00  0.00    +0.089 C 
ATOM     13 BR   LIG    1       28.380 -13.398   3.839  0.00  0.00    -0.091 Br
ENDBRANCH  11  12
ENDBRANCH   7  11
BRANCH   2  14
ATOM     14  C   LIG    1       22.796 -19.692   5.079  0.00  0.00    +0.107 C 
BRANCH  14  15
ATOM     15  C   LIG    1       22.745 -21.185   5.327  0.00  0.00    +0.089 C 
ATOM     16 BR   LIG    1       23.569 -21.571   7.056  0.00  0.00    -0.091 Br
ENDBRANCH  14  15
ENDBRANCH   2  14
TORSDOF 4
ENDMDL
MODEL 2
REMARK VINA RESULT:      -2.0      2.106      6.098
REMARK  Name = *****
REMARK                            x       y       z     vdW  Elec       q    Type
REMARK                         _______ _______ _______ _____ _____    ______ ____
ROOT
ATOM      1  O   LIG    1       26.016 -14.073   2.044  0.00  0.00    -0.276 OA
ATOM      2  C   LIG    1       25.083 -14.268   2.813  0.00  0.00    +0.216 C 
ATOM      3  N   LIG    1       25.050 -15.350   3.686  0.00  0.00    -0.298 N 
ATOM      4  C   LIG    1       23.830 -15.859   4.338  0.00  0.00    +0.127 C 
ATOM      5  C   LIG    1       23.394 -17.192   3.696  0.00  0.00    +0.127 C 
ATOM      6  N   LIG    1       24.516 -18.144   3.684  0.00  0.00    -0.298 N 
ATOM      7  C   LIG    1       24.444 -19.292   4.459  0.00  0.00    +0.216 C 
ATOM      8  O   LIG    1       23.410 -19.632   5.031  0.00  0.00    -0.276 OA
ATOM      9  C   LIG    1       25.731 -17.629   3.026  0.00  0.00    +0.127 C 
ATOM     10  C   LIG    1       26.164 -16.311   3.687  0.00  0.00    +0.127 C 
ENDROOT
BRANCH   7  11
ATOM     11  C   LIG    1       25.721 -20.098   4.598  0.00  0.00    +0.107 C 
BRANCH  11  12
ATOM     12  C   LIG    1       25.775 -20.839   5.918  0.00  0.00    +0.089 C 
ATOM     13 BR   LIG    1       27.468 -20.447   6.804  0.00  0.00    -0.091 Br
ENDBRANCH  11  12
ENDBRANCH   7  11
BRANCH   2  14
ATOM     14  C   LIG    1       23.908 -13.308   2.901  0.00  0.00    +0.107 C 
BRANCH  14  15
ATOM     15  C   LIG    1       24.349 -11.891   3.205  0.00  0.00    +0.089 C 
ATOM     16 BR   LIG    1       23.845 -11.447   5.039  0.00  0.00    -0.091 Br
ENDBRANCH  14  15
ENDBRANCH   2  14
TORSDOF 4
ENDMDL
MODEL 3
REMARK VINA RESULT:      -1.0      2.427      6.404
REMARK  Name = *****
REMARK                            x       y       z     vdW  Elec       q    Type
REMARK                         _______ _______ _______ _____ _____    ______ ____
ROOT
ATOM      1  O   LIG    1       28.680 -13.693   3.371  0.00  0.00    -0.276 OA
ATOM      2  C   LIG    1       27.474 -13.688   3.586  0.00  0.00    +0.216 C 
ATOM      3  N   LIG    1       26.809 -14.782   4.127  0.00  0.00    -0.298 N 
ATOM      4  C   LIG    1       25.351 -14.993   4.051  0.00  0.00    +0.127 C 
ATOM      5  C   LIG    1       25.023 -16.112   3.042  0.00  0.00    +0.127 C 
ATOM      6  N   LIG    1       25.795 -17.324   3.354  0.00  0.00    -0.298 N 
ATOM      7  C   LIG    1       25.130 -18.465   3.781  0.00  0.00    +0.216 C 
ATOM      8  O   LIG    1       23.903 -18.557   3.751  0.00  0.00    -0.276 OA
ATOM      9  C   LIG    1       27.252 -17.106   3.424  0.00  0.00    +0.127 C 
ATOM     10  C   LIG    1       27.566 -16.002   4.446  0.00  0.00    +0.127 C 
ENDROOT
BRANCH   7  11
ATOM     11  C   LIG    1       25.990 -19.590   4.322  0.00  0.00    +0.107 C 
BRANCH  11  12
ATOM     12  C   LIG    1       25.151 -20.690   4.938  0.00  0.00    +0.089 C 
ATOM     13 BR   LIG    1       25.506 -20.771   6.855  0.00  0.00    -0.091 Br
ENDBRANCH  11  12
ENDBRANCH   7  11
BRANCH   2  14
ATOM     14  C   LIG    1       26.622 -12.458   3.317  0.00  0.00    +0.107 C 
BRANCH  14  15
ATOM     15  C   LIG    1       25.760 -12.619   2.083  0.00  0.00    +0.089 C 
ATOM     16 BR   LIG    1       24.071 -11.677   2.359  0.00  0.00    -0.091 Br
ENDBRANCH  14  15
ENDBRANCH   2  14
TORSDOF 4
ENDMDL
MODEL 4
REMARK VINA RESULT:      -0.6      1.276      6.680
REMARK  Name = *****
REMARK                            x       y       z     vdW  Elec       q    Type
REMARK                         _______ _______ _______ _____ _____    ______ ____
ROOT
ATOM      1  O   LIG    1       24.651 -14.746   4.204  0.00  0.00    -0.276 OA
ATOM      2  C   LIG    1       25.378 -15.582   3.681  0.00  0.00    +0.216 C 
ATOM      3  N   LIG    1       24.927 -16.851   3.337  0.00  0.00    -0.298 N 
ATOM      4  C   LIG    1       25.805 -18.007   3.079  0.00  0.00    +0.127 C 
ATOM      5  C   LIG    1       25.735 -19.007   4.252  0.00  0.00    +0.127 C 
ATOM      6  N   LIG    1       24.337 -19.361   4.538  0.00  0.00    -0.298 N 
ATOM      7  C   LIG    1       23.902 -20.659   4.312  0.00  0.00    +0.216 C 
ATOM      8  O   LIG    1       24.681 -21.572   4.039  0.00  0.00    -0.276 OA
ATOM      9  C   LIG    1       23.466 -18.200   4.799  0.00  0.00    +0.127 C 
ATOM     10  C   LIG    1       23.531 -17.221   3.616  0.00  0.00    +0.127 C 
ENDROOT
BRANCH   7  11
ATOM     11  C   LIG    1       22.407 -20.897   4.387  0.00  0.00    +0.107 C 
BRANCH  11  12
ATOM     12  C   LIG    1       22.011 -21.572   5.685  0.00  0.00    +0.089 C 
ATOM     13 BR   LIG    1       23.522 -21.524   6.918  0.00  0.00    -0.091 Br
ENDBRANCH  11  12
ENDBRANCH   7  11
BRANCH   2  14
ATOM     14  C   LIG    1       26.824 -15.272   3.328  0.00  0.00    +0.107 C 
BRANCH  14  15
ATOM     15  C   LIG    1       26.996 -13.858   2.814  0.00  0.00    +0.089 C 
ATOM     16 BR   LIG    1       28.347 -12.948   3.893  0.00  0.00    -0.091 Br
ENDBRANCH  14  15
ENDBRANCH   2  14
TORSDOF 4
ENDMDL
MODEL 5
REMARK VINA RESULT:      -0.4      2.146      2.638
REMARK  Name = *****
REMARK                            x       y       z     vdW  Elec       q    Type
REMARK                         _______ _______ _______ _____ _____    ______ ____
ROOT
ATOM      1  O   LIG    1       21.817 -18.405   3.742  0.00  0.00    -0.276 OA
ATOM      2  C   LIG    1       23.041 -18.397   3.774  0.00  0.00    +0.216 C 
ATOM      3  N   LIG    1       23.767 -17.331   4.293  0.00  0.00    -0.298 N 
ATOM      4  C   LIG    1       25.193 -17.079   4.017  0.00  0.00    +0.127 C 
ATOM      5  C   LIG    1       25.351 -15.880   3.059  0.00  0.00    +0.127 C 
ATOM      6  N   LIG    1       24.619 -14.714   3.577  0.00  0.00    -0.298 N 
ATOM      7  C   LIG    1       25.326 -13.592   3.987  0.00  0.00    +0.216 C 
ATOM      8  O   LIG    1       26.533 -13.468   3.781  0.00  0.00    -0.276 OA
ATOM      9  C   LIG    1       23.193 -14.972   3.846  0.00  0.00    +0.127 C 
ATOM     10  C   LIG    1       23.051 -16.157   4.815  0.00  0.00    +0.127 C 
ENDROOT
BRANCH   7  11
ATOM     11  C   LIG    1       24.543 -12.532   4.736  0.00  0.00    +0.107 C 
BRANCH  11  12
ATOM     12  C   LIG    1       23.754 -11.648   3.792  0.00  0.00    +0.089 C 
ATOM     13 BR   LIG    1       24.531 -11.763   2.006  0.00  0.00    -0.091 Br
ENDBRANCH  11  12
ENDBRANCH   7  11
BRANCH   2  14
ATOM     14  C   LIG    1       23.859 -19.582   3.286  0.00  0.00    +0.107 C 
BRANCH  14  15
ATOM     15  C   LIG    1       23.806 -20.749   4.251  0.00  0.00    +0.089 C 
ATOM     16 BR   LIG    1       25.351 -20.661   5.442  0.00  0.00    -0.091 Br
ENDBRANCH  14  15
ENDBRANCH   2  14
TORSDOF 4
ENDMDL
MODEL 6
REMARK VINA RESULT:      -0.3      2.088      2.480
REMARK  Name = *****
REMARK                            x       y       z     vdW  Elec       q    Type
REMARK                         _______ _______ _______ _____ _____    ______ ____
ROOT
ATOM      1  O   LIG    1       21.327 -18.556   3.863  0.00  0.00    -0.276 OA
ATOM      2  C   LIG    1       22.454 -18.977   4.094  0.00  0.00    +0.216 C 
ATOM      3  N   LIG    1       23.499 -18.141   4.474  0.00  0.00    -0.298 N 
ATOM      4  C   LIG    1       24.927 -18.499   4.388  0.00  0.00    +0.127 C 
ATOM      5  C   LIG    1       25.601 -17.741   3.226  0.00  0.00    +0.127 C 
ATOM      6  N   LIG    1       25.344 -16.297   3.341  0.00  0.00    -0.298 N 
ATOM      7  C   LIG    1       26.401 -15.436   3.601  0.00  0.00    +0.216 C 
ATOM      8  O   LIG    1       27.572 -15.810   3.574  0.00  0.00    -0.276 OA
ATOM      9  C   LIG    1       23.914 -15.947   3.422  0.00  0.00    +0.127 C 
ATOM     10  C   LIG    1       23.259 -16.695   4.594  0.00  0.00    +0.127 C 
ENDROOT
BRANCH   7  11
ATOM     11  C   LIG    1       26.040 -14.006   3.954  0.00  0.00    +0.107 C 
BRANCH  11  12
ATOM     12  C   LIG    1       26.168 -13.085   2.758  0.00  0.00    +0.089 C 
ATOM     13 BR   LIG    1       24.423 -12.312   2.354  0.00  0.00    -0.091 Br
ENDBRANCH  11  12
ENDBRANCH   7  11
BRANCH   2  14
ATOM     14  C   LIG    1       22.781 -20.459   4.026  0.00  0.00    +0.107 C 
BRANCH  14  15
ATOM     15  C   LIG    1       22.198 -21.227   5.194  0.00  0.00    +0.089 C 
ATOM     16 BR   LIG    1       23.364 -21.008   6.746  0.00  0.00    -0.091 Br
ENDBRANCH  14  15
ENDBRANCH   2  14
TORSDOF 4
ENDMDL
MODEL 7
REMARK VINA RESULT:      -0.2      1.467      6.360
REMARK  Name = *****
REMARK                            x       y       z     vdW  Elec       q    Type
REMARK                         _______ _______ _______ _____ _____    ______ ____
ROOT
ATOM      1  O   LIG    1       24.670 -12.204   4.191  0.00  0.00    -0.276 OA
ATOM      2  C   LIG    1       25.338 -12.949   3.483  0.00  0.00    +0.216 C 
ATOM      3  N   LIG    1       24.873 -14.189   3.058  0.00  0.00    -0.298 N 
ATOM      4  C   LIG    1       25.734 -15.274   2.553  0.00  0.00    +0.127 C 
ATOM      5  C   LIG    1       25.849 -16.399   3.602  0.00  0.00    +0.127 C 
ATOM      6  N   LIG    1       24.512 -16.837   4.030  0.00  0.00    -0.298 N 
ATOM      7  C   LIG    1       24.081 -18.118   3.717  0.00  0.00    +0.216 C 
ATOM      8  O   LIG    1       24.836 -18.964   3.238  0.00  0.00    -0.276 OA
ATOM      9  C   LIG    1       23.659 -15.747   4.538  0.00  0.00    +0.127 C 
ATOM     10  C   LIG    1       23.538 -14.641   3.477  0.00  0.00    +0.127 C 
ENDROOT
BRANCH   7  11
ATOM     11  C   LIG    1       22.616 -18.421   3.963  0.00  0.00    +0.107 C 
BRANCH  11  12
ATOM     12  C   LIG    1       22.401 -19.094   5.303  0.00  0.00    +0.089 C 
ATOM     13 BR   LIG    1       22.494 -21.028   5.071  0.00  0.00    -0.091 Br
ENDBRANCH  11  12
ENDBRANCH   7  11
BRANCH   2  14
ATOM     14  C   LIG    1       26.713 -12.546   2.977  0.00  0.00    +0.107 C 
BRANCH  14  15
ATOM     15  C   LIG    1       27.827 -13.210   3.760  0.00  0.00    +0.089 C 
ATOM     16 BR   LIG    1       27.253 -13.440   5.613  0.00  0.00    -0.091 Br
ENDBRANCH  14  15
ENDBRANCH   2  14
TORSDOF 4
ENDMDL
MODEL 8
REMARK VINA RESULT:      -0.1      4.405      6.091
REMARK  Name = *****
REMARK                            x       y       z     vdW  Elec       q    Type
REMARK                         _______ _______ _______ _____ _____    ______ ____
ROOT
ATOM      1  O   LIG    1       28.086 -19.043   5.013  0.00  0.00    -0.276 OA
ATOM      2  C   LIG    1       27.521 -20.027   5.476  0.00  0.00    +0.216 C 
ATOM      3  N   LIG    1       26.319 -20.505   4.966  0.00  0.00    -0.298 N 
ATOM      4  C   LIG    1       25.407 -21.410   5.689  0.00  0.00    +0.127 C 
ATOM      5  C   LIG    1       24.155 -20.644   6.163  0.00  0.00    +0.127 C 
ATOM      6  N   LIG    1       23.534 -19.933   5.035  0.00  0.00    -0.298 N 
ATOM      7  C   LIG    1       22.278 -20.323   4.592  0.00  0.00    +0.216 C 
ATOM      8  O   LIG    1       21.588 -21.133   5.210  0.00  0.00    -0.276 OA
ATOM      9  C   LIG    1       24.451 -19.027   4.319  0.00  0.00    +0.127 C 
ATOM     10  C   LIG    1       25.685 -19.807   3.838  0.00  0.00    +0.127 C 
ENDROOT
BRANCH   7  11
ATOM     11  C   LIG    1       21.805 -19.725   3.281  0.00  0.00    +0.107 C 
BRANCH  11  12
ATOM     12  C   LIG    1       21.271 -18.320   3.468  0.00  0.00    +0.089 C 
ATOM     13 BR   LIG    1       19.356 -18.307   3.101  0.00  0.00    -0.091 Br
ENDBRANCH  11  12
ENDBRANCH   7  11
BRANCH   2  14
ATOM     14  C   LIG    1       28.123 -20.827   6.619  0.00  0.00    +0.107 C 
BRANCH  14  15
ATOM     15  C   LIG    1       29.475 -20.291   7.043  0.00  0.00    +0.089 C 
ATOM     16 BR   LIG    1       29.445 -18.340   6.946  0.00  0.00    -0.091 Br
ENDBRANCH  14  15
ENDBRANCH   2  14
TORSDOF 4
ENDMDL
MODEL 9
REMARK VINA RESULT:       0.6      2.368      2.808
REMARK  Name = *****
REMARK                            x       y       z     vdW  Elec       q    Type
REMARK                         _______ _______ _______ _____ _____    ______ ____
ROOT
ATOM      1  O   LIG    1       24.185 -20.828   3.250  0.00  0.00    -0.276 OA
ATOM      2  C   LIG    1       24.949 -20.520   4.157  0.00  0.00    +0.216 C 
ATOM      3  N   LIG    1       25.235 -19.197   4.475  0.00  0.00    -0.298 N 
ATOM      4  C   LIG    1       26.405 -18.762   5.260  0.00  0.00    +0.127 C 
ATOM      5  C   LIG    1       27.446 -18.089   4.343  0.00  0.00    +0.127 C 
ATOM      6  N   LIG    1       26.816 -17.020   3.553  0.00  0.00    -0.298 N 
ATOM      7  C   LIG    1       27.181 -15.700   3.777  0.00  0.00    +0.216 C 
ATOM      8  O   LIG    1       28.133 -15.398   4.495  0.00  0.00    -0.276 OA
ATOM      9  C   LIG    1       25.650 -17.465   2.766  0.00  0.00    +0.127 C 
ATOM     10  C   LIG    1       24.613 -18.117   3.694  0.00  0.00    +0.127 C 
ENDROOT
BRANCH   7  11
ATOM     11  C   LIG    1       26.325 -14.638   3.115  0.00  0.00    +0.107 C 
BRANCH  11  12
ATOM     12  C   LIG    1       26.345 -13.339   3.895  0.00  0.00    +0.089 C 
ATOM     13 BR   LIG    1       24.512 -12.740   4.190  0.00  0.00    -0.091 Br
ENDBRANCH  11  12
ENDBRANCH   7  11
BRANCH   2  14
ATOM     14  C   LIG    1       25.609 -21.572   5.034  0.00  0.00    +0.107 C 
BRANCH  14  15
ATOM     15  C   LIG    1       25.203 -21.441   6.487  0.00  0.00    +0.089 C 
ATOM     16 BR   LIG    1       23.254 -21.471   6.609  0.00  0.00    -0.091 Br
ENDBRANCH  14  15
ENDBRANCH   2  14
TORSDOF 4
ENDMDL
