MODEL 1
REMARK VINA RESULT:      -0.1      0.000      0.000
REMARK  Name = *****
REMARK                            x       y       z     vdW  Elec       q    Type
REMARK                         _______ _______ _______ _____ _____    ______ ____
ROOT
ATOM      1  C   LIG    1       24.014 -14.546   5.159  0.00  0.00    +0.025 C 
ATOM      2  C   LIG    1       24.418 -14.172   3.720  0.00  0.00    +0.042 C 
ATOM      3  CA  LIG    1       25.560 -13.125   3.736  0.00  0.00    +0.201 C 
ATOM      4  N   LIG    1       26.836 -13.859   3.685  0.00  0.00    -0.271 N 
ATOM      5  C   LIG    1       26.837 -15.134   2.942  0.00  0.00    +0.165 C 
ATOM      6  CA  LIG    1       27.751 -15.718   4.045  0.00  0.00    +0.190 C 
ATOM      7  C   LIG    1       27.375 -14.422   4.813  0.00  0.00    +0.240 C 
ATOM      8  O   LIG    1       27.369 -14.015   5.954  0.00  0.00    -0.273 OA
ATOM      9  S   LIG    1       25.098 -15.702   2.918  0.00  0.00    -0.127 S 
ATOM     10  C   LIG    1       23.146 -13.777   2.962  0.00  0.00    +0.025 C 
ENDROOT
BRANCH   6  11
ATOM     11  N   LIG    1       27.346 -17.011   4.652  0.00  0.00    -0.299 N 
ATOM     12  H   LIG    1       26.366 -17.229   4.830  0.00  0.00    +0.150 HD
ATOM     13  C   LIG    1       28.271 -17.975   4.984  0.00  0.00    +0.251 C 
ATOM     14  O   LIG    1       29.474 -17.830   4.774  0.00  0.00    -0.272 OA
BRANCH  13  15
ATOM     15  C   LIG    1       27.722 -19.213   5.686  0.00  0.00    +0.324 C 
BRANCH  15  16
ATOM     16  O   LIG    1       27.014 -20.083   4.806  0.00  0.00    -0.483 OA
BRANCH  16  17
ATOM     17  C   LIG    1       25.653 -20.093   4.969  0.00  0.00    +0.121 A 
ATOM     18  C   LIG    1       24.967 -20.620   6.071  0.00  0.00    +0.045 A 
ATOM     19  C   LIG    1       23.588 -20.481   6.171  0.00  0.00    +0.004 A 
ATOM     20  C   LIG    1       22.871 -19.844   5.159  0.00  0.00    +0.000 A 
ATOM     21  C   LIG    1       23.535 -19.373   4.032  0.00  0.00    +0.004 A 
ATOM     22  C   LIG    1       24.925 -19.506   3.935  0.00  0.00    +0.045 A 
ENDBRANCH  16  17
ENDBRANCH  15  16
ENDBRANCH  13  15
ENDBRANCH   6  11
BRANCH   3  23
ATOM     23  C   LIG    1       25.584 -12.085   2.601  0.00  0.00    +0.327 C 
ATOM     24  O   LIG    1       24.621 -11.451   2.199  0.00  0.00    -0.249 OA
BRANCH  23  25
ATOM     25  OXT LIG    1       26.838 -11.819   2.151  0.00  0.00    -0.479 OA
ATOM     26  HXT LIG    1       26.797 -11.292   1.324  0.00  0.00    +0.295 HD
ENDBRANCH  23  25
ENDBRANCH   3  23
TORSDOF 6
ENDMDL
MODEL 2
REMARK VINA RESULT:       1.0      2.563      4.169
REMARK  Name = *****
REMARK                            x       y       z     vdW  Elec       q    Type
REMARK                         _______ _______ _______ _____ _____    ______ ____
ROOT
ATOM      1  C   LIG    1       26.404 -13.701   1.812  0.00  0.00    +0.025 C 
ATOM      2  C   LIG    1       27.218 -13.880   3.109  0.00  0.00    +0.042 C 
ATOM      3  CA  LIG    1       26.974 -12.687   4.066  0.00  0.00    +0.201 C 
ATOM      4  N   LIG    1       25.861 -13.053   4.957  0.00  0.00    -0.271 N 
ATOM      5  C   LIG    1       25.729 -14.482   5.300  0.00  0.00    +0.165 C 
ATOM      6  CA  LIG    1       24.196 -14.319   5.177  0.00  0.00    +0.190 C 
ATOM      7  C   LIG    1       24.558 -12.949   4.543  0.00  0.00    +0.240 C 
ATOM      8  O   LIG    1       24.041 -12.117   3.830  0.00  0.00    -0.273 OA
ATOM      9  S   LIG    1       26.577 -15.398   3.962  0.00  0.00    -0.127 S 
ATOM     10  C   LIG    1       28.674 -14.148   2.716  0.00  0.00    +0.025 C 
ENDROOT
BRANCH   6  11
ATOM     11  N   LIG    1       23.473 -15.295   4.323  0.00  0.00    -0.299 N 
ATOM     12  H   LIG    1       23.757 -15.468   3.358  0.00  0.00    +0.150 HD
ATOM     13  C   LIG    1       22.404 -16.020   4.799  0.00  0.00    +0.251 C 
ATOM     14  O   LIG    1       22.006 -15.919   5.958  0.00  0.00    -0.272 OA
BRANCH  13  15
ATOM     15  C   LIG    1       21.699 -16.915   3.784  0.00  0.00    +0.324 C 
BRANCH  15  16
ATOM     16  O   LIG    1       21.511 -18.247   4.254  0.00  0.00    -0.483 OA
BRANCH  16  17
ATOM     17  C   LIG    1       22.659 -18.981   4.401  0.00  0.00    +0.121 A 
ATOM     18  C   LIG    1       23.763 -18.951   3.539  0.00  0.00    +0.045 A 
ATOM     19  C   LIG    1       24.915 -19.664   3.848  0.00  0.00    +0.004 A 
ATOM     20  C   LIG    1       24.971 -20.441   5.005  0.00  0.00    +0.000 A 
ATOM     21  C   LIG    1       23.859 -20.526   5.835  0.00  0.00    +0.004 A 
ATOM     22  C   LIG    1       22.700 -19.802   5.528  0.00  0.00    +0.045 A 
ENDBRANCH  16  17
ENDBRANCH  15  16
ENDBRANCH  13  15
ENDBRANCH   6  11
BRANCH   3  23
ATOM     23  C   LIG    1       28.148 -12.243   4.958  0.00  0.00    +0.327 C 
ATOM     24  O   LIG    1       29.109 -11.586   4.591  0.00  0.00    -0.249 OA
BRANCH  23  25
ATOM     25  OXT LIG    1       27.958 -12.538   6.271  0.00  0.00    -0.479 OA
ATOM     26  HXT LIG    1       28.742 -12.267   6.796  0.00  0.00    +0.295 HD
ENDBRANCH  23  25
ENDBRANCH   3  23
TORSDOF 6
ENDMDL
MODEL 3
REMARK VINA RESULT:       1.2      1.840      3.077
REMARK  Name = *****
REMARK                            x       y       z     vdW  Elec       q    Type
REMARK                         _______ _______ _______ _____ _____    ______ ____
ROOT
ATOM      1  C   LIG    1       26.096 -14.325   6.199  0.00  0.00    +0.025 C 
ATOM      2  C   LIG    1       25.606 -13.625   4.917  0.00  0.00    +0.042 C 
ATOM      3  CA  LIG    1       26.639 -13.806   3.776  0.00  0.00    +0.201 C 
ATOM      4  N   LIG    1       26.257 -15.010   3.019  0.00  0.00    -0.271 N 
ATOM      5  C   LIG    1       24.815 -15.313   2.942  0.00  0.00    +0.165 C 
ATOM      6  CA  LIG    1       25.171 -16.809   3.108  0.00  0.00    +0.190 C 
ATOM      7  C   LIG    1       26.579 -16.264   3.472  0.00  0.00    +0.240 C 
ATOM      8  O   LIG    1       27.574 -16.641   4.050  0.00  0.00    -0.273 OA
ATOM      9  S   LIG    1       24.048 -14.477   4.377  0.00  0.00    -0.127 S 
ATOM     10  C   LIG    1       25.243 -12.181   5.279  0.00  0.00    +0.025 C 
ENDROOT
BRANCH   6  11
ATOM     11  N   LIG    1       24.445 -17.570   4.156  0.00  0.00    -0.299 N 
ATOM     12  H   LIG    1       24.411 -17.244   5.121  0.00  0.00    +0.150 HD
ATOM     13  C   LIG    1       23.772 -18.737   3.867  0.00  0.00    +0.251 C 
ATOM     14  O   LIG    1       23.716 -19.197   2.727  0.00  0.00    -0.272 OA
BRANCH  13  15
ATOM     15  C   LIG    1       23.151 -19.462   5.057  0.00  0.00    +0.324 C 
BRANCH  15  16
ATOM     16  O   LIG    1       23.868 -20.636   5.428  0.00  0.00    -0.483 OA
BRANCH  16  17
ATOM     17  C   LIG    1       25.200 -20.447   5.691  0.00  0.00    +0.121 A 
ATOM     18  C   LIG    1       25.816 -20.605   6.939  0.00  0.00    +0.045 A 
ATOM     19  C   LIG    1       27.195 -20.485   7.062  0.00  0.00    +0.004 A 
ATOM     20  C   LIG    1       27.975 -20.174   5.949  0.00  0.00    +0.000 A 
ATOM     21  C   LIG    1       27.367 -19.953   4.718  0.00  0.00    +0.004 A 
ATOM     22  C   LIG    1       25.978 -20.082   4.592  0.00  0.00    +0.045 A 
ENDBRANCH  16  17
ENDBRANCH  15  16
ENDBRANCH  13  15
ENDBRANCH   6  11
BRANCH   3  23
ATOM     23  C   LIG    1       26.786 -12.656   2.764  0.00  0.00    +0.327 C 
ATOM     24  O   LIG    1       25.926 -12.283   1.983  0.00  0.00    -0.249 OA
BRANCH  23  25
ATOM     25  OXT LIG    1       27.952 -11.971   2.904  0.00  0.00    -0.479 OA
ATOM     26  HXT LIG    1       28.145 -11.820   3.855  0.00  0.00    +0.295 HD
ENDBRANCH  23  25
ENDBRANCH   3  23
TORSDOF 6
ENDMDL
MODEL 4
REMARK VINA RESULT:       1.8      2.828      6.837
REMARK  Name = *****
REMARK                            x       y       z     vdW  Elec       q    Type
REMARK                         _______ _______ _______ _____ _____    ______ ____
ROOT
ATOM      1  C   LIG    1       23.731 -19.115   7.061  0.00  0.00    +0.025 C 
ATOM      2  C   LIG    1       23.650 -20.227   5.997  0.00  0.00    +0.042 C 
ATOM      3  CA  LIG    1       22.522 -19.919   4.980  0.00  0.00    +0.201 C 
ATOM      4  N   LIG    1       23.124 -19.175   3.861  0.00  0.00    -0.271 N 
ATOM      5  C   LIG    1       24.527 -19.495   3.532  0.00  0.00    +0.165 C 
ATOM      6  CA  LIG    1       24.761 -17.986   3.286  0.00  0.00    +0.190 C 
ATOM      7  C   LIG    1       23.369 -17.829   3.955  0.00  0.00    +0.240 C 
ATOM      8  O   LIG    1       22.721 -16.966   4.505  0.00  0.00    -0.273 OA
ATOM      9  S   LIG    1       25.248 -20.211   5.053  0.00  0.00    -0.127 S 
ATOM     10  C   LIG    1       23.556 -21.570   6.728  0.00  0.00    +0.025 C 
ENDROOT
BRANCH   6  11
ATOM     11  N   LIG    1       25.919 -17.357   3.969  0.00  0.00    -0.299 N 
ATOM     12  H   LIG    1       26.272 -17.717   4.856  0.00  0.00    +0.150 HD
ATOM     13  C   LIG    1       26.576 -16.273   3.430  0.00  0.00    +0.251 C 
ATOM     14  O   LIG    1       26.257 -15.786   2.347  0.00  0.00    -0.272 OA
BRANCH  13  15
ATOM     15  C   LIG    1       27.686 -15.671   4.286  0.00  0.00    +0.324 C 
BRANCH  15  16
ATOM     16  O   LIG    1       27.814 -14.262   4.120  0.00  0.00    -0.483 OA
BRANCH  16  17
ATOM     17  C   LIG    1       26.643 -13.597   3.860  0.00  0.00    +0.121 A 
ATOM     18  C   LIG    1       26.327 -12.939   2.665  0.00  0.00    +0.045 A 
ATOM     19  C   LIG    1       25.065 -12.387   2.480  0.00  0.00    +0.004 A 
ATOM     20  C   LIG    1       24.113 -12.455   3.497  0.00  0.00    +0.000 A 
ATOM     21  C   LIG    1       24.438 -13.052   4.710  0.00  0.00    +0.004 A 
ATOM     22  C   LIG    1       25.707 -13.616   4.893  0.00  0.00    +0.045 A 
ENDBRANCH  16  17
ENDBRANCH  15  16
ENDBRANCH  13  15
ENDBRANCH   6  11
BRANCH   3  23
ATOM     23  C   LIG    1       21.763 -21.116   4.380  0.00  0.00    +0.327 C 
ATOM     24  O   LIG    1       20.711 -21.571   4.798  0.00  0.00    -0.249 OA
BRANCH  23  25
ATOM     25  OXT LIG    1       22.310 -21.563   3.218  0.00  0.00    -0.479 OA
ATOM     26  HXT LIG    1       22.385 -20.826   2.573  0.00  0.00    +0.295 HD
ENDBRANCH  23  25
ENDBRANCH   3  23
TORSDOF 6
ENDMDL
MODEL 5
REMARK VINA RESULT:       2.2      2.400      4.069
REMARK  Name = *****
REMARK                            x       y       z     vdW  Elec       q    Type
REMARK                         _______ _______ _______ _____ _____    ______ ____
ROOT
ATOM      1  C   LIG    1       26.889 -15.825   2.496  0.00  0.00    +0.025 C 
ATOM      2  C   LIG    1       27.274 -14.993   3.735  0.00  0.00    +0.042 C 
ATOM      3  CA  LIG    1       27.135 -13.480   3.432  0.00  0.00    +0.201 C 
ATOM      4  N   LIG    1       25.779 -13.071   3.833  0.00  0.00    -0.271 N 
ATOM      5  C   LIG    1       25.183 -13.786   4.978  0.00  0.00    +0.165 C 
ATOM      6  CA  LIG    1       23.832 -13.764   4.224  0.00  0.00    +0.190 C 
ATOM      7  C   LIG    1       24.699 -13.304   3.020  0.00  0.00    +0.240 C 
ATOM      8  O   LIG    1       24.622 -13.264   1.812  0.00  0.00    -0.273 OA
ATOM      9  S   LIG    1       26.053 -15.391   5.075  0.00  0.00    -0.127 S 
ATOM     10  C   LIG    1       28.653 -15.466   4.208  0.00  0.00    +0.025 C 
ENDROOT
BRANCH   6  11
ATOM     11  N   LIG    1       23.107 -15.052   4.088  0.00  0.00    -0.299 N 
ATOM     12  H   LIG    1       23.136 -15.587   3.220  0.00  0.00    +0.150 HD
ATOM     13  C   LIG    1       22.379 -15.586   5.128  0.00  0.00    +0.251 C 
ATOM     14  O   LIG    1       22.312 -15.041   6.229  0.00  0.00    -0.272 OA
BRANCH  13  15
ATOM     15  C   LIG    1       21.609 -16.865   4.816  0.00  0.00    +0.324 C 
BRANCH  15  16
ATOM     16  O   LIG    1       22.227 -17.653   3.802  0.00  0.00    -0.483 OA
BRANCH  16  17
ATOM     17  C   LIG    1       22.892 -18.765   4.252  0.00  0.00    +0.121 A 
ATOM     18  C   LIG    1       22.365 -19.739   5.109  0.00  0.00    +0.045 A 
ATOM     19  C   LIG    1       23.101 -20.877   5.415  0.00  0.00    +0.004 A 
ATOM     20  C   LIG    1       24.384 -21.045   4.896  0.00  0.00    +0.000 A 
ATOM     21  C   LIG    1       24.940 -20.055   4.093  0.00  0.00    +0.004 A 
ATOM     22  C   LIG    1       24.195 -18.911   3.779  0.00  0.00    +0.045 A 
ENDBRANCH  16  17
ENDBRANCH  15  16
ENDBRANCH  13  15
ENDBRANCH   6  11
BRANCH   3  23
ATOM     23  C   LIG    1       28.125 -12.525   4.122  0.00  0.00    +0.327 C 
ATOM     24  O   LIG    1       28.118 -12.229   5.306  0.00  0.00    -0.249 OA
BRANCH  23  25
ATOM     25  OXT LIG    1       29.134 -12.123   3.304  0.00  0.00    -0.479 OA
ATOM     26  HXT LIG    1       28.864 -12.213   2.364  0.00  0.00    +0.295 HD
ENDBRANCH  23  25
ENDBRANCH   3  23
TORSDOF 6
ENDMDL
MODEL 6
REMARK VINA RESULT:       2.7      2.479      6.773
REMARK  Name = *****
REMARK                            x       y       z     vdW  Elec       q    Type
REMARK                         _______ _______ _______ _____ _____    ______ ____
ROOT
ATOM      1  C   LIG    1       22.106 -18.336   2.372  0.00  0.00    +0.025 C 
ATOM      2  C   LIG    1       22.166 -18.813   3.836  0.00  0.00    +0.042 C 
ATOM      3  CA  LIG    1       22.776 -20.235   3.914  0.00  0.00    +0.201 C 
ATOM      4  N   LIG    1       24.226 -20.085   4.118  0.00  0.00    -0.271 N 
ATOM      5  C   LIG    1       24.668 -18.908   4.889  0.00  0.00    +0.165 C 
ATOM      6  CA  LIG    1       25.854 -18.770   3.905  0.00  0.00    +0.190 C 
ATOM      7  C   LIG    1       25.066 -19.814   3.068  0.00  0.00    +0.240 C 
ATOM      8  O   LIG    1       25.017 -20.205   1.923  0.00  0.00    -0.273 OA
ATOM      9  S   LIG    1       23.321 -17.679   4.744  0.00  0.00    -0.127 S 
ATOM     10  C   LIG    1       20.771 -18.639   4.444  0.00  0.00    +0.025 C 
ENDROOT
BRANCH   6  11
ATOM     11  N   LIG    1       26.079 -17.436   3.292  0.00  0.00    -0.299 N 
ATOM     12  H   LIG    1       25.454 -17.070   2.574  0.00  0.00    +0.150 HD
ATOM     13  C   LIG    1       27.127 -16.631   3.678  0.00  0.00    +0.251 C 
ATOM     14  O   LIG    1       27.916 -16.959   4.563  0.00  0.00    -0.272 OA
BRANCH  13  15
ATOM     15  C   LIG    1       27.292 -15.330   2.898  0.00  0.00    +0.324 C 
BRANCH  15  16
ATOM     16  O   LIG    1       27.210 -14.172   3.724  0.00  0.00    -0.483 OA
BRANCH  16  17
ATOM     17  C   LIG    1       26.045 -13.458   3.612  0.00  0.00    +0.121 A 
ATOM     18  C   LIG    1       25.211 -13.087   4.674  0.00  0.00    +0.045 A 
ATOM     19  C   LIG    1       24.107 -12.273   4.448  0.00  0.00    +0.004 A 
ATOM     20  C   LIG    1       23.802 -11.846   3.157  0.00  0.00    +0.000 A 
ATOM     21  C   LIG    1       24.588 -12.260   2.087  0.00  0.00    +0.004 A 
ATOM     22  C   LIG    1       25.705 -13.074   2.316  0.00  0.00    +0.045 A 
ENDBRANCH  16  17
ENDBRANCH  15  16
ENDBRANCH  13  15
ENDBRANCH   6  11
BRANCH   3  23
ATOM     23  C   LIG    1       22.252 -21.172   5.017  0.00  0.00    +0.327 C 
ATOM     24  O   LIG    1       22.842 -21.455   6.047  0.00  0.00    -0.249 OA
BRANCH  23  25
ATOM     25  OXT LIG    1       20.969 -21.572   4.809  0.00  0.00    -0.479 OA
ATOM     26  HXT LIG    1       20.390 -21.239   5.528  0.00  0.00    +0.295 HD
ENDBRANCH  23  25
ENDBRANCH   3  23
TORSDOF 6
ENDMDL
