MODEL 1
REMARK VINA RESULT:      -0.8      0.000      0.000
REMARK  Name = *****
REMARK                            x       y       z     vdW  Elec       q    Type
REMARK                         _______ _______ _______ _____ _____    ______ ____
ROOT
ATOM      1  C   LIG    1       26.003 -15.932   3.578  0.00  0.00    +0.060 A 
ATOM      2  C   LIG    1       26.255 -17.304   3.853  0.00  0.00    +0.040 A 
ATOM      3  I   LIG    1       28.279 -17.814   4.461  0.00  0.00    -0.042 I 
ATOM      4  C   LIG    1       25.201 -18.253   3.996  0.00  0.00    -0.018 A 
ATOM      5  C   LIG    1       23.886 -17.733   3.946  0.00  0.00    +0.019 A 
ATOM      6  I   LIG    1       22.143 -18.919   4.087  0.00  0.00    -0.043 I 
ATOM      7  C   LIG    1       23.639 -16.351   3.846  0.00  0.00    +0.030 A 
ATOM      8  C   LIG    1       24.692 -15.458   3.677  0.00  0.00    +0.037 A 
ATOM      9  I   LIG    1       24.233 -13.407   3.571  0.00  0.00    -0.042 I 
ENDROOT
BRANCH   1  11
ATOM     10  C   LIG    1       27.615 -14.188   4.139  0.00  0.00    +0.217 C 
ATOM     11  N   LIG    1       27.024 -15.020   3.191  0.00  0.00    -0.284 N 
ATOM     12  H   LIG    1       27.680 -15.378   2.504  0.00  0.00    +0.155 HD
ATOM     13  O   LIG    1       27.295 -14.132   5.321  0.00  0.00    -0.276 OA
BRANCH  10  14
ATOM     14  C   LIG    1       28.725 -13.334   3.550  0.00  0.00    +0.096 C 
BRANCH  14  16
ATOM     15  C   LIG    1       29.163 -11.837   5.548  0.00  0.00    +0.004 C 
ATOM     16  C   LIG    1       28.729 -11.905   4.091  0.00  0.00    +0.006 C 
ENDBRANCH  14  16
ENDBRANCH  10  14
ENDBRANCH   1  11
BRANCH   4  17
ATOM     17  C   LIG    1       25.464 -19.740   4.241  0.00  0.00    +0.052 C 
BRANCH  17  18
ATOM     18  C   LIG    1       25.433 -20.239   5.707  0.00  0.00    +0.102 C 
BRANCH  18  19
ATOM     19  C   LIG    1       26.831 -20.766   6.049  0.00  0.00    +0.308 C 
ATOM     20  O   LIG    1       27.071 -21.397   7.062  0.00  0.00    -0.251 OA
BRANCH  19  21
ATOM     21  O   LIG    1       27.816 -20.427   5.181  0.00  0.00    -0.480 OA
ATOM     22  H   LIG    1       28.420 -21.138   4.912  0.00  0.00    +0.295 HD
ENDBRANCH  19  21
ENDBRANCH  18  19
BRANCH  18  23
ATOM     23  C   LIG    1       24.313 -21.245   6.012  0.00  0.00    +0.011 C 
ATOM     24  C   LIG    1       23.314 -20.767   7.062  0.00  0.00    +0.004 C 
ENDBRANCH  18  23
ENDBRANCH  17  18
ENDBRANCH   4  17
TORSDOF 8
ENDMDL
MODEL 2
REMARK VINA RESULT:       0.1      1.775      2.145
REMARK  Name = *****
REMARK                            x       y       z     vdW  Elec       q    Type
REMARK                         _______ _______ _______ _____ _____    ______ ____
ROOT
ATOM      1  C   LIG    1       25.646 -16.017   3.857  0.00  0.00    +0.060 A 
ATOM      2  C   LIG    1       25.754 -17.433   3.776  0.00  0.00    +0.040 A 
ATOM      3  I   LIG    1       27.716 -18.279   4.177  0.00  0.00    -0.042 I 
ATOM      4  C   LIG    1       24.607 -18.276   3.713  0.00  0.00    -0.018 A 
ATOM      5  C   LIG    1       23.354 -17.631   3.834  0.00  0.00    +0.019 A 
ATOM      6  I   LIG    1       21.497 -18.634   3.731  0.00  0.00    -0.043 I 
ATOM      7  C   LIG    1       23.253 -16.250   4.086  0.00  0.00    +0.030 A 
ATOM      8  C   LIG    1       24.393 -15.453   4.111  0.00  0.00    +0.037 A 
ATOM      9  I   LIG    1       24.151 -13.405   4.530  0.00  0.00    -0.042 I 
ENDROOT
BRANCH   1  11
ATOM     10  C   LIG    1       26.749 -14.208   2.646  0.00  0.00    +0.217 C 
ATOM     11  N   LIG    1       26.755 -15.145   3.676  0.00  0.00    -0.284 N 
ATOM     12  H   LIG    1       27.170 -14.796   4.535  0.00  0.00    +0.155 HD
ATOM     13  O   LIG    1       25.857 -14.087   1.812  0.00  0.00    -0.276 OA
BRANCH  10  14
ATOM     14  C   LIG    1       27.987 -13.328   2.653  0.00  0.00    +0.096 C 
BRANCH  14  16
ATOM     15  C   LIG    1       28.639 -12.128   4.788  0.00  0.00    +0.004 C 
ATOM     16  C   LIG    1       28.764 -13.402   3.966  0.00  0.00    +0.006 C 
ENDBRANCH  14  16
ENDBRANCH  10  14
ENDBRANCH   1  11
BRANCH   4  17
ATOM     17  C   LIG    1       24.714 -19.796   3.574  0.00  0.00    +0.052 C 
BRANCH  17  18
ATOM     18  C   LIG    1       24.874 -20.623   4.874  0.00  0.00    +0.102 C 
BRANCH  18  19
ATOM     19  C   LIG    1       23.475 -20.851   5.456  0.00  0.00    +0.308 C 
ATOM     20  O   LIG    1       22.647 -21.570   4.927  0.00  0.00    -0.251 OA
BRANCH  19  21
ATOM     21  O   LIG    1       23.180 -20.143   6.574  0.00  0.00    -0.480 OA
ATOM     22  H   LIG    1       22.467 -19.488   6.496  0.00  0.00    +0.295 HD
ENDBRANCH  19  21
ENDBRANCH  18  19
BRANCH  18  23
ATOM     23  C   LIG    1       25.864 -20.029   5.887  0.00  0.00    +0.011 C 
ATOM     24  C   LIG    1       26.415 -21.040   6.888  0.00  0.00    +0.004 C 
ENDBRANCH  18  23
ENDBRANCH  17  18
ENDBRANCH   4  17
TORSDOF 8
ENDMDL
MODEL 3
REMARK VINA RESULT:       0.1      2.540      7.173
REMARK  Name = *****
REMARK                            x       y       z     vdW  Elec       q    Type
REMARK                         _______ _______ _______ _____ _____    ______ ____
ROOT
ATOM      1  C   LIG    1       26.334 -18.019   4.018  0.00  0.00    +0.060 A 
ATOM      2  C   LIG    1       25.490 -16.953   3.604  0.00  0.00    +0.040 A 
ATOM      3  I   LIG    1       23.350 -17.327   3.675  0.00  0.00    -0.042 I 
ATOM      4  C   LIG    1       25.982 -15.628   3.418  0.00  0.00    -0.018 A 
ATOM      5  C   LIG    1       27.338 -15.414   3.763  0.00  0.00    +0.019 A 
ATOM      6  I   LIG    1       28.332 -13.563   3.544  0.00  0.00    -0.043 I 
ATOM      7  C   LIG    1       28.125 -16.430   4.334  0.00  0.00    +0.030 A 
ATOM      8  C   LIG    1       27.620 -17.720   4.473  0.00  0.00    +0.037 A 
ATOM      9  I   LIG    1       28.857 -19.167   5.370  0.00  0.00    -0.042 I 
ENDROOT
BRANCH   1  11
ATOM     10  C   LIG    1       25.722 -20.087   5.160  0.00  0.00    +0.217 C 
ATOM     11  N   LIG    1       25.933 -19.384   3.977  0.00  0.00    -0.284 N 
ATOM     12  H   LIG    1       25.264 -19.612   3.248  0.00  0.00    +0.155 HD
ATOM     13  O   LIG    1       25.900 -19.636   6.287  0.00  0.00    -0.276 OA
BRANCH  10  14
ATOM     14  C   LIG    1       25.238 -21.507   4.914  0.00  0.00    +0.096 C 
BRANCH  14  16
ATOM     15  C   LIG    1       22.835 -20.970   5.517  0.00  0.00    +0.004 C 
ATOM     16  C   LIG    1       23.774 -21.571   4.481  0.00  0.00    +0.006 C 
ENDBRANCH  14  16
ENDBRANCH  10  14
ENDBRANCH   1  11
BRANCH   4  17
ATOM     17  C   LIG    1       25.093 -14.485   2.924  0.00  0.00    +0.052 C 
BRANCH  17  18
ATOM     18  C   LIG    1       24.210 -13.762   3.971  0.00  0.00    +0.102 C 
BRANCH  18  19
ATOM     19  C   LIG    1       23.914 -12.356   3.438  0.00  0.00    +0.308 C 
ATOM     20  O   LIG    1       23.496 -11.455   4.142  0.00  0.00    -0.251 OA
BRANCH  19  21
ATOM     21  O   LIG    1       24.081 -12.186   2.103  0.00  0.00    -0.480 OA
ATOM     22  H   LIG    1       24.940 -12.452   1.737  0.00  0.00    +0.295 HD
ENDBRANCH  19  21
ENDBRANCH  18  19
BRANCH  18  23
ATOM     23  C   LIG    1       24.784 -13.764   5.395  0.00  0.00    +0.011 C 
ATOM     24  C   LIG    1       26.087 -12.983   5.544  0.00  0.00    +0.004 C 
ENDBRANCH  18  23
ENDBRANCH  17  18
ENDBRANCH   4  17
TORSDOF 8
ENDMDL
MODEL 4
REMARK VINA RESULT:       1.8      2.871      7.066
REMARK  Name = *****
REMARK                            x       y       z     vdW  Elec       q    Type
REMARK                         _______ _______ _______ _____ _____    ______ ____
ROOT
ATOM      1  C   LIG    1       24.667 -18.810   3.918  0.00  0.00    +0.060 A 
ATOM      2  C   LIG    1       25.219 -17.521   3.683  0.00  0.00    +0.040 A 
ATOM      3  I   LIG    1       23.803 -15.916   3.302  0.00  0.00    -0.042 I 
ATOM      4  C   LIG    1       26.587 -17.225   3.950  0.00  0.00    -0.018 A 
ATOM      5  C   LIG    1       27.341 -18.259   4.554  0.00  0.00    +0.019 A 
ATOM      6  I   LIG    1       29.396 -18.103   5.017  0.00  0.00    -0.043 I 
ATOM      7  C   LIG    1       26.750 -19.475   4.943  0.00  0.00    +0.030 A 
ATOM      8  C   LIG    1       25.419 -19.741   4.639  0.00  0.00    +0.037 A 
ATOM      9  I   LIG    1       24.609 -21.572   5.291  0.00  0.00    -0.042 I 
ENDROOT
BRANCH   1  11
ATOM     10  C   LIG    1       22.259 -19.044   4.242  0.00  0.00    +0.217 C 
ATOM     11  N   LIG    1       23.386 -19.202   3.439  0.00  0.00    -0.284 N 
ATOM     12  H   LIG    1       23.213 -18.998   2.460  0.00  0.00    +0.155 HD
ATOM     13  O   LIG    1       22.272 -18.621   5.394  0.00  0.00    -0.276 OA
BRANCH  10  14
ATOM     14  C   LIG    1       20.979 -19.458   3.536  0.00  0.00    +0.096 C 
BRANCH  14  16
ATOM     15  C   LIG    1       19.470 -17.814   2.335  0.00  0.00    +0.004 C 
ATOM     16  C   LIG    1       19.862 -18.426   3.672  0.00  0.00    +0.006 C 
ENDBRANCH  14  16
ENDBRANCH  10  14
ENDBRANCH   1  11
BRANCH   4  17
ATOM     17  C   LIG    1       27.202 -15.856   3.652  0.00  0.00    +0.052 C 
BRANCH  17  18
ATOM     18  C   LIG    1       26.308 -14.609   3.864  0.00  0.00    +0.102 C 
BRANCH  18  19
ATOM     19  C   LIG    1       26.799 -13.517   2.907  0.00  0.00    +0.308 C 
ATOM     20  O   LIG    1       26.043 -12.773   2.309  0.00  0.00    -0.251 OA
BRANCH  19  21
ATOM     21  O   LIG    1       28.139 -13.469   2.707  0.00  0.00    -0.480 OA
ATOM     22  H   LIG    1       28.675 -14.103   3.212  0.00  0.00    +0.295 HD
ENDBRANCH  19  21
ENDBRANCH  18  19
BRANCH  18  23
ATOM     23  C   LIG    1       26.209 -14.139   5.323  0.00  0.00    +0.011 C 
ATOM     24  C   LIG    1       27.506 -13.563   5.883  0.00  0.00    +0.004 C 
ENDBRANCH  18  23
ENDBRANCH  17  18
ENDBRANCH   4  17
TORSDOF 8
ENDMDL
