MODEL 1
REMARK VINA RESULT:      -5.4      0.000      0.000
REMARK  Name = *****
REMARK                            x       y       z     vdW  Elec       q    Type
REMARK                         _______ _______ _______ _____ _____    ______ ____
ROOT
ATOM      1  C   LIG    1       30.738 -20.313   8.639  0.00  0.00    +0.120 C 
ATOM      2  C   LIG    1       31.474 -19.667   7.444  0.00  0.00    +0.070 C 
ATOM      3  C   LIG    1       30.105 -19.217   6.886  0.00  0.00    +0.171 C 
ATOM      4  F   LIG    1       29.767 -17.935   7.171  0.00  0.00    -0.245 F 
ATOM      5  C   LIG    1       29.444 -20.278   7.793  0.00  0.00    +0.070 C 
ENDROOT
BRANCH   1   6
ATOM      6  N   LIG    1       30.621 -19.300   9.730  0.00  0.00    -0.316 NA
ATOM      7  H   LIG    1       31.225 -18.485   9.577  0.00  0.00    +0.119 HD
ATOM      8  H   LIG    1       29.682 -18.889   9.802  0.00  0.00    +0.119 HD
ENDBRANCH   1   6
BRANCH   1   9
ATOM      9  C   LIG    1       31.229 -21.714   9.169  0.00  0.00    +0.325 C 
ATOM     10  O   LIG    1       30.817 -22.323  10.149  0.00  0.00    -0.249 OA
BRANCH   9  11
ATOM     11  O   LIG    1       32.222 -22.220   8.383  0.00  0.00    -0.479 OA
ATOM     12  H   LIG    1       33.048 -22.182   8.922  0.00  0.00    +0.295 HD
ENDBRANCH   9  11
ENDBRANCH   1   9
TORSDOF 3
ENDMDL
MODEL 2
REMARK VINA RESULT:      -5.4      2.883      3.169
REMARK  Name = *****
REMARK                            x       y       z     vdW  Elec       q    Type
REMARK                         _______ _______ _______ _____ _____    ______ ____
ROOT
ATOM      1  C   LIG    1       31.285 -19.103   8.630  0.00  0.00    +0.120 C 
ATOM      2  C   LIG    1       29.742 -19.065   8.561  0.00  0.00    +0.070 C 
ATOM      3  C   LIG    1       29.823 -19.657   7.136  0.00  0.00    +0.171 C 
ATOM      4  F   LIG    1       29.637 -20.998   7.066  0.00  0.00    -0.245 F 
ATOM      5  C   LIG    1       31.299 -19.204   7.088  0.00  0.00    +0.070 C 
ENDROOT
BRANCH   1   6
ATOM      6  N   LIG    1       31.703 -20.420   9.197  0.00  0.00    -0.316 NA
ATOM      7  H   LIG    1       32.605 -20.372   9.682  0.00  0.00    +0.119 HD
ATOM      8  H   LIG    1       31.064 -20.771   9.921  0.00  0.00    +0.119 HD
ENDBRANCH   1   6
BRANCH   1   9
ATOM      9  C   LIG    1       32.049 -17.894   9.293  0.00  0.00    +0.325 C 
ATOM     10  O   LIG    1       32.357 -17.767  10.471  0.00  0.00    -0.249 OA
BRANCH   9  11
ATOM     11  O   LIG    1       32.354 -16.937   8.371  0.00  0.00    -0.479 OA
ATOM     12  H   LIG    1       32.424 -16.086   8.867  0.00  0.00    +0.295 HD
ENDBRANCH   9  11
ENDBRANCH   1   9
TORSDOF 3
ENDMDL
MODEL 3
REMARK VINA RESULT:      -5.2      1.675      1.853
REMARK  Name = *****
REMARK                            x       y       z     vdW  Elec       q    Type
REMARK                         _______ _______ _______ _____ _____    ______ ____
ROOT
ATOM      1  C   LIG    1       30.156 -20.023   8.172  0.00  0.00    +0.120 C 
ATOM      2  C   LIG    1       30.230 -19.589   6.691  0.00  0.00    +0.070 C 
ATOM      3  C   LIG    1       28.957 -20.421   6.417  0.00  0.00    +0.171 C 
ATOM      4  F   LIG    1       27.802 -19.710   6.407  0.00  0.00    -0.245 F 
ATOM      5  C   LIG    1       29.235 -21.184   7.731  0.00  0.00    +0.070 C 
ENDROOT
BRANCH   1   6
ATOM      6  N   LIG    1       29.336 -19.024   8.920  0.00  0.00    -0.316 NA
ATOM      7  H   LIG    1       28.720 -19.460   9.614  0.00  0.00    +0.119 HD
ATOM      8  H   LIG    1       29.902 -18.375   9.481  0.00  0.00    +0.119 HD
ENDBRANCH   1   6
BRANCH   1   9
ATOM      9  C   LIG    1       31.490 -20.392   8.926  0.00  0.00    +0.325 C 
ATOM     10  O   LIG    1       31.925 -21.513   9.161  0.00  0.00    -0.249 OA
BRANCH   9  11
ATOM     11  O   LIG    1       32.161 -19.272   9.320  0.00  0.00    -0.479 OA
ATOM     12  H   LIG    1       33.029 -19.289   8.849  0.00  0.00    +0.295 HD
ENDBRANCH   9  11
ENDBRANCH   1   9
TORSDOF 3
ENDMDL
MODEL 4
REMARK VINA RESULT:      -5.2      7.745      8.425
REMARK  Name = *****
REMARK                            x       y       z     vdW  Elec       q    Type
REMARK                         _______ _______ _______ _____ _____    ______ ____
ROOT
ATOM      1  C   LIG    1       24.465 -24.198   6.163  0.00  0.00    +0.120 C 
ATOM      2  C   LIG    1       25.787 -24.432   6.928  0.00  0.00    +0.070 C 
ATOM      3  C   LIG    1       25.736 -25.915   6.496  0.00  0.00    +0.171 C 
ATOM      4  F   LIG    1       26.491 -26.218   5.411  0.00  0.00    -0.245 F 
ATOM      5  C   LIG    1       24.231 -25.726   6.205  0.00  0.00    +0.070 C 
ENDROOT
BRANCH   1   6
ATOM      6  N   LIG    1       24.791 -23.804   4.760  0.00  0.00    -0.316 NA
ATOM      7  H   LIG    1       25.791 -23.628   4.622  0.00  0.00    +0.119 HD
ATOM      8  H   LIG    1       24.584 -24.541   4.074  0.00  0.00    +0.119 HD
ENDBRANCH   1   6
BRANCH   1   9
ATOM      9  C   LIG    1       23.365 -23.271   6.808  0.00  0.00    +0.325 C 
ATOM     10  O   LIG    1       23.542 -22.225   7.420  0.00  0.00    -0.249 OA
BRANCH   9  11
ATOM     11  O   LIG    1       22.113 -23.775   6.608  0.00  0.00    -0.479 OA
ATOM     12  H   LIG    1       21.484 -23.044   6.818  0.00  0.00    +0.295 HD
ENDBRANCH   9  11
ENDBRANCH   1   9
TORSDOF 3
ENDMDL
MODEL 5
REMARK VINA RESULT:      -5.2      2.624      3.089
REMARK  Name = *****
REMARK                            x       y       z     vdW  Elec       q    Type
REMARK                         _______ _______ _______ _____ _____    ______ ____
ROOT
ATOM      1  C   LIG    1       30.854 -19.410   7.923  0.00  0.00    +0.120 C 
ATOM      2  C   LIG    1       29.317 -19.449   8.083  0.00  0.00    +0.070 C 
ATOM      3  C   LIG    1       29.199 -19.718   6.566  0.00  0.00    +0.171 C 
ATOM      4  F   LIG    1       29.041 -21.023   6.230  0.00  0.00    -0.245 F 
ATOM      5  C   LIG    1       30.637 -19.179   6.410  0.00  0.00    +0.070 C 
ENDROOT
BRANCH   1   6
ATOM      6  N   LIG    1       31.388 -20.790   8.122  0.00  0.00    -0.316 NA
ATOM      7  H   LIG    1       30.665 -21.453   8.421  0.00  0.00    +0.119 HD
ATOM      8  H   LIG    1       31.753 -21.211   7.259  0.00  0.00    +0.119 HD
ENDBRANCH   1   6
BRANCH   1   9
ATOM      9  C   LIG    1       31.676 -18.326   8.720  0.00  0.00    +0.325 C 
ATOM     10  O   LIG    1       32.052 -17.233   8.314  0.00  0.00    -0.249 OA
BRANCH   9  11
ATOM     11  O   LIG    1       31.950 -18.746   9.988  0.00  0.00    -0.479 OA
ATOM     12  H   LIG    1       32.299 -19.666   9.906  0.00  0.00    +0.295 HD
ENDBRANCH   9  11
ENDBRANCH   1   9
TORSDOF 3
ENDMDL
MODEL 6
REMARK VINA RESULT:      -5.2      3.209      3.603
REMARK  Name = *****
REMARK                            x       y       z     vdW  Elec       q    Type
REMARK                         _______ _______ _______ _____ _____    ______ ____
ROOT
ATOM      1  C   LIG    1       31.292 -18.402   8.763  0.00  0.00    +0.120 C 
ATOM      2  C   LIG    1       32.054 -17.083   9.021  0.00  0.00    +0.070 C 
ATOM      3  C   LIG    1       31.170 -16.854  10.267  0.00  0.00    +0.171 C 
ATOM      4  F   LIG    1       31.735 -17.229  11.442  0.00  0.00    -0.245 F 
ATOM      5  C   LIG    1       30.166 -17.869   9.679  0.00  0.00    +0.070 C 
ENDROOT
BRANCH   1   6
ATOM      6  N   LIG    1       32.000 -19.508   9.473  0.00  0.00    -0.316 NA
ATOM      7  H   LIG    1       31.363 -20.250   9.782  0.00  0.00    +0.119 HD
ATOM      8  H   LIG    1       32.673 -20.006   8.877  0.00  0.00    +0.119 HD
ENDBRANCH   1   6
BRANCH   1   9
ATOM      9  C   LIG    1       30.912 -18.785   7.282  0.00  0.00    +0.325 C 
ATOM     10  O   LIG    1       30.109 -18.217   6.550  0.00  0.00    -0.249 OA
BRANCH   9  11
ATOM     11  O   LIG    1       31.604 -19.882   6.861  0.00  0.00    -0.479 OA
ATOM     12  H   LIG    1       32.342 -20.007   7.504  0.00  0.00    +0.295 HD
ENDBRANCH   9  11
ENDBRANCH   1   9
TORSDOF 3
ENDMDL
MODEL 7
REMARK VINA RESULT:      -5.2      6.821      7.562
REMARK  Name = *****
REMARK                            x       y       z     vdW  Elec       q    Type
REMARK                         _______ _______ _______ _____ _____    ______ ____
ROOT
ATOM      1  C   LIG    1       24.217 -22.781   6.449  0.00  0.00    +0.120 C 
ATOM      2  C   LIG    1       23.646 -21.440   6.963  0.00  0.00    +0.070 C 
ATOM      3  C   LIG    1       25.037 -21.110   7.549  0.00  0.00    +0.171 C 
ATOM      4  F   LIG    1       25.806 -20.306   6.773  0.00  0.00    -0.245 F 
ATOM      5  C   LIG    1       25.376 -22.614   7.459  0.00  0.00    +0.070 C 
ENDROOT
BRANCH   1   6
ATOM      6  N   LIG    1       24.753 -22.572   5.071  0.00  0.00    -0.316 NA
ATOM      7  H   LIG    1       24.637 -23.398   4.474  0.00  0.00    +0.119 HD
ATOM      8  H   LIG    1       24.260 -21.835   4.552  0.00  0.00    +0.119 HD
ENDBRANCH   1   6
BRANCH   1   9
ATOM      9  C   LIG    1       23.330 -24.079   6.560  0.00  0.00    +0.325 C 
ATOM     10  O   LIG    1       23.710 -25.243   6.526  0.00  0.00    -0.249 OA
BRANCH   9  11
ATOM     11  O   LIG    1       22.010 -23.766   6.704  0.00  0.00    -0.479 OA
ATOM     12  H   LIG    1       21.635 -23.720   5.793  0.00  0.00    +0.295 HD
ENDBRANCH   9  11
ENDBRANCH   1   9
TORSDOF 3
ENDMDL
MODEL 8
REMARK VINA RESULT:      -5.1      6.899      7.566
REMARK  Name = *****
REMARK                            x       y       z     vdW  Elec       q    Type
REMARK                         _______ _______ _______ _____ _____    ______ ____
ROOT
ATOM      1  C   LIG    1       24.614 -20.969   5.353  0.00  0.00    +0.120 C 
ATOM      2  C   LIG    1       24.906 -20.925   6.870  0.00  0.00    +0.070 C 
ATOM      3  C   LIG    1       23.388 -21.040   7.133  0.00  0.00    +0.171 C 
ATOM      4  F   LIG    1       22.951 -22.293   7.411  0.00  0.00    -0.245 F 
ATOM      5  C   LIG    1       23.153 -20.580   5.677  0.00  0.00    +0.070 C 
ENDROOT
BRANCH   1   6
ATOM      6  N   LIG    1       24.639 -22.393   4.905  0.00  0.00    -0.316 NA
ATOM      7  H   LIG    1       24.994 -23.028   5.628  0.00  0.00    +0.119 HD
ATOM      8  H   LIG    1       23.706 -22.769   4.698  0.00  0.00    +0.119 HD
ENDBRANCH   1   6
BRANCH   1   9
ATOM      9  C   LIG    1       25.428 -20.021   4.393  0.00  0.00    +0.325 C 
ATOM     10  O   LIG    1       24.979 -19.241   3.562  0.00  0.00    -0.249 OA
BRANCH   9  11
ATOM     11  O   LIG    1       26.772 -20.160   4.583  0.00  0.00    -0.479 OA
ATOM     12  H   LIG    1       26.979 -19.709   5.436  0.00  0.00    +0.295 HD
ENDBRANCH   9  11
ENDBRANCH   1   9
TORSDOF 3
ENDMDL
MODEL 9
REMARK VINA RESULT:      -5.1      6.764      7.381
REMARK  Name = *****
REMARK                            x       y       z     vdW  Elec       q    Type
REMARK                         _______ _______ _______ _____ _____    ______ ____
ROOT
ATOM      1  C   LIG    1       24.615 -20.846   5.326  0.00  0.00    +0.120 C 
ATOM      2  C   LIG    1       23.499 -20.711   6.386  0.00  0.00    +0.070 C 
ATOM      3  C   LIG    1       22.554 -20.193   5.279  0.00  0.00    +0.171 C 
ATOM      4  F   LIG    1       21.726 -21.129   4.753  0.00  0.00    -0.245 F 
ATOM      5  C   LIG    1       23.805 -19.883   4.427  0.00  0.00    +0.070 C 
ENDROOT
BRANCH   1   6
ATOM      6  N   LIG    1       24.547 -22.217   4.737  0.00  0.00    -0.316 NA
ATOM      7  H   LIG    1       23.682 -22.710   4.984  0.00  0.00    +0.119 HD
ATOM      8  H   LIG    1       24.533 -22.216   3.710  0.00  0.00    +0.119 HD
ENDBRANCH   1   6
BRANCH   1   9
ATOM      9  C   LIG    1       26.085 -20.429   5.709  0.00  0.00    +0.325 C 
ATOM     10  O   LIG    1       26.565 -20.348   6.833  0.00  0.00    -0.249 OA
BRANCH   9  11
ATOM     11  O   LIG    1       26.824 -20.145   4.599  0.00  0.00    -0.479 OA
ATOM     12  H   LIG    1       27.770 -20.258   4.859  0.00  0.00    +0.295 HD
ENDBRANCH   9  11
ENDBRANCH   1   9
TORSDOF 3
ENDMDL
