MODEL 1
REMARK VINA RESULT:      -8.9      0.000      0.000
REMARK  Name = *****
REMARK                            x       y       z     vdW  Elec       q    Type
REMARK                         _______ _______ _______ _____ _____    ______ ____
ROOT
ATOM      1  C   LIG    1       24.991 -20.793   6.380  0.00  0.00    -0.003 C 
ENDROOT
BRANCH   1   2
ATOM      2  C   LIG    1       25.023 -22.173   7.169  0.00  0.00    -0.008 C 
ATOM      3  C   LIG    1       23.676 -22.675   7.711  0.00  0.00    +0.004 C 
ATOM      4  C   LIG    1       22.932 -23.567   6.738  0.00  0.00    +0.000 C 
ATOM      5  C   LIG    1       23.732 -24.827   6.466  0.00  0.00    +0.000 C 
ATOM      6  C   LIG    1       25.143 -24.549   5.966  0.00  0.00    +0.000 C 
ATOM      7  C   LIG    1       25.863 -23.353   6.613  0.00  0.00    +0.004 C 
ENDBRANCH   1   2
BRANCH   1   8
ATOM      8  C   LIG    1       24.418 -20.983   4.892  0.00  0.00    -0.008 C 
ATOM      9  C   LIG    1       22.889 -20.821   4.707  0.00  0.00    +0.004 C 
ATOM     10  C   LIG    1       22.418 -19.371   4.733  0.00  0.00    +0.000 C 
ATOM     11  C   LIG    1       23.151 -18.527   3.698  0.00  0.00    +0.000 C 
ATOM     12  C   LIG    1       24.663 -18.650   3.849  0.00  0.00    +0.000 C 
ATOM     13  C   LIG    1       25.102 -20.111   3.808  0.00  0.00    +0.004 C 
ENDBRANCH   1   8
BRANCH   1  14
ATOM     14  C   LIG    1       26.325 -19.984   6.257  0.00  0.00    +0.022 C 
BRANCH  14  15
ATOM     15  C   LIG    1       27.688 -20.693   6.307  0.00  0.00    +0.054 C 
ATOM     16  N   LIG    1       28.609 -20.169   5.275  0.00  0.00    -0.313 NA
ATOM     17  H   LIG    1       29.361 -20.842   5.147  0.00  0.00    +0.122 HD
ATOM     18  C   LIG    1       29.202 -18.877   5.626  0.00  0.00    +0.081 C 
ATOM     19  C   LIG    1       29.935 -18.925   6.961  0.00  0.00    +0.015 C 
ATOM     20  C   LIG    1       29.016 -19.413   8.068  0.00  0.00    +0.003 C 
ATOM     21  C   LIG    1       28.370 -20.741   7.681  0.00  0.00    +0.019 C 
ENDBRANCH  14  15
ENDBRANCH   1  14
TORSDOF 4
ENDMDL
MODEL 2
REMARK VINA RESULT:      -8.8      1.231      1.687
REMARK  Name = *****
REMARK                            x       y       z     vdW  Elec       q    Type
REMARK                         _______ _______ _______ _____ _____    ______ ____
ROOT
ATOM      1  C   LIG    1       24.627 -21.557   6.394  0.00  0.00    -0.003 C 
ENDROOT
BRANCH   1   2
ATOM      2  C   LIG    1       24.471 -22.915   7.204  0.00  0.00    -0.008 C 
ATOM      3  C   LIG    1       23.284 -23.807   6.809  0.00  0.00    +0.004 C 
ATOM      4  C   LIG    1       23.623 -24.813   5.728  0.00  0.00    +0.000 C 
ATOM      5  C   LIG    1       24.682 -25.780   6.225  0.00  0.00    +0.000 C 
ATOM      6  C   LIG    1       25.941 -25.087   6.725  0.00  0.00    +0.000 C 
ATOM      7  C   LIG    1       25.726 -23.777   7.503  0.00  0.00    +0.004 C 
ENDBRANCH   1   2
BRANCH   1   8
ATOM      8  C   LIG    1       23.701 -21.549   5.081  0.00  0.00    -0.008 C 
ATOM      9  C   LIG    1       22.333 -20.833   5.196  0.00  0.00    +0.004 C 
ATOM     10  C   LIG    1       22.432 -19.312   5.169  0.00  0.00    +0.000 C 
ATOM     11  C   LIG    1       23.163 -18.822   3.925  0.00  0.00    +0.000 C 
ATOM     12  C   LIG    1       24.522 -19.496   3.777  0.00  0.00    +0.000 C 
ATOM     13  C   LIG    1       24.387 -21.016   3.797  0.00  0.00    +0.004 C 
ENDBRANCH   1   8
BRANCH   1  14
ATOM     14  C   LIG    1       26.063 -21.128   5.943  0.00  0.00    +0.022 C 
BRANCH  14  15
ATOM     15  C   LIG    1       26.840 -20.043   6.705  0.00  0.00    +0.054 C 
ATOM     16  N   LIG    1       27.037 -20.413   8.123  0.00  0.00    -0.313 NA
ATOM     17  H   LIG    1       27.277 -19.572   8.642  0.00  0.00    +0.122 HD
ATOM     18  C   LIG    1       28.099 -21.399   8.326  0.00  0.00    +0.081 C 
ATOM     19  C   LIG    1       29.432 -20.934   7.750  0.00  0.00    +0.015 C 
ATOM     20  C   LIG    1       29.295 -20.587   6.277  0.00  0.00    +0.003 C 
ATOM     21  C   LIG    1       28.159 -19.588   6.067  0.00  0.00    +0.019 C 
ENDBRANCH  14  15
ENDBRANCH   1  14
TORSDOF 4
ENDMDL
MODEL 3
REMARK VINA RESULT:      -8.6      0.799      4.061
REMARK  Name = *****
REMARK                            x       y       z     vdW  Elec       q    Type
REMARK                         _______ _______ _______ _____ _____    ______ ____
ROOT
ATOM      1  C   LIG    1       25.211 -21.813   5.579  0.00  0.00    -0.003 C 
ENDROOT
BRANCH   1   2
ATOM      2  C   LIG    1       24.026 -21.316   4.643  0.00  0.00    -0.008 C 
ATOM      3  C   LIG    1       22.716 -20.938   5.352  0.00  0.00    +0.004 C 
ATOM      4  C   LIG    1       22.647 -19.477   5.746  0.00  0.00    +0.000 C 
ATOM      5  C   LIG    1       22.685 -18.598   4.509  0.00  0.00    +0.000 C 
ATOM      6  C   LIG    1       23.894 -18.857   3.623  0.00  0.00    +0.000 C 
ATOM      7  C   LIG    1       24.328 -20.327   3.487  0.00  0.00    +0.004 C 
ENDBRANCH   1   2
BRANCH   1   8
ATOM      8  C   LIG    1       24.651 -22.620   6.851  0.00  0.00    -0.008 C 
ATOM      9  C   LIG    1       23.412 -23.518   6.618  0.00  0.00    +0.004 C 
ATOM     10  C   LIG    1       23.726 -24.822   5.894  0.00  0.00    +0.000 C 
ATOM     11  C   LIG    1       24.805 -25.618   6.619  0.00  0.00    +0.000 C 
ATOM     12  C   LIG    1       26.050 -24.773   6.862  0.00  0.00    +0.000 C 
ATOM     13  C   LIG    1       25.703 -23.481   7.597  0.00  0.00    +0.004 C 
ENDBRANCH   1   8
BRANCH   1  14
ATOM     14  C   LIG    1       26.219 -20.746   6.121  0.00  0.00    +0.022 C 
BRANCH  14  15
ATOM     15  C   LIG    1       27.725 -21.043   6.188  0.00  0.00    +0.054 C 
ATOM     16  N   LIG    1       28.477 -20.250   5.191  0.00  0.00    -0.313 NA
ATOM     17  H   LIG    1       29.391 -20.679   5.065  0.00  0.00    +0.122 HD
ATOM     18  C   LIG    1       28.675 -18.854   5.586  0.00  0.00    +0.081 C 
ATOM     19  C   LIG    1       29.370 -18.733   6.938  0.00  0.00    +0.015 C 
ATOM     20  C   LIG    1       28.608 -19.493   8.011  0.00  0.00    +0.003 C 
ATOM     21  C   LIG    1       28.371 -20.937   7.576  0.00  0.00    +0.019 C 
ENDBRANCH  14  15
ENDBRANCH   1  14
TORSDOF 4
ENDMDL
MODEL 4
REMARK VINA RESULT:      -8.4      2.269      5.592
REMARK  Name = *****
REMARK                            x       y       z     vdW  Elec       q    Type
REMARK                         _______ _______ _______ _____ _____    ______ ____
ROOT
ATOM      1  C   LIG    1       24.184 -21.778   6.015  0.00  0.00    -0.003 C 
ENDROOT
BRANCH   1   2
ATOM      2  C   LIG    1       23.504 -21.228   4.687  0.00  0.00    -0.008 C 
ATOM      3  C   LIG    1       22.152 -20.519   4.863  0.00  0.00    +0.004 C 
ATOM      4  C   LIG    1       22.282 -19.026   5.084  0.00  0.00    +0.000 C 
ATOM      5  C   LIG    1       22.907 -18.368   3.868  0.00  0.00    +0.000 C 
ATOM      6  C   LIG    1       24.250 -18.971   3.482  0.00  0.00    +0.000 C 
ATOM      7  C   LIG    1       24.371 -20.497   3.629  0.00  0.00    +0.004 C 
ENDBRANCH   1   2
BRANCH   1   8
ATOM      8  C   LIG    1       25.104 -20.659   6.707  0.00  0.00    -0.008 C 
ATOM      9  C   LIG    1       25.141 -20.646   8.256  0.00  0.00    +0.004 C 
ATOM     10  C   LIG    1       25.991 -21.759   8.859  0.00  0.00    +0.000 C 
ATOM     11  C   LIG    1       27.414 -21.734   8.313  0.00  0.00    +0.000 C 
ATOM     12  C   LIG    1       27.425 -21.754   6.789  0.00  0.00    +0.000 C 
ATOM     13  C   LIG    1       26.575 -20.623   6.217  0.00  0.00    +0.004 C 
ENDBRANCH   1   8
BRANCH   1  14
ATOM     14  C   LIG    1       25.044 -23.082   5.915  0.00  0.00    +0.022 C 
BRANCH  14  15
ATOM     15  C   LIG    1       24.703 -24.321   6.756  0.00  0.00    +0.054 C 
ATOM     16  N   LIG    1       23.653 -25.140   6.112  0.00  0.00    -0.313 NA
ATOM     17  H   LIG    1       23.257 -25.761   6.813  0.00  0.00    +0.122 HD
ATOM     18  C   LIG    1       24.151 -25.957   5.003  0.00  0.00    +0.081 C 
ATOM     19  C   LIG    1       25.294 -26.870   5.430  0.00  0.00    +0.015 C 
ATOM     20  C   LIG    1       26.423 -26.069   6.057  0.00  0.00    +0.003 C 
ATOM     21  C   LIG    1       25.892 -25.190   7.187  0.00  0.00    +0.019 C 
ENDBRANCH  14  15
ENDBRANCH   1  14
TORSDOF 4
ENDMDL
MODEL 5
REMARK VINA RESULT:      -8.3      2.093      4.406
REMARK  Name = *****
REMARK                            x       y       z     vdW  Elec       q    Type
REMARK                         _______ _______ _______ _____ _____    ______ ____
ROOT
ATOM      1  C   LIG    1       24.474 -21.872   5.496  0.00  0.00    -0.003 C 
ENDROOT
BRANCH   1   2
ATOM      2  C   LIG    1       25.285 -20.671   6.149  0.00  0.00    -0.008 C 
ATOM      3  C   LIG    1       25.038 -20.421   7.645  0.00  0.00    +0.004 C 
ATOM      4  C   LIG    1       25.986 -21.186   8.546  0.00  0.00    +0.000 C 
ATOM      5  C   LIG    1       27.415 -20.731   8.309  0.00  0.00    +0.000 C 
ATOM      6  C   LIG    1       27.850 -20.844   6.855  0.00  0.00    +0.000 C 
ATOM      7  C   LIG    1       26.786 -20.484   5.804  0.00  0.00    +0.004 C 
ENDBRANCH   1   2
BRANCH   1   8
ATOM      8  C   LIG    1       23.603 -21.376   4.241  0.00  0.00    -0.008 C 
ATOM      9  C   LIG    1       22.240 -20.712   4.555  0.00  0.00    +0.004 C 
ATOM     10  C   LIG    1       22.358 -19.284   5.074  0.00  0.00    +0.000 C 
ATOM     11  C   LIG    1       23.146 -18.403   4.112  0.00  0.00    +0.000 C 
ATOM     12  C   LIG    1       24.501 -19.015   3.781  0.00  0.00    +0.000 C 
ATOM     13  C   LIG    1       24.348 -20.440   3.255  0.00  0.00    +0.004 C 
ENDBRANCH   1   8
BRANCH   1  14
ATOM     14  C   LIG    1       23.517 -22.702   6.417  0.00  0.00    +0.022 C 
BRANCH  14  15
ATOM     15  C   LIG    1       23.992 -24.001   7.084  0.00  0.00    +0.054 C 
ATOM     16  N   LIG    1       23.438 -25.192   6.404  0.00  0.00    -0.313 NA
ATOM     17  H   LIG    1       23.526 -25.988   7.032  0.00  0.00    +0.122 HD
ATOM     18  C   LIG    1       24.120 -25.518   5.151  0.00  0.00    +0.081 C 
ATOM     19  C   LIG    1       25.619 -25.716   5.347  0.00  0.00    +0.015 C 
ATOM     20  C   LIG    1       26.247 -24.496   6.000  0.00  0.00    +0.003 C 
ATOM     21  C   LIG    1       25.507 -24.138   7.287  0.00  0.00    +0.019 C 
ENDBRANCH  14  15
ENDBRANCH   1  14
TORSDOF 4
ENDMDL
MODEL 6
REMARK VINA RESULT:      -8.1      2.142      5.433
REMARK  Name = *****
REMARK                            x       y       z     vdW  Elec       q    Type
REMARK                         _______ _______ _______ _____ _____    ______ ____
ROOT
ATOM      1  C   LIG    1       25.592 -22.760   6.244  0.00  0.00    -0.003 C 
ENDROOT
BRANCH   1   2
ATOM      2  C   LIG    1       26.208 -21.470   6.939  0.00  0.00    -0.008 C 
ATOM      3  C   LIG    1       27.232 -21.727   8.056  0.00  0.00    +0.004 C 
ATOM      4  C   LIG    1       28.660 -21.798   7.554  0.00  0.00    +0.000 C 
ATOM      5  C   LIG    1       29.071 -20.467   6.952  0.00  0.00    +0.000 C 
ATOM      6  C   LIG    1       28.139 -19.993   5.846  0.00  0.00    +0.000 C 
ATOM      7  C   LIG    1       26.640 -20.263   6.067  0.00  0.00    +0.004 C 
ENDBRANCH   1   2
BRANCH   1   8
ATOM      8  C   LIG    1       23.986 -22.710   6.236  0.00  0.00    -0.008 C 
ATOM      9  C   LIG    1       23.307 -21.921   7.382  0.00  0.00    +0.004 C 
ATOM     10  C   LIG    1       23.383 -20.407   7.214  0.00  0.00    +0.000 C 
ATOM     11  C   LIG    1       22.806 -19.963   5.875  0.00  0.00    +0.000 C 
ATOM     12  C   LIG    1       23.454 -20.710   4.716  0.00  0.00    +0.000 C 
ATOM     13  C   LIG    1       23.352 -22.221   4.908  0.00  0.00    +0.004 C 
ENDBRANCH   1   8
BRANCH   1  14
ATOM     14  C   LIG    1       26.003 -24.164   6.801  0.00  0.00    +0.022 C 
BRANCH  14  15
ATOM     15  C   LIG    1       26.301 -25.335   5.852  0.00  0.00    +0.054 C 
ATOM     16  N   LIG    1       26.753 -26.532   6.594  0.00  0.00    -0.313 NA
ATOM     17  H   LIG    1       27.211 -27.160   5.938  0.00  0.00    +0.122 HD
ATOM     18  C   LIG    1       25.663 -27.260   7.245  0.00  0.00    +0.081 C 
ATOM     19  C   LIG    1       24.579 -27.675   6.257  0.00  0.00    +0.015 C 
ATOM     20  C   LIG    1       24.044 -26.471   5.500  0.00  0.00    +0.003 C 
ATOM     21  C   LIG    1       25.190 -25.693   4.856  0.00  0.00    +0.019 C 
ENDBRANCH  14  15
ENDBRANCH   1  14
TORSDOF 4
ENDMDL
MODEL 7
REMARK VINA RESULT:      -8.0      1.159      3.927
REMARK  Name = *****
REMARK                            x       y       z     vdW  Elec       q    Type
REMARK                         _______ _______ _______ _____ _____    ______ ____
ROOT
ATOM      1  C   LIG    1       26.069 -21.801   6.507  0.00  0.00    -0.003 C 
ENDROOT
BRANCH   1   2
ATOM      2  C   LIG    1       25.236 -20.496   6.143  0.00  0.00    -0.008 C 
ATOM      3  C   LIG    1       25.320 -20.025   4.683  0.00  0.00    +0.004 C 
ATOM      4  C   LIG    1       24.246 -20.621   3.797  0.00  0.00    +0.000 C 
ATOM      5  C   LIG    1       22.873 -20.177   4.267  0.00  0.00    +0.000 C 
ATOM      6  C   LIG    1       22.603 -20.503   5.729  0.00  0.00    +0.000 C 
ATOM      7  C   LIG    1       23.794 -20.332   6.688  0.00  0.00    +0.004 C 
ENDBRANCH   1   2
BRANCH   1   8
ATOM      8  C   LIG    1       25.106 -22.996   6.981  0.00  0.00    -0.008 C 
ATOM      9  C   LIG    1       24.051 -23.489   5.961  0.00  0.00    +0.004 C 
ATOM     10  C   LIG    1       24.631 -24.359   4.851  0.00  0.00    +0.000 C 
ATOM     11  C   LIG    1       25.393 -25.552   5.417  0.00  0.00    +0.000 C 
ATOM     12  C   LIG    1       26.450 -25.110   6.422  0.00  0.00    +0.000 C 
ATOM     13  C   LIG    1       25.836 -24.251   7.524  0.00  0.00    +0.004 C 
ENDBRANCH   1   8
BRANCH   1  14
ATOM     14  C   LIG    1       27.204 -21.675   7.577  0.00  0.00    +0.022 C 
BRANCH  14  15
ATOM     15  C   LIG    1       28.679 -21.584   7.159  0.00  0.00    +0.054 C 
ATOM     16  N   LIG    1       28.830 -20.913   5.849  0.00  0.00    -0.313 NA
ATOM     17  H   LIG    1       29.752 -21.134   5.481  0.00  0.00    +0.122 HD
ATOM     18  C   LIG    1       28.700 -19.458   5.922  0.00  0.00    +0.081 C 
ATOM     19  C   LIG    1       29.687 -18.841   6.906  0.00  0.00    +0.015 C 
ATOM     20  C   LIG    1       29.540 -19.463   8.284  0.00  0.00    +0.003 C 
ATOM     21  C   LIG    1       29.637 -20.985   8.197  0.00  0.00    +0.019 C 
ENDBRANCH  14  15
ENDBRANCH   1  14
TORSDOF 4
ENDMDL
MODEL 8
REMARK VINA RESULT:      -7.8      1.630      4.516
REMARK  Name = *****
REMARK                            x       y       z     vdW  Elec       q    Type
REMARK                         _______ _______ _______ _____ _____    ______ ____
ROOT
ATOM      1  C   LIG    1       25.402 -23.259   6.163  0.00  0.00    -0.003 C 
ENDROOT
BRANCH   1   2
ATOM      2  C   LIG    1       24.088 -22.636   5.521  0.00  0.00    -0.008 C 
ATOM      3  C   LIG    1       23.010 -22.164   6.509  0.00  0.00    +0.004 C 
ATOM      4  C   LIG    1       23.165 -20.714   6.918  0.00  0.00    +0.000 C 
ATOM      5  C   LIG    1       23.003 -19.809   5.709  0.00  0.00    +0.000 C 
ATOM      6  C   LIG    1       23.954 -20.150   4.571  0.00  0.00    +0.000 C 
ATOM      7  C   LIG    1       24.211 -21.648   4.333  0.00  0.00    +0.004 C 
ENDBRANCH   1   2
BRANCH   1   8
ATOM      8  C   LIG    1       25.095 -24.665   6.876  0.00  0.00    -0.008 C 
ATOM      9  C   LIG    1       23.915 -25.492   6.310  0.00  0.00    +0.004 C 
ATOM     10  C   LIG    1       24.234 -26.197   4.996  0.00  0.00    +0.000 C 
ATOM     11  C   LIG    1       25.466 -27.085   5.123  0.00  0.00    +0.000 C 
ATOM     12  C   LIG    1       26.657 -26.307   5.671  0.00  0.00    +0.000 C 
ATOM     13  C   LIG    1       26.308 -25.623   6.990  0.00  0.00    +0.004 C 
ENDBRANCH   1   8
BRANCH   1  14
ATOM     14  C   LIG    1       26.204 -22.391   7.189  0.00  0.00    +0.022 C 
BRANCH  14  15
ATOM     15  C   LIG    1       26.300 -20.866   7.030  0.00  0.00    +0.054 C 
ATOM     16  N   LIG    1       26.711 -20.215   8.293  0.00  0.00    -0.313 NA
ATOM     17  H   LIG    1       26.479 -19.226   8.233  0.00  0.00    +0.122 HD
ATOM     18  C   LIG    1       28.143 -20.335   8.570  0.00  0.00    +0.081 C 
ATOM     19  C   LIG    1       28.997 -19.785   7.433  0.00  0.00    +0.015 C 
ATOM     20  C   LIG    1       28.646 -20.459   6.117  0.00  0.00    +0.003 C 
ATOM     21  C   LIG    1       27.145 -20.364   5.851  0.00  0.00    +0.019 C 
ENDBRANCH  14  15
ENDBRANCH   1  14
TORSDOF 4
ENDMDL
MODEL 9
REMARK VINA RESULT:      -7.8      1.734      5.599
REMARK  Name = *****
REMARK                            x       y       z     vdW  Elec       q    Type
REMARK                         _______ _______ _______ _____ _____    ______ ____
ROOT
ATOM      1  C   LIG    1       25.160 -23.428   6.491  0.00  0.00    -0.003 C 
ENDROOT
BRANCH   1   2
ATOM      2  C   LIG    1       26.131 -22.926   7.645  0.00  0.00    -0.008 C 
ATOM      3  C   LIG    1       27.537 -22.488   7.204  0.00  0.00    +0.004 C 
ATOM      4  C   LIG    1       27.628 -21.014   6.867  0.00  0.00    +0.000 C 
ATOM      5  C   LIG    1       27.330 -20.176   8.097  0.00  0.00    +0.000 C 
ATOM      6  C   LIG    1       25.986 -20.498   8.734  0.00  0.00    +0.000 C 
ATOM      7  C   LIG    1       25.586 -21.983   8.749  0.00  0.00    +0.004 C 
ENDBRANCH   1   2
BRANCH   1   8
ATOM      8  C   LIG    1       25.820 -24.628   5.652  0.00  0.00    -0.008 C 
ATOM      9  C   LIG    1       26.565 -25.718   6.461  0.00  0.00    +0.004 C 
ATOM     10  C   LIG    1       25.638 -26.692   7.178  0.00  0.00    +0.000 C 
ATOM     11  C   LIG    1       24.662 -27.351   6.210  0.00  0.00    +0.000 C 
ATOM     12  C   LIG    1       23.899 -26.312   5.397  0.00  0.00    +0.000 C 
ATOM     13  C   LIG    1       24.855 -25.360   4.684  0.00  0.00    +0.004 C 
ENDBRANCH   1   8
BRANCH   1  14
ATOM     14  C   LIG    1       24.642 -22.375   5.455  0.00  0.00    +0.022 C 
BRANCH  14  15
ATOM     15  C   LIG    1       24.551 -20.886   5.819  0.00  0.00    +0.054 C 
ATOM     16  N   LIG    1       25.187 -20.037   4.788  0.00  0.00    -0.313 NA
ATOM     17  H   LIG    1       25.366 -19.122   5.194  0.00  0.00    +0.122 HD
ATOM     18  C   LIG    1       24.362 -19.856   3.592  0.00  0.00    +0.081 C 
ATOM     19  C   LIG    1       22.989 -19.282   3.923  0.00  0.00    +0.015 C 
ATOM     20  C   LIG    1       22.271 -20.147   4.945  0.00  0.00    +0.003 C 
ATOM     21  C   LIG    1       23.152 -20.365   6.174  0.00  0.00    +0.019 C 
ENDBRANCH  14  15
ENDBRANCH   1  14
TORSDOF 4
ENDMDL
