MODEL 1
REMARK VINA RESULT:     154.3      0.000      0.000
REMARK  Name = *****
REMARK                            x       y       z     vdW  Elec       q    Type
REMARK                         _______ _______ _______ _____ _____    ______ ____
ROOT
ATOM      1  C   LIG    1       24.183 -12.433   3.462  0.00  0.00    +0.210 C 
ATOM      2  C   LIG    1       25.777 -12.708   2.924  0.00  0.00    +0.126 C 
ATOM      3  C   LIG    1       25.704 -13.758   1.813  0.00  0.00    +0.048 C 
ATOM      4  C   LIG    1       27.106 -13.022   3.858  0.00  0.00    +0.158 C 
ATOM      5  C   LIG    1       28.132 -14.118   3.495  0.00  0.00    +0.065 C 
ATOM      6  C   LIG    1       29.475 -13.479   3.542  0.00  0.00    +0.016 C 
ATOM      7  C   LIG    1       28.328 -15.421   4.393  0.00  0.00    +0.066 C 
ATOM      8  N   LIG    1       28.754 -15.199   5.619  0.00  0.00    -0.091 NA
ATOM      9  C   LIG    1       27.983 -16.788   3.651  0.00  0.00    +0.037 C 
ATOM     10  C   LIG    1       28.503 -16.722   2.263  0.00  0.00    +0.014 C 
ATOM     11  C   LIG    1       26.463 -17.118   3.660  0.00  0.00    +0.046 C 
ATOM     12  C   LIG    1       25.514 -18.154   3.099  0.00  0.00    +0.090 C 
ATOM     13  C   LIG    1       25.060 -17.572   1.812  0.00  0.00    +0.044 C 
ATOM     14  C   LIG    1       24.088 -18.581   3.957  0.00  0.00    +0.158 C 
ATOM     15  C   LIG    1       23.302 -17.853   5.503  0.00  0.00    +0.047 C 
ATOM     16  C   LIG    1       24.094 -17.701   6.997  0.00  0.00    +0.013 C 
ATOM     17  C   LIG    1       22.369 -16.639   5.698  0.00  0.00    +0.140 C 
ATOM     18  C   LIG    1       22.717 -15.651   4.574  0.00  0.00    +0.124 C 
ATOM     19  C   LIG    1       21.937 -15.804   3.291  0.00  0.00    +0.022 C 
ATOM     20  C   LIG    1       22.948 -14.247   4.783  0.00  0.00    +0.313 C 
ATOM     21  O   LIG    1       22.974 -13.633   6.207  0.00  0.00    -0.250 OA
ATOM     22  O   LIG    1       23.407 -13.668   3.732  0.00  0.00    -0.458 OA
ENDROOT
BRANCH   1  24
ATOM     23  C   LIG    1       21.865 -11.694   2.571  0.00  0.00    +0.007 C 
ATOM     24  C   LIG    1       23.382 -11.631   2.392  0.00  0.00    +0.044 C 
ENDBRANCH   1  24
BRANCH  12  25
ATOM     25  O   LIG    1       26.370 -19.268   2.798  0.00  0.00    -0.386 OA
ATOM     26  H   LIG    1       26.676 -19.211   1.877  0.00  0.00    +0.210 HD
ENDBRANCH  12  25
BRANCH   4  27
ATOM     27  O   LIG    1       27.711 -11.740   4.255  0.00  0.00    -0.388 OA
ATOM     28  H   LIG    1       28.671 -11.793   4.426  0.00  0.00    +0.210 HD
ENDBRANCH   4  27
BRANCH   2  29
ATOM     29  O   LIG    1       26.176 -11.447   2.318  0.00  0.00    -0.383 OA
ATOM     30  H   LIG    1       26.246 -10.827   3.079  0.00  0.00    +0.210 HD
ENDBRANCH   2  29
BRANCH  14  31
ATOM     31  O   LIG    1       23.242 -19.683   3.316  0.00  0.00    -0.342 OA
BRANCH  31  32
ATOM     32  C   LIG    1       21.853 -19.338   2.685  0.00  0.00    +0.281 C 
ATOM     33  C   LIG    1       20.525 -19.930   3.319  0.00  0.00    +0.187 C 
ATOM     34  C   LIG    1       19.786 -19.018   4.311  0.00  0.00    +0.092 C 
ATOM     35  C   LIG    1       19.383 -17.751   3.581  0.00  0.00    +0.053 C 
ATOM     36  C   LIG    1       20.318 -17.385   2.350  0.00  0.00    +0.120 C 
ATOM     37  C   LIG    1       20.259 -15.926   1.812  0.00  0.00    +0.038 C 
ATOM     38  O   LIG    1       21.682 -17.918   2.316  0.00  0.00    -0.346 OA
BRANCH  34  39
ATOM     39  N   LIG    1       20.417 -18.433   5.428  0.00  0.00    -0.303 NA
ATOM     40  C   LIG    1       19.746 -17.836   6.509  0.00  0.00    +0.105 C 
ATOM     41  C   LIG    1       21.532 -19.194   5.826  0.00  0.00    +0.105 C 
ENDBRANCH  34  39
BRANCH  33  42
ATOM     42  O   LIG    1       19.559 -20.125   2.251  0.00  0.00    -0.385 OA
ATOM     43  H   LIG    1       18.852 -20.691   2.602  0.00  0.00    +0.210 HD
ENDBRANCH  33  42
ENDBRANCH  31  32
ENDBRANCH  14  31
BRANCH  17  44
ATOM     44  O   LIG    1       21.010 -17.070   5.936  0.00  0.00    -0.347 OA
BRANCH  44  45
ATOM     45  C   LIG    1       20.428 -18.359   5.468  0.00  0.00    +0.254 C 
ATOM     46  O   LIG    1       20.450 -19.489   6.330  0.00  0.00    -0.346 OA
ATOM     47  C   LIG    1       21.618 -20.321   6.329  0.00  0.00    +0.150 C 
ATOM     48  C   LIG    1       21.179 -21.572   7.062  0.00  0.00    +0.040 C 
ATOM     49  C   LIG    1       22.259 -20.788   4.962  0.00  0.00    +0.175 C 
ATOM     50  C   LIG    1       21.380 -20.335   3.782  0.00  0.00    +0.099 C 
ATOM     51  C   LIG    1       20.490 -21.572   3.619  0.00  0.00    +0.044 C 
ATOM     52  C   LIG    1       20.521 -18.944   4.012  0.00  0.00    +0.098 C 
BRANCH  50  53
ATOM     53  O   LIG    1       22.078 -20.281   2.547  0.00  0.00    -0.374 OA
ATOM     54  C   LIG    1       22.993 -21.305   2.127  0.00  0.00    +0.195 C 
ENDBRANCH  50  53
BRANCH  49  55
ATOM     55  O   LIG    1       23.620 -21.196   4.669  0.00  0.00    -0.386 OA
ATOM     56  H   LIG    1       23.932 -21.347   3.768  0.00  0.00    +0.210 HD
ENDBRANCH  49  55
ENDBRANCH  44  45
ENDBRANCH  17  44
BRANCH   8  57
ATOM     57  O   LIG    1       28.937 -16.187   6.603  0.00  0.00    -0.365 OA
BRANCH  57  58
ATOM     58  C   LIG    1       27.797 -16.942   6.891  0.00  0.00    +0.426 C 
BRANCH  58  59
ATOM     59  O   LIG    1       26.629 -16.687   6.145  0.00  0.00    -0.340 OA
BRANCH  59  60
ATOM     60  C   LIG    1       26.115 -15.398   5.871  0.00  0.00    +0.192 C 
BRANCH  60  61
ATOM     61  C   LIG    1       26.951 -14.371   6.438  0.00  0.00    +0.187 C 
BRANCH  61  62
ATOM     62  O   LIG    1       26.160 -13.360   6.994  0.00  0.00    -0.381 OA
ATOM     63  C   LIG    1       26.676 -12.156   6.466  0.00  0.00    +0.194 C 
ENDBRANCH  61  62
ENDBRANCH  60  61
ENDBRANCH  59  60
ENDBRANCH  58  59
ENDBRANCH  57  58
ENDBRANCH   8  57
TORSDOF 18
ENDMDL
