MODEL 1
REMARK VINA RESULT:     -10.1      0.000      0.000
REMARK  Name = *****
REMARK                            x       y       z     vdW  Elec       q    Type
REMARK                         _______ _______ _______ _____ _____    ______ ____
ROOT
ATOM      1  C   LIG    1       24.439 -23.100   6.850  0.00  0.00    +0.031 C 
ENDROOT
BRANCH   1   2
ATOM      2  C   LIG    1       24.117 -24.502   6.313  0.00  0.00    +0.086 C 
BRANCH   2   6
ATOM      3  N   LIG    1       25.434 -27.968   6.479  0.00  0.00    -0.327 N 
ATOM      4  C   LIG    1       25.924 -26.865   7.347  0.00  0.00    +0.120 C 
ATOM      5  C   LIG    1       26.284 -25.611   6.501  0.00  0.00    +0.103 C 
ATOM      6  N   LIG    1       25.225 -25.135   5.574  0.00  0.00    -0.299 NA
ATOM      7  C   LIG    1       24.817 -26.294   4.744  0.00  0.00    +0.103 C 
ATOM      8  C   LIG    1       24.368 -27.533   5.548  0.00  0.00    +0.120 C 
BRANCH   3  16
ATOM      9 CL   LIG    1       27.211 -30.124  12.727  0.00  0.00    -0.084 Cl
ATOM     10  C   LIG    1       26.634 -29.809  11.135  0.00  0.00    +0.043 A 
ATOM     11  C   LIG    1       25.846 -30.760  10.490  0.00  0.00    +0.048 A 
ATOM     12  C   LIG    1       25.367 -30.540   9.208  0.00  0.00    +0.074 A 
ATOM     13  N   LIG    1       24.626 -31.514   8.665  0.00  0.00    -0.255 NA
ATOM     14  C   LIG    1       24.165 -31.327   7.417  0.00  0.00    +0.113 A 
ATOM     15  C   LIG    1       24.397 -30.192   6.670  0.00  0.00    +0.043 A 
ATOM     16  C   LIG    1       25.166 -29.153   7.214  0.00  0.00    +0.041 A 
ATOM     17  C   LIG    1       25.676 -29.332   8.534  0.00  0.00    +0.021 A 
ATOM     18  C   LIG    1       26.491 -28.386   9.207  0.00  0.00    +0.013 A 
ATOM     19  C   LIG    1       26.959 -28.622  10.503  0.00  0.00    +0.021 A 
ENDBRANCH   3  16
ENDBRANCH   2   6
ENDBRANCH   1   2
BRANCH   1  20
ATOM     20  C   LIG    1       25.413 -22.315   5.957  0.00  0.00    +0.086 C 
BRANCH  20  21
ATOM     21  N   LIG    1       25.423 -20.869   6.261  0.00  0.00    -0.299 NA
ATOM     22  C   LIG    1       25.581 -20.628   7.721  0.00  0.00    +0.103 C 
ATOM     23  C   LIG    1       26.987 -20.951   8.304  0.00  0.00    +0.120 C 
ATOM     24  N   LIG    1       28.039 -20.231   7.545  0.00  0.00    -0.327 N 
ATOM     25  C   LIG    1       27.934 -20.461   6.083  0.00  0.00    +0.120 C 
ATOM     26  C   LIG    1       26.512 -20.128   5.578  0.00  0.00    +0.103 C 
BRANCH  24  27
ATOM     27  C   LIG    1       29.327 -20.378   8.108  0.00  0.00    +0.041 A 
ATOM     28  C   LIG    1       30.087 -19.239   8.513  0.00  0.00    +0.021 A 
ATOM     29  C   LIG    1       31.373 -19.457   9.056  0.00  0.00    +0.074 A 
ATOM     30  C   LIG    1       32.155 -18.379   9.452  0.00  0.00    +0.048 A 
ATOM     31  C   LIG    1       31.691 -17.078   9.326  0.00  0.00    +0.043 A 
ATOM     32  C   LIG    1       30.435 -16.827   8.795  0.00  0.00    +0.021 A 
ATOM     33 CL   LIG    1       32.684 -15.761   9.824  0.00  0.00    -0.084 Cl
ATOM     34  N   LIG    1       31.910 -20.676   9.209  0.00  0.00    -0.255 NA
ATOM     35  C   LIG    1       31.177 -21.733   8.820  0.00  0.00    +0.113 A 
ATOM     36  C   LIG    1       29.640 -17.901   8.378  0.00  0.00    +0.013 A 
ATOM     37  C   LIG    1       29.911 -21.640   8.280  0.00  0.00    +0.043 A 
ENDBRANCH  24  27
ENDBRANCH  20  21
ENDBRANCH   1  20
TORSDOF 6
ENDMDL
MODEL 2
REMARK VINA RESULT:     -10.1      0.077     10.300
REMARK  Name = *****
REMARK                            x       y       z     vdW  Elec       q    Type
REMARK                         _______ _______ _______ _____ _____    ______ ____
ROOT
ATOM      1  C   LIG    1       24.549 -23.169   6.897  0.00  0.00    +0.031 C 
ENDROOT
BRANCH   1   2
ATOM      2  C   LIG    1       25.470 -22.354   5.979  0.00  0.00    +0.086 C 
BRANCH   2   6
ATOM      3  N   LIG    1       28.047 -20.178   7.530  0.00  0.00    -0.327 N 
ATOM      4  C   LIG    1       26.993 -20.880   8.309  0.00  0.00    +0.120 C 
ATOM      5  C   LIG    1       25.586 -20.623   7.697  0.00  0.00    +0.103 C 
ATOM      6  N   LIG    1       25.456 -20.903   6.243  0.00  0.00    -0.299 NA
ATOM      7  C   LIG    1       26.533 -20.151   5.554  0.00  0.00    +0.103 C 
ATOM      8  C   LIG    1       27.956 -20.445   6.075  0.00  0.00    +0.120 C 
BRANCH   3  16
ATOM      9 CL   LIG    1       32.679 -15.750   9.933  0.00  0.00    -0.084 Cl
ATOM     10  C   LIG    1       31.685 -17.051   9.398  0.00  0.00    +0.043 A 
ATOM     11  C   LIG    1       32.143 -18.361   9.523  0.00  0.00    +0.048 A 
ATOM     12  C   LIG    1       31.370 -19.431   9.100  0.00  0.00    +0.074 A 
ATOM     13  N   LIG    1       31.896 -20.653   9.251  0.00  0.00    -0.255 NA
ATOM     14  C   LIG    1       31.170 -21.702   8.833  0.00  0.00    +0.113 A 
ATOM     15  C   LIG    1       29.914 -21.599   8.273  0.00  0.00    +0.043 A 
ATOM     16  C   LIG    1       29.336 -20.333   8.106  0.00  0.00    +0.041 A 
ATOM     17  C   LIG    1       30.091 -19.201   8.532  0.00  0.00    +0.021 A 
ATOM     18  C   LIG    1       29.654 -17.858   8.404  0.00  0.00    +0.013 A 
ATOM     19  C   LIG    1       30.445 -16.792   8.843  0.00  0.00    +0.021 A 
ENDBRANCH   3  16
ENDBRANCH   2   6
ENDBRANCH   1   2
BRANCH   1  20
ATOM     20  C   LIG    1       24.112 -24.511   6.285  0.00  0.00    +0.086 C 
BRANCH  20  21
ATOM     21  N   LIG    1       25.205 -25.181   5.550  0.00  0.00    -0.299 NA
ATOM     22  C   LIG    1       26.267 -25.655   6.479  0.00  0.00    +0.103 C 
ATOM     23  C   LIG    1       25.879 -26.863   7.379  0.00  0.00    +0.120 C 
ATOM     24  N   LIG    1       25.381 -27.987   6.547  0.00  0.00    -0.327 N 
ATOM     25  C   LIG    1       24.302 -27.565   5.619  0.00  0.00    +0.120 C 
ATOM     26  C   LIG    1       24.756 -26.359   4.767  0.00  0.00    +0.103 C 
BRANCH  24  27
ATOM     27  C   LIG    1       25.136 -29.162   7.294  0.00  0.00    +0.041 A 
ATOM     28  C   LIG    1       25.674 -29.324   8.607  0.00  0.00    +0.021 A 
ATOM     29  C   LIG    1       25.402 -30.529   9.293  0.00  0.00    +0.074 A 
ATOM     30  C   LIG    1       25.916 -30.737  10.567  0.00  0.00    +0.048 A 
ATOM     31  C   LIG    1       26.696 -29.774  11.187  0.00  0.00    +0.043 A 
ATOM     32  C   LIG    1       26.986 -28.581  10.542  0.00  0.00    +0.021 A 
ATOM     33 CL   LIG    1       27.321 -30.061  12.766  0.00  0.00    -0.084 Cl
ATOM     34  N   LIG    1       24.665 -31.521   8.773  0.00  0.00    -0.255 NA
ATOM     35  C   LIG    1       24.170 -31.346   7.535  0.00  0.00    +0.113 A 
ATOM     36  C   LIG    1       26.489 -28.360   9.253  0.00  0.00    +0.013 A 
ATOM     37  C   LIG    1       24.369 -30.213   6.775  0.00  0.00    +0.043 A 
ENDBRANCH  24  27
ENDBRANCH  20  21
ENDBRANCH   1  20
TORSDOF 6
ENDMDL
MODEL 3
REMARK VINA RESULT:      -9.5      2.919      5.824
REMARK  Name = *****
REMARK                            x       y       z     vdW  Elec       q    Type
REMARK                         _______ _______ _______ _____ _____    ______ ____
ROOT
ATOM      1  C   LIG    1       24.305 -29.787   5.700  0.00  0.00    +0.031 C 
ENDROOT
BRANCH   1   2
ATOM      2  C   LIG    1       25.552 -30.437   6.315  0.00  0.00    +0.086 C 
BRANCH   2   6
ATOM      3  N   LIG    1       25.406 -30.116  10.010  0.00  0.00    -0.327 N 
ATOM      4  C   LIG    1       26.651 -30.446   9.267  0.00  0.00    +0.120 C 
ATOM      5  C   LIG    1       26.410 -31.617   8.272  0.00  0.00    +0.103 C 
ATOM      6  N   LIG    1       25.260 -31.450   7.347  0.00  0.00    -0.299 NA
ATOM      7  C   LIG    1       24.070 -31.143   8.178  0.00  0.00    +0.103 C 
ATOM      8  C   LIG    1       24.239 -29.930   9.117  0.00  0.00    +0.120 C 
BRANCH   3  16
ATOM      9 CL   LIG    1       21.574 -27.662  15.122  0.00  0.00    -0.084 Cl
ATOM     10  C   LIG    1       22.719 -28.106  13.914  0.00  0.00    +0.043 A 
ATOM     11  C   LIG    1       23.943 -27.442  13.851  0.00  0.00    +0.048 A 
ATOM     12  C   LIG    1       24.885 -27.772  12.891  0.00  0.00    +0.074 A 
ATOM     13  N   LIG    1       26.029 -27.075  12.902  0.00  0.00    -0.255 NA
ATOM     14  C   LIG    1       26.949 -27.368  11.969  0.00  0.00    +0.113 A 
ATOM     15  C   LIG    1       26.795 -28.350  11.013  0.00  0.00    +0.043 A 
ATOM     16  C   LIG    1       25.610 -29.099  10.979  0.00  0.00    +0.041 A 
ATOM     17  C   LIG    1       24.613 -28.800  11.953  0.00  0.00    +0.021 A 
ATOM     18  C   LIG    1       23.354 -29.450  12.029  0.00  0.00    +0.013 A 
ATOM     19  C   LIG    1       22.418 -29.108  13.010  0.00  0.00    +0.021 A 
ENDBRANCH   3  16
ENDBRANCH   2   6
ENDBRANCH   1   2
BRANCH   1  20
ATOM     20  C   LIG    1       24.320 -28.251   5.775  0.00  0.00    +0.086 C 
BRANCH  20  21
ATOM     21  N   LIG    1       25.654 -27.681   5.490  0.00  0.00    -0.299 NA
ATOM     22  C   LIG    1       25.562 -26.568   4.506  0.00  0.00    +0.103 C 
ATOM     23  C   LIG    1       24.910 -25.259   5.034  0.00  0.00    +0.120 C 
ATOM     24  N   LIG    1       25.595 -24.802   6.269  0.00  0.00    -0.327 N 
ATOM     25  C   LIG    1       25.688 -25.875   7.290  0.00  0.00    +0.120 C 
ATOM     26  C   LIG    1       26.337 -27.143   6.691  0.00  0.00    +0.103 C 
BRANCH  24  27
ATOM     27  C   LIG    1       25.134 -23.546   6.725  0.00  0.00    +0.041 A 
ATOM     28  C   LIG    1       26.051 -22.509   7.073  0.00  0.00    +0.021 A 
ATOM     29  C   LIG    1       25.523 -21.282   7.536  0.00  0.00    +0.074 A 
ATOM     30  C   LIG    1       26.377 -20.248   7.899  0.00  0.00    +0.048 A 
ATOM     31  C   LIG    1       27.753 -20.396   7.813  0.00  0.00    +0.043 A 
ATOM     32  C   LIG    1       28.306 -21.588   7.367  0.00  0.00    +0.021 A 
ATOM     33 CL   LIG    1       28.787 -19.098   8.273  0.00  0.00    -0.084 Cl
ATOM     34  N   LIG    1       24.209 -21.047   7.660  0.00  0.00    -0.255 NA
ATOM     35  C   LIG    1       23.365 -22.039   7.327  0.00  0.00    +0.113 A 
ATOM     36  C   LIG    1       27.461 -22.645   7.010  0.00  0.00    +0.013 A 
ATOM     37  C   LIG    1       23.767 -23.274   6.864  0.00  0.00    +0.043 A 
ENDBRANCH  24  27
ENDBRANCH  20  21
ENDBRANCH   1  20
TORSDOF 6
ENDMDL
MODEL 4
REMARK VINA RESULT:      -9.5      2.888      9.625
REMARK  Name = *****
REMARK                            x       y       z     vdW  Elec       q    Type
REMARK                         _______ _______ _______ _____ _____    ______ ____
ROOT
ATOM      1  C   LIG    1       24.276 -29.699   5.596  0.00  0.00    +0.031 C 
ENDROOT
BRANCH   1   2
ATOM      2  C   LIG    1       24.339 -28.169   5.713  0.00  0.00    +0.086 C 
BRANCH   2   6
ATOM      3  N   LIG    1       25.642 -24.721   6.148  0.00  0.00    -0.327 N 
ATOM      4  C   LIG    1       24.861 -25.156   4.960  0.00  0.00    +0.120 C 
ATOM      5  C   LIG    1       25.446 -26.466   4.360  0.00  0.00    +0.103 C 
ATOM      6  N   LIG    1       25.635 -27.586   5.318  0.00  0.00    -0.299 NA
ATOM      7  C   LIG    1       26.435 -27.061   6.452  0.00  0.00    +0.103 C 
ATOM      8  C   LIG    1       25.840 -25.810   7.133  0.00  0.00    +0.120 C 
BRANCH   3  16
ATOM      9 CL   LIG    1       28.808 -19.083   8.389  0.00  0.00    -0.084 Cl
ATOM     10  C   LIG    1       27.789 -20.375   7.881  0.00  0.00    +0.043 A 
ATOM     11  C   LIG    1       26.406 -20.237   7.981  0.00  0.00    +0.048 A 
ATOM     12  C   LIG    1       25.556 -21.258   7.584  0.00  0.00    +0.074 A 
ATOM     13  N   LIG    1       24.242 -21.039   7.725  0.00  0.00    -0.255 NA
ATOM     14  C   LIG    1       23.402 -22.022   7.361  0.00  0.00    +0.113 A 
ATOM     15  C   LIG    1       23.809 -23.232   6.839  0.00  0.00    +0.043 A 
ATOM     16  C   LIG    1       25.178 -23.488   6.676  0.00  0.00    +0.041 A 
ATOM     17  C   LIG    1       26.091 -22.464   7.065  0.00  0.00    +0.021 A 
ATOM     18  C   LIG    1       27.502 -22.584   6.987  0.00  0.00    +0.013 A 
ATOM     19  C   LIG    1       28.343 -21.541   7.386  0.00  0.00    +0.021 A 
ENDBRANCH   3  16
ENDBRANCH   2   6
ENDBRANCH   1   2
BRANCH   1  20
ATOM     20  C   LIG    1       25.505 -30.405   6.190  0.00  0.00    +0.086 C 
BRANCH  20  21
ATOM     21  N   LIG    1       25.144 -31.416   7.206  0.00  0.00    -0.299 NA
ATOM     22  C   LIG    1       26.272 -31.661   8.145  0.00  0.00    +0.103 C 
ATOM     23  C   LIG    1       26.582 -30.504   9.137  0.00  0.00    +0.120 C 
ATOM     24  N   LIG    1       25.359 -30.125   9.886  0.00  0.00    -0.327 N 
ATOM     25  C   LIG    1       24.211 -29.848   8.987  0.00  0.00    +0.120 C 
ATOM     26  C   LIG    1       23.970 -31.035   8.029  0.00  0.00    +0.103 C 
BRANCH  24  27
ATOM     27  C   LIG    1       25.603 -29.167  10.897  0.00  0.00    +0.041 A 
ATOM     28  C   LIG    1       24.641 -28.919  11.922  0.00  0.00    +0.021 A 
ATOM     29  C   LIG    1       24.943 -27.938  12.894  0.00  0.00    +0.074 A 
ATOM     30  C   LIG    1       24.032 -27.653  13.903  0.00  0.00    +0.048 A 
ATOM     31  C   LIG    1       22.819 -28.320  13.979  0.00  0.00    +0.043 A 
ATOM     32  C   LIG    1       22.488 -29.286  13.039  0.00  0.00    +0.021 A 
ATOM     33 CL   LIG    1       21.708 -27.943  15.240  0.00  0.00    -0.084 Cl
ATOM     34  N   LIG    1       26.085 -27.236  12.900  0.00  0.00    -0.255 NA
ATOM     35  C   LIG    1       26.975 -27.486  11.925  0.00  0.00    +0.113 A 
ATOM     36  C   LIG    1       23.388 -29.577  12.008  0.00  0.00    +0.013 A 
ATOM     37  C   LIG    1       26.788 -28.421  10.927  0.00  0.00    +0.043 A 
ENDBRANCH  24  27
ENDBRANCH  20  21
ENDBRANCH   1  20
TORSDOF 6
ENDMDL
MODEL 5
REMARK VINA RESULT:      -9.4      4.091      6.854
REMARK  Name = *****
REMARK                            x       y       z     vdW  Elec       q    Type
REMARK                         _______ _______ _______ _____ _____    ______ ____
ROOT
ATOM      1  C   LIG    1       24.947 -30.037   6.876  0.00  0.00    +0.031 C 
ENDROOT
BRANCH   1   2
ATOM      2  C   LIG    1       25.794 -30.781   7.918  0.00  0.00    +0.086 C 
BRANCH   2   6
ATOM      3  N   LIG    1       24.424 -29.927  11.260  0.00  0.00    -0.327 N 
ATOM      4  C   LIG    1       25.784 -30.492  11.054  0.00  0.00    +0.120 C 
ATOM      5  C   LIG    1       25.728 -31.759  10.153  0.00  0.00    +0.103 C 
ATOM      6  N   LIG    1       25.011 -31.600   8.862  0.00  0.00    -0.299 NA
ATOM      7  C   LIG    1       23.668 -31.051   9.172  0.00  0.00    +0.103 C 
ATOM      8  C   LIG    1       23.683 -29.743   9.990  0.00  0.00    +0.120 C 
BRANCH   3  16
ATOM      9 CL   LIG    1       19.492 -26.497  14.538  0.00  0.00    -0.084 Cl
ATOM     10  C   LIG    1       20.899 -27.193  13.830  0.00  0.00    +0.043 A 
ATOM     11  C   LIG    1       22.150 -26.651  14.114  0.00  0.00    +0.048 A 
ATOM     12  C   LIG    1       23.303 -27.185  13.559  0.00  0.00    +0.074 A 
ATOM     13  N   LIG    1       24.459 -26.592  13.883  0.00  0.00    -0.255 NA
ATOM     14  C   LIG    1       25.586 -27.084  13.343  0.00  0.00    +0.113 A 
ATOM     15  C   LIG    1       25.627 -28.167  12.491  0.00  0.00    +0.043 A 
ATOM     16  C   LIG    1       24.432 -28.811  12.138  0.00  0.00    +0.041 A 
ATOM     17  C   LIG    1       23.220 -28.301  12.689  0.00  0.00    +0.021 A 
ATOM     18  C   LIG    1       21.933 -28.825  12.405  0.00  0.00    +0.013 A 
ATOM     19  C   LIG    1       20.782 -28.278  12.980  0.00  0.00    +0.021 A 
ENDBRANCH   3  16
ENDBRANCH   2   6
ENDBRANCH   1   2
BRANCH   1  20
ATOM     20  C   LIG    1       25.146 -28.513   6.906  0.00  0.00    +0.086 C 
BRANCH  20  21
ATOM     21  N   LIG    1       25.181 -27.918   5.554  0.00  0.00    -0.299 NA
ATOM     22  C   LIG    1       24.032 -26.996   5.342  0.00  0.00    +0.103 C 
ATOM     23  C   LIG    1       24.091 -25.660   6.135  0.00  0.00    +0.120 C 
ATOM     24  N   LIG    1       25.372 -24.958   5.870  0.00  0.00    -0.327 N 
ATOM     25  C   LIG    1       26.549 -25.834   6.091  0.00  0.00    +0.120 C 
ATOM     26  C   LIG    1       26.416 -27.143   5.280  0.00  0.00    +0.103 C 
BRANCH  24  27
ATOM     27  C   LIG    1       25.431 -23.674   6.458  0.00  0.00    +0.041 A 
ATOM     28  C   LIG    1       24.954 -22.523   5.761  0.00  0.00    +0.021 A 
ATOM     29  C   LIG    1       25.056 -21.268   6.401  0.00  0.00    +0.074 A 
ATOM     30  C   LIG    1       24.616 -20.118   5.756  0.00  0.00    +0.048 A 
ATOM     31  C   LIG    1       24.070 -20.179   4.483  0.00  0.00    +0.043 A 
ATOM     32  C   LIG    1       23.958 -21.395   3.824  0.00  0.00    +0.021 A 
ATOM     33 CL   LIG    1       23.536 -18.737   3.708  0.00  0.00    -0.084 Cl
ATOM     34  N   LIG    1       25.576 -21.107   7.626  0.00  0.00    -0.255 NA
ATOM     35  C   LIG    1       26.020 -22.205   8.263  0.00  0.00    +0.113 A 
ATOM     36  C   LIG    1       24.408 -22.561   4.453  0.00  0.00    +0.013 A 
ATOM     37  C   LIG    1       25.969 -23.479   7.737  0.00  0.00    +0.043 A 
ENDBRANCH  24  27
ENDBRANCH  20  21
ENDBRANCH   1  20
TORSDOF 6
ENDMDL
MODEL 6
REMARK VINA RESULT:      -9.3      1.526      2.350
REMARK  Name = *****
REMARK                            x       y       z     vdW  Elec       q    Type
REMARK                         _______ _______ _______ _____ _____    ______ ____
ROOT
ATOM      1  C   LIG    1       23.978 -22.711   6.524  0.00  0.00    +0.031 C 
ENDROOT
BRANCH   1   2
ATOM      2  C   LIG    1       24.000 -24.244   6.592  0.00  0.00    +0.086 C 
BRANCH   2   6
ATOM      3  N   LIG    1       25.651 -27.560   6.824  0.00  0.00    -0.327 N 
ATOM      4  C   LIG    1       26.192 -26.332   7.461  0.00  0.00    +0.120 C 
ATOM      5  C   LIG    1       26.258 -25.160   6.441  0.00  0.00    +0.103 C 
ATOM      6  N   LIG    1       24.998 -24.874   5.707  0.00  0.00    -0.299 NA
ATOM      7  C   LIG    1       24.549 -26.148   5.096  0.00  0.00    +0.103 C 
ATOM      8  C   LIG    1       24.386 -27.316   6.092  0.00  0.00    +0.120 C 
BRANCH   3  16
ATOM      9 CL   LIG    1       22.914 -33.825   6.493  0.00  0.00    -0.084 Cl
ATOM     10  C   LIG    1       23.696 -32.323   6.811  0.00  0.00    +0.043 A 
ATOM     11  C   LIG    1       24.381 -32.147   8.011  0.00  0.00    +0.048 A 
ATOM     12  C   LIG    1       25.019 -30.950   8.299  0.00  0.00    +0.074 A 
ATOM     13  N   LIG    1       25.645 -30.869   9.481  0.00  0.00    -0.255 NA
ATOM     14  C   LIG    1       26.255 -29.713   9.787  0.00  0.00    +0.113 A 
ATOM     15  C   LIG    1       26.289 -28.613   8.955  0.00  0.00    +0.043 A 
ATOM     16  C   LIG    1       25.646 -28.670   7.711  0.00  0.00    +0.041 A 
ATOM     17  C   LIG    1       24.981 -29.883   7.366  0.00  0.00    +0.021 A 
ATOM     18  C   LIG    1       24.265 -30.084   6.159  0.00  0.00    +0.013 A 
ATOM     19  C   LIG    1       23.634 -31.301   5.882  0.00  0.00    +0.021 A 
ENDBRANCH   3  16
ENDBRANCH   2   6
ENDBRANCH   1   2
BRANCH   1  20
ATOM     20  C   LIG    1       25.251 -22.111   5.904  0.00  0.00    +0.086 C 
BRANCH  20  21
ATOM     21  N   LIG    1       25.363 -20.655   6.134  0.00  0.00    -0.299 NA
ATOM     22  C   LIG    1       25.506 -20.349   7.583  0.00  0.00    +0.103 C 
ATOM     23  C   LIG    1       26.870 -20.743   8.218  0.00  0.00    +0.120 C 
ATOM     24  N   LIG    1       27.990 -20.144   7.450  0.00  0.00    -0.327 N 
ATOM     25  C   LIG    1       27.900 -20.443   5.999  0.00  0.00    +0.120 C 
ATOM     26  C   LIG    1       26.518 -20.034   5.442  0.00  0.00    +0.103 C 
BRANCH  24  27
ATOM     27  C   LIG    1       29.251 -20.356   8.053  0.00  0.00    +0.041 A 
ATOM     28  C   LIG    1       30.039 -19.258   8.514  0.00  0.00    +0.021 A 
ATOM     29  C   LIG    1       31.296 -19.540   9.094  0.00  0.00    +0.074 A 
ATOM     30  C   LIG    1       32.104 -18.503   9.545  0.00  0.00    +0.048 A 
ATOM     31  C   LIG    1       31.696 -17.182   9.438  0.00  0.00    +0.043 A 
ATOM     32  C   LIG    1       30.469 -16.869   8.870  0.00  0.00    +0.021 A 
ATOM     33 CL   LIG    1       32.720 -15.918  10.003  0.00  0.00    -0.084 Cl
ATOM     34  N   LIG    1       31.780 -20.782   9.234  0.00  0.00    -0.255 NA
ATOM     35  C   LIG    1       31.021 -21.800   8.793  0.00  0.00    +0.113 A 
ATOM     36  C   LIG    1       29.649 -17.900   8.399  0.00  0.00    +0.013 A 
ATOM     37  C   LIG    1       29.779 -21.643   8.212  0.00  0.00    +0.043 A 
ENDBRANCH  24  27
ENDBRANCH  20  21
ENDBRANCH   1  20
TORSDOF 6
ENDMDL
MODEL 7
REMARK VINA RESULT:      -9.3      4.118     10.199
REMARK  Name = *****
REMARK                            x       y       z     vdW  Elec       q    Type
REMARK                         _______ _______ _______ _____ _____    ______ ____
ROOT
ATOM      1  C   LIG    1       24.921 -30.007   6.968  0.00  0.00    +0.031 C 
ENDROOT
BRANCH   1   2
ATOM      2  C   LIG    1       25.167 -28.493   6.932  0.00  0.00    +0.086 C 
BRANCH   2   6
ATOM      3  N   LIG    1       25.368 -24.952   5.837  0.00  0.00    -0.327 N 
ATOM      4  C   LIG    1       24.084 -25.656   6.093  0.00  0.00    +0.120 C 
ATOM      5  C   LIG    1       24.040 -27.019   5.345  0.00  0.00    +0.103 C 
ATOM      6  N   LIG    1       25.201 -27.917   5.574  0.00  0.00    -0.299 NA
ATOM      7  C   LIG    1       26.425 -27.135   5.278  0.00  0.00    +0.103 C 
ATOM      8  C   LIG    1       26.550 -25.815   6.068  0.00  0.00    +0.120 C 
BRANCH   3  16
ATOM      9 CL   LIG    1       23.451 -18.709   3.790  0.00  0.00    -0.084 Cl
ATOM     10  C   LIG    1       24.004 -20.163   4.530  0.00  0.00    +0.043 A 
ATOM     11  C   LIG    1       24.538 -20.119   5.816  0.00  0.00    +0.048 A 
ATOM     12  C   LIG    1       24.995 -21.269   6.439  0.00  0.00    +0.074 A 
ATOM     13  N   LIG    1       25.499 -21.128   7.672  0.00  0.00    -0.255 NA
ATOM     14  C   LIG    1       25.962 -22.228   8.287  0.00  0.00    +0.113 A 
ATOM     15  C   LIG    1       25.937 -23.492   7.735  0.00  0.00    +0.043 A 
ATOM     16  C   LIG    1       25.411 -23.670   6.448  0.00  0.00    +0.041 A 
ATOM     17  C   LIG    1       24.922 -22.516   5.769  0.00  0.00    +0.021 A 
ATOM     18  C   LIG    1       24.388 -22.531   4.455  0.00  0.00    +0.013 A 
ATOM     19  C   LIG    1       23.924 -21.362   3.845  0.00  0.00    +0.021 A 
ENDBRANCH   3  16
ENDBRANCH   2   6
ENDBRANCH   1   2
BRANCH   1  20
ATOM     20  C   LIG    1       25.820 -30.746   7.972  0.00  0.00    +0.086 C 
BRANCH  20  21
ATOM     21  N   LIG    1       25.047 -31.553   8.940  0.00  0.00    -0.299 NA
ATOM     22  C   LIG    1       25.771 -31.678  10.234  0.00  0.00    +0.103 C 
ATOM     23  C   LIG    1       25.842 -30.381  11.089  0.00  0.00    +0.120 C 
ATOM     24  N   LIG    1       24.481 -29.832  11.309  0.00  0.00    -0.327 N 
ATOM     25  C   LIG    1       23.729 -29.668  10.040  0.00  0.00    +0.120 C 
ATOM     26  C   LIG    1       23.708 -30.992   9.243  0.00  0.00    +0.103 C 
BRANCH  24  27
ATOM     27  C   LIG    1       24.466 -28.726  12.189  0.00  0.00    +0.041 A 
ATOM     28  C   LIG    1       23.239 -28.231  12.726  0.00  0.00    +0.021 A 
ATOM     29  C   LIG    1       23.293 -27.113  13.589  0.00  0.00    +0.074 A 
ATOM     30  C   LIG    1       22.124 -26.588  14.125  0.00  0.00    +0.048 A 
ATOM     31  C   LIG    1       20.890 -27.147  13.829  0.00  0.00    +0.043 A 
ATOM     32  C   LIG    1       20.799 -28.242  12.982  0.00  0.00    +0.021 A 
ATOM     33 CL   LIG    1       19.457 -26.473  14.506  0.00  0.00    -0.084 Cl
ATOM     34  N   LIG    1       24.437 -26.500  13.927  0.00  0.00    -0.255 NA
ATOM     35  C   LIG    1       25.579 -26.984  13.409  0.00  0.00    +0.113 A 
ATOM     36  C   LIG    1       21.965 -28.775  12.423  0.00  0.00    +0.013 A 
ATOM     37  C   LIG    1       25.646 -28.068  12.559  0.00  0.00    +0.043 A 
ENDBRANCH  24  27
ENDBRANCH  20  21
ENDBRANCH   1  20
TORSDOF 6
ENDMDL
MODEL 8
REMARK VINA RESULT:      -9.2      2.866      5.734
REMARK  Name = *****
REMARK                            x       y       z     vdW  Elec       q    Type
REMARK                         _______ _______ _______ _____ _____    ______ ____
ROOT
ATOM      1  C   LIG    1       24.633 -29.810   5.556  0.00  0.00    +0.031 C 
ENDROOT
BRANCH   1   2
ATOM      2  C   LIG    1       23.977 -30.489   6.767  0.00  0.00    +0.086 C 
BRANCH   2   6
ATOM      3  N   LIG    1       24.593 -30.171  10.413  0.00  0.00    -0.327 N 
ATOM      4  C   LIG    1       25.312 -29.367   9.390  0.00  0.00    +0.120 C 
ATOM      5  C   LIG    1       25.889 -30.281   8.270  0.00  0.00    +0.103 C 
ATOM      6  N   LIG    1       24.920 -31.214   7.639  0.00  0.00    -0.299 NA
ATOM      7  C   LIG    1       24.272 -31.978   8.732  0.00  0.00    +0.103 C 
ATOM      8  C   LIG    1       23.609 -31.106   9.819  0.00  0.00    +0.120 C 
BRANCH   3  16
ATOM      9 CL   LIG    1       27.528 -25.481  14.441  0.00  0.00    -0.084 Cl
ATOM     10  C   LIG    1       26.571 -26.612  13.564  0.00  0.00    +0.043 A 
ATOM     11  C   LIG    1       25.230 -26.785  13.903  0.00  0.00    +0.048 A 
ATOM     12  C   LIG    1       24.432 -27.689  13.219  0.00  0.00    +0.074 A 
ATOM     13  N   LIG    1       23.158 -27.793  13.621  0.00  0.00    -0.255 NA
ATOM     14  C   LIG    1       22.372 -28.675  12.983  0.00  0.00    +0.113 A 
ATOM     15  C   LIG    1       22.790 -29.465  11.933  0.00  0.00    +0.043 A 
ATOM     16  C   LIG    1       24.117 -29.374  11.487  0.00  0.00    +0.041 A 
ATOM     17  C   LIG    1       24.975 -28.453  12.156  0.00  0.00    +0.021 A 
ATOM     18  C   LIG    1       26.346 -28.268  11.840  0.00  0.00    +0.013 A 
ATOM     19  C   LIG    1       27.134 -27.346  12.536  0.00  0.00    +0.021 A 
ENDBRANCH   3  16
ENDBRANCH   2   6
ENDBRANCH   1   2
BRANCH   1  20
ATOM     20  C   LIG    1       24.524 -28.277   5.585  0.00  0.00    +0.086 C 
BRANCH  20  21
ATOM     21  N   LIG    1       25.785 -27.610   5.198  0.00  0.00    -0.299 NA
ATOM     22  C   LIG    1       25.529 -26.473   4.272  0.00  0.00    +0.103 C 
ATOM     23  C   LIG    1       24.849 -25.229   4.912  0.00  0.00    +0.120 C 
ATOM     24  N   LIG    1       25.620 -24.770   6.094  0.00  0.00    -0.327 N 
ATOM     25  C   LIG    1       25.879 -25.868   7.058  0.00  0.00    +0.120 C 
ATOM     26  C   LIG    1       26.546 -27.069   6.350  0.00  0.00    +0.103 C 
BRANCH  24  27
ATOM     27  C   LIG    1       25.127 -23.563   6.641  0.00  0.00    +0.041 A 
ATOM     28  C   LIG    1       26.016 -22.523   7.047  0.00  0.00    +0.021 A 
ATOM     29  C   LIG    1       25.457 -21.348   7.600  0.00  0.00    +0.074 A 
ATOM     30  C   LIG    1       26.284 -20.314   8.021  0.00  0.00    +0.048 A 
ATOM     31  C   LIG    1       27.662 -20.411   7.906  0.00  0.00    +0.043 A 
ATOM     32  C   LIG    1       28.245 -21.551   7.372  0.00  0.00    +0.021 A 
ATOM     33 CL   LIG    1       28.661 -19.114   8.439  0.00  0.00    -0.084 Cl
ATOM     34  N   LIG    1       24.138 -21.165   7.758  0.00  0.00    -0.255 NA
ATOM     35  C   LIG    1       23.321 -22.159   7.370  0.00  0.00    +0.113 A 
ATOM     36  C   LIG    1       27.428 -22.608   6.955  0.00  0.00    +0.013 A 
ATOM     37  C   LIG    1       23.754 -23.346   6.817  0.00  0.00    +0.043 A 
ENDBRANCH  24  27
ENDBRANCH  20  21
ENDBRANCH   1  20
TORSDOF 6
ENDMDL
MODEL 9
REMARK VINA RESULT:      -9.1      2.645      5.352
REMARK  Name = *****
REMARK                            x       y       z     vdW  Elec       q    Type
REMARK                         _______ _______ _______ _____ _____    ______ ____
ROOT
ATOM      1  C   LIG    1       24.518 -29.363   6.197  0.00  0.00    +0.031 C 
ENDROOT
BRANCH   1   2
ATOM      2  C   LIG    1       25.357 -30.383   5.414  0.00  0.00    +0.086 C 
BRANCH   2   6
ATOM      3  N   LIG    1       25.032 -32.364   8.536  0.00  0.00    -0.327 N 
ATOM      4  C   LIG    1       26.291 -32.278   7.750  0.00  0.00    +0.120 C 
ATOM      5  C   LIG    1       26.029 -32.577   6.246  0.00  0.00    +0.103 C 
ATOM      6  N   LIG    1       24.944 -31.785   5.612  0.00  0.00    -0.299 NA
ATOM      7  C   LIG    1       23.733 -31.947   6.454  0.00  0.00    +0.103 C 
ATOM      8  C   LIG    1       23.929 -31.575   7.939  0.00  0.00    +0.120 C 
BRANCH   3  16
ATOM      9 CL   LIG    1       27.023 -26.980  12.262  0.00  0.00    -0.084 Cl
ATOM     10  C   LIG    1       26.507 -28.463  11.554  0.00  0.00    +0.043 A 
ATOM     11  C   LIG    1       26.278 -29.569  12.368  0.00  0.00    +0.048 A 
ATOM     12  C   LIG    1       25.865 -30.778  11.831  0.00  0.00    +0.074 A 
ATOM     13  N   LIG    1       25.678 -31.789  12.690  0.00  0.00    -0.255 NA
ATOM     14  C   LIG    1       25.293 -32.973  12.188  0.00  0.00    +0.113 A 
ATOM     15  C   LIG    1       25.066 -33.208  10.848  0.00  0.00    +0.043 A 
ATOM     16  C   LIG    1       25.250 -32.168   9.925  0.00  0.00    +0.041 A 
ATOM     17  C   LIG    1       25.668 -30.902  10.432  0.00  0.00    +0.021 A 
ATOM     18  C   LIG    1       25.922 -29.765   9.624  0.00  0.00    +0.013 A 
ATOM     19  C   LIG    1       26.331 -28.551  10.185  0.00  0.00    +0.021 A 
ENDBRANCH   3  16
ENDBRANCH   2   6
ENDBRANCH   1   2
BRANCH   1  20
ATOM     20  C   LIG    1       24.394 -28.004   5.487  0.00  0.00    +0.086 C 
BRANCH  20  21
ATOM     21  N   LIG    1       25.708 -27.405   5.174  0.00  0.00    -0.299 NA
ATOM     22  C   LIG    1       25.561 -26.230   4.272  0.00  0.00    +0.103 C 
ATOM     23  C   LIG    1       24.928 -24.965   4.919  0.00  0.00    +0.120 C 
ATOM     24  N   LIG    1       25.672 -24.585   6.146  0.00  0.00    -0.327 N 
ATOM     25  C   LIG    1       25.823 -25.723   7.087  0.00  0.00    +0.120 C 
ATOM     26  C   LIG    1       26.448 -26.942   6.373  0.00  0.00    +0.103 C 
BRANCH  24  27
ATOM     27  C   LIG    1       25.228 -23.367   6.708  0.00  0.00    +0.041 A 
ATOM     28  C   LIG    1       26.157 -22.353   7.093  0.00  0.00    +0.021 A 
ATOM     29  C   LIG    1       25.646 -21.164   7.662  0.00  0.00    +0.074 A 
ATOM     30  C   LIG    1       26.512 -20.155   8.063  0.00  0.00    +0.048 A 
ATOM     31  C   LIG    1       27.884 -20.291   7.913  0.00  0.00    +0.043 A 
ATOM     32  C   LIG    1       28.420 -21.446   7.362  0.00  0.00    +0.021 A 
ATOM     33 CL   LIG    1       28.933 -19.024   8.423  0.00  0.00    -0.084 Cl
ATOM     34  N   LIG    1       24.338 -20.944   7.854  0.00  0.00    -0.255 NA
ATOM     35  C   LIG    1       23.482 -21.913   7.485  0.00  0.00    +0.113 A 
ATOM     36  C   LIG    1       27.563 -22.478   6.964  0.00  0.00    +0.013 A 
ATOM     37  C   LIG    1       23.867 -23.111   6.919  0.00  0.00    +0.043 A 
ENDBRANCH  24  27
ENDBRANCH  20  21
ENDBRANCH   1  20
TORSDOF 6
ENDMDL
