MODEL 1
REMARK VINA RESULT:      -9.2      0.000      0.000
REMARK  Name = *****
REMARK                            x       y       z     vdW  Elec       q    Type
REMARK                         _______ _______ _______ _____ _____    ______ ____
ROOT
ATOM      1  C   LIG    1       24.918 -22.529   7.444  0.00  0.00    +0.031 C 
ATOM      2  C   LIG    1       23.485 -22.094   7.457  0.00  0.00    +0.121 C 
ATOM      3  C   LIG    1       22.811 -21.988   6.109  0.00  0.00    +0.063 C 
ATOM      4  C   LIG    1       24.060 -21.524   5.270  0.00  0.00    +0.124 C 
ATOM      5  C   LIG    1       25.140 -22.482   5.877  0.00  0.00    +0.046 C 
ENDROOT
BRANCH   2   6
ATOM      6  O   LIG    1       23.728 -20.743   7.494  0.00  0.00    -0.391 OA
ATOM      7  H   LIG    1       23.271 -20.516   6.677  0.00  0.00    +0.210 HD
ENDBRANCH   2   6
BRANCH   4   8
ATOM      8  O   LIG    1       24.589 -20.188   5.364  0.00  0.00    -0.391 OA
ATOM      9  H   LIG    1       25.200 -20.059   4.609  0.00  0.00    +0.210 HD
ENDBRANCH   4   8
BRANCH   5  10
ATOM     10  C   LIG    1       24.932 -23.868   5.325  0.00  0.00    -0.022 C 
ATOM     11  C   LIG    1       25.624 -24.948   5.727  0.00  0.00    -0.000 C 
BRANCH  11  12
ATOM     12  C   LIG    1       25.450 -26.335   5.255  0.00  0.00    +0.138 C 
BRANCH  12  13
ATOM     13  O   LIG    1       26.730 -26.958   5.273  0.00  0.00    -0.388 OA
ATOM     14  H   LIG    1       26.946 -27.234   4.366  0.00  0.00    +0.210 HD
ENDBRANCH  12  13
BRANCH  12  15
ATOM     15  C   LIG    1       24.469 -27.090   6.149  0.00  0.00    +0.040 C 
BRANCH  15  16
ATOM     16  C   LIG    1       24.839 -28.566   6.405  0.00  0.00    +0.038 C 
BRANCH  16  17
ATOM     17  C   LIG    1       25.198 -28.914   7.832  0.00  0.00    -0.047 A 
ATOM     18  C   LIG    1       24.413 -29.856   8.519  0.00  0.00    +0.003 A 
ATOM     19  C   LIG    1       24.661 -30.143   9.863  0.00  0.00    +0.000 A 
ATOM     20  C   LIG    1       25.698 -29.500  10.534  0.00  0.00    +0.000 A 
ATOM     21  C   LIG    1       26.509 -28.598   9.853  0.00  0.00    +0.000 A 
ATOM     22  C   LIG    1       26.261 -28.309   8.513  0.00  0.00    +0.003 A 
ENDBRANCH  16  17
ENDBRANCH  15  16
ENDBRANCH  12  15
ENDBRANCH  11  12
ENDBRANCH   5  10
BRANCH   1  23
ATOM     23  C   LIG    1       25.954 -21.610   8.272  0.00  0.00    +0.033 C 
BRANCH  23  25
ATOM     24  C   LIG    1       28.449 -21.027   7.325  0.00  0.00    -0.031 C 
ATOM     25  C   LIG    1       27.502 -21.631   8.104  0.00  0.00    -0.031 C 
BRANCH  24  26
ATOM     26  C   LIG    1       28.482 -19.909   6.240  0.00  0.00    +0.027 C 
BRANCH  26  27
ATOM     27  C   LIG    1       29.621 -18.975   6.446  0.00  0.00    +0.013 C 
BRANCH  27  28
ATOM     28  C   LIG    1       31.109 -19.182   6.958  0.00  0.00    +0.096 C 
BRANCH  28  31
ATOM     29  N   LIG    1       31.673 -17.487   8.830  0.00  0.00    -0.316 N 
ATOM     30  H   LIG    1       30.907 -16.893   8.479  0.00  0.00    +0.149 HD
ATOM     31  C   LIG    1       31.563 -18.809   8.458  0.00  0.00    +0.213 C 
ATOM     32  O   LIG    1       32.064 -19.714   9.289  0.00  0.00    -0.276 OA
BRANCH  29  34
ATOM     33  C   LIG    1       31.196 -16.820  11.215  0.00  0.00    +0.024 C 
ATOM     34  C   LIG    1       32.242 -17.067  10.134  0.00  0.00    +0.101 C 
ENDBRANCH  29  34
ENDBRANCH  28  31
ENDBRANCH  27  28
ENDBRANCH  26  27
ENDBRANCH  24  26
ENDBRANCH  23  25
ENDBRANCH   1  23
TORSDOF 15
ENDMDL
MODEL 2
REMARK VINA RESULT:      -9.1      4.500      8.648
REMARK  Name = *****
REMARK                            x       y       z     vdW  Elec       q    Type
REMARK                         _______ _______ _______ _____ _____    ______ ____
ROOT
ATOM      1  C   LIG    1       25.227 -20.400   6.602  0.00  0.00    +0.031 C 
ATOM      2  C   LIG    1       25.332 -20.613   8.080  0.00  0.00    +0.121 C 
ATOM      3  C   LIG    1       26.650 -21.156   8.581  0.00  0.00    +0.063 C 
ATOM      4  C   LIG    1       27.000 -22.066   7.344  0.00  0.00    +0.124 C 
ATOM      5  C   LIG    1       26.593 -21.089   6.190  0.00  0.00    +0.046 C 
ENDROOT
BRANCH   2   6
ATOM      6  O   LIG    1       24.754 -21.859   8.104  0.00  0.00    -0.391 OA
ATOM      7  H   LIG    1       23.977 -21.620   8.621  0.00  0.00    +0.210 HD
ENDBRANCH   2   6
BRANCH   4   8
ATOM      8  O   LIG    1       26.322 -23.311   7.095  0.00  0.00    -0.391 OA
ATOM      9  H   LIG    1       25.360 -23.126   7.082  0.00  0.00    +0.210 HD
ENDBRANCH   4   8
BRANCH   5  10
ATOM     10  C   LIG    1       27.644 -20.018   6.058  0.00  0.00    -0.022 C 
ATOM     11  C   LIG    1       28.965 -20.249   6.140  0.00  0.00    -0.000 C 
BRANCH  11  12
ATOM     12  C   LIG    1       30.047 -19.257   5.988  0.00  0.00    +0.138 C 
BRANCH  12  13
ATOM     13  O   LIG    1       29.446 -18.024   5.605  0.00  0.00    -0.388 OA
ATOM     14  H   LIG    1       28.696 -18.222   5.019  0.00  0.00    +0.210 HD
ENDBRANCH  12  13
BRANCH  12  15
ATOM     15  C   LIG    1       30.822 -19.099   7.294  0.00  0.00    +0.040 C 
BRANCH  15  16
ATOM     16  C   LIG    1       30.011 -18.476   8.450  0.00  0.00    +0.038 C 
BRANCH  16  17
ATOM     17  C   LIG    1       30.803 -17.642   9.431  0.00  0.00    -0.047 A 
ATOM     18  C   LIG    1       32.020 -17.078   9.016  0.00  0.00    +0.003 A 
ATOM     19  C   LIG    1       32.821 -16.371   9.916  0.00  0.00    +0.000 A 
ATOM     20  C   LIG    1       32.412 -16.213  11.237  0.00  0.00    +0.000 A 
ATOM     21  C   LIG    1       31.188 -16.730  11.650  0.00  0.00    +0.000 A 
ATOM     22  C   LIG    1       30.390 -17.438  10.753  0.00  0.00    +0.003 A 
ENDBRANCH  16  17
ENDBRANCH  15  16
ENDBRANCH  12  15
ENDBRANCH  11  12
ENDBRANCH   5  10
BRANCH   1  23
ATOM     23  C   LIG    1       23.936 -21.040   5.875  0.00  0.00    +0.033 C 
BRANCH  23  25
ATOM     24  C   LIG    1       22.379 -19.095   4.756  0.00  0.00    -0.031 C 
ATOM     25  C   LIG    1       22.672 -20.245   5.431  0.00  0.00    -0.031 C 
BRANCH  24  26
ATOM     26  C   LIG    1       23.172 -18.001   3.978  0.00  0.00    +0.027 C 
BRANCH  26  27
ATOM     27  C   LIG    1       24.517 -18.484   3.565  0.00  0.00    +0.013 C 
BRANCH  27  28
ATOM     28  C   LIG    1       25.922 -17.762   3.409  0.00  0.00    +0.096 C 
BRANCH  28  31
ATOM     29  N   LIG    1       27.314 -15.585   3.553  0.00  0.00    -0.316 N 
ATOM     30  H   LIG    1       28.057 -16.064   3.021  0.00  0.00    +0.149 HD
ATOM     31  C   LIG    1       26.071 -16.158   3.402  0.00  0.00    +0.213 C 
ATOM     32  O   LIG    1       25.020 -15.352   3.492  0.00  0.00    -0.276 OA
BRANCH  29  34
ATOM     33  C   LIG    1       27.121 -13.606   5.104  0.00  0.00    +0.024 C 
ATOM     34  C   LIG    1       27.509 -14.125   3.723  0.00  0.00    +0.101 C 
ENDBRANCH  29  34
ENDBRANCH  28  31
ENDBRANCH  27  28
ENDBRANCH  26  27
ENDBRANCH  24  26
ENDBRANCH  23  25
ENDBRANCH   1  23
TORSDOF 15
ENDMDL
MODEL 3
REMARK VINA RESULT:      -9.0      1.135      1.591
REMARK  Name = *****
REMARK                            x       y       z     vdW  Elec       q    Type
REMARK                         _______ _______ _______ _____ _____    ______ ____
ROOT
ATOM      1  C   LIG    1       24.973 -22.512   7.532  0.00  0.00    +0.031 C 
ATOM      2  C   LIG    1       23.562 -22.015   7.499  0.00  0.00    +0.121 C 
ATOM      3  C   LIG    1       22.901 -21.979   6.141  0.00  0.00    +0.063 C 
ATOM      4  C   LIG    1       24.175 -21.633   5.282  0.00  0.00    +0.124 C 
ATOM      5  C   LIG    1       25.208 -22.591   5.967  0.00  0.00    +0.046 C 
ENDROOT
BRANCH   2   6
ATOM      6  O   LIG    1       23.865 -20.677   7.440  0.00  0.00    -0.391 OA
ATOM      7  H   LIG    1       24.717 -20.727   7.885  0.00  0.00    +0.210 HD
ENDBRANCH   2   6
BRANCH   4   8
ATOM      8  O   LIG    1       24.763 -20.318   5.283  0.00  0.00    -0.391 OA
ATOM      9  H   LIG    1       25.638 -20.386   4.848  0.00  0.00    +0.210 HD
ENDBRANCH   4   8
BRANCH   5  10
ATOM     10  C   LIG    1       24.941 -24.003   5.516  0.00  0.00    -0.022 C 
ATOM     11  C   LIG    1       25.790 -25.026   5.711  0.00  0.00    -0.000 C 
BRANCH  11  12
ATOM     12  C   LIG    1       25.579 -26.436   5.327  0.00  0.00    +0.138 C 
BRANCH  12  13
ATOM     13  O   LIG    1       26.862 -27.027   5.147  0.00  0.00    -0.388 OA
ATOM     14  H   LIG    1       27.241 -26.682   4.321  0.00  0.00    +0.210 HD
ENDBRANCH  12  13
BRANCH  12  15
ATOM     15  C   LIG    1       24.789 -27.176   6.403  0.00  0.00    +0.040 C 
BRANCH  15  16
ATOM     16  C   LIG    1       24.199 -28.528   5.951  0.00  0.00    +0.038 C 
BRANCH  16  17
ATOM     17  C   LIG    1       25.000 -29.753   6.329  0.00  0.00    -0.047 A 
ATOM     18  C   LIG    1       25.504 -30.576   5.308  0.00  0.00    +0.003 A 
ATOM     19  C   LIG    1       26.177 -31.760   5.616  0.00  0.00    +0.000 A 
ATOM     20  C   LIG    1       26.361 -32.132   6.944  0.00  0.00    +0.000 A 
ATOM     21  C   LIG    1       25.904 -31.305   7.965  0.00  0.00    +0.000 A 
ATOM     22  C   LIG    1       25.230 -30.124   7.659  0.00  0.00    +0.003 A 
ENDBRANCH  16  17
ENDBRANCH  15  16
ENDBRANCH  12  15
ENDBRANCH  11  12
ENDBRANCH   5  10
BRANCH   1  23
ATOM     23  C   LIG    1       26.045 -21.582   8.300  0.00  0.00    +0.033 C 
BRANCH  23  25
ATOM     24  C   LIG    1       28.508 -21.005   7.271  0.00  0.00    -0.031 C 
ATOM     25  C   LIG    1       27.585 -21.614   8.073  0.00  0.00    -0.031 C 
BRANCH  24  26
ATOM     26  C   LIG    1       28.512 -19.866   6.206  0.00  0.00    +0.027 C 
BRANCH  26  27
ATOM     27  C   LIG    1       29.719 -19.005   6.324  0.00  0.00    +0.013 C 
BRANCH  27  28
ATOM     28  C   LIG    1       31.166 -19.251   6.926  0.00  0.00    +0.096 C 
BRANCH  28  31
ATOM     29  N   LIG    1       31.572 -17.566   8.848  0.00  0.00    -0.316 N 
ATOM     30  H   LIG    1       30.795 -17.002   8.473  0.00  0.00    +0.149 HD
ATOM     31  C   LIG    1       31.539 -18.885   8.450  0.00  0.00    +0.213 C 
ATOM     32  O   LIG    1       32.046 -19.781   9.287  0.00  0.00    -0.276 OA
BRANCH  29  34
ATOM     33  C   LIG    1       30.979 -17.071  11.248  0.00  0.00    +0.024 C 
ATOM     34  C   LIG    1       32.066 -17.144  10.180  0.00  0.00    +0.101 C 
ENDBRANCH  29  34
ENDBRANCH  28  31
ENDBRANCH  27  28
ENDBRANCH  26  27
ENDBRANCH  24  26
ENDBRANCH  23  25
ENDBRANCH   1  23
TORSDOF 15
ENDMDL
MODEL 4
REMARK VINA RESULT:      -8.9      3.102      9.707
REMARK  Name = *****
REMARK                            x       y       z     vdW  Elec       q    Type
REMARK                         _______ _______ _______ _____ _____    ______ ____
ROOT
ATOM      1  C   LIG    1       25.068 -22.581   5.951  0.00  0.00    +0.031 C 
ATOM      2  C   LIG    1       24.011 -21.835   5.197  0.00  0.00    +0.121 C 
ATOM      3  C   LIG    1       23.664 -20.462   5.722  0.00  0.00    +0.063 C 
ATOM      4  C   LIG    1       23.879 -20.748   7.256  0.00  0.00    +0.124 C 
ATOM      5  C   LIG    1       25.203 -21.580   7.172  0.00  0.00    +0.046 C 
ENDROOT
BRANCH   2   6
ATOM      6  O   LIG    1       22.932 -22.402   5.830  0.00  0.00    -0.391 OA
ATOM      7  H   LIG    1       23.409 -23.122   6.257  0.00  0.00    +0.210 HD
ENDBRANCH   2   6
BRANCH   4   8
ATOM      8  O   LIG    1       22.945 -21.529   8.026  0.00  0.00    -0.391 OA
ATOM      9  H   LIG    1       23.160 -21.396   8.972  0.00  0.00    +0.210 HD
ENDBRANCH   4   8
BRANCH   5  10
ATOM     10  C   LIG    1       26.353 -20.647   6.897  0.00  0.00    -0.022 C 
ATOM     11  C   LIG    1       27.637 -21.038   6.825  0.00  0.00    -0.000 C 
BRANCH  11  12
ATOM     12  C   LIG    1       28.805 -20.186   6.528  0.00  0.00    +0.138 C 
BRANCH  12  13
ATOM     13  O   LIG    1       28.438 -19.313   5.464  0.00  0.00    -0.388 OA
ATOM     14  H   LIG    1       27.477 -19.381   5.335  0.00  0.00    +0.210 HD
ENDBRANCH  12  13
BRANCH  12  15
ATOM     15  C   LIG    1       29.220 -19.389   7.762  0.00  0.00    +0.040 C 
BRANCH  15  16
ATOM     16  C   LIG    1       30.470 -18.507   7.566  0.00  0.00    +0.038 C 
BRANCH  16  17
ATOM     17  C   LIG    1       30.979 -17.804   8.805  0.00  0.00    -0.047 A 
ATOM     18  C   LIG    1       30.135 -17.705   9.923  0.00  0.00    +0.003 A 
ATOM     19  C   LIG    1       30.536 -16.993  11.056  0.00  0.00    +0.000 A 
ATOM     20  C   LIG    1       31.785 -16.379  11.088  0.00  0.00    +0.000 A 
ATOM     21  C   LIG    1       32.647 -16.507  10.003  0.00  0.00    +0.000 A 
ATOM     22  C   LIG    1       32.247 -17.215   8.872  0.00  0.00    +0.003 A 
ENDBRANCH  16  17
ENDBRANCH  15  16
ENDBRANCH  12  15
ENDBRANCH  11  12
ENDBRANCH   5  10
BRANCH   1  23
ATOM     23  C   LIG    1       24.706 -24.091   6.390  0.00  0.00    +0.033 C 
BRANCH  23  25
ATOM     24  C   LIG    1       26.305 -26.305   6.394  0.00  0.00    -0.031 C 
ATOM     25  C   LIG    1       25.737 -25.156   6.867  0.00  0.00    -0.031 C 
BRANCH  24  26
ATOM     26  C   LIG    1       26.288 -27.116   5.063  0.00  0.00    +0.027 C 
BRANCH  26  27
ATOM     27  C   LIG    1       25.175 -28.102   5.032  0.00  0.00    +0.013 C 
BRANCH  27  28
ATOM     28  C   LIG    1       24.117 -28.571   6.118  0.00  0.00    +0.096 C 
BRANCH  28  31
ATOM     29  N   LIG    1       25.741 -29.599   7.850  0.00  0.00    -0.316 N 
ATOM     30  H   LIG    1       26.097 -28.649   8.031  0.00  0.00    +0.149 HD
ATOM     31  C   LIG    1       24.486 -29.620   7.284  0.00  0.00    +0.213 C 
ATOM     32  O   LIG    1       23.713 -30.661   7.566  0.00  0.00    -0.276 OA
BRANCH  29  34
ATOM     33  C   LIG    1       27.091 -30.093   9.922  0.00  0.00    +0.024 C 
ATOM     34  C   LIG    1       26.207 -30.635   8.804  0.00  0.00    +0.101 C 
ENDBRANCH  29  34
ENDBRANCH  28  31
ENDBRANCH  27  28
ENDBRANCH  26  27
ENDBRANCH  24  26
ENDBRANCH  23  25
ENDBRANCH   1  23
TORSDOF 15
ENDMDL
MODEL 5
REMARK VINA RESULT:      -8.6      3.415     10.216
REMARK  Name = *****
REMARK                            x       y       z     vdW  Elec       q    Type
REMARK                         _______ _______ _______ _____ _____    ______ ____
ROOT
ATOM      1  C   LIG    1       25.196 -22.396   5.644  0.00  0.00    +0.031 C 
ATOM      2  C   LIG    1       24.117 -21.580   5.004  0.00  0.00    +0.121 C 
ATOM      3  C   LIG    1       23.765 -20.284   5.696  0.00  0.00    +0.063 C 
ATOM      4  C   LIG    1       24.014 -20.749   7.180  0.00  0.00    +0.124 C 
ATOM      5  C   LIG    1       25.346 -21.547   6.973  0.00  0.00    +0.046 C 
ENDROOT
BRANCH   2   6
ATOM      6  O   LIG    1       23.057 -22.233   5.584  0.00  0.00    -0.391 OA
ATOM      7  H   LIG    1       22.380 -21.587   5.355  0.00  0.00    +0.210 HD
ENDBRANCH   2   6
BRANCH   4   8
ATOM      8  O   LIG    1       23.104 -21.627   7.868  0.00  0.00    -0.391 OA
ATOM      9  H   LIG    1       22.228 -21.539   7.440  0.00  0.00    +0.210 HD
ENDBRANCH   4   8
BRANCH   5  10
ATOM     10  C   LIG    1       26.479 -20.572   6.790  0.00  0.00    -0.022 C 
ATOM     11  C   LIG    1       27.765 -20.935   6.642  0.00  0.00    -0.000 C 
BRANCH  11  12
ATOM     12  C   LIG    1       28.917 -20.039   6.426  0.00  0.00    +0.138 C 
BRANCH  12  13
ATOM     13  O   LIG    1       28.559 -19.122   5.397  0.00  0.00    -0.388 OA
ATOM     14  H   LIG    1       27.969 -19.580   4.775  0.00  0.00    +0.210 HD
ENDBRANCH  12  13
BRANCH  12  15
ATOM     15  C   LIG    1       29.271 -19.296   7.712  0.00  0.00    +0.040 C 
BRANCH  15  16
ATOM     16  C   LIG    1       30.632 -18.571   7.682  0.00  0.00    +0.038 C 
BRANCH  16  17
ATOM     17  C   LIG    1       30.975 -17.766   8.915  0.00  0.00    -0.047 A 
ATOM     18  C   LIG    1       32.217 -17.110   8.973  0.00  0.00    +0.003 A 
ATOM     19  C   LIG    1       32.605 -16.425  10.127  0.00  0.00    +0.000 A 
ATOM     20  C   LIG    1       31.758 -16.381  11.231  0.00  0.00    +0.000 A 
ATOM     21  C   LIG    1       30.509 -16.990  11.169  0.00  0.00    +0.000 A 
ATOM     22  C   LIG    1       30.121 -17.676  10.020  0.00  0.00    +0.003 A 
ENDBRANCH  16  17
ENDBRANCH  15  16
ENDBRANCH  12  15
ENDBRANCH  11  12
ENDBRANCH   5  10
BRANCH   1  23
ATOM     23  C   LIG    1       24.860 -23.952   5.905  0.00  0.00    +0.033 C 
BRANCH  23  25
ATOM     24  C   LIG    1       25.540 -26.317   4.720  0.00  0.00    -0.031 C 
ATOM     25  C   LIG    1       24.966 -25.083   4.840  0.00  0.00    -0.031 C 
BRANCH  24  26
ATOM     26  C   LIG    1       26.327 -27.298   5.641  0.00  0.00    +0.027 C 
BRANCH  26  27
ATOM     27  C   LIG    1       25.512 -27.735   6.806  0.00  0.00    +0.013 C 
BRANCH  27  28
ATOM     28  C   LIG    1       24.372 -28.826   6.977  0.00  0.00    +0.096 C 
BRANCH  28  31
ATOM     29  N   LIG    1       25.848 -30.829   6.263  0.00  0.00    -0.316 N 
ATOM     30  H   LIG    1       26.572 -30.483   6.910  0.00  0.00    +0.149 HD
ATOM     31  C   LIG    1       24.583 -30.366   6.552  0.00  0.00    +0.213 C 
ATOM     32  O   LIG    1       23.564 -31.157   6.240  0.00  0.00    -0.276 OA
BRANCH  29  34
ATOM     33  C   LIG    1       26.112 -32.229   4.182  0.00  0.00    +0.024 C 
ATOM     34  C   LIG    1       26.098 -32.180   5.707  0.00  0.00    +0.101 C 
ENDBRANCH  29  34
ENDBRANCH  28  31
ENDBRANCH  27  28
ENDBRANCH  26  27
ENDBRANCH  24  26
ENDBRANCH  23  25
ENDBRANCH   1  23
TORSDOF 15
ENDMDL
MODEL 6
REMARK VINA RESULT:      -8.4      3.858      8.254
REMARK  Name = *****
REMARK                            x       y       z     vdW  Elec       q    Type
REMARK                         _______ _______ _______ _____ _____    ______ ____
ROOT
ATOM      1  C   LIG    1       23.688 -20.970   6.755  0.00  0.00    +0.031 C 
ATOM      2  C   LIG    1       23.522 -22.327   7.366  0.00  0.00    +0.121 C 
ATOM      3  C   LIG    1       24.712 -23.253   7.262  0.00  0.00    +0.063 C 
ATOM      4  C   LIG    1       25.248 -22.771   5.862  0.00  0.00    +0.124 C 
ATOM      5  C   LIG    1       25.083 -21.224   6.049  0.00  0.00    +0.046 C 
ENDROOT
BRANCH   2   6
ATOM      6  O   LIG    1       22.910 -22.915   6.286  0.00  0.00    -0.391 OA
ATOM      7  H   LIG    1       23.124 -23.827   6.510  0.00  0.00    +0.210 HD
ENDBRANCH   2   6
BRANCH   4   8
ATOM      8  O   LIG    1       24.586 -23.115   4.631  0.00  0.00    -0.391 OA
ATOM      9  H   LIG    1       25.068 -22.672   3.903  0.00  0.00    +0.210 HD
ENDBRANCH   4   8
BRANCH   5  10
ATOM     10  C   LIG    1       26.174 -20.720   6.956  0.00  0.00    -0.022 C 
ATOM     11  C   LIG    1       27.486 -20.870   6.708  0.00  0.00    -0.000 C 
BRANCH  11  12
ATOM     12  C   LIG    1       28.605 -20.374   7.533  0.00  0.00    +0.138 C 
BRANCH  12  13
ATOM     13  O   LIG    1       29.450 -21.483   7.821  0.00  0.00    -0.388 OA
ATOM     14  H   LIG    1       30.166 -21.496   7.164  0.00  0.00    +0.210 HD
ENDBRANCH  12  13
BRANCH  12  15
ATOM     15  C   LIG    1       29.378 -19.283   6.796  0.00  0.00    +0.040 C 
BRANCH  15  16
ATOM     16  C   LIG    1       30.835 -19.099   7.266  0.00  0.00    +0.038 C 
BRANCH  16  17
ATOM     17  C   LIG    1       31.020 -18.285   8.527  0.00  0.00    -0.047 A 
ATOM     18  C   LIG    1       29.936 -18.146   9.410  0.00  0.00    +0.003 A 
ATOM     19  C   LIG    1       30.041 -17.335  10.543  0.00  0.00    +0.000 A 
ATOM     20  C   LIG    1       31.230 -16.662  10.811  0.00  0.00    +0.000 A 
ATOM     21  C   LIG    1       32.324 -16.826   9.968  0.00  0.00    +0.000 A 
ATOM     22  C   LIG    1       32.220 -17.633   8.836  0.00  0.00    +0.003 A 
ENDBRANCH  16  17
ENDBRANCH  15  16
ENDBRANCH  12  15
ENDBRANCH  11  12
ENDBRANCH   5  10
BRANCH   1  23
ATOM     23  C   LIG    1       22.528 -20.493   5.741  0.00  0.00    +0.033 C 
BRANCH  23  25
ATOM     24  C   LIG    1       23.730 -19.039   3.766  0.00  0.00    -0.031 C 
ATOM     25  C   LIG    1       22.720 -19.482   4.572  0.00  0.00    -0.031 C 
BRANCH  24  26
ATOM     26  C   LIG    1       25.230 -19.390   3.528  0.00  0.00    +0.027 C 
BRANCH  26  27
ATOM     27  C   LIG    1       25.977 -18.247   2.939  0.00  0.00    +0.013 C 
BRANCH  27  28
ATOM     28  C   LIG    1       26.859 -17.091   3.575  0.00  0.00    +0.096 C 
BRANCH  28  31
ATOM     29  N   LIG    1       25.327 -15.040   3.957  0.00  0.00    -0.316 N 
ATOM     30  H   LIG    1       25.135 -15.402   4.904  0.00  0.00    +0.149 HD
ATOM     31  C   LIG    1       26.489 -15.532   3.404  0.00  0.00    +0.213 C 
ATOM     32  O   LIG    1       27.134 -14.744   2.553  0.00  0.00    -0.276 OA
BRANCH  29  34
ATOM     33  C   LIG    1       23.343 -13.581   3.415  0.00  0.00    +0.024 C 
ATOM     34  C   LIG    1       24.839 -13.664   3.702  0.00  0.00    +0.101 C 
ENDBRANCH  29  34
ENDBRANCH  28  31
ENDBRANCH  27  28
ENDBRANCH  26  27
ENDBRANCH  24  26
ENDBRANCH  23  25
ENDBRANCH   1  23
TORSDOF 15
ENDMDL
MODEL 7
REMARK VINA RESULT:      -8.4      2.355      4.171
REMARK  Name = *****
REMARK                            x       y       z     vdW  Elec       q    Type
REMARK                         _______ _______ _______ _____ _____    ______ ____
ROOT
ATOM      1  C   LIG    1       25.243 -25.487   6.921  0.00  0.00    +0.031 C 
ATOM      2  C   LIG    1       24.088 -25.843   6.038  0.00  0.00    +0.121 C 
ATOM      3  C   LIG    1       24.152 -27.198   5.374  0.00  0.00    +0.063 C 
ATOM      4  C   LIG    1       25.713 -27.274   5.173  0.00  0.00    +0.124 C 
ATOM      5  C   LIG    1       26.172 -26.719   6.564  0.00  0.00    +0.046 C 
ENDROOT
BRANCH   2   6
ATOM      6  O   LIG    1       24.550 -25.214   4.908  0.00  0.00    -0.391 OA
ATOM      7  H   LIG    1       24.145 -25.808   4.267  0.00  0.00    +0.210 HD
ENDBRANCH   2   6
BRANCH   4   8
ATOM      8  O   LIG    1       26.393 -26.498   4.169  0.00  0.00    -0.391 OA
ATOM      9  H   LIG    1       25.921 -26.633   3.322  0.00  0.00    +0.210 HD
ENDBRANCH   4   8
BRANCH   5  10
ATOM     10  C   LIG    1       25.971 -27.785   7.609  0.00  0.00    -0.022 C 
ATOM     11  C   LIG    1       26.616 -27.812   8.788  0.00  0.00    -0.000 C 
BRANCH  11  12
ATOM     12  C   LIG    1       26.444 -28.803   9.867  0.00  0.00    +0.138 C 
BRANCH  12  13
ATOM     13  O   LIG    1       27.386 -29.847   9.644  0.00  0.00    -0.388 OA
ATOM     14  H   LIG    1       28.152 -29.469   9.178  0.00  0.00    +0.210 HD
ENDBRANCH  12  13
BRANCH  12  15
ATOM     15  C   LIG    1       26.666 -28.159  11.233  0.00  0.00    +0.040 C 
BRANCH  15  16
ATOM     16  C   LIG    1       25.885 -28.818  12.389  0.00  0.00    +0.038 C 
BRANCH  16  17
ATOM     17  C   LIG    1       24.569 -28.166  12.749  0.00  0.00    -0.047 A 
ATOM     18  C   LIG    1       23.374 -28.850  12.467  0.00  0.00    +0.003 A 
ATOM     19  C   LIG    1       22.137 -28.248  12.708  0.00  0.00    +0.000 A 
ATOM     20  C   LIG    1       22.079 -26.962  13.238  0.00  0.00    +0.000 A 
ATOM     21  C   LIG    1       23.254 -26.292  13.561  0.00  0.00    +0.000 A 
ATOM     22  C   LIG    1       24.489 -26.891  13.319  0.00  0.00    +0.003 A 
ENDBRANCH  16  17
ENDBRANCH  15  16
ENDBRANCH  12  15
ENDBRANCH  11  12
ENDBRANCH   5  10
BRANCH   1  23
ATOM     23  C   LIG    1       25.938 -24.055   6.653  0.00  0.00    +0.033 C 
BRANCH  23  25
ATOM     24  C   LIG    1       26.599 -21.667   7.800  0.00  0.00    -0.031 C 
ATOM     25  C   LIG    1       25.969 -22.871   7.664  0.00  0.00    -0.031 C 
BRANCH  24  26
ATOM     26  C   LIG    1       27.567 -20.788   6.950  0.00  0.00    +0.027 C 
BRANCH  26  27
ATOM     27  C   LIG    1       28.980 -20.947   7.384  0.00  0.00    +0.013 C 
BRANCH  27  28
ATOM     28  C   LIG    1       30.272 -20.041   7.211  0.00  0.00    +0.096 C 
BRANCH  28  31
ATOM     29  N   LIG    1       30.629 -17.915   8.643  0.00  0.00    -0.316 N 
ATOM     30  H   LIG    1       29.631 -17.696   8.508  0.00  0.00    +0.149 HD
ATOM     31  C   LIG    1       30.936 -19.243   8.444  0.00  0.00    +0.213 C 
ATOM     32  O   LIG    1       31.948 -19.741   9.142  0.00  0.00    -0.276 OA
BRANCH  29  34
ATOM     33  C   LIG    1       30.643 -17.053  11.012  0.00  0.00    +0.024 C 
ATOM     34  C   LIG    1       31.324 -17.075   9.648  0.00  0.00    +0.101 C 
ENDBRANCH  29  34
ENDBRANCH  28  31
ENDBRANCH  27  28
ENDBRANCH  26  27
ENDBRANCH  24  26
ENDBRANCH  23  25
ENDBRANCH   1  23
TORSDOF 15
ENDMDL
MODEL 8
REMARK VINA RESULT:      -8.4      3.205     10.150
REMARK  Name = *****
REMARK                            x       y       z     vdW  Elec       q    Type
REMARK                         _______ _______ _______ _____ _____    ______ ____
ROOT
ATOM      1  C   LIG    1       25.294 -20.728   6.383  0.00  0.00    +0.031 C 
ATOM      2  C   LIG    1       24.976 -20.447   7.818  0.00  0.00    +0.121 C 
ATOM      3  C   LIG    1       26.111 -20.628   8.798  0.00  0.00    +0.063 C 
ATOM      4  C   LIG    1       26.836 -21.827   8.081  0.00  0.00    +0.124 C 
ATOM      5  C   LIG    1       26.744 -21.327   6.600  0.00  0.00    +0.046 C 
ENDROOT
BRANCH   2   6
ATOM      6  O   LIG    1       24.460 -21.685   8.114  0.00  0.00    -0.391 OA
ATOM      7  H   LIG    1       23.563 -21.397   8.312  0.00  0.00    +0.210 HD
ENDBRANCH   2   6
BRANCH   4   8
ATOM      8  O   LIG    1       26.304 -23.165   8.102  0.00  0.00    -0.391 OA
ATOM      9  H   LIG    1       26.801 -23.691   7.443  0.00  0.00    +0.210 HD
ENDBRANCH   4   8
BRANCH   5  10
ATOM     10  C   LIG    1       27.750 -20.225   6.390  0.00  0.00    -0.022 C 
ATOM     11  C   LIG    1       29.073 -20.371   6.575  0.00  0.00    -0.000 C 
BRANCH  11  12
ATOM     12  C   LIG    1       30.114 -19.348   6.357  0.00  0.00    +0.138 C 
BRANCH  12  13
ATOM     13  O   LIG    1       29.467 -18.175   5.875  0.00  0.00    -0.388 OA
ATOM     14  H   LIG    1       28.517 -18.254   6.065  0.00  0.00    +0.210 HD
ENDBRANCH  12  13
BRANCH  12  15
ATOM     15  C   LIG    1       30.864 -19.057   7.654  0.00  0.00    +0.040 C 
BRANCH  15  16
ATOM     16  C   LIG    1       30.103 -18.157   8.649  0.00  0.00    +0.038 C 
BRANCH  16  17
ATOM     17  C   LIG    1       30.959 -17.402   9.640  0.00  0.00    -0.047 A 
ATOM     18  C   LIG    1       32.166 -16.833   9.199  0.00  0.00    +0.003 A 
ATOM     19  C   LIG    1       33.025 -16.200  10.100  0.00  0.00    +0.000 A 
ATOM     20  C   LIG    1       32.686 -16.121  11.448  0.00  0.00    +0.000 A 
ATOM     21  C   LIG    1       31.474 -16.642  11.889  0.00  0.00    +0.000 A 
ATOM     22  C   LIG    1       30.617 -17.276  10.991  0.00  0.00    +0.003 A 
ENDBRANCH  16  17
ENDBRANCH  15  16
ENDBRANCH  12  15
ENDBRANCH  11  12
ENDBRANCH   5  10
BRANCH   1  23
ATOM     23  C   LIG    1       24.291 -21.727   5.607  0.00  0.00    +0.033 C 
BRANCH  23  25
ATOM     24  C   LIG    1       24.832 -24.348   5.065  0.00  0.00    -0.031 C 
ATOM     25  C   LIG    1       24.724 -23.006   4.832  0.00  0.00    -0.031 C 
BRANCH  24  26
ATOM     26  C   LIG    1       24.483 -25.332   6.222  0.00  0.00    +0.027 C 
BRANCH  26  27
ATOM     27  C   LIG    1       25.586 -26.296   6.478  0.00  0.00    +0.013 C 
BRANCH  27  28
ATOM     28  C   LIG    1       25.689 -27.609   7.364  0.00  0.00    +0.096 C 
BRANCH  28  31
ATOM     29  N   LIG    1       25.752 -30.184   7.116  0.00  0.00    -0.316 N 
ATOM     30  H   LIG    1       26.205 -30.229   8.041  0.00  0.00    +0.149 HD
ATOM     31  C   LIG    1       25.056 -29.015   6.898  0.00  0.00    +0.213 C 
ATOM     32  O   LIG    1       23.996 -29.082   6.101  0.00  0.00    -0.276 OA
BRANCH  29  34
ATOM     33  C   LIG    1       26.358 -32.595   6.691  0.00  0.00    +0.024 C 
ATOM     34  C   LIG    1       25.313 -31.490   6.569  0.00  0.00    +0.101 C 
ENDBRANCH  29  34
ENDBRANCH  28  31
ENDBRANCH  27  28
ENDBRANCH  26  27
ENDBRANCH  24  26
ENDBRANCH  23  25
ENDBRANCH   1  23
TORSDOF 15
ENDMDL
MODEL 9
REMARK VINA RESULT:      -8.3      3.086     10.072
REMARK  Name = *****
REMARK                            x       y       z     vdW  Elec       q    Type
REMARK                         _______ _______ _______ _____ _____    ______ ____
ROOT
ATOM      1  C   LIG    1       25.924 -22.661   6.578  0.00  0.00    +0.031 C 
ATOM      2  C   LIG    1       24.770 -21.707   6.595  0.00  0.00    +0.121 C 
ATOM      3  C   LIG    1       24.991 -20.409   7.336  0.00  0.00    +0.063 C 
ATOM      4  C   LIG    1       25.939 -20.958   8.468  0.00  0.00    +0.124 C 
ATOM      5  C   LIG    1       26.854 -21.887   7.601  0.00  0.00    +0.046 C 
ENDROOT
BRANCH   2   6
ATOM      6  O   LIG    1       24.117 -22.264   7.667  0.00  0.00    -0.391 OA
ATOM      7  H   LIG    1       24.472 -23.154   7.574  0.00  0.00    +0.210 HD
ENDBRANCH   2   6
BRANCH   4   8
ATOM      8  O   LIG    1       25.444 -21.759   9.557  0.00  0.00    -0.391 OA
ATOM      9  H   LIG    1       26.205 -21.975  10.134  0.00  0.00    +0.210 HD
ENDBRANCH   4   8
BRANCH   5  10
ATOM     10  C   LIG    1       27.817 -21.035   6.817  0.00  0.00    -0.022 C 
ATOM     11  C   LIG    1       28.944 -20.511   7.328  0.00  0.00    -0.000 C 
BRANCH  11  12
ATOM     12  C   LIG    1       29.946 -19.698   6.611  0.00  0.00    +0.138 C 
BRANCH  12  13
ATOM     13  O   LIG    1       29.238 -18.780   5.783  0.00  0.00    -0.388 OA
ATOM     14  H   LIG    1       29.780 -18.606   4.994  0.00  0.00    +0.210 HD
ENDBRANCH  12  13
BRANCH  12  15
ATOM     15  C   LIG    1       30.843 -18.955   7.597  0.00  0.00    +0.040 C 
BRANCH  15  16
ATOM     16  C   LIG    1       30.092 -18.038   8.584  0.00  0.00    +0.038 C 
BRANCH  16  17
ATOM     17  C   LIG    1       30.954 -17.314   9.594  0.00  0.00    -0.047 A 
ATOM     18  C   LIG    1       32.161 -16.736   9.166  0.00  0.00    +0.003 A 
ATOM     19  C   LIG    1       33.024 -16.132  10.082  0.00  0.00    +0.000 A 
ATOM     20  C   LIG    1       32.690 -16.091  11.433  0.00  0.00    +0.000 A 
ATOM     21  C   LIG    1       31.478 -16.622  11.863  0.00  0.00    +0.000 A 
ATOM     22  C   LIG    1       30.617 -17.227  10.950  0.00  0.00    +0.003 A 
ENDBRANCH  16  17
ENDBRANCH  15  16
ENDBRANCH  12  15
ENDBRANCH  11  12
ENDBRANCH   5  10
BRANCH   1  23
ATOM     23  C   LIG    1       25.605 -24.181   7.017  0.00  0.00    +0.033 C 
BRANCH  23  25
ATOM     24  C   LIG    1       24.441 -26.241   5.654  0.00  0.00    -0.031 C 
ATOM     25  C   LIG    1       24.510 -25.086   6.380  0.00  0.00    -0.031 C 
BRANCH  24  26
ATOM     26  C   LIG    1       25.438 -27.328   5.152  0.00  0.00    +0.027 C 
BRANCH  26  27
ATOM     27  C   LIG    1       24.799 -28.669   5.071  0.00  0.00    +0.013 C 
BRANCH  27  28
ATOM     28  C   LIG    1       25.293 -30.126   5.459  0.00  0.00    +0.096 C 
BRANCH  28  31
ATOM     29  N   LIG    1       25.549 -29.602   7.981  0.00  0.00    -0.316 N 
ATOM     30  H   LIG    1       24.706 -29.013   7.911  0.00  0.00    +0.149 HD
ATOM     31  C   LIG    1       25.655 -30.537   6.975  0.00  0.00    +0.213 C 
ATOM     32  O   LIG    1       26.276 -31.673   7.268  0.00  0.00    -0.276 OA
BRANCH  29  34
ATOM     33  C   LIG    1       26.907 -28.752   9.928  0.00  0.00    +0.024 C 
ATOM     34  C   LIG    1       26.021 -29.857   9.363  0.00  0.00    +0.101 C 
ENDBRANCH  29  34
ENDBRANCH  28  31
ENDBRANCH  27  28
ENDBRANCH  26  27
ENDBRANCH  24  26
ENDBRANCH  23  25
ENDBRANCH   1  23
TORSDOF 15
ENDMDL
