MODEL 1
REMARK VINA RESULT:      11.9      0.000      0.000
REMARK  Name = *****
REMARK                            x       y       z     vdW  Elec       q    Type
REMARK                         _______ _______ _______ _____ _____    ______ ____
ROOT
ATOM      1  C   LIG    1       25.536 -12.946   2.821  0.00  0.00    +0.084 C 
ENDROOT
BRANCH   1   5
ATOM      2  C   LIG    1       22.834 -14.716   4.609  0.00  0.00    +0.095 C 
ATOM      3  C   LIG    1       22.847 -14.511   3.089  0.00  0.00    +0.041 C 
ATOM      4  C   LIG    1       23.058 -13.035   2.749  0.00  0.00    +0.086 C 
ATOM      5  N   LIG    1       24.256 -12.453   3.366  0.00  0.00    -0.302 NA
ATOM      6  C   LIG    1       24.199 -12.608   4.831  0.00  0.00    +0.086 C 
ATOM      7  C   LIG    1       24.042 -14.059   5.287  0.00  0.00    +0.041 C 
BRANCH   2   9
ATOM      8  C   LIG    1       22.066 -16.597   6.113  0.00  0.00    +0.297 A 
ATOM      9  N   LIG    1       22.668 -16.116   4.988  0.00  0.00    -0.291 N 
ATOM     10  C   LIG    1       23.055 -17.208   4.242  0.00  0.00    +0.072 A 
ATOM     11  C   LIG    1       22.660 -18.303   5.008  0.00  0.00    +0.093 A 
ATOM     12  C   LIG    1       22.908 -19.602   4.535  0.00  0.00    +0.030 A 
ATOM     13  C   LIG    1       23.538 -19.761   3.296  0.00  0.00    +0.002 A 
ATOM     14  C   LIG    1       23.921 -18.651   2.542  0.00  0.00    +0.002 A 
ATOM     15  C   LIG    1       23.692 -17.348   3.002  0.00  0.00    +0.028 A 
ATOM     16  N   LIG    1       22.046 -17.910   6.168  0.00  0.00    -0.195 NA
BRANCH   8  17
ATOM     17  O   LIG    1       21.525 -15.868   7.061  0.00  0.00    -0.479 OA
ATOM     18  H   LIG    1       20.679 -15.612   6.645  0.00  0.00    +0.295 HD
ENDBRANCH   8  17
ENDBRANCH   2   9
ENDBRANCH   1   5
BRANCH   1  19
ATOM     19  C   LIG    1       25.423 -14.274   2.054  0.00  0.00    +0.016 C 
BRANCH  19  20
ATOM     20  C   LIG    1       25.687 -15.479   2.969  0.00  0.00    +0.014 C 
BRANCH  20  21
ATOM     21  C   LIG    1       27.190 -15.721   3.293  0.00  0.00    +0.049 C 
BRANCH  21  22
ATOM     22  C   LIG    1       27.435 -17.083   3.972  0.00  0.00    -0.040 A 
ATOM     23  C   LIG    1       26.520 -18.147   3.859  0.00  0.00    +0.007 A 
ATOM     24  C   LIG    1       26.737 -19.360   4.516  0.00  0.00    +0.038 A 
ATOM     25  C   LIG    1       27.872 -19.523   5.294  0.00  0.00    +0.123 A 
ATOM     26  F   LIG    1       28.081 -20.690   5.917  0.00  0.00    -0.205 F 
ATOM     27  C   LIG    1       28.790 -18.490   5.437  0.00  0.00    +0.038 A 
ATOM     28  C   LIG    1       28.570 -17.270   4.785  0.00  0.00    +0.007 A 
ENDBRANCH  21  22
BRANCH  21  29
ATOM     29  C   LIG    1       27.790 -14.554   4.085  0.00  0.00    -0.040 A 
ATOM     30  C   LIG    1       28.623 -13.607   3.467  0.00  0.00    +0.007 A 
ATOM     31  C   LIG    1       29.165 -12.545   4.190  0.00  0.00    +0.038 A 
ATOM     32  C   LIG    1       28.927 -12.452   5.553  0.00  0.00    +0.123 A 
ATOM     33  F   LIG    1       29.475 -11.450   6.251  0.00  0.00    -0.205 F 
ATOM     34  C   LIG    1       28.132 -13.388   6.200  0.00  0.00    +0.038 A 
ATOM     35  C   LIG    1       27.547 -14.426   5.467  0.00  0.00    +0.007 A 
ENDBRANCH  21  29
ENDBRANCH  20  21
ENDBRANCH  19  20
ENDBRANCH   1  19
TORSDOF 8
ENDMDL
MODEL 2
REMARK VINA RESULT:      13.1      2.182      4.875
REMARK  Name = *****
REMARK                            x       y       z     vdW  Elec       q    Type
REMARK                         _______ _______ _______ _____ _____    ______ ____
ROOT
ATOM      1  C   LIG    1       24.741 -14.701   6.468  0.00  0.00    +0.084 C 
ENDROOT
BRANCH   1   5
ATOM      2  C   LIG    1       22.064 -16.682   4.876  0.00  0.00    +0.095 C 
ATOM      3  C   LIG    1       23.240 -16.076   4.100  0.00  0.00    +0.041 C 
ATOM      4  C   LIG    1       23.370 -14.583   4.404  0.00  0.00    +0.086 C 
ATOM      5  N   LIG    1       23.475 -14.279   5.837  0.00  0.00    -0.302 NA
ATOM      6  C   LIG    1       22.308 -14.819   6.557  0.00  0.00    +0.086 C 
ATOM      7  C   LIG    1       22.113 -16.324   6.365  0.00  0.00    +0.041 C 
BRANCH   2   9
ATOM      8  C   LIG    1       20.912 -18.739   3.962  0.00  0.00    +0.297 A 
ATOM      9  N   LIG    1       21.916 -18.116   4.645  0.00  0.00    -0.291 N 
ATOM     10  C   LIG    1       22.799 -19.096   5.043  0.00  0.00    +0.072 A 
ATOM     11  C   LIG    1       22.233 -20.278   4.571  0.00  0.00    +0.093 A 
ATOM     12  C   LIG    1       22.887 -21.499   4.807  0.00  0.00    +0.030 A 
ATOM     13  C   LIG    1       24.099 -21.491   5.506  0.00  0.00    +0.002 A 
ATOM     14  C   LIG    1       24.650 -20.295   5.967  0.00  0.00    +0.002 A 
ATOM     15  C   LIG    1       24.008 -19.070   5.750  0.00  0.00    +0.028 A 
ATOM     16  N   LIG    1       21.063 -20.042   3.899  0.00  0.00    -0.195 NA
BRANCH   8  17
ATOM     17  O   LIG    1       19.895 -18.142   3.386  0.00  0.00    -0.479 OA
ATOM     18  H   LIG    1       19.313 -18.903   3.192  0.00  0.00    +0.295 HD
ENDBRANCH   8  17
ENDBRANCH   2   9
ENDBRANCH   1   5
BRANCH   1  19
ATOM     19  C   LIG    1       25.755 -13.561   6.668  0.00  0.00    +0.016 C 
BRANCH  19  20
ATOM     20  C   LIG    1       27.134 -13.925   6.098  0.00  0.00    +0.014 C 
BRANCH  20  21
ATOM     21  C   LIG    1       27.142 -14.200   4.566  0.00  0.00    +0.049 C 
BRANCH  21  22
ATOM     22  C   LIG    1       26.038 -13.424   3.822  0.00  0.00    -0.040 A 
ATOM     23  C   LIG    1       25.294 -12.404   4.446  0.00  0.00    +0.007 A 
ATOM     24  C   LIG    1       24.268 -11.741   3.770  0.00  0.00    +0.038 A 
ATOM     25  C   LIG    1       23.974 -12.090   2.461  0.00  0.00    +0.123 A 
ATOM     26  F   LIG    1       22.994 -11.447   1.812  0.00  0.00    -0.205 F 
ATOM     27  C   LIG    1       24.679 -13.100   1.819  0.00  0.00    +0.038 A 
ATOM     28  C   LIG    1       25.704 -13.771   2.498  0.00  0.00    +0.007 A 
ENDBRANCH  21  22
BRANCH  21  29
ATOM     29  C   LIG    1       27.108 -15.702   4.264  0.00  0.00    -0.040 A 
ATOM     30  C   LIG    1       26.082 -16.266   3.487  0.00  0.00    +0.007 A 
ATOM     31  C   LIG    1       26.055 -17.632   3.212  0.00  0.00    +0.038 A 
ATOM     32  C   LIG    1       27.023 -18.460   3.760  0.00  0.00    +0.123 A 
ATOM     33  F   LIG    1       26.977 -19.776   3.521  0.00  0.00    -0.205 F 
ATOM     34  C   LIG    1       28.035 -17.940   4.556  0.00  0.00    +0.038 A 
ATOM     35  C   LIG    1       28.091 -16.562   4.792  0.00  0.00    +0.007 A 
ENDBRANCH  21  29
ENDBRANCH  20  21
ENDBRANCH  19  20
ENDBRANCH   1  19
TORSDOF 8
ENDMDL
MODEL 3
REMARK VINA RESULT:      14.2      2.617      5.274
REMARK  Name = *****
REMARK                            x       y       z     vdW  Elec       q    Type
REMARK                         _______ _______ _______ _____ _____    ______ ____
ROOT
ATOM      1  C   LIG    1       21.611 -16.878   2.475  0.00  0.00    +0.084 C 
ENDROOT
BRANCH   1   5
ATOM      2  C   LIG    1       22.419 -19.613   4.820  0.00  0.00    +0.095 C 
ATOM      3  C   LIG    1       22.391 -19.788   3.296  0.00  0.00    +0.041 C 
ATOM      4  C   LIG    1       21.067 -19.285   2.722  0.00  0.00    +0.086 C 
ATOM      5  N   LIG    1       20.748 -17.901   3.096  0.00  0.00    -0.302 NA
ATOM      6  C   LIG    1       20.721 -17.766   4.564  0.00  0.00    +0.086 C 
ATOM      7  C   LIG    1       22.024 -18.194   5.241  0.00  0.00    +0.041 C 
BRANCH   2   9
ATOM      8  C   LIG    1       23.840 -20.941   6.434  0.00  0.00    +0.297 A 
ATOM      9  N   LIG    1       23.678 -20.049   5.415  0.00  0.00    -0.291 N 
ATOM     10  C   LIG    1       24.939 -19.664   5.014  0.00  0.00    +0.072 A 
ATOM     11  C   LIG    1       25.795 -20.362   5.863  0.00  0.00    +0.093 A 
ATOM     12  C   LIG    1       27.184 -20.200   5.728  0.00  0.00    +0.030 A 
ATOM     13  C   LIG    1       27.671 -19.344   4.734  0.00  0.00    +0.002 A 
ATOM     14  C   LIG    1       26.796 -18.658   3.892  0.00  0.00    +0.002 A 
ATOM     15  C   LIG    1       25.409 -18.799   4.017  0.00  0.00    +0.028 A 
ATOM     16  N   LIG    1       25.100 -21.154   6.739  0.00  0.00    -0.195 NA
BRANCH   8  17
ATOM     17  O   LIG    1       22.873 -21.569   7.060  0.00  0.00    -0.479 OA
ATOM     18  H   LIG    1       22.473 -22.080   6.330  0.00  0.00    +0.295 HD
ENDBRANCH   8  17
ENDBRANCH   2   9
ENDBRANCH   1   5
BRANCH   1  19
ATOM     19  C   LIG    1       22.238 -15.892   3.476  0.00  0.00    +0.016 C 
BRANCH  19  20
ATOM     20  C   LIG    1       23.772 -15.954   3.444  0.00  0.00    +0.014 C 
BRANCH  20  21
ATOM     21  C   LIG    1       24.468 -15.207   4.620  0.00  0.00    +0.049 C 
BRANCH  21  22
ATOM     22  C   LIG    1       23.532 -14.198   5.313  0.00  0.00    -0.040 A 
ATOM     23  C   LIG    1       22.479 -14.613   6.152  0.00  0.00    +0.007 A 
ATOM     24  C   LIG    1       21.614 -13.686   6.738  0.00  0.00    +0.038 A 
ATOM     25  C   LIG    1       21.792 -12.334   6.492  0.00  0.00    +0.123 A 
ATOM     26  F   LIG    1       20.966 -11.447   7.062  0.00  0.00    -0.205 F 
ATOM     27  C   LIG    1       22.813 -11.891   5.661  0.00  0.00    +0.038 A 
ATOM     28  C   LIG    1       23.677 -12.819   5.066  0.00  0.00    +0.007 A 
ENDBRANCH  21  22
BRANCH  21  29
ATOM     29  C   LIG    1       25.791 -14.573   4.178  0.00  0.00    -0.040 A 
ATOM     30  C   LIG    1       26.188 -14.582   2.830  0.00  0.00    +0.007 A 
ATOM     31  C   LIG    1       27.391 -14.002   2.430  0.00  0.00    +0.038 A 
ATOM     32  C   LIG    1       28.238 -13.456   3.383  0.00  0.00    +0.123 A 
ATOM     33  F   LIG    1       29.407 -12.928   3.001  0.00  0.00    -0.205 F 
ATOM     34  C   LIG    1       27.889 -13.457   4.727  0.00  0.00    +0.038 A 
ATOM     35  C   LIG    1       26.660 -13.994   5.123  0.00  0.00    +0.007 A 
ENDBRANCH  21  29
ENDBRANCH  20  21
ENDBRANCH  19  20
ENDBRANCH   1  19
TORSDOF 8
ENDMDL
