MODEL 1
REMARK VINA RESULT:      -5.9      0.000      0.000
REMARK  Name = *****
REMARK                            x       y       z     vdW  Elec       q    Type
REMARK                         _______ _______ _______ _____ _____    ______ ____
ROOT
ATOM      1  C   LIG    1       22.257 -16.650   4.802  0.00  0.00    -0.027 C 
ATOM      2  C   LIG    1       22.186 -17.990   4.932  0.00  0.00    -0.031 C 
ENDROOT
BRANCH   1   3
ATOM      3  C   LIG    1       23.164 -15.721   4.025  0.00  0.00    +0.054 C 
BRANCH   3   5
ATOM      4  C   LIG    1       23.933 -13.268   4.427  0.00  0.00    -0.027 C 
ATOM      5  C   LIG    1       23.639 -14.525   4.823  0.00  0.00    -0.027 C 
BRANCH   4   6
ATOM      6  C   LIG    1       23.896 -12.641   3.060  0.00  0.00    +0.054 C 
BRANCH   6   8
ATOM      7  C   LIG    1       26.180 -13.540   2.056  0.00  0.00    -0.031 C 
ATOM      8  C   LIG    1       25.184 -12.652   2.247  0.00  0.00    -0.027 C 
BRANCH   7   9
ATOM      9  C   LIG    1       26.366 -14.832   2.775  0.00  0.00    +0.027 C 
BRANCH   9  10
ATOM     10  C   LIG    1       27.562 -14.924   3.736  0.00  0.00    +0.004 C 
BRANCH  10  11
ATOM     11  C   LIG    1       28.372 -13.621   3.871  0.00  0.00    +0.000 C 
BRANCH  11  13
ATOM     12  C   LIG    1       27.042 -13.316   6.090  0.00  0.00    +0.004 C 
ATOM     13  C   LIG    1       28.105 -12.792   5.135  0.00  0.00    -0.003 C 
ENDBRANCH  11  13
ENDBRANCH  10  11
ENDBRANCH   9  10
ENDBRANCH   7   9
ENDBRANCH   6   8
ENDBRANCH   4   6
ENDBRANCH   3   5
ENDBRANCH   1   3
BRANCH   2  14
ATOM     14  C   LIG    1       22.973 -19.090   4.279  0.00  0.00    +0.027 C 
BRANCH  14  15
ATOM     15  C   LIG    1       22.797 -20.392   5.065  0.00  0.00    +0.004 C 
BRANCH  15  16
ATOM     16  C   LIG    1       23.313 -20.450   6.508  0.00  0.00    +0.000 C 
BRANCH  16  17
ATOM     17  C   LIG    1       24.610 -21.242   6.700  0.00  0.00    +0.001 C 
BRANCH  17  18
ATOM     18  C   LIG    1       25.876 -20.429   6.989  0.00  0.00    +0.011 C 
BRANCH  18  19
ATOM     19  C   LIG    1       26.819 -20.307   5.777  0.00  0.00    +0.120 C 
BRANCH  19  20
ATOM     20  C   LIG    1       28.257 -20.210   6.152  0.00  0.00    +0.305 C 
ATOM     21  O   LIG    1       28.878 -19.131   6.223  0.00  0.00    -0.251 OA
BRANCH  20  22
ATOM     22  O   LIG    1       28.845 -21.363   6.462  0.00  0.00    -0.481 OA
ATOM     23  H   LIG    1       29.195 -21.404   7.378  0.00  0.00    +0.295 HD
ENDBRANCH  20  22
ENDBRANCH  19  20
ENDBRANCH  18  19
ENDBRANCH  17  18
ENDBRANCH  16  17
ENDBRANCH  15  16
ENDBRANCH  14  15
ENDBRANCH   2  14
TORSDOF 16
ENDMDL
MODEL 2
REMARK VINA RESULT:      -5.8      1.171      2.521
REMARK  Name = *****
REMARK                            x       y       z     vdW  Elec       q    Type
REMARK                         _______ _______ _______ _____ _____    ______ ____
ROOT
ATOM      1  C   LIG    1       23.399 -18.703   4.123  0.00  0.00    -0.027 C 
ATOM      2  C   LIG    1       22.679 -19.553   4.882  0.00  0.00    -0.031 C 
ENDROOT
BRANCH   1   3
ATOM      3  C   LIG    1       24.646 -18.853   3.279  0.00  0.00    +0.054 C 
BRANCH   3   5
ATOM      4  C   LIG    1       25.273 -16.339   3.521  0.00  0.00    -0.027 C 
ATOM      5  C   LIG    1       25.556 -17.644   3.315  0.00  0.00    -0.027 C 
BRANCH   4   6
ATOM      6  C   LIG    1       23.958 -15.654   3.772  0.00  0.00    +0.054 C 
BRANCH   6   8
ATOM      7  C   LIG    1       24.043 -13.036   4.185  0.00  0.00    -0.031 C 
ATOM      8  C   LIG    1       23.987 -14.336   4.535  0.00  0.00    -0.027 C 
BRANCH   7   9
ATOM      9  C   LIG    1       24.248 -12.495   2.811  0.00  0.00    +0.027 C 
BRANCH   9  10
ATOM     10  C   LIG    1       25.700 -12.390   2.318  0.00  0.00    +0.004 C 
BRANCH  10  11
ATOM     11  C   LIG    1       26.539 -13.663   2.532  0.00  0.00    +0.000 C 
BRANCH  11  13
ATOM     12  C   LIG    1       27.591 -13.768   4.913  0.00  0.00    +0.004 C 
ATOM     13  C   LIG    1       27.778 -13.508   3.425  0.00  0.00    -0.003 C 
ENDBRANCH  11  13
ENDBRANCH  10  11
ENDBRANCH   9  10
ENDBRANCH   7   9
ENDBRANCH   6   8
ENDBRANCH   4   6
ENDBRANCH   3   5
ENDBRANCH   1   3
BRANCH   2  14
ATOM     14  C   LIG    1       22.825 -21.028   5.125  0.00  0.00    +0.027 C 
BRANCH  14  15
ATOM     15  C   LIG    1       23.234 -21.277   6.580  0.00  0.00    +0.004 C 
BRANCH  15  16
ATOM     16  C   LIG    1       24.585 -20.736   7.062  0.00  0.00    +0.000 C 
BRANCH  16  17
ATOM     17  C   LIG    1       25.793 -21.178   6.229  0.00  0.00    +0.001 C 
BRANCH  17  18
ATOM     18  C   LIG    1       26.710 -20.069   5.705  0.00  0.00    +0.011 C 
BRANCH  18  19
ATOM     19  C   LIG    1       28.200 -20.303   6.018  0.00  0.00    +0.120 C 
BRANCH  19  20
ATOM     20  C   LIG    1       29.009 -19.053   6.023  0.00  0.00    +0.305 C 
ATOM     21  O   LIG    1       29.454 -18.525   7.061  0.00  0.00    -0.251 OA
BRANCH  20  22
ATOM     22  O   LIG    1       29.282 -18.545   4.823  0.00  0.00    -0.481 OA
ATOM     23  H   LIG    1       29.146 -19.171   4.080  0.00  0.00    +0.295 HD
ENDBRANCH  20  22
ENDBRANCH  19  20
ENDBRANCH  18  19
ENDBRANCH  17  18
ENDBRANCH  16  17
ENDBRANCH  15  16
ENDBRANCH  14  15
ENDBRANCH   2  14
TORSDOF 16
ENDMDL
MODEL 3
REMARK VINA RESULT:      -5.5      2.096      6.967
REMARK  Name = *****
REMARK                            x       y       z     vdW  Elec       q    Type
REMARK                         _______ _______ _______ _____ _____    ______ ____
ROOT
ATOM      1  C   LIG    1       22.737 -16.122   3.929  0.00  0.00    -0.027 C 
ATOM      2  C   LIG    1       23.413 -14.956   3.968  0.00  0.00    -0.031 C 
ENDROOT
BRANCH   1   3
ATOM      3  C   LIG    1       22.325 -17.127   4.981  0.00  0.00    +0.054 C 
BRANCH   3   5
ATOM      4  C   LIG    1       22.220 -19.727   4.953  0.00  0.00    -0.027 C 
ATOM      5  C   LIG    1       22.016 -18.501   4.425  0.00  0.00    -0.027 C 
BRANCH   4   6
ATOM      6  C   LIG    1       22.833 -20.135   6.265  0.00  0.00    +0.054 C 
BRANCH   6   8
ATOM      7  C   LIG    1       25.072 -21.543   6.452  0.00  0.00    -0.031 C 
ATOM      8  C   LIG    1       23.751 -21.350   6.263  0.00  0.00    -0.027 C 
BRANCH   7   9
ATOM      9  C   LIG    1       26.112 -20.485   6.594  0.00  0.00    +0.027 C 
BRANCH   9  10
ATOM     10  C   LIG    1       26.748 -19.960   5.297  0.00  0.00    +0.004 C 
BRANCH  10  11
ATOM     11  C   LIG    1       25.865 -20.121   4.045  0.00  0.00    +0.000 C 
BRANCH  11  13
ATOM     12  C   LIG    1       26.129 -17.622   3.356  0.00  0.00    +0.004 C 
ATOM     13  C   LIG    1       25.222 -18.835   3.508  0.00  0.00    -0.003 C 
ENDBRANCH  11  13
ENDBRANCH  10  11
ENDBRANCH   9  10
ENDBRANCH   7   9
ENDBRANCH   6   8
ENDBRANCH   4   6
ENDBRANCH   3   5
ENDBRANCH   1   3
BRANCH   2  14
ATOM     14  C   LIG    1       23.970 -14.173   5.122  0.00  0.00    +0.027 C 
BRANCH  14  15
ATOM     15  C   LIG    1       24.397 -12.781   4.649  0.00  0.00    +0.004 C 
BRANCH  15  16
ATOM     16  C   LIG    1       23.805 -12.241   3.342  0.00  0.00    +0.000 C 
BRANCH  16  17
ATOM     17  C   LIG    1       24.673 -12.459   2.099  0.00  0.00    +0.001 C 
BRANCH  17  18
ATOM     18  C   LIG    1       26.189 -12.493   2.315  0.00  0.00    +0.011 C 
BRANCH  18  19
ATOM     19  C   LIG    1       26.759 -13.916   2.454  0.00  0.00    +0.120 C 
BRANCH  19  20
ATOM     20  C   LIG    1       27.843 -14.025   3.470  0.00  0.00    +0.305 C 
ATOM     21  O   LIG    1       27.777 -14.765   4.471  0.00  0.00    -0.251 OA
BRANCH  20  22
ATOM     22  O   LIG    1       28.936 -13.308   3.217  0.00  0.00    -0.481 OA
ATOM     23  H   LIG    1       29.688 -13.492   3.820  0.00  0.00    +0.295 HD
ENDBRANCH  20  22
ENDBRANCH  19  20
ENDBRANCH  18  19
ENDBRANCH  17  18
ENDBRANCH  16  17
ENDBRANCH  15  16
ENDBRANCH  14  15
ENDBRANCH   2  14
TORSDOF 16
ENDMDL
MODEL 4
REMARK VINA RESULT:      -5.4      2.699      6.554
REMARK  Name = *****
REMARK                            x       y       z     vdW  Elec       q    Type
REMARK                         _______ _______ _______ _____ _____    ______ ____
ROOT
ATOM      1  C   LIG    1       27.263 -21.130   6.751  0.00  0.00    -0.027 C 
ATOM      2  C   LIG    1       28.499 -20.668   7.033  0.00  0.00    -0.031 C 
ENDROOT
BRANCH   1   3
ATOM      3  C   LIG    1       26.013 -20.495   6.185  0.00  0.00    +0.054 C 
BRANCH   3   5
ATOM      4  C   LIG    1       23.502 -20.906   6.731  0.00  0.00    -0.027 C 
ATOM      5  C   LIG    1       24.790 -20.669   7.061  0.00  0.00    -0.027 C 
BRANCH   4   6
ATOM      6  C   LIG    1       22.853 -21.065   5.383  0.00  0.00    +0.054 C 
BRANCH   6   8
ATOM      7  C   LIG    1       23.158 -18.869   3.929  0.00  0.00    -0.031 C 
ATOM      8  C   LIG    1       23.342 -20.163   4.257  0.00  0.00    -0.027 C 
BRANCH   7   9
ATOM      9  C   LIG    1       22.217 -17.913   4.580  0.00  0.00    +0.027 C 
BRANCH   9  10
ATOM     10  C   LIG    1       22.210 -16.473   4.041  0.00  0.00    +0.004 C 
BRANCH  10  11
ATOM     11  C   LIG    1       22.864 -15.441   4.978  0.00  0.00    +0.000 C 
BRANCH  11  13
ATOM     12  C   LIG    1       23.842 -13.241   3.982  0.00  0.00    +0.004 C 
ATOM     13  C   LIG    1       24.071 -14.685   4.405  0.00  0.00    -0.003 C 
ENDBRANCH  11  13
ENDBRANCH  10  11
ENDBRANCH   9  10
ENDBRANCH   7   9
ENDBRANCH   6   8
ENDBRANCH   4   6
ENDBRANCH   3   5
ENDBRANCH   1   3
BRANCH   2  14
ATOM     14  C   LIG    1       29.121 -19.318   6.822  0.00  0.00    +0.027 C 
BRANCH  14  15
ATOM     15  C   LIG    1       29.167 -18.996   5.326  0.00  0.00    +0.004 C 
BRANCH  15  16
ATOM     16  C   LIG    1       28.573 -17.666   4.847  0.00  0.00    +0.000 C 
BRANCH  16  17
ATOM     17  C   LIG    1       27.253 -17.787   4.079  0.00  0.00    +0.001 C 
BRANCH  17  18
ATOM     18  C   LIG    1       26.694 -16.500   3.465  0.00  0.00    +0.011 C 
BRANCH  18  19
ATOM     19  C   LIG    1       27.475 -15.236   3.869  0.00  0.00    +0.120 C 
BRANCH  19  20
ATOM     20  C   LIG    1       27.332 -14.114   2.899  0.00  0.00    +0.305 C 
ATOM     21  O   LIG    1       26.724 -14.214   1.816  0.00  0.00    -0.251 OA
BRANCH  20  22
ATOM     22  O   LIG    1       27.859 -12.955   3.286  0.00  0.00    -0.481 OA
ATOM     23  H   LIG    1       28.696 -12.720   2.831  0.00  0.00    +0.295 HD
ENDBRANCH  20  22
ENDBRANCH  19  20
ENDBRANCH  18  19
ENDBRANCH  17  18
ENDBRANCH  16  17
ENDBRANCH  15  16
ENDBRANCH  14  15
ENDBRANCH   2  14
TORSDOF 16
ENDMDL
MODEL 5
REMARK VINA RESULT:      -5.3      2.482      6.483
REMARK  Name = *****
REMARK                            x       y       z     vdW  Elec       q    Type
REMARK                         _______ _______ _______ _____ _____    ______ ____
ROOT
ATOM      1  C   LIG    1       22.425 -19.768   4.805  0.00  0.00    -0.027 C 
ATOM      2  C   LIG    1       22.161 -18.506   4.410  0.00  0.00    -0.031 C 
ENDROOT
BRANCH   1   3
ATOM      3  C   LIG    1       23.049 -20.367   6.046  0.00  0.00    +0.054 C 
BRANCH   3   5
ATOM      4  C   LIG    1       25.411 -21.457   6.099  0.00  0.00    -0.027 C 
ATOM      5  C   LIG    1       24.106 -21.411   5.755  0.00  0.00    -0.027 C 
BRANCH   4   6
ATOM      6  C   LIG    1       26.250 -20.481   6.877  0.00  0.00    +0.054 C 
BRANCH   6   8
ATOM      7  C   LIG    1       28.851 -19.998   6.697  0.00  0.00    -0.031 C 
ATOM      8  C   LIG    1       27.750 -20.738   6.938  0.00  0.00    -0.027 C 
BRANCH   7   9
ATOM      9  C   LIG    1       28.889 -18.627   6.116  0.00  0.00    +0.027 C 
BRANCH   9  10
ATOM     10  C   LIG    1       28.479 -18.488   4.640  0.00  0.00    +0.004 C 
BRANCH  10  11
ATOM     11  C   LIG    1       27.729 -17.185   4.307  0.00  0.00    +0.000 C 
BRANCH  11  13
ATOM     12  C   LIG    1       25.672 -18.623   3.609  0.00  0.00    +0.004 C 
ATOM     13  C   LIG    1       26.470 -17.338   3.442  0.00  0.00    -0.003 C 
ENDBRANCH  11  13
ENDBRANCH  10  11
ENDBRANCH   9  10
ENDBRANCH   7   9
ENDBRANCH   6   8
ENDBRANCH   4   6
ENDBRANCH   3   5
ENDBRANCH   1   3
BRANCH   2  14
ATOM     14  C   LIG    1       22.344 -17.192   5.113  0.00  0.00    +0.027 C 
BRANCH  14  15
ATOM     15  C   LIG    1       22.714 -16.107   4.098  0.00  0.00    +0.004 C 
BRANCH  15  16
ATOM     16  C   LIG    1       23.448 -14.857   4.599  0.00  0.00    +0.000 C 
BRANCH  16  17
ATOM     17  C   LIG    1       23.996 -13.944   3.499  0.00  0.00    +0.001 C 
BRANCH  17  18
ATOM     18  C   LIG    1       25.214 -13.088   3.858  0.00  0.00    +0.011 C 
BRANCH  18  19
ATOM     19  C   LIG    1       26.549 -13.682   3.369  0.00  0.00    +0.120 C 
BRANCH  19  20
ATOM     20  C   LIG    1       27.709 -13.329   4.235  0.00  0.00    +0.305 C 
ATOM     21  O   LIG    1       28.874 -13.215   3.811  0.00  0.00    -0.251 OA
BRANCH  20  22
ATOM     22  O   LIG    1       27.415 -13.088   5.511  0.00  0.00    -0.481 OA
ATOM     23  H   LIG    1       26.756 -13.704   5.897  0.00  0.00    +0.295 HD
ENDBRANCH  20  22
ENDBRANCH  19  20
ENDBRANCH  18  19
ENDBRANCH  17  18
ENDBRANCH  16  17
ENDBRANCH  15  16
ENDBRANCH  14  15
ENDBRANCH   2  14
TORSDOF 16
ENDMDL
MODEL 6
REMARK VINA RESULT:      -5.2      2.486      7.297
REMARK  Name = *****
REMARK                            x       y       z     vdW  Elec       q    Type
REMARK                         _______ _______ _______ _____ _____    ______ ____
ROOT
ATOM      1  C   LIG    1       25.160 -16.987   3.631  0.00  0.00    -0.027 C 
ATOM      2  C   LIG    1       25.091 -15.644   3.735  0.00  0.00    -0.031 C 
ENDROOT
BRANCH   1   3
ATOM      3  C   LIG    1       24.169 -18.106   3.861  0.00  0.00    +0.054 C 
BRANCH   3   5
ATOM      4  C   LIG    1       24.171 -20.700   3.651  0.00  0.00    -0.027 C 
ATOM      5  C   LIG    1       24.672 -19.466   3.425  0.00  0.00    -0.027 C 
BRANCH   4   6
ATOM      6  C   LIG    1       22.953 -21.133   4.419  0.00  0.00    +0.054 C 
BRANCH   6   8
ATOM      7  C   LIG    1       23.629 -20.710   6.947  0.00  0.00    -0.031 C 
ATOM      8  C   LIG    1       22.830 -20.665   5.863  0.00  0.00    -0.027 C 
BRANCH   7   9
ATOM      9  C   LIG    1       24.931 -21.427   7.061  0.00  0.00    +0.027 C 
BRANCH   9  10
ATOM     10  C   LIG    1       26.094 -20.889   6.212  0.00  0.00    +0.004 C 
BRANCH  10  11
ATOM     11  C   LIG    1       27.316 -20.426   7.026  0.00  0.00    +0.000 C 
BRANCH  11  13
ATOM     12  C   LIG    1       29.471 -19.027   6.593  0.00  0.00    +0.004 C 
ATOM     13  C   LIG    1       28.617 -20.235   6.235  0.00  0.00    -0.003 C 
ENDBRANCH  11  13
ENDBRANCH  10  11
ENDBRANCH   9  10
ENDBRANCH   7   9
ENDBRANCH   6   8
ENDBRANCH   4   6
ENDBRANCH   3   5
ENDBRANCH   1   3
BRANCH   2  14
ATOM     14  C   LIG    1       23.943 -14.736   4.071  0.00  0.00    +0.027 C 
BRANCH  14  15
ATOM     15  C   LIG    1       23.818 -13.641   3.008  0.00  0.00    +0.004 C 
BRANCH  15  16
ATOM     16  C   LIG    1       24.798 -12.463   3.054  0.00  0.00    +0.000 C 
BRANCH  16  17
ATOM     17  C   LIG    1       26.108 -12.679   2.289  0.00  0.00    +0.001 C 
BRANCH  17  18
ATOM     18  C   LIG    1       27.132 -13.619   2.930  0.00  0.00    +0.011 C 
BRANCH  18  19
ATOM     19  C   LIG    1       28.336 -12.887   3.551  0.00  0.00    +0.120 C 
BRANCH  19  20
ATOM     20  C   LIG    1       28.224 -12.701   5.024  0.00  0.00    +0.305 C 
ATOM     21  O   LIG    1       27.420 -13.331   5.738  0.00  0.00    -0.251 OA
BRANCH  20  22
ATOM     22  O   LIG    1       29.088 -11.839   5.558  0.00  0.00    -0.481 OA
ATOM     23  H   LIG    1       29.898 -12.254   5.925  0.00  0.00    +0.295 HD
ENDBRANCH  20  22
ENDBRANCH  19  20
ENDBRANCH  18  19
ENDBRANCH  17  18
ENDBRANCH  16  17
ENDBRANCH  15  16
ENDBRANCH  14  15
ENDBRANCH   2  14
TORSDOF 16
ENDMDL
MODEL 7
REMARK VINA RESULT:      -4.9      1.150      2.469
REMARK  Name = *****
REMARK                            x       y       z     vdW  Elec       q    Type
REMARK                         _______ _______ _______ _____ _____    ______ ____
ROOT
ATOM      1  C   LIG    1       22.816 -15.626   4.952  0.00  0.00    -0.027 C 
ATOM      2  C   LIG    1       22.321 -16.879   5.012  0.00  0.00    -0.031 C 
ENDROOT
BRANCH   1   3
ATOM      3  C   LIG    1       23.431 -14.796   3.846  0.00  0.00    +0.054 C 
BRANCH   3   5
ATOM      4  C   LIG    1       24.794 -12.925   5.036  0.00  0.00    -0.027 C 
ATOM      5  C   LIG    1       23.783 -13.385   4.266  0.00  0.00    -0.027 C 
BRANCH   4   6
ATOM      6  C   LIG    1       25.899 -13.664   5.739  0.00  0.00    +0.054 C 
BRANCH   6   8
ATOM      7  C   LIG    1       28.284 -12.790   4.979  0.00  0.00    -0.031 C 
ATOM      8  C   LIG    1       27.255 -12.978   5.830  0.00  0.00    -0.027 C 
BRANCH   7   9
ATOM      9  C   LIG    1       28.433 -13.386   3.621  0.00  0.00    +0.027 C 
BRANCH   9  10
ATOM     10  C   LIG    1       27.193 -13.358   2.713  0.00  0.00    +0.004 C 
BRANCH  10  11
ATOM     11  C   LIG    1       26.620 -14.747   2.375  0.00  0.00    +0.000 C 
BRANCH  11  13
ATOM     12  C   LIG    1       26.038 -17.110   3.305  0.00  0.00    +0.004 C 
ATOM     13  C   LIG    1       26.891 -15.853   3.404  0.00  0.00    -0.003 C 
ENDBRANCH  11  13
ENDBRANCH  10  11
ENDBRANCH   9  10
ENDBRANCH   7   9
ENDBRANCH   6   8
ENDBRANCH   4   6
ENDBRANCH   3   5
ENDBRANCH   1   3
BRANCH   2  14
ATOM     14  C   LIG    1       22.138 -17.922   3.948  0.00  0.00    +0.027 C 
BRANCH  14  15
ATOM     15  C   LIG    1       22.165 -19.317   4.578  0.00  0.00    +0.004 C 
BRANCH  15  16
ATOM     16  C   LIG    1       23.019 -19.536   5.832  0.00  0.00    +0.000 C 
BRANCH  16  17
ATOM     17  C   LIG    1       23.076 -20.983   6.332  0.00  0.00    +0.001 C 
BRANCH  17  18
ATOM     18  C   LIG    1       24.467 -21.568   6.589  0.00  0.00    +0.011 C 
BRANCH  18  19
ATOM     19  C   LIG    1       25.522 -20.509   6.957  0.00  0.00    +0.120 C 
BRANCH  19  20
ATOM     20  C   LIG    1       26.696 -20.495   6.040  0.00  0.00    +0.305 C 
ATOM     21  O   LIG    1       27.870 -20.661   6.423  0.00  0.00    -0.251 OA
BRANCH  20  22
ATOM     22  O   LIG    1       26.410 -20.341   4.749  0.00  0.00    -0.481 OA
ATOM     23  H   LIG    1       25.814 -19.586   4.555  0.00  0.00    +0.295 HD
ENDBRANCH  20  22
ENDBRANCH  19  20
ENDBRANCH  18  19
ENDBRANCH  17  18
ENDBRANCH  16  17
ENDBRANCH  15  16
ENDBRANCH  14  15
ENDBRANCH   2  14
TORSDOF 16
ENDMDL
MODEL 8
REMARK VINA RESULT:      -4.9      3.078      6.051
REMARK  Name = *****
REMARK                            x       y       z     vdW  Elec       q    Type
REMARK                         _______ _______ _______ _____ _____    ______ ____
ROOT
ATOM      1  C   LIG    1       23.760 -21.212   5.552  0.00  0.00    -0.027 C 
ATOM      2  C   LIG    1       22.832 -20.644   4.756  0.00  0.00    -0.031 C 
ENDROOT
BRANCH   1   3
ATOM      3  C   LIG    1       24.334 -20.859   6.906  0.00  0.00    +0.054 C 
BRANCH   3   5
ATOM      4  C   LIG    1       26.895 -20.683   6.481  0.00  0.00    -0.027 C 
ATOM      5  C   LIG    1       25.797 -21.216   7.060  0.00  0.00    -0.027 C 
BRANCH   4   6
ATOM      6  C   LIG    1       27.027 -19.565   5.484  0.00  0.00    +0.054 C 
BRANCH   6   8
ATOM      7  C   LIG    1       25.770 -18.842   3.264  0.00  0.00    -0.031 C 
ATOM      8  C   LIG    1       26.273 -19.706   4.168  0.00  0.00    -0.027 C 
BRANCH   7   9
ATOM      9  C   LIG    1       25.695 -17.359   3.400  0.00  0.00    +0.027 C 
BRANCH   9  10
ATOM     10  C   LIG    1       27.030 -16.598   3.422  0.00  0.00    +0.004 C 
BRANCH  10  11
ATOM     11  C   LIG    1       26.893 -15.069   3.301  0.00  0.00    +0.000 C 
BRANCH  11  13
ATOM     12  C   LIG    1       27.168 -13.397   5.280  0.00  0.00    +0.004 C 
ATOM     13  C   LIG    1       27.824 -14.238   4.195  0.00  0.00    -0.003 C 
ENDBRANCH  11  13
ENDBRANCH  10  11
ENDBRANCH   9  10
ENDBRANCH   7   9
ENDBRANCH   6   8
ENDBRANCH   4   6
ENDBRANCH   3   5
ENDBRANCH   1   3
BRANCH   2  14
ATOM     14  C   LIG    1       21.955 -19.442   4.961  0.00  0.00    +0.027 C 
BRANCH  14  15
ATOM     15  C   LIG    1       22.769 -18.163   4.744  0.00  0.00    +0.004 C 
BRANCH  15  16
ATOM     16  C   LIG    1       22.032 -16.897   4.291  0.00  0.00    +0.000 C 
BRANCH  16  17
ATOM     17  C   LIG    1       22.372 -15.631   5.085  0.00  0.00    +0.001 C 
BRANCH  17  18
ATOM     18  C   LIG    1       23.644 -14.884   4.678  0.00  0.00    +0.011 C 
BRANCH  18  19
ATOM     19  C   LIG    1       23.508 -14.113   3.351  0.00  0.00    +0.120 C 
BRANCH  19  20
ATOM     20  C   LIG    1       23.844 -12.667   3.466  0.00  0.00    +0.305 C 
ATOM     21  O   LIG    1       24.113 -12.107   4.546  0.00  0.00    -0.251 OA
BRANCH  20  22
ATOM     22  O   LIG    1       23.891 -11.999   2.316  0.00  0.00    -0.481 OA
ATOM     23  H   LIG    1       23.793 -11.027   2.409  0.00  0.00    +0.295 HD
ENDBRANCH  20  22
ENDBRANCH  19  20
ENDBRANCH  18  19
ENDBRANCH  17  18
ENDBRANCH  16  17
ENDBRANCH  15  16
ENDBRANCH  14  15
ENDBRANCH   2  14
TORSDOF 16
ENDMDL
MODEL 9
REMARK VINA RESULT:      -4.9      2.178      4.526
REMARK  Name = *****
REMARK                            x       y       z     vdW  Elec       q    Type
REMARK                         _______ _______ _______ _____ _____    ______ ____
ROOT
ATOM      1  C   LIG    1       26.548 -17.857   3.705  0.00  0.00    -0.027 C 
ATOM      2  C   LIG    1       27.370 -18.617   4.457  0.00  0.00    -0.031 C 
ENDROOT
BRANCH   1   3
ATOM      3  C   LIG    1       26.587 -16.418   3.240  0.00  0.00    +0.054 C 
BRANCH   3   5
ATOM      4  C   LIG    1       27.588 -14.172   4.090  0.00  0.00    -0.027 C 
ATOM      5  C   LIG    1       27.292 -15.485   4.202  0.00  0.00    -0.027 C 
BRANCH   4   6
ATOM      6  C   LIG    1       27.324 -13.203   2.971  0.00  0.00    +0.054 C 
BRANCH   6   8
ATOM      7  C   LIG    1       24.735 -13.168   2.399  0.00  0.00    -0.031 C 
ATOM      8  C   LIG    1       26.044 -13.391   2.167  0.00  0.00    -0.027 C 
BRANCH   7   9
ATOM      9  C   LIG    1       24.120 -12.758   3.693  0.00  0.00    +0.027 C 
BRANCH   9  10
ATOM     10  C   LIG    1       23.879 -13.870   4.727  0.00  0.00    +0.004 C 
BRANCH  10  11
ATOM     11  C   LIG    1       23.418 -15.210   4.125  0.00  0.00    +0.000 C 
BRANCH  11  13
ATOM     12  C   LIG    1       22.231 -17.488   4.561  0.00  0.00    +0.004 C 
ATOM     13  C   LIG    1       22.482 -16.054   5.003  0.00  0.00    -0.003 C 
ENDBRANCH  11  13
ENDBRANCH  10  11
ENDBRANCH   9  10
ENDBRANCH   7   9
ENDBRANCH   6   8
ENDBRANCH   4   6
ENDBRANCH   3   5
ENDBRANCH   1   3
BRANCH   2  14
ATOM     14  C   LIG    1       28.704 -18.315   5.077  0.00  0.00    +0.027 C 
BRANCH  14  15
ATOM     15  C   LIG    1       28.931 -19.221   6.290  0.00  0.00    +0.004 C 
BRANCH  15  16
ATOM     16  C   LIG    1       28.185 -20.559   6.352  0.00  0.00    +0.000 C 
BRANCH  16  17
ATOM     17  C   LIG    1       26.822 -20.509   7.049  0.00  0.00    +0.001 C 
BRANCH  17  18
ATOM     18  C   LIG    1       25.717 -21.394   6.466  0.00  0.00    +0.011 C 
BRANCH  18  19
ATOM     19  C   LIG    1       24.373 -20.664   6.287  0.00  0.00    +0.120 C 
BRANCH  19  20
ATOM     20  C   LIG    1       23.708 -20.953   4.986  0.00  0.00    +0.305 C 
ATOM     21  O   LIG    1       24.279 -20.849   3.883  0.00  0.00    -0.251 OA
BRANCH  20  22
ATOM     22  O   LIG    1       22.452 -21.388   5.071  0.00  0.00    -0.481 OA
ATOM     23  H   LIG    1       22.217 -22.073   4.410  0.00  0.00    +0.295 HD
ENDBRANCH  20  22
ENDBRANCH  19  20
ENDBRANCH  18  19
ENDBRANCH  17  18
ENDBRANCH  16  17
ENDBRANCH  15  16
ENDBRANCH  14  15
ENDBRANCH   2  14
TORSDOF 16
ENDMDL
