MODEL 1
REMARK VINA RESULT:      -7.3      0.000      0.000
REMARK  Name = *****
REMARK                            x       y       z     vdW  Elec       q    Type
REMARK                         _______ _______ _______ _____ _____    ______ ____
ROOT
ATOM      1  C   LIG    1       25.789 -29.205  11.738  0.00  0.00    +0.250 C 
ATOM      2  C   LIG    1       24.713 -28.280  12.396  0.00  0.00    +0.092 C 
ATOM      3  C   LIG    1       23.959 -29.241  13.396  0.00  0.00    +0.054 C 
ATOM      4  N   LIG    1       23.232 -28.719  14.583  0.00  0.00    -0.292 NA
ATOM      5  C   LIG    1       22.329 -27.565  14.353  0.00  0.00    +0.090 C 
ATOM      6  C   LIG    1       22.800 -26.427  13.447  0.00  0.00    +0.051 C 
ATOM      7  C   LIG    1       24.258 -26.116  13.639  0.00  0.00    -0.039 A 
ATOM      8  C   LIG    1       24.640 -25.000  14.404  0.00  0.00    +0.053 A 
ATOM      9  C   LIG    1       25.983 -24.779  14.596  0.00  0.00    +0.167 A 
ATOM     10  O   LIG    1       26.534 -23.781  15.335  0.00  0.00    -0.453 OA
ATOM     11  C   LIG    1       27.937 -24.084  15.192  0.00  0.00    +0.466 C 
ATOM     12  O   LIG    1       28.196 -25.215  14.335  0.00  0.00    -0.453 OA
ATOM     13  C   LIG    1       26.925 -25.595  14.029  0.00  0.00    +0.167 A 
ATOM     14  C   LIG    1       26.582 -26.688  13.259  0.00  0.00    +0.054 A 
ATOM     15  C   LIG    1       22.408 -29.847  15.084  0.00  0.00    +0.085 C 
ATOM     16  C   LIG    1       22.228 -30.799  13.902  0.00  0.00    +0.017 C 
ATOM     17  C   LIG    1       22.850 -30.068  12.722  0.00  0.00    +0.029 C 
ATOM     18  C   LIG    1       25.142 -30.111  13.814  0.00  0.00    +0.041 C 
ATOM     19  C   LIG    1       25.226 -27.004  13.092  0.00  0.00    -0.031 A 
ATOM     20  C   LIG    1       26.133 -30.085  12.913  0.00  0.00    +0.136 C 
ENDROOT
BRANCH  20  21
ATOM     21  O   LIG    1       27.356 -30.674  13.136  0.00  0.00    -0.496 OA
ATOM     22  C   LIG    1       28.214 -29.975  14.040  0.00  0.00    +0.277 C 
ENDBRANCH  20  21
BRANCH   1  23
ATOM     23  O   LIG    1       25.135 -29.915  10.646  0.00  0.00    -0.451 OA
BRANCH  23  24
ATOM     24  C   LIG    1       25.837 -30.188   9.519  0.00  0.00    +0.340 C 
ATOM     25  O   LIG    1       26.904 -30.788   9.483  0.00  0.00    -0.248 OA
BRANCH  24  26
ATOM     26  C   LIG    1       25.131 -29.699   8.217  0.00  0.00    +0.172 C 
BRANCH  26  27
ATOM     27  O   LIG    1       23.702 -29.786   8.465  0.00  0.00    -0.377 OA
ATOM     28  H   LIG    1       23.321 -28.917   8.223  0.00  0.00    +0.211 HD
ENDBRANCH  26  27
BRANCH  26  29
ATOM     29  C   LIG    1       25.362 -30.626   7.029  0.00  0.00    +0.166 C 
BRANCH  29  30
ATOM     30  C   LIG    1       24.143 -31.181   6.395  0.00  0.00    +0.310 C 
ATOM     31  O   LIG    1       23.282 -30.494   5.833  0.00  0.00    -0.251 OA
BRANCH  30  33
ATOM     32  C   LIG    1       23.324 -33.213   5.449  0.00  0.00    +0.280 C 
ATOM     33  O   LIG    1       24.134 -32.523   6.450  0.00  0.00    -0.468 OA
ENDBRANCH  30  33
ENDBRANCH  29  30
ENDBRANCH  26  29
BRANCH  26  34
ATOM     34  C   LIG    1       25.419 -28.206   7.952  0.00  0.00    +0.047 C 
BRANCH  34  35
ATOM     35  C   LIG    1       25.519 -27.827   6.461  0.00  0.00    +0.006 C 
BRANCH  35  36
ATOM     36  C   LIG    1       24.340 -26.940   6.032  0.00  0.00    +0.034 C 
BRANCH  36  37
ATOM     37  C   LIG    1       24.677 -25.436   5.907  0.00  0.00    +0.060 C 
ATOM     38  C   LIG    1       26.030 -25.089   6.539  0.00  0.00    +0.041 C 
ATOM     39  C   LIG    1       23.582 -24.595   6.572  0.00  0.00    +0.041 C 
BRANCH  37  40
ATOM     40  O   LIG    1       24.678 -25.068   4.526  0.00  0.00    -0.389 OA
ATOM     41  H   LIG    1       25.452 -24.506   4.347  0.00  0.00    +0.210 HD
ENDBRANCH  37  40
ENDBRANCH  36  37
ENDBRANCH  35  36
ENDBRANCH  34  35
ENDBRANCH  26  34
ENDBRANCH  24  26
ENDBRANCH  23  24
ENDBRANCH   1  23
TORSDOF 13
ENDMDL
MODEL 2
REMARK VINA RESULT:      -6.9      1.530      2.006
REMARK  Name = *****
REMARK                            x       y       z     vdW  Elec       q    Type
REMARK                         _______ _______ _______ _____ _____    ______ ____
ROOT
ATOM      1  C   LIG    1       24.689 -30.486  11.757  0.00  0.00    +0.250 C 
ATOM      2  C   LIG    1       23.596 -29.503  12.290  0.00  0.00    +0.092 C 
ATOM      3  C   LIG    1       22.901 -30.313  13.452  0.00  0.00    +0.054 C 
ATOM      4  N   LIG    1       22.183 -29.631  14.561  0.00  0.00    -0.292 NA
ATOM      5  C   LIG    1       21.234 -28.558  14.175  0.00  0.00    +0.090 C 
ATOM      6  C   LIG    1       21.643 -27.567  13.086  0.00  0.00    +0.051 C 
ATOM      7  C   LIG    1       23.092 -27.182  13.183  0.00  0.00    -0.039 A 
ATOM      8  C   LIG    1       23.451 -25.946  13.747  0.00  0.00    +0.053 A 
ATOM      9  C   LIG    1       24.790 -25.655  13.863  0.00  0.00    +0.167 A 
ATOM     10  O   LIG    1       25.322 -24.534  14.416  0.00  0.00    -0.453 OA
ATOM     11  C   LIG    1       26.731 -24.811  14.283  0.00  0.00    +0.466 C 
ATOM     12  O   LIG    1       27.010 -26.056  13.612  0.00  0.00    -0.453 OA
ATOM     13  C   LIG    1       25.747 -26.521  13.407  0.00  0.00    +0.167 A 
ATOM     14  C   LIG    1       25.426 -27.734  12.832  0.00  0.00    +0.054 A 
ATOM     15  C   LIG    1       21.413 -30.689  15.260  0.00  0.00    +0.085 C 
ATOM     16  C   LIG    1       21.240 -31.825  14.251  0.00  0.00    +0.017 C 
ATOM     17  C   LIG    1       21.807 -31.273  12.951  0.00  0.00    +0.029 C 
ATOM     18  C   LIG    1       24.123 -31.067  13.970  0.00  0.00    +0.041 C 
ATOM     19  C   LIG    1       24.078 -28.115  12.757  0.00  0.00    -0.031 A 
ATOM     20  C   LIG    1       25.092 -31.155  13.048  0.00  0.00    +0.136 C 
ENDROOT
BRANCH  20  21
ATOM     21  O   LIG    1       26.340 -31.661  13.326  0.00  0.00    -0.496 OA
ATOM     22  C   LIG    1       26.740 -31.580  14.696  0.00  0.00    +0.277 C 
ENDBRANCH  20  21
BRANCH   1  23
ATOM     23  O   LIG    1       24.035 -31.384  10.813  0.00  0.00    -0.451 OA
BRANCH  23  24
ATOM     24  C   LIG    1       23.546 -30.882   9.653  0.00  0.00    +0.340 C 
ATOM     25  O   LIG    1       22.387 -30.526   9.475  0.00  0.00    -0.248 OA
BRANCH  24  26
ATOM     26  C   LIG    1       24.623 -30.746   8.533  0.00  0.00    +0.172 C 
BRANCH  26  27
ATOM     27  O   LIG    1       23.910 -30.795   7.267  0.00  0.00    -0.377 OA
ATOM     28  H   LIG    1       23.020 -30.422   7.431  0.00  0.00    +0.211 HD
ENDBRANCH  26  27
BRANCH  26  29
ATOM     29  C   LIG    1       25.575 -31.934   8.473  0.00  0.00    +0.166 C 
BRANCH  29  30
ATOM     30  C   LIG    1       25.618 -32.665   7.185  0.00  0.00    +0.310 C 
ATOM     31  O   LIG    1       24.824 -33.558   6.870  0.00  0.00    -0.251 OA
BRANCH  30  33
ATOM     32  C   LIG    1       27.691 -33.088   6.080  0.00  0.00    +0.280 C 
ATOM     33  O   LIG    1       26.584 -32.184   6.384  0.00  0.00    -0.468 OA
ENDBRANCH  30  33
ENDBRANCH  29  30
ENDBRANCH  26  29
BRANCH  26  34
ATOM     34  C   LIG    1       25.301 -29.360   8.576  0.00  0.00    +0.047 C 
BRANCH  34  35
ATOM     35  C   LIG    1       25.205 -28.558   7.263  0.00  0.00    +0.006 C 
BRANCH  35  36
ATOM     36  C   LIG    1       25.986 -27.238   7.361  0.00  0.00    +0.034 C 
BRANCH  36  37
ATOM     37  C   LIG    1       25.654 -26.210   6.255  0.00  0.00    +0.060 C 
ATOM     38  C   LIG    1       25.887 -24.767   6.714  0.00  0.00    +0.041 C 
ATOM     39  C   LIG    1       24.194 -26.367   5.813  0.00  0.00    +0.041 C 
BRANCH  37  40
ATOM     40  O   LIG    1       26.451 -26.488   5.101  0.00  0.00    -0.389 OA
ATOM     41  H   LIG    1       25.911 -26.966   4.448  0.00  0.00    +0.210 HD
ENDBRANCH  37  40
ENDBRANCH  36  37
ENDBRANCH  35  36
ENDBRANCH  34  35
ENDBRANCH  26  34
ENDBRANCH  24  26
ENDBRANCH  23  24
ENDBRANCH   1  23
TORSDOF 13
ENDMDL
MODEL 3
REMARK VINA RESULT:      -6.7      2.361      3.527
REMARK  Name = *****
REMARK                            x       y       z     vdW  Elec       q    Type
REMARK                         _______ _______ _______ _____ _____    ______ ____
ROOT
ATOM      1  C   LIG    1       25.138 -29.322  11.173  0.00  0.00    +0.250 C 
ATOM      2  C   LIG    1       23.791 -30.079  11.417  0.00  0.00    +0.092 C 
ATOM      3  C   LIG    1       24.239 -31.417  12.123  0.00  0.00    +0.054 C 
ATOM      4  N   LIG    1       23.311 -32.192  12.988  0.00  0.00    -0.292 NA
ATOM      5  C   LIG    1       21.952 -32.440  12.449  0.00  0.00    +0.090 C 
ATOM      6  C   LIG    1       21.223 -31.303  11.733  0.00  0.00    +0.051 C 
ATOM      7  C   LIG    1       21.453 -29.975  12.396  0.00  0.00    -0.039 A 
ATOM      8  C   LIG    1       20.460 -29.425  13.225  0.00  0.00    +0.053 A 
ATOM      9  C   LIG    1       20.731 -28.232  13.852  0.00  0.00    +0.167 A 
ATOM     10  O   LIG    1       19.912 -27.575  14.715  0.00  0.00    -0.453 OA
ATOM     11  C   LIG    1       20.735 -26.441  15.056  0.00  0.00    +0.466 C 
ATOM     12  O   LIG    1       21.995 -26.415  14.355  0.00  0.00    -0.453 OA
ATOM     13  C   LIG    1       21.915 -27.575  13.648  0.00  0.00    +0.167 A 
ATOM     14  C   LIG    1       22.903 -28.081  12.827  0.00  0.00    +0.054 A 
ATOM     15  C   LIG    1       23.961 -33.509  13.204  0.00  0.00    +0.085 C 
ATOM     16  C   LIG    1       24.943 -33.693  12.047  0.00  0.00    +0.017 C 
ATOM     17  C   LIG    1       24.683 -32.506  11.131  0.00  0.00    +0.029 C 
ATOM     18  C   LIG    1       25.415 -30.870  12.928  0.00  0.00    +0.041 C 
ATOM     19  C   LIG    1       22.710 -29.331  12.221  0.00  0.00    -0.031 A 
ATOM     20  C   LIG    1       25.896 -29.731  12.411  0.00  0.00    +0.136 C 
ENDROOT
BRANCH  20  21
ATOM     21  O   LIG    1       26.859 -28.977  13.041  0.00  0.00    -0.496 OA
ATOM     22  C   LIG    1       28.060 -29.675  13.374  0.00  0.00    +0.277 C 
ENDBRANCH  20  21
BRANCH   1  23
ATOM     23  O   LIG    1       25.708 -29.846   9.938  0.00  0.00    -0.451 OA
BRANCH  23  24
ATOM     24  C   LIG    1       25.903 -29.008   8.891  0.00  0.00    +0.340 C 
ATOM     25  O   LIG    1       26.613 -28.010   8.913  0.00  0.00    -0.248 OA
BRANCH  24  26
ATOM     26  C   LIG    1       25.162 -29.455   7.593  0.00  0.00    +0.172 C 
BRANCH  26  27
ATOM     27  O   LIG    1       23.748 -29.508   7.924  0.00  0.00    -0.377 OA
ATOM     28  H   LIG    1       23.500 -28.617   8.245  0.00  0.00    +0.211 HD
ENDBRANCH  26  27
BRANCH  26  29
ATOM     29  C   LIG    1       25.503 -30.879   7.172  0.00  0.00    +0.166 C 
BRANCH  29  30
ATOM     30  C   LIG    1       24.863 -31.356   5.923  0.00  0.00    +0.310 C 
ATOM     31  O   LIG    1       25.466 -31.513   4.855  0.00  0.00    -0.251 OA
BRANCH  30  33
ATOM     32  C   LIG    1       23.290 -32.905   6.828  0.00  0.00    +0.280 C 
ATOM     33  O   LIG    1       23.569 -31.656   6.122  0.00  0.00    -0.468 OA
ENDBRANCH  30  33
ENDBRANCH  29  30
ENDBRANCH  26  29
BRANCH  26  34
ATOM     34  C   LIG    1       25.291 -28.392   6.482  0.00  0.00    +0.047 C 
BRANCH  34  35
ATOM     35  C   LIG    1       24.249 -27.259   6.554  0.00  0.00    +0.006 C 
BRANCH  35  36
ATOM     36  C   LIG    1       24.453 -26.243   5.419  0.00  0.00    +0.034 C 
BRANCH  36  37
ATOM     37  C   LIG    1       24.683 -24.789   5.890  0.00  0.00    +0.060 C 
ATOM     38  C   LIG    1       25.894 -24.663   6.820  0.00  0.00    +0.041 C 
ATOM     39  C   LIG    1       23.437 -24.268   6.615  0.00  0.00    +0.041 C 
BRANCH  37  40
ATOM     40  O   LIG    1       24.859 -23.948   4.747  0.00  0.00    -0.389 OA
ATOM     41  H   LIG    1       25.810 -23.853   4.565  0.00  0.00    +0.210 HD
ENDBRANCH  37  40
ENDBRANCH  36  37
ENDBRANCH  35  36
ENDBRANCH  34  35
ENDBRANCH  26  34
ENDBRANCH  24  26
ENDBRANCH  23  24
ENDBRANCH   1  23
TORSDOF 13
ENDMDL
MODEL 4
REMARK VINA RESULT:      -6.3      2.249      3.375
REMARK  Name = *****
REMARK                            x       y       z     vdW  Elec       q    Type
REMARK                         _______ _______ _______ _____ _____    ______ ____
ROOT
ATOM      1  C   LIG    1       25.381 -31.450   9.467  0.00  0.00    +0.250 C 
ATOM      2  C   LIG    1       24.529 -30.695  10.540  0.00  0.00    +0.092 C 
ATOM      3  C   LIG    1       23.619 -31.826  11.156  0.00  0.00    +0.054 C 
ATOM      4  N   LIG    1       23.038 -31.707  12.519  0.00  0.00    -0.292 NA
ATOM      5  C   LIG    1       22.384 -30.418  12.851  0.00  0.00    +0.090 C 
ATOM      6  C   LIG    1       23.055 -29.115  12.418  0.00  0.00    +0.051 C 
ATOM      7  C   LIG    1       24.550 -29.170  12.568  0.00  0.00    -0.039 A 
ATOM      8  C   LIG    1       25.167 -28.543  13.664  0.00  0.00    +0.053 A 
ATOM      9  C   LIG    1       26.530 -28.660  13.790  0.00  0.00    +0.167 A 
ATOM     10  O   LIG    1       27.289 -28.159  14.800  0.00  0.00    -0.453 OA
ATOM     11  C   LIG    1       28.597 -28.621  14.408  0.00  0.00    +0.466 C 
ATOM     12  O   LIG    1       28.602 -29.338  13.157  0.00  0.00    -0.453 OA
ATOM     13  C   LIG    1       27.275 -29.332  12.857  0.00  0.00    +0.167 A 
ATOM     14  C   LIG    1       26.701 -29.943  11.761  0.00  0.00    +0.054 A 
ATOM     15  C   LIG    1       22.014 -32.776  12.621  0.00  0.00    +0.085 C 
ATOM     16  C   LIG    1       21.619 -33.123  11.186  0.00  0.00    +0.017 C 
ATOM     17  C   LIG    1       22.351 -32.101  10.328  0.00  0.00    +0.029 C 
ATOM     18  C   LIG    1       24.609 -32.986  11.079  0.00  0.00    +0.041 C 
ATOM     19  C   LIG    1       25.305 -29.919  11.622  0.00  0.00    -0.031 A 
ATOM     20  C   LIG    1       25.565 -32.775  10.164  0.00  0.00    +0.136 C 
ENDROOT
BRANCH  20  21
ATOM     21  O   LIG    1       26.648 -33.610  10.014  0.00  0.00    -0.496 OA
ATOM     22  C   LIG    1       27.321 -33.516   8.757  0.00  0.00    +0.277 C 
ENDBRANCH  20  21
BRANCH   1  23
ATOM     23  O   LIG    1       24.573 -31.533   8.257  0.00  0.00    -0.451 OA
BRANCH  23  24
ATOM     24  C   LIG    1       24.147 -30.390   7.665  0.00  0.00    +0.340 C 
ATOM     25  O   LIG    1       23.642 -29.441   8.253  0.00  0.00    -0.248 OA
BRANCH  24  26
ATOM     26  C   LIG    1       24.401 -30.357   6.127  0.00  0.00    +0.172 C 
BRANCH  26  27
ATOM     27  O   LIG    1       23.454 -31.286   5.533  0.00  0.00    -0.377 OA
ATOM     28  H   LIG    1       22.694 -30.753   5.223  0.00  0.00    +0.211 HD
ENDBRANCH  26  27
BRANCH  26  29
ATOM     29  C   LIG    1       25.766 -30.911   5.736  0.00  0.00    +0.166 C 
BRANCH  29  30
ATOM     30  C   LIG    1       25.769 -32.278   5.164  0.00  0.00    +0.310 C 
ATOM     31  O   LIG    1       25.283 -33.265   5.729  0.00  0.00    -0.251 OA
BRANCH  30  33
ATOM     32  C   LIG    1       25.512 -32.920   2.880  0.00  0.00    +0.280 C 
ATOM     33  O   LIG    1       26.306 -32.289   3.932  0.00  0.00    -0.468 OA
ENDBRANCH  30  33
ENDBRANCH  29  30
ENDBRANCH  26  29
BRANCH  26  34
ATOM     34  C   LIG    1       24.058 -28.975   5.534  0.00  0.00    +0.047 C 
BRANCH  34  35
ATOM     35  C   LIG    1       25.256 -28.012   5.415  0.00  0.00    +0.006 C 
BRANCH  35  36
ATOM     36  C   LIG    1       25.265 -26.991   6.564  0.00  0.00    +0.034 C 
BRANCH  36  37
ATOM     37  C   LIG    1       24.912 -25.546   6.145  0.00  0.00    +0.060 C 
ATOM     38  C   LIG    1       25.085 -25.318   4.639  0.00  0.00    +0.041 C 
ATOM     39  C   LIG    1       25.792 -24.549   6.907  0.00  0.00    +0.041 C 
BRANCH  37  40
ATOM     40  O   LIG    1       23.565 -25.261   6.527  0.00  0.00    -0.389 OA
ATOM     41  H   LIG    1       22.960 -25.627   5.858  0.00  0.00    +0.210 HD
ENDBRANCH  37  40
ENDBRANCH  36  37
ENDBRANCH  35  36
ENDBRANCH  34  35
ENDBRANCH  26  34
ENDBRANCH  24  26
ENDBRANCH  23  24
ENDBRANCH   1  23
TORSDOF 13
ENDMDL
MODEL 5
REMARK VINA RESULT:      -5.8      2.931      4.520
REMARK  Name = *****
REMARK                            x       y       z     vdW  Elec       q    Type
REMARK                         _______ _______ _______ _____ _____    ______ ____
ROOT
ATOM      1  C   LIG    1       25.035 -29.351   9.511  0.00  0.00    +0.250 C 
ATOM      2  C   LIG    1       23.626 -29.992   9.738  0.00  0.00    +0.092 C 
ATOM      3  C   LIG    1       23.863 -31.524   9.445  0.00  0.00    +0.054 C 
ATOM      4  N   LIG    1       22.980 -32.575  10.016  0.00  0.00    -0.292 NA
ATOM      5  C   LIG    1       21.519 -32.350   9.898  0.00  0.00    +0.090 C 
ATOM      6  C   LIG    1       20.963 -30.952  10.168  0.00  0.00    +0.051 C 
ATOM      7  C   LIG    1       21.660 -30.276  11.316  0.00  0.00    -0.039 A 
ATOM      8  C   LIG    1       21.041 -30.224  12.577  0.00  0.00    +0.053 A 
ATOM      9  C   LIG    1       21.733 -29.641  13.611  0.00  0.00    +0.167 A 
ATOM     10  O   LIG    1       21.314 -29.537  14.899  0.00  0.00    -0.453 OA
ATOM     11  C   LIG    1       22.450 -28.882  15.500  0.00  0.00    +0.466 C 
ATOM     12  O   LIG    1       23.494 -28.564  14.557  0.00  0.00    -0.453 OA
ATOM     13  C   LIG    1       22.972 -29.090  13.416  0.00  0.00    +0.167 A 
ATOM     14  C   LIG    1       23.598 -29.110  12.185  0.00  0.00    +0.054 A 
ATOM     15  C   LIG    1       23.307 -33.824   9.284  0.00  0.00    +0.085 C 
ATOM     16  C   LIG    1       23.936 -33.388   7.960  0.00  0.00    +0.017 C 
ATOM     17  C   LIG    1       23.792 -31.873   7.948  0.00  0.00    +0.029 C 
ATOM     18  C   LIG    1       25.285 -31.645   9.989  0.00  0.00    +0.041 C 
ATOM     19  C   LIG    1       22.969 -29.758  11.112  0.00  0.00    -0.031 A 
ATOM     20  C   LIG    1       25.914 -30.463  10.026  0.00  0.00    +0.136 C 
ENDROOT
BRANCH  20  21
ATOM     21  O   LIG    1       27.149 -30.296  10.609  0.00  0.00    -0.496 OA
ATOM     22  C   LIG    1       27.387 -29.006  11.175  0.00  0.00    +0.277 C 
ENDBRANCH  20  21
BRANCH   1  23
ATOM     23  O   LIG    1       25.173 -29.112   8.080  0.00  0.00    -0.451 OA
BRANCH  23  24
ATOM     24  C   LIG    1       25.807 -27.992   7.654  0.00  0.00    +0.340 C 
ATOM     25  O   LIG    1       26.713 -27.426   8.255  0.00  0.00    -0.248 OA
BRANCH  24  26
ATOM     26  C   LIG    1       25.309 -27.487   6.265  0.00  0.00    +0.172 C 
BRANCH  26  27
ATOM     27  O   LIG    1       23.868 -27.335   6.376  0.00  0.00    -0.377 OA
ATOM     28  H   LIG    1       23.658 -27.318   7.332  0.00  0.00    +0.211 HD
ENDBRANCH  26  27
BRANCH  26  29
ATOM     29  C   LIG    1       25.493 -28.515   5.155  0.00  0.00    +0.166 C 
BRANCH  29  30
ATOM     30  C   LIG    1       24.776 -29.799   5.336  0.00  0.00    +0.310 C 
ATOM     31  O   LIG    1       23.544 -29.903   5.383  0.00  0.00    -0.251 OA
BRANCH  30  33
ATOM     32  C   LIG    1       25.399 -31.910   4.413  0.00  0.00    +0.280 C 
ATOM     33  O   LIG    1       25.632 -30.834   5.374  0.00  0.00    -0.468 OA
ENDBRANCH  30  33
ENDBRANCH  29  30
ENDBRANCH  26  29
BRANCH  26  34
ATOM     34  C   LIG    1       25.854 -26.078   5.954  0.00  0.00    +0.047 C 
BRANCH  34  35
ATOM     35  C   LIG    1       24.879 -24.928   6.273  0.00  0.00    +0.006 C 
BRANCH  35  36
ATOM     36  C   LIG    1       25.627 -23.702   6.821  0.00  0.00    +0.034 C 
BRANCH  36  37
ATOM     37  C   LIG    1       24.933 -22.348   6.546  0.00  0.00    +0.060 C 
ATOM     38  C   LIG    1       23.680 -22.151   7.405  0.00  0.00    +0.041 C 
ATOM     39  C   LIG    1       24.548 -22.247   5.066  0.00  0.00    +0.041 C 
BRANCH  37  40
ATOM     40  O   LIG    1       25.860 -21.287   6.789  0.00  0.00    -0.389 OA
ATOM     41  H   LIG    1       26.530 -21.590   7.427  0.00  0.00    +0.210 HD
ENDBRANCH  37  40
ENDBRANCH  36  37
ENDBRANCH  35  36
ENDBRANCH  34  35
ENDBRANCH  26  34
ENDBRANCH  24  26
ENDBRANCH  23  24
ENDBRANCH   1  23
TORSDOF 13
ENDMDL
MODEL 6
REMARK VINA RESULT:      -5.8      4.877      9.273
REMARK  Name = *****
REMARK                            x       y       z     vdW  Elec       q    Type
REMARK                         _______ _______ _______ _____ _____    ______ ____
ROOT
ATOM      1  C   LIG    1       25.179 -22.548   6.107  0.00  0.00    +0.250 C 
ATOM      2  C   LIG    1       25.363 -21.358   5.109  0.00  0.00    +0.092 C 
ATOM      3  C   LIG    1       24.026 -20.534   5.263  0.00  0.00    +0.054 C 
ATOM      4  N   LIG    1       23.956 -19.088   4.924  0.00  0.00    -0.292 NA
ATOM      5  C   LIG    1       24.549 -18.681   3.627  0.00  0.00    +0.090 C 
ATOM      6  C   LIG    1       25.889 -19.285   3.206  0.00  0.00    +0.051 C 
ATOM      7  C   LIG    1       26.835 -19.430   4.365  0.00  0.00    -0.039 A 
ATOM      8  C   LIG    1       27.874 -18.500   4.541  0.00  0.00    +0.053 A 
ATOM      9  C   LIG    1       28.686 -18.640   5.641  0.00  0.00    +0.167 A 
ATOM     10  O   LIG    1       29.708 -17.818   5.994  0.00  0.00    -0.453 OA
ATOM     11  C   LIG    1       30.145 -18.442   7.219  0.00  0.00    +0.466 C 
ATOM     12  O   LIG    1       29.415 -19.643   7.543  0.00  0.00    -0.453 OA
ATOM     13  C   LIG    1       28.517 -19.676   6.521  0.00  0.00    +0.167 A 
ATOM     14  C   LIG    1       27.517 -20.616   6.366  0.00  0.00    +0.054 A 
ATOM     15  C   LIG    1       22.511 -18.748   4.889  0.00  0.00    +0.085 C 
ATOM     16  C   LIG    1       21.771 -20.064   4.650  0.00  0.00    +0.017 C 
ATOM     17  C   LIG    1       22.873 -21.085   4.406  0.00  0.00    +0.029 C 
ATOM     18  C   LIG    1       23.785 -20.762   6.753  0.00  0.00    +0.041 C 
ATOM     19  C   LIG    1       26.614 -20.478   5.302  0.00  0.00    -0.031 A 
ATOM     20  C   LIG    1       24.416 -21.854   7.206  0.00  0.00    +0.136 C 
ENDROOT
BRANCH  20  21
ATOM     21  O   LIG    1       24.466 -22.183   8.541  0.00  0.00    -0.496 OA
ATOM     22  C   LIG    1       25.768 -22.145   9.130  0.00  0.00    +0.277 C 
ENDBRANCH  20  21
BRANCH   1  23
ATOM     23  O   LIG    1       24.405 -23.572   5.415  0.00  0.00    -0.451 OA
BRANCH  23  24
ATOM     24  C   LIG    1       24.031 -24.688   6.088  0.00  0.00    +0.340 C 
ATOM     25  O   LIG    1       23.079 -24.759   6.856  0.00  0.00    -0.248 OA
BRANCH  24  26
ATOM     26  C   LIG    1       24.912 -25.933   5.764  0.00  0.00    +0.172 C 
BRANCH  26  27
ATOM     27  O   LIG    1       25.572 -25.651   4.499  0.00  0.00    -0.377 OA
ATOM     28  H   LIG    1       26.025 -24.790   4.603  0.00  0.00    +0.211 HD
ENDBRANCH  26  27
BRANCH  26  29
ATOM     29  C   LIG    1       24.094 -27.188   5.488  0.00  0.00    +0.166 C 
BRANCH  29  30
ATOM     30  C   LIG    1       24.870 -28.425   5.236  0.00  0.00    +0.310 C 
ATOM     31  O   LIG    1       25.948 -28.454   4.631  0.00  0.00    -0.251 OA
BRANCH  30  33
ATOM     32  C   LIG    1       25.092 -30.706   5.904  0.00  0.00    +0.280 C 
ATOM     33  O   LIG    1       24.286 -29.491   5.809  0.00  0.00    -0.468 OA
ENDBRANCH  30  33
ENDBRANCH  29  30
ENDBRANCH  26  29
BRANCH  26  34
ATOM     34  C   LIG    1       26.046 -26.100   6.797  0.00  0.00    +0.047 C 
BRANCH  34  35
ATOM     35  C   LIG    1       25.686 -26.987   8.005  0.00  0.00    +0.006 C 
BRANCH  35  36
ATOM     36  C   LIG    1       26.710 -28.119   8.189  0.00  0.00    +0.034 C 
BRANCH  36  37
ATOM     37  C   LIG    1       26.494 -28.984   9.451  0.00  0.00    +0.060 C 
ATOM     38  C   LIG    1       25.100 -29.619   9.491  0.00  0.00    +0.041 C 
ATOM     39  C   LIG    1       26.694 -28.134  10.711  0.00  0.00    +0.041 C 
BRANCH  37  40
ATOM     40  O   LIG    1       27.494 -30.005   9.497  0.00  0.00    -0.389 OA
ATOM     41  H   LIG    1       27.085 -30.839   9.788  0.00  0.00    +0.210 HD
ENDBRANCH  37  40
ENDBRANCH  36  37
ENDBRANCH  35  36
ENDBRANCH  34  35
ENDBRANCH  26  34
ENDBRANCH  24  26
ENDBRANCH  23  24
ENDBRANCH   1  23
TORSDOF 13
ENDMDL
MODEL 7
REMARK VINA RESULT:      -5.8      2.580      4.365
REMARK  Name = *****
REMARK                            x       y       z     vdW  Elec       q    Type
REMARK                         _______ _______ _______ _____ _____    ______ ____
ROOT
ATOM      1  C   LIG    1       24.234 -29.526  11.194  0.00  0.00    +0.250 C 
ATOM      2  C   LIG    1       23.215 -30.449  11.940  0.00  0.00    +0.092 C 
ATOM      3  C   LIG    1       24.101 -31.184  13.019  0.00  0.00    +0.054 C 
ATOM      4  N   LIG    1       23.512 -31.745  14.264  0.00  0.00    -0.292 NA
ATOM      5  C   LIG    1       22.284 -32.562  14.106  0.00  0.00    +0.090 C 
ATOM      6  C   LIG    1       21.197 -32.083  13.145  0.00  0.00    +0.051 C 
ATOM      7  C   LIG    1       21.013 -30.593  13.192  0.00  0.00    -0.039 A 
ATOM      8  C   LIG    1       19.932 -30.043  13.902  0.00  0.00    +0.053 A 
ATOM      9  C   LIG    1       19.829 -28.674  13.962  0.00  0.00    +0.167 A 
ATOM     10  O   LIG    1       18.880 -27.969  14.631  0.00  0.00    -0.453 OA
ATOM     11  C   LIG    1       19.306 -26.618  14.359  0.00  0.00    +0.466 C 
ATOM     12  O   LIG    1       20.459 -26.543  13.496  0.00  0.00    -0.453 OA
ATOM     13  C   LIG    1       20.728 -27.865  13.318  0.00  0.00    +0.167 A 
ATOM     14  C   LIG    1       21.790 -28.375  12.599  0.00  0.00    +0.054 A 
ATOM     15  C   LIG    1       24.561 -32.611  14.856  0.00  0.00    +0.085 C 
ATOM     16  C   LIG    1       25.500 -32.987  13.709  0.00  0.00    +0.017 C 
ATOM     17  C   LIG    1       24.831 -32.420  12.465  0.00  0.00    +0.029 C 
ATOM     18  C   LIG    1       25.071 -30.047  13.334  0.00  0.00    +0.041 C 
ATOM     19  C   LIG    1       21.986 -29.763  12.566  0.00  0.00    -0.031 A 
ATOM     20  C   LIG    1       25.136 -29.149  12.342  0.00  0.00    +0.136 C 
ENDROOT
BRANCH  20  21
ATOM     21  O   LIG    1       25.829 -27.965  12.454  0.00  0.00    -0.496 OA
ATOM     22  C   LIG    1       26.848 -27.760  11.474  0.00  0.00    +0.277 C 
ENDBRANCH  20  21
BRANCH   1  23
ATOM     23  O   LIG    1       24.889 -30.342  10.179  0.00  0.00    -0.451 OA
BRANCH  23  24
ATOM     24  C   LIG    1       24.209 -30.674   9.055  0.00  0.00    +0.340 C 
ATOM     25  O   LIG    1       22.994 -30.591   8.918  0.00  0.00    -0.248 OA
BRANCH  24  26
ATOM     26  C   LIG    1       25.131 -31.144   7.888  0.00  0.00    +0.172 C 
BRANCH  26  27
ATOM     27  O   LIG    1       24.575 -32.397   7.403  0.00  0.00    -0.377 OA
ATOM     28  H   LIG    1       24.534 -32.328   6.427  0.00  0.00    +0.211 HD
ENDBRANCH  26  27
BRANCH  26  29
ATOM     29  C   LIG    1       26.536 -31.512   8.349  0.00  0.00    +0.166 C 
BRANCH  29  30
ATOM     30  C   LIG    1       26.775 -32.950   8.614  0.00  0.00    +0.310 C 
ATOM     31  O   LIG    1       26.706 -33.467   9.735  0.00  0.00    -0.251 OA
BRANCH  30  33
ATOM     32  C   LIG    1       27.998 -33.050   6.567  0.00  0.00    +0.280 C 
ATOM     33  O   LIG    1       27.007 -33.623   7.475  0.00  0.00    -0.468 OA
ENDBRANCH  30  33
ENDBRANCH  29  30
ENDBRANCH  26  29
BRANCH  26  34
ATOM     34  C   LIG    1       25.064 -30.169   6.694  0.00  0.00    +0.047 C 
BRANCH  34  35
ATOM     35  C   LIG    1       24.629 -28.736   7.060  0.00  0.00    +0.006 C 
BRANCH  35  36
ATOM     36  C   LIG    1       25.846 -27.824   7.278  0.00  0.00    +0.034 C 
BRANCH  36  37
ATOM     37  C   LIG    1       26.023 -26.720   6.210  0.00  0.00    +0.060 C 
ATOM     38  C   LIG    1       25.799 -25.316   6.783  0.00  0.00    +0.041 C 
ATOM     39  C   LIG    1       25.047 -26.950   5.051  0.00  0.00    +0.041 C 
BRANCH  37  40
ATOM     40  O   LIG    1       27.335 -26.812   5.651  0.00  0.00    -0.389 OA
ATOM     41  H   LIG    1       27.882 -27.387   6.215  0.00  0.00    +0.210 HD
ENDBRANCH  37  40
ENDBRANCH  36  37
ENDBRANCH  35  36
ENDBRANCH  34  35
ENDBRANCH  26  34
ENDBRANCH  24  26
ENDBRANCH  23  24
ENDBRANCH   1  23
TORSDOF 13
ENDMDL
MODEL 8
REMARK VINA RESULT:      -5.4      2.494      5.352
REMARK  Name = *****
REMARK                            x       y       z     vdW  Elec       q    Type
REMARK                         _______ _______ _______ _____ _____    ______ ____
ROOT
ATOM      1  C   LIG    1       25.533 -29.237   9.895  0.00  0.00    +0.250 C 
ATOM      2  C   LIG    1       24.265 -30.071  10.272  0.00  0.00    +0.092 C 
ATOM      3  C   LIG    1       24.831 -31.526  10.501  0.00  0.00    +0.054 C 
ATOM      4  N   LIG    1       24.122 -32.516  11.354  0.00  0.00    -0.292 NA
ATOM      5  C   LIG    1       22.664 -32.666  11.124  0.00  0.00    +0.090 C 
ATOM      6  C   LIG    1       21.817 -31.413  10.907  0.00  0.00    +0.051 C 
ATOM      7  C   LIG    1       22.245 -30.278  11.794  0.00  0.00    -0.039 A 
ATOM      8  C   LIG    1       21.505 -29.975  12.950  0.00  0.00    +0.053 A 
ATOM      9  C   LIG    1       21.960 -28.962  13.760  0.00  0.00    +0.167 A 
ATOM     10  O   LIG    1       21.400 -28.559  14.931  0.00  0.00    -0.453 OA
ATOM     11  C   LIG    1       22.317 -27.516  15.322  0.00  0.00    +0.466 C 
ATOM     12  O   LIG    1       23.366 -27.284  14.360  0.00  0.00    -0.453 OA
ATOM     13  C   LIG    1       23.077 -28.240  13.435  0.00  0.00    +0.167 A 
ATOM     14  C   LIG    1       23.815 -28.501  12.299  0.00  0.00    +0.054 A 
ATOM     15  C   LIG    1       24.763 -33.825  11.078  0.00  0.00    +0.085 C 
ATOM     16  C   LIG    1       25.423 -33.694   9.705  0.00  0.00    +0.017 C 
ATOM     17  C   LIG    1       24.982 -32.329   9.197  0.00  0.00    +0.029 C 
ATOM     18  C   LIG    1       26.186 -31.155  11.099  0.00  0.00    +0.041 C 
ATOM     19  C   LIG    1       23.439 -29.573  11.475  0.00  0.00    -0.031 A 
ATOM     20  C   LIG    1       26.560 -29.911  10.770  0.00  0.00    +0.136 C 
ENDROOT
BRANCH  20  21
ATOM     21  O   LIG    1       27.672 -29.303  11.306  0.00  0.00    -0.496 OA
ATOM     22  C   LIG    1       27.403 -28.245  12.228  0.00  0.00    +0.277 C 
ENDBRANCH  20  21
BRANCH   1  23
ATOM     23  O   LIG    1       25.764 -29.430   8.468  0.00  0.00    -0.451 OA
BRANCH  23  24
ATOM     24  C   LIG    1       24.782 -29.111   7.589  0.00  0.00    +0.340 C 
ATOM     25  O   LIG    1       23.630 -29.523   7.644  0.00  0.00    -0.248 OA
BRANCH  24  26
ATOM     26  C   LIG    1       25.238 -28.104   6.489  0.00  0.00    +0.172 C 
BRANCH  26  27
ATOM     27  O   LIG    1       26.503 -27.547   6.939  0.00  0.00    -0.377 OA
ATOM     28  H   LIG    1       26.301 -26.975   7.707  0.00  0.00    +0.211 HD
ENDBRANCH  26  27
BRANCH  26  29
ATOM     29  C   LIG    1       24.318 -26.895   6.369  0.00  0.00    +0.166 C 
BRANCH  29  30
ATOM     30  C   LIG    1       24.971 -25.620   5.986  0.00  0.00    +0.310 C 
ATOM     31  O   LIG    1       25.806 -25.516   5.081  0.00  0.00    -0.251 OA
BRANCH  30  33
ATOM     32  C   LIG    1       25.108 -23.289   6.478  0.00  0.00    +0.280 C 
ATOM     33  O   LIG    1       24.486 -24.592   6.703  0.00  0.00    -0.468 OA
ENDBRANCH  30  33
ENDBRANCH  29  30
ENDBRANCH  26  29
BRANCH  26  34
ATOM     34  C   LIG    1       25.549 -28.828   5.163  0.00  0.00    +0.047 C 
BRANCH  34  35
ATOM     35  C   LIG    1       24.977 -30.256   5.062  0.00  0.00    +0.006 C 
BRANCH  35  36
ATOM     36  C   LIG    1       26.065 -31.310   5.317  0.00  0.00    +0.034 C 
BRANCH  36  37
ATOM     37  C   LIG    1       25.740 -32.718   4.765  0.00  0.00    +0.060 C 
ATOM     38  C   LIG    1       25.893 -33.809   5.831  0.00  0.00    +0.041 C 
ATOM     39  C   LIG    1       26.657 -33.041   3.580  0.00  0.00    +0.041 C 
BRANCH  37  40
ATOM     40  O   LIG    1       24.407 -32.725   4.251  0.00  0.00    -0.389 OA
ATOM     41  H   LIG    1       24.344 -32.085   3.520  0.00  0.00    +0.210 HD
ENDBRANCH  37  40
ENDBRANCH  36  37
ENDBRANCH  35  36
ENDBRANCH  34  35
ENDBRANCH  26  34
ENDBRANCH  24  26
ENDBRANCH  23  24
ENDBRANCH   1  23
TORSDOF 13
ENDMDL
MODEL 9
REMARK VINA RESULT:      -5.2      3.366      6.472
REMARK  Name = *****
REMARK                            x       y       z     vdW  Elec       q    Type
REMARK                         _______ _______ _______ _____ _____    ______ ____
ROOT
ATOM      1  C   LIG    1       25.432 -28.782   8.540  0.00  0.00    +0.250 C 
ATOM      2  C   LIG    1       24.644 -30.127   8.405  0.00  0.00    +0.092 C 
ATOM      3  C   LIG    1       25.781 -31.209   8.243  0.00  0.00    +0.054 C 
ATOM      4  N   LIG    1       25.557 -32.636   8.596  0.00  0.00    -0.292 NA
ATOM      5  C   LIG    1       24.313 -33.259   8.083  0.00  0.00    +0.090 C 
ATOM      6  C   LIG    1       23.010 -32.462   8.142  0.00  0.00    +0.051 C 
ATOM      7  C   LIG    1       22.891 -31.662   9.408  0.00  0.00    -0.039 A 
ATOM      8  C   LIG    1       22.075 -32.124  10.455  0.00  0.00    +0.053 A 
ATOM      9  C   LIG    1       22.034 -31.388  11.615  0.00  0.00    +0.167 A 
ATOM     10  O   LIG    1       21.338 -31.700  12.739  0.00  0.00    -0.453 OA
ATOM     11  C   LIG    1       21.706 -30.600  13.597  0.00  0.00    +0.466 C 
ATOM     12  O   LIG    1       22.565 -29.635  12.957  0.00  0.00    -0.453 OA
ATOM     13  C   LIG    1       22.733 -30.216  11.738  0.00  0.00    +0.167 A 
ATOM     14  C   LIG    1       23.529 -29.727  10.722  0.00  0.00    +0.054 A 
ATOM     15  C   LIG    1       26.707 -33.381   8.025  0.00  0.00    +0.085 C 
ATOM     16  C   LIG    1       27.265 -32.506   6.902  0.00  0.00    +0.017 C 
ATOM     17  C   LIG    1       26.284 -31.348   6.796  0.00  0.00    +0.029 C 
ATOM     18  C   LIG    1       26.832 -30.576   9.152  0.00  0.00    +0.041 C 
ATOM     19  C   LIG    1       23.666 -30.476   9.544  0.00  0.00    -0.031 A 
ATOM     20  C   LIG    1       26.636 -29.260   9.312  0.00  0.00    +0.136 C 
ENDROOT
BRANCH  20  21
ATOM     21  O   LIG    1       27.366 -28.502  10.198  0.00  0.00    -0.496 OA
ATOM     22  C   LIG    1       27.394 -28.991  11.541  0.00  0.00    +0.277 C 
ENDBRANCH  20  21
BRANCH   1  23
ATOM     23  O   LIG    1       25.745 -28.330   7.190  0.00  0.00    -0.451 OA
BRANCH  23  24
ATOM     24  C   LIG    1       24.772 -27.754   6.443  0.00  0.00    +0.340 C 
ATOM     25  O   LIG    1       23.754 -28.317   6.058  0.00  0.00    -0.248 OA
BRANCH  24  26
ATOM     26  C   LIG    1       25.036 -26.247   6.137  0.00  0.00    +0.172 C 
BRANCH  26  27
ATOM     27  O   LIG    1       25.853 -26.208   4.936  0.00  0.00    -0.377 OA
ATOM     28  H   LIG    1       26.569 -26.864   5.060  0.00  0.00    +0.211 HD
ENDBRANCH  26  27
BRANCH  26  29
ATOM     29  C   LIG    1       25.893 -25.565   7.196  0.00  0.00    +0.166 C 
BRANCH  29  30
ATOM     30  C   LIG    1       26.194 -24.133   6.961  0.00  0.00    +0.310 C 
ATOM     31  O   LIG    1       26.568 -23.674   5.876  0.00  0.00    -0.251 OA
BRANCH  30  33
ATOM     32  C   LIG    1       26.661 -22.131   8.173  0.00  0.00    +0.280 C 
ATOM     33  O   LIG    1       25.941 -23.396   8.056  0.00  0.00    -0.468 OA
ENDBRANCH  30  33
ENDBRANCH  29  30
ENDBRANCH  26  29
BRANCH  26  34
ATOM     34  C   LIG    1       23.728 -25.513   5.775  0.00  0.00    +0.047 C 
BRANCH  34  35
ATOM     35  C   LIG    1       23.316 -24.410   6.770  0.00  0.00    +0.006 C 
BRANCH  35  36
ATOM     36  C   LIG    1       22.467 -23.330   6.082  0.00  0.00    +0.034 C 
BRANCH  36  37
ATOM     37  C   LIG    1       23.125 -21.932   6.025  0.00  0.00    +0.060 C 
ATOM     38  C   LIG    1       23.276 -21.303   7.414  0.00  0.00    +0.041 C 
ATOM     39  C   LIG    1       22.295 -20.997   5.139  0.00  0.00    +0.041 C 
BRANCH  37  40
ATOM     40  O   LIG    1       24.405 -22.041   5.399  0.00  0.00    -0.389 OA
ATOM     41  H   LIG    1       24.315 -21.838   4.451  0.00  0.00    +0.210 HD
ENDBRANCH  37  40
ENDBRANCH  36  37
ENDBRANCH  35  36
ENDBRANCH  34  35
ENDBRANCH  26  34
ENDBRANCH  24  26
ENDBRANCH  23  24
ENDBRANCH   1  23
TORSDOF 13
ENDMDL
