MODEL 1
REMARK VINA RESULT:      -6.0      0.000      0.000
REMARK  Name = *****
REMARK                            x       y       z     vdW  Elec       q    Type
REMARK                         _______ _______ _______ _____ _____    ______ ____
ROOT
ATOM      1  C   LIG    1       24.372 -20.464   5.765  0.00  0.00    -0.047 A 
ATOM      2  C   LIG    1       25.061 -20.590   6.977  0.00  0.00    +0.004 A 
ATOM      3  C   LIG    1       26.452 -20.461   7.026  0.00  0.00    +0.005 A 
ATOM      4  C   LIG    1       27.187 -20.221   5.857  0.00  0.00    -0.034 A 
ATOM      5  C   LIG    1       26.497 -20.107   4.642  0.00  0.00    +0.005 A 
ATOM      6  C   LIG    1       25.103 -20.220   4.596  0.00  0.00    +0.004 A 
ENDROOT
BRANCH   4   7
ATOM      7  C   LIG    1       28.701 -20.099   5.924  0.00  0.00    +0.124 C 
ATOM      8  C   LIG    1       29.279 -20.949   7.060  0.00  0.00    +0.024 C 
BRANCH   7   9
ATOM      9  C   LIG    1       29.177 -18.652   6.022  0.00  0.00    +0.312 C 
ATOM     10  O   LIG    1       29.475 -18.081   7.061  0.00  0.00    -0.250 OA
BRANCH   9  11
ATOM     11  O   LIG    1       29.316 -18.044   4.818  0.00  0.00    -0.480 OA
ATOM     12  H   LIG    1       30.152 -18.269   4.363  0.00  0.00    +0.295 HD
ENDBRANCH   9  11
ENDBRANCH   7   9
ENDBRANCH   4   7
BRANCH   1  13
ATOM     13  C   LIG    1       22.864 -20.565   5.731  0.00  0.00    +0.038 C 
BRANCH  13  15
ATOM     14  C   LIG    1       20.796 -20.538   4.297  0.00  0.00    +0.007 C 
ATOM     15  C   LIG    1       22.210 -19.972   4.465  0.00  0.00    -0.013 C 
ATOM     16  C   LIG    1       22.136 -18.443   4.495  0.00  0.00    +0.007 C 
ENDBRANCH  13  15
ENDBRANCH   1  13
TORSDOF 5
ENDMDL
MODEL 2
REMARK VINA RESULT:      -5.3      4.044      5.237
REMARK  Name = *****
REMARK                            x       y       z     vdW  Elec       q    Type
REMARK                         _______ _______ _______ _____ _____    ______ ____
ROOT
ATOM      1  C   LIG    1       24.400 -17.809   3.691  0.00  0.00    -0.047 A 
ATOM      2  C   LIG    1       23.550 -16.776   4.104  0.00  0.00    +0.004 A 
ATOM      3  C   LIG    1       23.994 -15.451   4.133  0.00  0.00    +0.005 A 
ATOM      4  C   LIG    1       25.309 -15.133   3.768  0.00  0.00    -0.034 A 
ATOM      5  C   LIG    1       26.164 -16.169   3.365  0.00  0.00    +0.005 A 
ATOM      6  C   LIG    1       25.713 -17.493   3.321  0.00  0.00    +0.004 A 
ENDROOT
BRANCH   4   7
ATOM      7  C   LIG    1       25.783 -13.689   3.821  0.00  0.00    +0.124 C 
ATOM      8  C   LIG    1       25.847 -13.073   2.420  0.00  0.00    +0.024 C 
BRANCH   7   9
ATOM      9  C   LIG    1       27.111 -13.526   4.556  0.00  0.00    +0.312 C 
ATOM     10  O   LIG    1       28.204 -13.441   4.017  0.00  0.00    -0.250 OA
BRANCH   9  11
ATOM     11  O   LIG    1       26.976 -13.407   5.900  0.00  0.00    -0.480 OA
ATOM     12  H   LIG    1       26.291 -12.761   6.167  0.00  0.00    +0.295 HD
ENDBRANCH   9  11
ENDBRANCH   7   9
ENDBRANCH   4   7
BRANCH   1  13
ATOM     13  C   LIG    1       23.896 -19.233   3.625  0.00  0.00    +0.038 C 
BRANCH  13  15
ATOM     14  C   LIG    1       22.799 -20.054   5.735  0.00  0.00    +0.007 C 
ATOM     15  C   LIG    1       24.098 -20.045   4.921  0.00  0.00    -0.013 C 
ATOM     16  C   LIG    1       24.531 -21.490   4.657  0.00  0.00    +0.007 C 
ENDBRANCH  13  15
ENDBRANCH   1  13
TORSDOF 5
ENDMDL
MODEL 3
REMARK VINA RESULT:      -5.2      4.552      5.766
REMARK  Name = *****
REMARK                            x       y       z     vdW  Elec       q    Type
REMARK                         _______ _______ _______ _____ _____    ______ ____
ROOT
ATOM      1  C   LIG    1       24.423 -17.925   3.678  0.00  0.00    -0.047 A 
ATOM      2  C   LIG    1       25.697 -17.500   3.284  0.00  0.00    +0.004 A 
ATOM      3  C   LIG    1       26.052 -16.150   3.343  0.00  0.00    +0.005 A 
ATOM      4  C   LIG    1       25.131 -15.190   3.782  0.00  0.00    -0.034 A 
ATOM      5  C   LIG    1       23.851 -15.614   4.166  0.00  0.00    +0.005 A 
ATOM      6  C   LIG    1       23.502 -16.969   4.122  0.00  0.00    +0.004 A 
ENDROOT
BRANCH   4   7
ATOM      7  C   LIG    1       25.526 -13.722   3.825  0.00  0.00    +0.124 C 
ATOM      8  C   LIG    1       26.360 -13.407   5.071  0.00  0.00    +0.024 C 
BRANCH   7   9
ATOM      9  C   LIG    1       24.329 -12.780   3.711  0.00  0.00    +0.312 C 
ATOM     10  O   LIG    1       23.890 -12.093   4.620  0.00  0.00    -0.250 OA
BRANCH   9  11
ATOM     11  O   LIG    1       23.813 -12.709   2.459  0.00  0.00    -0.480 OA
ATOM     12  H   LIG    1       24.357 -13.167   1.787  0.00  0.00    +0.295 HD
ENDBRANCH   9  11
ENDBRANCH   7   9
ENDBRANCH   4   7
BRANCH   1  13
ATOM     13  C   LIG    1       24.065 -19.393   3.648  0.00  0.00    +0.038 C 
BRANCH  13  15
ATOM     14  C   LIG    1       22.644 -20.271   5.529  0.00  0.00    +0.007 C 
ATOM     15  C   LIG    1       24.079 -20.085   5.028  0.00  0.00    -0.013 C 
ATOM     16  C   LIG    1       24.781 -21.446   5.005  0.00  0.00    +0.007 C 
ENDBRANCH  13  15
ENDBRANCH   1  13
TORSDOF 5
ENDMDL
MODEL 4
REMARK VINA RESULT:      -5.2      3.934      5.279
REMARK  Name = *****
REMARK                            x       y       z     vdW  Elec       q    Type
REMARK                         _______ _______ _______ _____ _____    ______ ____
ROOT
ATOM      1  C   LIG    1       24.248 -18.014   3.814  0.00  0.00    -0.047 A 
ATOM      2  C   LIG    1       25.537 -17.665   3.395  0.00  0.00    +0.004 A 
ATOM      3  C   LIG    1       25.952 -16.330   3.390  0.00  0.00    +0.005 A 
ATOM      4  C   LIG    1       25.076 -15.311   3.787  0.00  0.00    -0.034 A 
ATOM      5  C   LIG    1       23.781 -15.660   4.195  0.00  0.00    +0.005 A 
ATOM      6  C   LIG    1       23.372 -16.998   4.216  0.00  0.00    +0.004 A 
ENDROOT
BRANCH   4   7
ATOM      7  C   LIG    1       25.536 -13.862   3.761  0.00  0.00    +0.124 C 
ATOM      8  C   LIG    1       24.503 -12.962   3.075  0.00  0.00    +0.024 C 
BRANCH   7   9
ATOM      9  C   LIG    1       26.919 -13.688   3.136  0.00  0.00    +0.312 C 
ATOM     10  O   LIG    1       27.930 -13.382   3.750  0.00  0.00    -0.250 OA
BRANCH   9  11
ATOM     11  O   LIG    1       26.956 -13.977   1.812  0.00  0.00    -0.480 OA
ATOM     12  H   LIG    1       26.299 -13.478   1.286  0.00  0.00    +0.295 HD
ENDBRANCH   9  11
ENDBRANCH   7   9
ENDBRANCH   4   7
BRANCH   1  13
ATOM     13  C   LIG    1       23.825 -19.465   3.854  0.00  0.00    +0.038 C 
BRANCH  13  15
ATOM     14  C   LIG    1       22.086 -20.891   4.982  0.00  0.00    +0.007 C 
ATOM     15  C   LIG    1       23.257 -19.929   5.211  0.00  0.00    -0.013 C 
ATOM     16  C   LIG    1       24.305 -20.619   6.091  0.00  0.00    +0.007 C 
ENDBRANCH  13  15
ENDBRANCH   1  13
TORSDOF 5
ENDMDL
MODEL 5
REMARK VINA RESULT:      -5.1      3.773      5.741
REMARK  Name = *****
REMARK                            x       y       z     vdW  Elec       q    Type
REMARK                         _______ _______ _______ _____ _____    ______ ____
ROOT
ATOM      1  C   LIG    1       23.466 -16.225   4.164  0.00  0.00    -0.047 A 
ATOM      2  C   LIG    1       22.331 -16.857   4.685  0.00  0.00    +0.004 A 
ATOM      3  C   LIG    1       22.267 -18.250   4.780  0.00  0.00    +0.005 A 
ATOM      4  C   LIG    1       23.333 -19.044   4.337  0.00  0.00    -0.034 A 
ATOM      5  C   LIG    1       24.466 -18.411   3.805  0.00  0.00    +0.005 A 
ATOM      6  C   LIG    1       24.535 -17.015   3.726  0.00  0.00    +0.004 A 
ENDROOT
BRANCH   4   7
ATOM      7  C   LIG    1       23.242 -20.559   4.431  0.00  0.00    +0.124 C 
ATOM      8  C   LIG    1       21.817 -21.012   4.762  0.00  0.00    +0.024 C 
BRANCH   7   9
ATOM      9  C   LIG    1       24.251 -21.155   5.411  0.00  0.00    +0.312 C 
ATOM     10  O   LIG    1       24.055 -21.317   6.606  0.00  0.00    -0.250 OA
BRANCH   9  11
ATOM     11  O   LIG    1       25.399 -21.571   4.821  0.00  0.00    -0.480 OA
ATOM     12  H   LIG    1       26.206 -21.232   5.258  0.00  0.00    +0.295 HD
ENDBRANCH   9  11
ENDBRANCH   7   9
ENDBRANCH   4   7
BRANCH   1  13
ATOM     13  C   LIG    1       23.540 -14.716   4.105  0.00  0.00    +0.038 C 
BRANCH  13  15
ATOM     14  C   LIG    1       24.629 -13.035   2.582  0.00  0.00    +0.007 C 
ATOM     15  C   LIG    1       24.884 -14.160   3.590  0.00  0.00    -0.013 C 
ATOM     16  C   LIG    1       25.779 -13.630   4.714  0.00  0.00    +0.007 C 
ENDBRANCH  13  15
ENDBRANCH   1  13
TORSDOF 5
ENDMDL
MODEL 6
REMARK VINA RESULT:      -5.1      4.147      6.336
REMARK  Name = *****
REMARK                            x       y       z     vdW  Elec       q    Type
REMARK                         _______ _______ _______ _____ _____    ______ ____
ROOT
ATOM      1  C   LIG    1       25.825 -15.727   3.398  0.00  0.00    -0.047 A 
ATOM      2  C   LIG    1       26.422 -16.978   3.210  0.00  0.00    +0.004 A 
ATOM      3  C   LIG    1       25.696 -18.156   3.410  0.00  0.00    +0.005 A 
ATOM      4  C   LIG    1       24.357 -18.106   3.822  0.00  0.00    -0.034 A 
ATOM      5  C   LIG    1       23.762 -16.851   4.021  0.00  0.00    +0.005 A 
ATOM      6  C   LIG    1       24.486 -15.673   3.805  0.00  0.00    +0.004 A 
ENDROOT
BRANCH   4   7
ATOM      7  C   LIG    1       23.585 -19.395   4.051  0.00  0.00    +0.124 C 
ATOM      8  C   LIG    1       22.211 -19.118   4.670  0.00  0.00    +0.024 C 
BRANCH   7   9
ATOM      9  C   LIG    1       24.365 -20.417   4.875  0.00  0.00    +0.312 C 
ATOM     10  O   LIG    1       24.545 -20.353   6.082  0.00  0.00    -0.250 OA
BRANCH   9  11
ATOM     11  O   LIG    1       24.800 -21.479   4.152  0.00  0.00    -0.480 OA
ATOM     12  H   LIG    1       25.590 -21.283   3.610  0.00  0.00    +0.295 HD
ENDBRANCH   9  11
ENDBRANCH   7   9
ENDBRANCH   4   7
BRANCH   1  13
ATOM     13  C   LIG    1       26.609 -14.460   3.139  0.00  0.00    +0.038 C 
BRANCH  13  15
ATOM     14  C   LIG    1       28.615 -13.067   3.742  0.00  0.00    +0.007 C 
ATOM     15  C   LIG    1       27.580 -14.065   4.271  0.00  0.00    -0.013 C 
ATOM     16  C   LIG    1       26.867 -13.451   5.480  0.00  0.00    +0.007 C 
ENDBRANCH  13  15
ENDBRANCH   1  13
TORSDOF 5
ENDMDL
MODEL 7
REMARK VINA RESULT:      -5.1      4.508      6.170
REMARK  Name = *****
REMARK                            x       y       z     vdW  Elec       q    Type
REMARK                         _______ _______ _______ _____ _____    ______ ____
ROOT
ATOM      1  C   LIG    1       24.954 -14.887   3.736  0.00  0.00    -0.047 A 
ATOM      2  C   LIG    1       23.706 -15.329   4.190  0.00  0.00    +0.004 A 
ATOM      3  C   LIG    1       23.403 -16.692   4.239  0.00  0.00    +0.005 A 
ATOM      4  C   LIG    1       24.339 -17.645   3.815  0.00  0.00    -0.034 A 
ATOM      5  C   LIG    1       25.585 -17.201   3.349  0.00  0.00    +0.005 A 
ATOM      6  C   LIG    1       25.893 -15.836   3.316  0.00  0.00    +0.004 A 
ENDROOT
BRANCH   4   7
ATOM      7  C   LIG    1       23.990 -19.124   3.859  0.00  0.00    +0.124 C 
ATOM      8  C   LIG    1       22.576 -19.347   4.406  0.00  0.00    +0.024 C 
BRANCH   7   9
ATOM      9  C   LIG    1       25.015 -19.955   4.628  0.00  0.00    +0.312 C 
ATOM     10  O   LIG    1       24.863 -20.379   5.763  0.00  0.00    -0.250 OA
BRANCH   9  11
ATOM     11  O   LIG    1       26.121 -20.257   3.903  0.00  0.00    -0.480 OA
ATOM     12  H   LIG    1       26.014 -20.098   2.944  0.00  0.00    +0.295 HD
ENDBRANCH   9  11
ENDBRANCH   7   9
ENDBRANCH   4   7
BRANCH   1  13
ATOM     13  C   LIG    1       25.284 -13.411   3.726  0.00  0.00    +0.038 C 
BRANCH  13  15
ATOM     14  C   LIG    1       23.714 -11.579   4.440  0.00  0.00    +0.007 C 
ATOM     15  C   LIG    1       24.122 -12.498   3.283  0.00  0.00    -0.013 C 
ATOM     16  C   LIG    1       24.470 -11.640   2.063  0.00  0.00    +0.007 C 
ENDBRANCH  13  15
ENDBRANCH   1  13
TORSDOF 5
ENDMDL
MODEL 8
REMARK VINA RESULT:      -4.9      3.041      6.218
REMARK  Name = *****
REMARK                            x       y       z     vdW  Elec       q    Type
REMARK                         _______ _______ _______ _____ _____    ______ ____
ROOT
ATOM      1  C   LIG    1       26.357 -20.098   5.075  0.00  0.00    -0.047 A 
ATOM      2  C   LIG    1       25.695 -19.434   4.036  0.00  0.00    +0.004 A 
ATOM      3  C   LIG    1       24.301 -19.335   4.023  0.00  0.00    +0.005 A 
ATOM      4  C   LIG    1       23.536 -19.916   5.043  0.00  0.00    -0.034 A 
ATOM      5  C   LIG    1       24.200 -20.591   6.079  0.00  0.00    +0.005 A 
ATOM      6  C   LIG    1       25.597 -20.675   6.099  0.00  0.00    +0.004 A 
ENDROOT
BRANCH   4   7
ATOM      7  C   LIG    1       22.020 -19.814   5.008  0.00  0.00    +0.124 C 
ATOM      8  C   LIG    1       21.390 -21.084   4.428  0.00  0.00    +0.024 C 
BRANCH   7   9
ATOM      9  C   LIG    1       21.525 -18.569   4.274  0.00  0.00    +0.312 C 
ATOM     10  O   LIG    1       20.657 -18.562   3.414  0.00  0.00    -0.250 OA
BRANCH   9  11
ATOM     11  O   LIG    1       22.092 -17.419   4.714  0.00  0.00    -0.480 OA
ATOM     12  H   LIG    1       22.844 -17.121   4.163  0.00  0.00    +0.295 HD
ENDBRANCH   9  11
ENDBRANCH   7   9
ENDBRANCH   4   7
BRANCH   1  13
ATOM     13  C   LIG    1       27.868 -20.163   5.099  0.00  0.00    +0.038 C 
BRANCH  13  15
ATOM     14  C   LIG    1       29.255 -20.909   7.062  0.00  0.00    +0.007 C 
ATOM     15  C   LIG    1       28.507 -19.728   6.435  0.00  0.00    -0.013 C 
ATOM     16  C   LIG    1       29.475 -18.551   6.277  0.00  0.00    +0.007 C 
ENDBRANCH  13  15
ENDBRANCH   1  13
TORSDOF 5
ENDMDL
MODEL 9
REMARK VINA RESULT:      -4.6      4.209      6.268
REMARK  Name = *****
REMARK                            x       y       z     vdW  Elec       q    Type
REMARK                         _______ _______ _______ _____ _____    ______ ____
ROOT
ATOM      1  C   LIG    1       25.199 -14.872   3.623  0.00  0.00    -0.047 A 
ATOM      2  C   LIG    1       23.926 -15.191   4.110  0.00  0.00    +0.004 A 
ATOM      3  C   LIG    1       23.509 -16.521   4.206  0.00  0.00    +0.005 A 
ATOM      4  C   LIG    1       24.352 -17.563   3.797  0.00  0.00    -0.034 A 
ATOM      5  C   LIG    1       25.623 -17.242   3.299  0.00  0.00    +0.005 A 
ATOM      6  C   LIG    1       26.046 -15.910   3.219  0.00  0.00    +0.004 A 
ENDROOT
BRANCH   4   7
ATOM      7  C   LIG    1       23.879 -19.005   3.892  0.00  0.00    +0.124 C 
ATOM      8  C   LIG    1       22.493 -19.094   4.540  0.00  0.00    +0.024 C 
BRANCH   7   9
ATOM      9  C   LIG    1       24.879 -19.914   4.603  0.00  0.00    +0.312 C 
ATOM     10  O   LIG    1       24.763 -20.322   5.749  0.00  0.00    -0.250 OA
BRANCH   9  11
ATOM     11  O   LIG    1       25.911 -20.306   3.815  0.00  0.00    -0.480 OA
ATOM     12  H   LIG    1       25.643 -20.510   2.897  0.00  0.00    +0.295 HD
ENDBRANCH   9  11
ENDBRANCH   7   9
ENDBRANCH   4   7
BRANCH   1  13
ATOM     13  C   LIG    1       25.654 -13.431   3.562  0.00  0.00    +0.038 C 
BRANCH  13  15
ATOM     14  C   LIG    1       26.811 -13.757   5.773  0.00  0.00    +0.007 C 
ATOM     15  C   LIG    1       26.926 -13.126   4.381  0.00  0.00    -0.013 C 
ATOM     16  C   LIG    1       28.204 -13.633   3.707  0.00  0.00    +0.007 C 
ENDBRANCH  13  15
ENDBRANCH   1  13
TORSDOF 5
ENDMDL
