MODEL 1
REMARK VINA RESULT:      -0.8      0.000      0.000
REMARK  Name = *****
REMARK                            x       y       z     vdW  Elec       q    Type
REMARK                         _______ _______ _______ _____ _____    ______ ____
ROOT
ATOM      1  C   LIG    1       25.216 -15.030   4.489  0.00  0.00    +0.117 C 
ENDROOT
BRANCH   1   6
ATOM      2  C   LIG    1       29.460 -12.723   3.635  0.00  0.00    +0.105 C 
ATOM      3  N   LIG    1       28.065 -12.582   4.048  0.00  0.00    -0.303 NA
ATOM      4  C   LIG    1       27.148 -13.015   2.979  0.00  0.00    +0.099 C 
ATOM      5  C   LIG    1       26.996 -14.548   2.835  0.00  0.00    +0.100 C 
ATOM      6  N   LIG    1       26.638 -15.273   4.086  0.00  0.00    -0.289 NA
ATOM      7  C   LIG    1       27.623 -14.860   5.114  0.00  0.00    +0.100 C 
ATOM      8  C   LIG    1       27.787 -13.331   5.289  0.00  0.00    +0.099 C 
ENDBRANCH   1   6
BRANCH   1   9
ATOM      9  C   LIG    1       24.304 -16.257   4.309  0.00  0.00    -0.026 A 
ATOM     10  C   LIG    1       24.794 -17.487   3.831  0.00  0.00    +0.007 A 
ATOM     11  C   LIG    1       23.945 -18.595   3.713  0.00  0.00    +0.020 A 
ATOM     12  C   LIG    1       22.605 -18.488   4.068  0.00  0.00    +0.041 A 
ATOM     13 CL   LIG    1       21.568 -19.856   3.941  0.00  0.00    -0.084 Cl
ATOM     14  C   LIG    1       22.094 -17.278   4.535  0.00  0.00    +0.020 A 
ATOM     15  C   LIG    1       22.941 -16.171   4.648  0.00  0.00    +0.007 A 
ENDBRANCH   1   9
BRANCH   1  16
ATOM     16  C   LIG    1       24.599 -13.795   3.806  0.00  0.00    -0.026 A 
ATOM     17  C   LIG    1       24.326 -13.758   2.426  0.00  0.00    +0.005 A 
ATOM     18  C   LIG    1       23.875 -12.589   1.812  0.00  0.00    +0.000 A 
ATOM     19  C   LIG    1       23.643 -11.448   2.574  0.00  0.00    +0.000 A 
ATOM     20  C   LIG    1       23.853 -11.478   3.951  0.00  0.00    +0.000 A 
ATOM     21  C   LIG    1       24.328 -12.641   4.564  0.00  0.00    +0.005 A 
ENDBRANCH   1  16
TORSDOF 3
ENDMDL
MODEL 2
REMARK VINA RESULT:      -0.8      4.082      7.654
REMARK  Name = *****
REMARK                            x       y       z     vdW  Elec       q    Type
REMARK                         _______ _______ _______ _____ _____    ______ ____
ROOT
ATOM      1  C   LIG    1       25.770 -19.094   4.912  0.00  0.00    +0.117 C 
ENDROOT
BRANCH   1   6
ATOM      2  C   LIG    1       21.535 -21.529   4.466  0.00  0.00    +0.105 C 
ATOM      3  N   LIG    1       22.314 -20.588   5.269  0.00  0.00    -0.303 NA
ATOM      4  C   LIG    1       23.559 -21.208   5.756  0.00  0.00    +0.099 C 
ATOM      5  C   LIG    1       24.687 -21.312   4.703  0.00  0.00    +0.100 C 
ATOM      6  N   LIG    1       25.035 -20.039   4.013  0.00  0.00    -0.289 NA
ATOM      7  C   LIG    1       23.766 -19.484   3.482  0.00  0.00    +0.100 C 
ATOM      8  C   LIG    1       22.621 -19.356   4.516  0.00  0.00    +0.099 C 
ENDBRANCH   1   6
BRANCH   1   9
ATOM      9  C   LIG    1       26.079 -17.734   4.260  0.00  0.00    -0.026 A 
ATOM     10  C   LIG    1       25.070 -16.931   3.696  0.00  0.00    +0.007 A 
ATOM     11  C   LIG    1       25.380 -15.683   3.142  0.00  0.00    +0.020 A 
ATOM     12  C   LIG    1       26.693 -15.224   3.145  0.00  0.00    +0.041 A 
ATOM     13 CL   LIG    1       27.068 -13.680   2.481  0.00  0.00    -0.084 Cl
ATOM     14  C   LIG    1       27.711 -16.005   3.690  0.00  0.00    +0.020 A 
ATOM     15  C   LIG    1       27.401 -17.254   4.238  0.00  0.00    +0.007 A 
ENDBRANCH   1   9
BRANCH   1  16
ATOM     16  C   LIG    1       27.049 -19.707   5.514  0.00  0.00    -0.026 A 
ATOM     17  C   LIG    1       27.008 -20.761   6.445  0.00  0.00    +0.005 A 
ATOM     18  C   LIG    1       28.172 -21.222   7.062  0.00  0.00    +0.000 A 
ATOM     19  C   LIG    1       29.404 -20.668   6.725  0.00  0.00    +0.000 A 
ATOM     20  C   LIG    1       29.474 -19.660   5.765  0.00  0.00    +0.000 A 
ATOM     21  C   LIG    1       28.306 -19.182   5.164  0.00  0.00    +0.005 A 
ENDBRANCH   1  16
TORSDOF 3
ENDMDL
MODEL 3
REMARK VINA RESULT:      -0.4      2.031      4.005
REMARK  Name = *****
REMARK                            x       y       z     vdW  Elec       q    Type
REMARK                         _______ _______ _______ _____ _____    ______ ____
ROOT
ATOM      1  C   LIG    1       26.449 -15.303   2.936  0.00  0.00    +0.117 C 
ENDROOT
BRANCH   1   6
ATOM      2  C   LIG    1       23.465 -11.464   3.589  0.00  0.00    +0.105 C 
ATOM      3  N   LIG    1       24.808 -12.004   3.793  0.00  0.00    -0.303 NA
ATOM      4  C   LIG    1       24.772 -13.212   4.636  0.00  0.00    +0.099 C 
ATOM      5  C   LIG    1       24.317 -14.499   3.908  0.00  0.00    +0.100 C 
ATOM      6  N   LIG    1       25.059 -14.821   2.657  0.00  0.00    -0.289 NA
ATOM      7  C   LIG    1       25.013 -13.604   1.812  0.00  0.00    +0.100 C 
ATOM      8  C   LIG    1       25.475 -12.301   2.509  0.00  0.00    +0.099 C 
ENDBRANCH   1   6
BRANCH   1   9
ATOM      9  C   LIG    1       26.504 -16.729   3.512  0.00  0.00    -0.026 A 
ATOM     10  C   LIG    1       27.605 -17.191   4.257  0.00  0.00    +0.007 A 
ATOM     11  C   LIG    1       27.608 -18.483   4.798  0.00  0.00    +0.020 A 
ATOM     12  C   LIG    1       26.518 -19.325   4.601  0.00  0.00    +0.041 A 
ATOM     13 CL   LIG    1       26.516 -20.905   5.283  0.00  0.00    -0.084 Cl
ATOM     14  C   LIG    1       25.420 -18.892   3.859  0.00  0.00    +0.020 A 
ATOM     15  C   LIG    1       25.420 -17.604   3.315  0.00  0.00    +0.007 A 
ENDBRANCH   1   9
BRANCH   1  16
ATOM     16  C   LIG    1       27.259 -14.333   3.817  0.00  0.00    -0.026 A 
ATOM     17  C   LIG    1       27.005 -14.181   5.193  0.00  0.00    +0.005 A 
ATOM     18  C   LIG    1       27.673 -13.214   5.946  0.00  0.00    +0.000 A 
ATOM     19  C   LIG    1       28.640 -12.412   5.347  0.00  0.00    +0.000 A 
ATOM     20  C   LIG    1       28.947 -12.583   3.998  0.00  0.00    +0.000 A 
ATOM     21  C   LIG    1       28.262 -13.535   3.238  0.00  0.00    +0.005 A 
ENDBRANCH   1  16
TORSDOF 3
ENDMDL
MODEL 4
REMARK VINA RESULT:       0.3      3.472      6.955
REMARK  Name = *****
REMARK                            x       y       z     vdW  Elec       q    Type
REMARK                         _______ _______ _______ _____ _____    ______ ____
ROOT
ATOM      1  C   LIG    1       25.210 -18.033   4.311  0.00  0.00    +0.117 C 
ENDROOT
BRANCH   1   6
ATOM      2  C   LIG    1       21.696 -21.452   4.129  0.00  0.00    +0.105 C 
ATOM      3  N   LIG    1       22.436 -20.517   4.975  0.00  0.00    -0.303 NA
ATOM      4  C   LIG    1       23.875 -20.833   4.983  0.00  0.00    +0.099 C 
ATOM      5  C   LIG    1       24.648 -20.374   3.724  0.00  0.00    +0.100 C 
ATOM      6  N   LIG    1       24.484 -18.938   3.363  0.00  0.00    -0.289 NA
ATOM      7  C   LIG    1       23.025 -18.681   3.301  0.00  0.00    +0.100 C 
ATOM      8  C   LIG    1       22.226 -19.118   4.553  0.00  0.00    +0.099 C 
ENDBRANCH   1   6
BRANCH   1   9
ATOM      9  C   LIG    1       25.328 -16.582   3.811  0.00  0.00    -0.026 A 
ATOM     10  C   LIG    1       26.374 -16.167   2.966  0.00  0.00    +0.007 A 
ATOM     11  C   LIG    1       26.432 -14.847   2.501  0.00  0.00    +0.020 A 
ATOM     12  C   LIG    1       25.453 -13.932   2.871  0.00  0.00    +0.041 A 
ATOM     13 CL   LIG    1       25.515 -12.316   2.282  0.00  0.00    -0.084 Cl
ATOM     14  C   LIG    1       24.412 -14.318   3.715  0.00  0.00    +0.020 A 
ATOM     15  C   LIG    1       24.357 -15.634   4.183  0.00  0.00    +0.007 A 
ENDBRANCH   1   9
BRANCH   1  16
ATOM     16  C   LIG    1       26.591 -18.576   4.723  0.00  0.00    -0.026 A 
ATOM     17  C   LIG    1       26.747 -19.819   5.364  0.00  0.00    +0.005 A 
ATOM     18  C   LIG    1       27.994 -20.237   5.831  0.00  0.00    +0.000 A 
ATOM     19  C   LIG    1       29.117 -19.441   5.623  0.00  0.00    +0.000 A 
ATOM     20  C   LIG    1       28.995 -18.232   4.942  0.00  0.00    +0.000 A 
ATOM     21  C   LIG    1       27.743 -17.802   4.495  0.00  0.00    +0.005 A 
ENDBRANCH   1  16
TORSDOF 3
ENDMDL
MODEL 5
REMARK VINA RESULT:       0.7      2.141      4.558
REMARK  Name = *****
REMARK                            x       y       z     vdW  Elec       q    Type
REMARK                         _______ _______ _______ _____ _____    ______ ____
ROOT
ATOM      1  C   LIG    1       26.049 -17.021   3.720  0.00  0.00    +0.117 C 
ENDROOT
BRANCH   1   6
ATOM      2  C   LIG    1       26.099 -12.306   2.367  0.00  0.00    +0.105 C 
ATOM      3  N   LIG    1       26.125 -13.697   1.917  0.00  0.00    -0.303 NA
ATOM      4  C   LIG    1       27.307 -14.403   2.442  0.00  0.00    +0.099 C 
ATOM      5  C   LIG    1       27.200 -14.837   3.923  0.00  0.00    +0.100 C 
ATOM      6  N   LIG    1       25.986 -15.629   4.269  0.00  0.00    -0.289 NA
ATOM      7  C   LIG    1       24.821 -14.853   3.784  0.00  0.00    +0.100 C 
ATOM      8  C   LIG    1       24.893 -14.415   2.301  0.00  0.00    +0.099 C 
ENDBRANCH   1   6
BRANCH   1   9
ATOM      9  C   LIG    1       24.702 -17.765   3.767  0.00  0.00    -0.026 A 
ATOM     10  C   LIG    1       24.572 -19.101   3.345  0.00  0.00    +0.007 A 
ATOM     11  C   LIG    1       23.338 -19.759   3.435  0.00  0.00    +0.020 A 
ATOM     12  C   LIG    1       22.227 -19.095   3.942  0.00  0.00    +0.041 A 
ATOM     13 CL   LIG    1       20.718 -19.912   4.069  0.00  0.00    -0.084 Cl
ATOM     14  C   LIG    1       22.329 -17.768   4.357  0.00  0.00    +0.020 A 
ATOM     15  C   LIG    1       23.559 -17.109   4.263  0.00  0.00    +0.007 A 
ENDBRANCH   1   9
BRANCH   1  16
ATOM     16  C   LIG    1       27.159 -17.874   4.362  0.00  0.00    -0.026 A 
ATOM     17  C   LIG    1       26.936 -19.197   4.787  0.00  0.00    +0.005 A 
ATOM     18  C   LIG    1       27.923 -19.909   5.470  0.00  0.00    +0.000 A 
ATOM     19  C   LIG    1       29.167 -19.328   5.700  0.00  0.00    +0.000 A 
ATOM     20  C   LIG    1       29.427 -18.039   5.240  0.00  0.00    +0.000 A 
ATOM     21  C   LIG    1       28.432 -17.317   4.576  0.00  0.00    +0.005 A 
ENDBRANCH   1  16
TORSDOF 3
ENDMDL
MODEL 6
REMARK VINA RESULT:       2.1      2.629      4.239
REMARK  Name = *****
REMARK                            x       y       z     vdW  Elec       q    Type
REMARK                         _______ _______ _______ _____ _____    ______ ____
ROOT
ATOM      1  C   LIG    1       26.053 -17.423   4.365  0.00  0.00    +0.117 C 
ENDROOT
BRANCH   1   6
ATOM      2  C   LIG    1       29.071 -20.797   6.258  0.00  0.00    +0.105 C 
ATOM      3  N   LIG    1       28.103 -19.738   6.544  0.00  0.00    -0.303 NA
ATOM      4  C   LIG    1       28.565 -18.441   6.018  0.00  0.00    +0.099 C 
ATOM      5  C   LIG    1       28.382 -18.257   4.492  0.00  0.00    +0.100 C 
ATOM      6  N   LIG    1       27.007 -18.511   3.979  0.00  0.00    -0.289 NA
ATOM      7  C   LIG    1       26.610 -19.850   4.475  0.00  0.00    +0.100 C 
ATOM      8  C   LIG    1       26.769 -20.061   6.000  0.00  0.00    +0.099 C 
ENDBRANCH   1   6
BRANCH   1   9
ATOM      9  C   LIG    1       24.579 -17.770   4.092  0.00  0.00    -0.026 A 
ATOM     10  C   LIG    1       24.194 -18.996   3.520  0.00  0.00    +0.007 A 
ATOM     11  C   LIG    1       22.840 -19.294   3.317  0.00  0.00    +0.020 A 
ATOM     12  C   LIG    1       21.861 -18.376   3.680  0.00  0.00    +0.041 A 
ATOM     13 CL   LIG    1       20.197 -18.753   3.448  0.00  0.00    -0.084 Cl
ATOM     14  C   LIG    1       22.218 -17.150   4.240  0.00  0.00    +0.020 A 
ATOM     15  C   LIG    1       23.570 -16.851   4.437  0.00  0.00    +0.007 A 
ENDBRANCH   1   9
BRANCH   1  16
ATOM     16  C   LIG    1       26.411 -16.059   3.746  0.00  0.00    -0.026 A 
ATOM     17  C   LIG    1       27.601 -15.379   4.068  0.00  0.00    +0.005 A 
ATOM     18  C   LIG    1       27.848 -14.094   3.584  0.00  0.00    +0.000 A 
ATOM     19  C   LIG    1       26.933 -13.484   2.731  0.00  0.00    +0.000 A 
ATOM     20  C   LIG    1       25.775 -14.161   2.355  0.00  0.00    +0.000 A 
ATOM     21  C   LIG    1       25.515 -15.438   2.858  0.00  0.00    +0.005 A 
ENDBRANCH   1  16
TORSDOF 3
ENDMDL
MODEL 7
REMARK VINA RESULT:       2.1      2.320      3.895
REMARK  Name = *****
REMARK                            x       y       z     vdW  Elec       q    Type
REMARK                         _______ _______ _______ _____ _____    ______ ____
ROOT
ATOM      1  C   LIG    1       25.443 -17.220   4.179  0.00  0.00    +0.117 C 
ENDROOT
BRANCH   1   6
ATOM      2  C   LIG    1       29.002 -20.332   5.489  0.00  0.00    +0.105 C 
ATOM      3  N   LIG    1       27.969 -19.407   5.952  0.00  0.00    -0.303 NA
ATOM      4  C   LIG    1       28.225 -18.039   5.467  0.00  0.00    +0.099 C 
ATOM      5  C   LIG    1       27.845 -17.792   3.988  0.00  0.00    +0.100 C 
ATOM      6  N   LIG    1       26.454 -18.171   3.615  0.00  0.00    -0.289 NA
ATOM      7  C   LIG    1       26.261 -19.572   4.060  0.00  0.00    +0.100 C 
ATOM      8  C   LIG    1       26.621 -19.847   5.540  0.00  0.00    +0.099 C 
ENDBRANCH   1   6
BRANCH   1   9
ATOM      9  C   LIG    1       23.992 -17.721   4.061  0.00  0.00    -0.026 A 
ATOM     10  C   LIG    1       22.895 -16.928   4.447  0.00  0.00    +0.007 A 
ATOM     11  C   LIG    1       21.586 -17.400   4.293  0.00  0.00    +0.020 A 
ATOM     12  C   LIG    1       21.356 -18.662   3.757  0.00  0.00    +0.041 A 
ATOM     13 CL   LIG    1       19.746 -19.232   3.551  0.00  0.00    -0.084 Cl
ATOM     14  C   LIG    1       22.427 -19.470   3.376  0.00  0.00    +0.020 A 
ATOM     15  C   LIG    1       23.735 -19.000   3.534  0.00  0.00    +0.007 A 
ENDBRANCH   1   9
BRANCH   1  16
ATOM     16  C   LIG    1       25.571 -15.796   3.608  0.00  0.00    -0.026 A 
ATOM     17  C   LIG    1       26.715 -15.368   2.909  0.00  0.00    +0.005 A 
ATOM     18  C   LIG    1       26.855 -14.040   2.502  0.00  0.00    +0.000 A 
ATOM     19  C   LIG    1       25.834 -13.127   2.745  0.00  0.00    +0.000 A 
ATOM     20  C   LIG    1       24.669 -13.541   3.386  0.00  0.00    +0.000 A 
ATOM     21  C   LIG    1       24.537 -14.865   3.815  0.00  0.00    +0.005 A 
ENDBRANCH   1  16
TORSDOF 3
ENDMDL
