MODEL 1
REMARK VINA RESULT:       3.7      0.000      0.000
REMARK  Name = *****
REMARK                            x       y       z     vdW  Elec       q    Type
REMARK                         _______ _______ _______ _____ _____    ______ ____
ROOT
ATOM      1  C   LIG    1       26.590 -18.735   4.057  0.00  0.00    -0.028 A 
ATOM      2  C   LIG    1       25.989 -17.941   3.077  0.00  0.00    +0.006 A 
ATOM      3  C   LIG    1       26.385 -16.601   2.915  0.00  0.00    +0.009 A 
ATOM      4  C   LIG    1       27.374 -16.004   3.735  0.00  0.00    -0.017 A 
ATOM      5  C   LIG    1       28.006 -16.842   4.647  0.00  0.00    +0.009 A 
ATOM      6  C   LIG    1       27.650 -18.177   4.770  0.00  0.00    +0.006 A 
ENDROOT
BRANCH   4   7
ATOM      7  C   LIG    1       27.617 -14.536   3.746  0.00  0.00    -0.007 A 
ATOM      8  C   LIG    1       26.633 -13.508   3.665  0.00  0.00    +0.028 A 
ATOM      9  C   LIG    1       27.067 -12.161   3.599  0.00  0.00    +0.012 A 
ATOM     10  C   LIG    1       28.418 -11.810   3.617  0.00  0.00    +0.001 A 
ATOM     11  C   LIG    1       29.379 -12.801   3.674  0.00  0.00    +0.001 A 
ATOM     12  C   LIG    1       28.981 -14.135   3.727  0.00  0.00    +0.009 A 
BRANCH   8  13
ATOM     13  C   LIG    1       25.169 -13.693   3.625  0.00  0.00    +0.180 A 
ATOM     14  N   LIG    1       24.412 -14.435   4.493  0.00  0.00    -0.239 N 
ATOM     15  H   LIG    1       24.703 -15.022   5.263  0.00  0.00    +0.192 HD
ATOM     16  N   LIG    1       23.109 -14.338   4.191  0.00  0.00    -0.046 NA
ATOM     17  N   LIG    1       23.059 -13.530   3.145  0.00  0.00    -0.023 NA
ATOM     18  N   LIG    1       24.319 -13.119   2.785  0.00  0.00    -0.108 NA
ENDBRANCH   8  13
ENDBRANCH   4   7
BRANCH   1  19
ATOM     19  C   LIG    1       26.136 -20.149   4.326  0.00  0.00    +0.162 C 
BRANCH  19  21
ATOM     20  C   LIG    1       25.441 -20.998   6.573  0.00  0.00    +0.299 A 
ATOM     21  N   LIG    1       25.161 -20.286   5.419  0.00  0.00    -0.289 N 
ATOM     22  C   LIG    1       23.778 -20.211   5.318  0.00  0.00    +0.086 A 
ATOM     23  C   LIG    1       23.351 -21.160   6.249  0.00  0.00    +0.093 A 
ATOM     24  C   LIG    1       22.011 -21.571   6.279  0.00  0.00    +0.030 A 
ATOM     25  C   LIG    1       21.103 -21.001   5.391  0.00  0.00    +0.003 A 
ATOM     26  C   LIG    1       21.506 -19.960   4.562  0.00  0.00    +0.017 A 
ATOM     27  C   LIG    1       22.844 -19.505   4.532  0.00  0.00    +0.085 A 
ATOM     28  N   LIG    1       24.370 -21.570   7.060  0.00  0.00    -0.195 NA
BRANCH  27  29
ATOM     29  C   LIG    1       23.134 -18.227   3.868  0.00  0.00    +0.339 C 
ATOM     30  O   LIG    1       23.241 -17.130   4.415  0.00  0.00    -0.245 OA
BRANCH  29  31
ATOM     31  O   LIG    1       23.159 -18.346   2.530  0.00  0.00    -0.477 OA
ATOM     32  H   LIG    1       22.226 -18.455   2.259  0.00  0.00    +0.295 HD
ENDBRANCH  29  31
ENDBRANCH  27  29
BRANCH  20  33
ATOM     33  O   LIG    1       26.674 -21.148   7.059  0.00  0.00    -0.464 OA
BRANCH  33  35
ATOM     34  C   LIG    1       28.969 -20.473   6.788  0.00  0.00    +0.048 C 
ATOM     35  C   LIG    1       27.523 -20.015   6.877  0.00  0.00    +0.229 C 
ENDBRANCH  33  35
ENDBRANCH  20  33
ENDBRANCH  19  21
ENDBRANCH   1  19
TORSDOF 8
ENDMDL
MODEL 2
REMARK VINA RESULT:       5.5      1.055      1.323
REMARK  Name = *****
REMARK                            x       y       z     vdW  Elec       q    Type
REMARK                         _______ _______ _______ _____ _____    ______ ____
ROOT
ATOM      1  C   LIG    1       26.066 -18.042   3.329  0.00  0.00    -0.028 A 
ATOM      2  C   LIG    1       25.450 -16.949   2.711  0.00  0.00    +0.006 A 
ATOM      3  C   LIG    1       25.982 -15.657   2.873  0.00  0.00    +0.009 A 
ATOM      4  C   LIG    1       27.126 -15.408   3.669  0.00  0.00    -0.017 A 
ATOM      5  C   LIG    1       27.759 -16.524   4.205  0.00  0.00    +0.009 A 
ATOM      6  C   LIG    1       27.262 -17.804   4.002  0.00  0.00    +0.006 A 
ENDROOT
BRANCH   4   7
ATOM      7  C   LIG    1       27.544 -14.033   4.053  0.00  0.00    -0.007 A 
ATOM      8  C   LIG    1       26.699 -12.987   4.528  0.00  0.00    +0.028 A 
ATOM      9  C   LIG    1       27.269 -11.710   4.759  0.00  0.00    +0.012 A 
ATOM     10  C   LIG    1       28.622 -11.447   4.543  0.00  0.00    +0.001 A 
ATOM     11  C   LIG    1       29.444 -12.448   4.062  0.00  0.00    +0.001 A 
ATOM     12  C   LIG    1       28.907 -13.710   3.815  0.00  0.00    +0.009 A 
BRANCH   8  13
ATOM     13  C   LIG    1       25.252 -13.081   4.801  0.00  0.00    +0.180 A 
ATOM     14  N   LIG    1       24.313 -12.106   4.592  0.00  0.00    -0.239 N 
ATOM     15  H   LIG    1       24.432 -11.152   4.280  0.00  0.00    +0.192 HD
ATOM     16  N   LIG    1       23.086 -12.552   4.900  0.00  0.00    -0.046 NA
ATOM     17  N   LIG    1       23.264 -13.804   5.288  0.00  0.00    -0.023 NA
ATOM     18  N   LIG    1       24.592 -14.149   5.229  0.00  0.00    -0.108 NA
ENDBRANCH   8  13
ENDBRANCH   4   7
BRANCH   1  19
ATOM     19  C   LIG    1       25.482 -19.431   3.257  0.00  0.00    +0.162 C 
BRANCH  19  21
ATOM     20  C   LIG    1       25.346 -20.787   5.354  0.00  0.00    +0.299 A 
ATOM     21  N   LIG    1       24.788 -19.872   4.477  0.00  0.00    -0.289 N 
ATOM     22  C   LIG    1       23.417 -19.888   4.698  0.00  0.00    +0.086 A 
ATOM     23  C   LIG    1       23.244 -21.042   5.464  0.00  0.00    +0.093 A 
ATOM     24  C   LIG    1       21.958 -21.556   5.692  0.00  0.00    +0.030 A 
ATOM     25  C   LIG    1       20.855 -20.886   5.172  0.00  0.00    +0.003 A 
ATOM     26  C   LIG    1       21.026 -19.666   4.528  0.00  0.00    +0.017 A 
ATOM     27  C   LIG    1       22.306 -19.109   4.311  0.00  0.00    +0.085 A 
ATOM     28  N   LIG    1       24.433 -21.532   5.922  0.00  0.00    -0.195 NA
BRANCH  27  29
ATOM     29  C   LIG    1       22.398 -17.701   3.901  0.00  0.00    +0.339 C 
ATOM     30  O   LIG    1       22.328 -17.273   2.750  0.00  0.00    -0.245 OA
BRANCH  29  31
ATOM     31  O   LIG    1       22.694 -16.892   4.931  0.00  0.00    -0.477 OA
ATOM     32  H   LIG    1       22.505 -15.986   4.615  0.00  0.00    +0.295 HD
ENDBRANCH  29  31
ENDBRANCH  27  29
BRANCH  20  33
ATOM     33  O   LIG    1       26.662 -20.937   5.514  0.00  0.00    -0.464 OA
BRANCH  33  35
ATOM     34  C   LIG    1       28.392 -19.592   6.510  0.00  0.00    +0.048 C 
ATOM     35  C   LIG    1       27.164 -20.451   6.759  0.00  0.00    +0.229 C 
ENDBRANCH  33  35
ENDBRANCH  20  33
ENDBRANCH  19  21
ENDBRANCH   1  19
TORSDOF 8
ENDMDL
