MODEL 1
REMARK VINA RESULT:      -8.6      0.000      0.000
REMARK  Name = *****
REMARK                            x       y       z     vdW  Elec       q    Type
REMARK                         _______ _______ _______ _____ _____    ______ ____
ROOT
ATOM      1  N   LIG    1       26.507 -20.955   5.729  0.00  0.00    -0.284 N 
ATOM      2  H   LIG    1       27.103 -21.441   5.074  0.00  0.00    +0.155 HD
ATOM      3  C   LIG    1       27.156 -20.331   6.806  0.00  0.00    +0.231 C 
ATOM      4  O   LIG    1       26.640 -20.082   7.891  0.00  0.00    -0.274 OA
ENDROOT
BRANCH   1   6
ATOM      5  C   LIG    1       24.900 -22.697   6.430  0.00  0.00    -0.023 A 
ATOM      6  C   LIG    1       25.173 -21.446   5.798  0.00  0.00    +0.040 A 
ATOM      7  C   LIG    1       24.095 -20.633   5.337  0.00  0.00    -0.023 A 
ATOM      8  C   LIG    1       22.773 -21.120   5.486  0.00  0.00    +0.006 A 
ATOM      9  C   LIG    1       22.504 -22.348   6.071  0.00  0.00    +0.001 A 
ATOM     10  C   LIG    1       23.560 -23.119   6.550  0.00  0.00    +0.006 A 
BRANCH   5  12
ATOM     11  C   LIG    1       26.139 -23.209   8.584  0.00  0.00    +0.012 C 
ATOM     12  C   LIG    1       25.977 -23.559   7.099  0.00  0.00    +0.015 C 
ATOM     13  C   LIG    1       25.736 -25.073   6.960  0.00  0.00    +0.012 C 
ENDBRANCH   5  12
BRANCH   7  14
ATOM     14  C   LIG    1       24.174 -19.274   4.632  0.00  0.00    +0.015 C 
ATOM     15  C   LIG    1       22.860 -18.556   4.331  0.00  0.00    +0.012 C 
ATOM     16  C   LIG    1       25.052 -19.333   3.378  0.00  0.00    +0.012 C 
ENDBRANCH   7  14
ENDBRANCH   1   6
BRANCH   3  17
ATOM     17  C   LIG    1       28.638 -19.988   6.481  0.00  0.00    +0.181 C 
BRANCH  17  18
ATOM     18  N   LIG    1       29.597 -20.066   7.672  0.00  0.00    -0.274 NA
BRANCH  18  19
ATOM     19  C   LIG    1       30.927 -19.503   7.229  0.00  0.00    +0.206 C 
BRANCH  19  20
ATOM     20  C   LIG    1       31.580 -18.615   8.293  0.00  0.00    +0.319 C 
ATOM     21  O   LIG    1       31.620 -17.395   8.225  0.00  0.00    -0.250 OA
BRANCH  20  22
ATOM     22  O   LIG    1       32.160 -19.304   9.308  0.00  0.00    -0.480 OA
ATOM     23  H   LIG    1       31.951 -18.871  10.164  0.00  0.00    +0.295 HD
ENDBRANCH  20  22
ENDBRANCH  19  20
ENDBRANCH  18  19
BRANCH  18  24
ATOM     24  C   LIG    1       29.757 -21.546   7.979  0.00  0.00    +0.206 C 
BRANCH  24  25
ATOM     25  C   LIG    1       30.840 -21.934   8.992  0.00  0.00    +0.319 C 
ATOM     26  O   LIG    1       30.675 -21.887  10.199  0.00  0.00    -0.250 OA
BRANCH  25  27
ATOM     27  O   LIG    1       32.022 -22.286   8.446  0.00  0.00    -0.480 OA
ATOM     28  H   LIG    1       32.107 -23.256   8.391  0.00  0.00    +0.295 HD
ENDBRANCH  25  27
ENDBRANCH  24  25
ENDBRANCH  18  24
ENDBRANCH  17  18
ENDBRANCH   3  17
TORSDOF 11
ENDMDL
MODEL 2
REMARK VINA RESULT:      -8.5      0.090      3.354
REMARK  Name = *****
REMARK                            x       y       z     vdW  Elec       q    Type
REMARK                         _______ _______ _______ _____ _____    ______ ____
ROOT
ATOM      1  N   LIG    1       26.477 -20.875   5.823  0.00  0.00    -0.284 N 
ATOM      2  H   LIG    1       27.043 -21.339   5.126  0.00  0.00    +0.155 HD
ATOM      3  C   LIG    1       27.172 -20.300   6.899  0.00  0.00    +0.231 C 
ATOM      4  O   LIG    1       26.699 -20.091   8.011  0.00  0.00    -0.274 OA
ENDROOT
BRANCH   1   6
ATOM      5  C   LIG    1       24.063 -20.608   5.366  0.00  0.00    -0.023 A 
ATOM      6  C   LIG    1       25.141 -21.358   5.923  0.00  0.00    +0.040 A 
ATOM      7  C   LIG    1       24.896 -22.650   6.479  0.00  0.00    -0.023 A 
ATOM      8  C   LIG    1       23.565 -23.131   6.498  0.00  0.00    +0.006 A 
ATOM      9  C   LIG    1       22.509 -22.394   5.986  0.00  0.00    +0.001 A 
ATOM     10  C   LIG    1       22.762 -21.150   5.414  0.00  0.00    +0.006 A 
BRANCH   5  12
ATOM     11  C   LIG    1       25.021 -19.502   3.293  0.00  0.00    +0.012 C 
ATOM     12  C   LIG    1       24.254 -19.290   4.605  0.00  0.00    +0.015 C 
ATOM     13  C   LIG    1       22.940 -18.548   4.308  0.00  0.00    +0.012 C 
ENDBRANCH   5  12
BRANCH   7  14
ATOM     14  C   LIG    1       25.905 -23.604   7.127  0.00  0.00    +0.015 C 
ATOM     15  C   LIG    1       25.678 -25.103   6.948  0.00  0.00    +0.012 C 
ATOM     16  C   LIG    1       26.136 -23.270   8.606  0.00  0.00    +0.012 C 
ENDBRANCH   7  14
ENDBRANCH   1   6
BRANCH   3  17
ATOM     17  C   LIG    1       28.643 -19.956   6.532  0.00  0.00    +0.181 C 
BRANCH  17  18
ATOM     18  N   LIG    1       29.640 -20.048   7.691  0.00  0.00    -0.274 NA
BRANCH  18  19
ATOM     19  C   LIG    1       30.955 -19.478   7.214  0.00  0.00    +0.206 C 
BRANCH  19  20
ATOM     20  C   LIG    1       31.640 -18.604   8.269  0.00  0.00    +0.319 C 
ATOM     21  O   LIG    1       31.755 -17.390   8.171  0.00  0.00    -0.250 OA
BRANCH  20  22
ATOM     22  O   LIG    1       32.159 -19.299   9.312  0.00  0.00    -0.480 OA
ATOM     23  H   LIG    1       32.793 -18.733   9.805  0.00  0.00    +0.295 HD
ENDBRANCH  20  22
ENDBRANCH  19  20
ENDBRANCH  18  19
BRANCH  18  24
ATOM     24  C   LIG    1       29.809 -21.531   7.976  0.00  0.00    +0.206 C 
BRANCH  24  25
ATOM     25  C   LIG    1       30.879 -21.926   8.999  0.00  0.00    +0.319 C 
ATOM     26  O   LIG    1       30.698 -21.891  10.204  0.00  0.00    -0.250 OA
BRANCH  25  27
ATOM     27  O   LIG    1       32.070 -22.269   8.466  0.00  0.00    -0.480 OA
ATOM     28  H   LIG    1       32.644 -22.690   9.132  0.00  0.00    +0.295 HD
ENDBRANCH  25  27
ENDBRANCH  24  25
ENDBRANCH  18  24
ENDBRANCH  17  18
ENDBRANCH   3  17
TORSDOF 11
ENDMDL
MODEL 3
REMARK VINA RESULT:      -8.3      1.513      3.666
REMARK  Name = *****
REMARK                            x       y       z     vdW  Elec       q    Type
REMARK                         _______ _______ _______ _____ _____    ______ ____
ROOT
ATOM      1  N   LIG    1       26.461 -22.529   6.475  0.00  0.00    -0.284 N 
ATOM      2  H   LIG    1       27.049 -22.901   5.742  0.00  0.00    +0.155 HD
ATOM      3  C   LIG    1       27.130 -21.965   7.573  0.00  0.00    +0.231 C 
ATOM      4  O   LIG    1       26.665 -21.863   8.704  0.00  0.00    -0.274 OA
ENDROOT
BRANCH   1   6
ATOM      5  C   LIG    1       24.010 -22.309   6.694  0.00  0.00    -0.023 A 
ATOM      6  C   LIG    1       25.173 -23.126   6.566  0.00  0.00    +0.040 A 
ATOM      7  C   LIG    1       25.035 -24.539   6.413  0.00  0.00    -0.023 A 
ATOM      8  C   LIG    1       23.732 -25.093   6.437  0.00  0.00    +0.006 A 
ATOM      9  C   LIG    1       22.601 -24.307   6.591  0.00  0.00    +0.001 A 
ATOM     10  C   LIG    1       22.743 -22.926   6.704  0.00  0.00    +0.006 A 
BRANCH   5  12
ATOM     11  C   LIG    1       23.151 -20.183   5.606  0.00  0.00    +0.012 C 
ATOM     12  C   LIG    1       24.051 -20.776   6.699  0.00  0.00    +0.015 C 
ATOM     13  C   LIG    1       23.679 -20.149   8.054  0.00  0.00    +0.012 C 
ENDBRANCH   5  12
BRANCH   7  14
ATOM     14  C   LIG    1       26.147 -25.584   6.271  0.00  0.00    +0.015 C 
ATOM     15  C   LIG    1       26.208 -26.379   4.968  0.00  0.00    +0.012 C 
ATOM     16  C   LIG    1       26.200 -26.527   7.478  0.00  0.00    +0.012 C 
ENDBRANCH   7  14
ENDBRANCH   1   6
BRANCH   3  17
ATOM     17  C   LIG    1       28.560 -21.478   7.205  0.00  0.00    +0.181 C 
BRANCH  17  18
ATOM     18  N   LIG    1       29.274 -20.677   8.297  0.00  0.00    -0.274 NA
BRANCH  18  19
ATOM     19  C   LIG    1       29.091 -19.210   7.986  0.00  0.00    +0.206 C 
BRANCH  19  20
ATOM     20  C   LIG    1       30.044 -18.311   8.779  0.00  0.00    +0.319 C 
ATOM     21  O   LIG    1       29.924 -18.087   9.976  0.00  0.00    -0.250 OA
BRANCH  20  22
ATOM     22  O   LIG    1       31.017 -17.737   8.029  0.00  0.00    -0.480 OA
ATOM     23  H   LIG    1       31.400 -18.404   7.417  0.00  0.00    +0.295 HD
ENDBRANCH  20  22
ENDBRANCH  19  20
ENDBRANCH  18  19
BRANCH  18  24
ATOM     24  C   LIG    1       30.746 -21.034   8.178  0.00  0.00    +0.206 C 
BRANCH  24  25
ATOM     25  C   LIG    1       31.272 -22.137   9.103  0.00  0.00    +0.319 C 
ATOM     26  O   LIG    1       30.864 -22.308  10.239  0.00  0.00    -0.250 OA
BRANCH  25  27
ATOM     27  O   LIG    1       32.269 -22.881   8.583  0.00  0.00    -0.480 OA
ATOM     28  H   LIG    1       32.924 -22.320   8.128  0.00  0.00    +0.295 HD
ENDBRANCH  25  27
ENDBRANCH  24  25
ENDBRANCH  18  24
ENDBRANCH  17  18
ENDBRANCH   3  17
TORSDOF 11
ENDMDL
MODEL 4
REMARK VINA RESULT:      -8.2      1.714      3.856
REMARK  Name = *****
REMARK                            x       y       z     vdW  Elec       q    Type
REMARK                         _______ _______ _______ _____ _____    ______ ____
ROOT
ATOM      1  N   LIG    1       26.528 -22.582   6.525  0.00  0.00    -0.284 N 
ATOM      2  H   LIG    1       27.121 -22.950   5.794  0.00  0.00    +0.155 HD
ATOM      3  C   LIG    1       27.189 -22.043   7.640  0.00  0.00    +0.231 C 
ATOM      4  O   LIG    1       26.711 -21.953   8.766  0.00  0.00    -0.274 OA
ENDROOT
BRANCH   1   6
ATOM      5  C   LIG    1       24.075 -22.334   6.702  0.00  0.00    -0.023 A 
ATOM      6  C   LIG    1       25.231 -23.165   6.590  0.00  0.00    +0.040 A 
ATOM      7  C   LIG    1       25.080 -24.575   6.428  0.00  0.00    -0.023 A 
ATOM      8  C   LIG    1       23.771 -25.115   6.425  0.00  0.00    +0.006 A 
ATOM      9  C   LIG    1       22.646 -24.316   6.564  0.00  0.00    +0.001 A 
ATOM     10  C   LIG    1       22.802 -22.938   6.687  0.00  0.00    +0.006 A 
BRANCH   5  12
ATOM     11  C   LIG    1       23.148 -20.190   5.711  0.00  0.00    +0.012 C 
ATOM     12  C   LIG    1       24.134 -20.802   6.716  0.00  0.00    +0.015 C 
ATOM     13  C   LIG    1       23.889 -20.184   8.104  0.00  0.00    +0.012 C 
ENDBRANCH   5  12
BRANCH   7  14
ATOM     14  C   LIG    1       26.182 -25.632   6.299  0.00  0.00    +0.015 C 
ATOM     15  C   LIG    1       26.263 -26.415   4.990  0.00  0.00    +0.012 C 
ATOM     16  C   LIG    1       26.197 -26.587   7.498  0.00  0.00    +0.012 C 
ENDBRANCH   7  14
ENDBRANCH   1   6
BRANCH   3  17
ATOM     17  C   LIG    1       28.630 -21.568   7.297  0.00  0.00    +0.181 C 
BRANCH  17  18
ATOM     18  N   LIG    1       29.226 -20.548   8.272  0.00  0.00    -0.274 NA
BRANCH  18  19
ATOM     19  C   LIG    1       28.968 -19.170   7.710  0.00  0.00    +0.206 C 
BRANCH  19  20
ATOM     20  C   LIG    1       29.376 -19.042   6.239  0.00  0.00    +0.319 C 
ATOM     21  O   LIG    1       30.478 -18.659   5.873  0.00  0.00    -0.250 OA
BRANCH  20  22
ATOM     22  O   LIG    1       28.387 -19.348   5.362  0.00  0.00    -0.480 OA
ATOM     23  H   LIG    1       27.979 -18.522   5.022  0.00  0.00    +0.295 HD
ENDBRANCH  20  22
ENDBRANCH  19  20
ENDBRANCH  18  19
BRANCH  18  24
ATOM     24  C   LIG    1       30.722 -20.813   8.285  0.00  0.00    +0.206 C 
BRANCH  24  25
ATOM     25  C   LIG    1       31.210 -22.015   9.100  0.00  0.00    +0.319 C 
ATOM     26  O   LIG    1       30.757 -22.310  10.193  0.00  0.00    -0.250 OA
BRANCH  25  27
ATOM     27  O   LIG    1       32.226 -22.702   8.540  0.00  0.00    -0.480 OA
ATOM     28  H   LIG    1       33.010 -22.704   9.120  0.00  0.00    +0.295 HD
ENDBRANCH  25  27
ENDBRANCH  24  25
ENDBRANCH  18  24
ENDBRANCH  17  18
ENDBRANCH   3  17
TORSDOF 11
ENDMDL
MODEL 5
REMARK VINA RESULT:      -8.1      0.725      2.231
REMARK  Name = *****
REMARK                            x       y       z     vdW  Elec       q    Type
REMARK                         _______ _______ _______ _____ _____    ______ ____
ROOT
ATOM      1  N   LIG    1       26.312 -20.997   5.490  0.00  0.00    -0.284 N 
ATOM      2  H   LIG    1       26.845 -21.479   4.781  0.00  0.00    +0.155 HD
ATOM      3  C   LIG    1       27.058 -20.342   6.483  0.00  0.00    +0.231 C 
ATOM      4  O   LIG    1       26.656 -20.088   7.613  0.00  0.00    -0.274 OA
ENDROOT
BRANCH   1   6
ATOM      5  C   LIG    1       24.827 -22.745   6.411  0.00  0.00    -0.023 A 
ATOM      6  C   LIG    1       25.004 -21.515   5.708  0.00  0.00    +0.040 A 
ATOM      7  C   LIG    1       23.865 -20.744   5.326  0.00  0.00    -0.023 A 
ATOM      8  C   LIG    1       22.578 -21.256   5.622  0.00  0.00    +0.006 A 
ATOM      9  C   LIG    1       22.400 -22.464   6.276  0.00  0.00    +0.001 A 
ATOM     10  C   LIG    1       23.517 -23.192   6.678  0.00  0.00    +0.006 A 
BRANCH   5  12
ATOM     11  C   LIG    1       26.222 -23.210   8.479  0.00  0.00    +0.012 C 
ATOM     12  C   LIG    1       25.987 -23.555   7.002  0.00  0.00    +0.015 C 
ATOM     13  C   LIG    1       25.817 -25.078   6.861  0.00  0.00    +0.012 C 
ENDBRANCH   5  12
BRANCH   7  14
ATOM     14  C   LIG    1       23.839 -19.414   4.566  0.00  0.00    +0.015 C 
ATOM     15  C   LIG    1       22.521 -18.644   4.532  0.00  0.00    +0.012 C 
ATOM     16  C   LIG    1       24.415 -19.554   3.152  0.00  0.00    +0.012 C 
ENDBRANCH   7  14
ENDBRANCH   1   6
BRANCH   3  17
ATOM     17  C   LIG    1       28.489 -19.974   5.996  0.00  0.00    +0.181 C 
BRANCH  17  18
ATOM     18  N   LIG    1       29.574 -20.024   7.075  0.00  0.00    -0.274 NA
BRANCH  18  19
ATOM     19  C   LIG    1       29.380 -21.297   7.865  0.00  0.00    +0.206 C 
BRANCH  19  20
ATOM     20  C   LIG    1       30.587 -21.640   8.744  0.00  0.00    +0.319 C 
ATOM     21  O   LIG    1       30.496 -22.190   9.833  0.00  0.00    -0.250 OA
BRANCH  20  22
ATOM     22  O   LIG    1       31.776 -21.237   8.233  0.00  0.00    -0.480 OA
ATOM     23  H   LIG    1       32.363 -22.014   8.106  0.00  0.00    +0.295 HD
ENDBRANCH  20  22
ENDBRANCH  19  20
ENDBRANCH  18  19
BRANCH  18  24
ATOM     24  C   LIG    1       29.316 -18.830   7.979  0.00  0.00    +0.206 C 
BRANCH  24  25
ATOM     25  C   LIG    1       30.534 -18.001   8.402  0.00  0.00    +0.319 C 
ATOM     26  O   LIG    1       31.647 -18.160   7.932  0.00  0.00    -0.250 OA
BRANCH  25  27
ATOM     27  O   LIG    1       30.294 -17.107   9.383  0.00  0.00    -0.480 OA
ATOM     28  H   LIG    1       30.631 -17.428  10.239  0.00  0.00    +0.295 HD
ENDBRANCH  25  27
ENDBRANCH  24  25
ENDBRANCH  18  24
ENDBRANCH  17  18
ENDBRANCH   3  17
TORSDOF 11
ENDMDL
MODEL 6
REMARK VINA RESULT:      -8.0      1.403      1.771
REMARK  Name = *****
REMARK                            x       y       z     vdW  Elec       q    Type
REMARK                         _______ _______ _______ _____ _____    ______ ____
ROOT
ATOM      1  N   LIG    1       26.577 -22.449   6.347  0.00  0.00    -0.284 N 
ATOM      2  H   LIG    1       27.184 -22.859   5.651  0.00  0.00    +0.155 HD
ATOM      3  C   LIG    1       27.211 -21.917   7.481  0.00  0.00    +0.231 C 
ATOM      4  O   LIG    1       26.688 -21.782   8.582  0.00  0.00    -0.274 OA
ENDROOT
BRANCH   1   6
ATOM      5  C   LIG    1       25.036 -24.377   6.474  0.00  0.00    -0.023 A 
ATOM      6  C   LIG    1       25.253 -22.971   6.364  0.00  0.00    +0.040 A 
ATOM      7  C   LIG    1       24.141 -22.076   6.388  0.00  0.00    -0.023 A 
ATOM      8  C   LIG    1       22.839 -22.626   6.478  0.00  0.00    +0.006 A 
ATOM      9  C   LIG    1       22.621 -23.993   6.553  0.00  0.00    +0.001 A 
ATOM     10  C   LIG    1       23.714 -24.856   6.565  0.00  0.00    +0.006 A 
BRANCH   5  12
ATOM     11  C   LIG    1       25.920 -26.358   7.792  0.00  0.00    +0.012 C 
ATOM     12  C   LIG    1       26.171 -25.398   6.621  0.00  0.00    +0.015 C 
ATOM     13  C   LIG    1       26.439 -26.217   5.346  0.00  0.00    +0.012 C 
ENDBRANCH   5  12
BRANCH   7  14
ATOM     14  C   LIG    1       24.158 -20.548   6.276  0.00  0.00    +0.015 C 
ATOM     15  C   LIG    1       22.817 -19.836   6.106  0.00  0.00    +0.012 C 
ATOM     16  C   LIG    1       25.159 -20.065   5.221  0.00  0.00    +0.012 C 
ENDBRANCH   7  14
ENDBRANCH   1   6
BRANCH   3  17
ATOM     17  C   LIG    1       28.687 -21.516   7.196  0.00  0.00    +0.181 C 
BRANCH  17  18
ATOM     18  N   LIG    1       29.343 -20.649   8.273  0.00  0.00    -0.274 NA
BRANCH  18  19
ATOM     19  C   LIG    1       29.139 -19.203   7.888  0.00  0.00    +0.206 C 
BRANCH  19  20
ATOM     20  C   LIG    1       30.098 -18.254   8.614  0.00  0.00    +0.319 C 
ATOM     21  O   LIG    1       31.029 -17.682   8.065  0.00  0.00    -0.250 OA
BRANCH  20  22
ATOM     22  O   LIG    1       29.856 -18.134   9.944  0.00  0.00    -0.480 OA
ATOM     23  H   LIG    1       28.889 -18.162  10.109  0.00  0.00    +0.295 HD
ENDBRANCH  20  22
ENDBRANCH  19  20
ENDBRANCH  18  19
BRANCH  18  24
ATOM     24  C   LIG    1       30.826 -20.977   8.223  0.00  0.00    +0.206 C 
BRANCH  24  25
ATOM     25  C   LIG    1       31.314 -22.133   9.101  0.00  0.00    +0.319 C 
ATOM     26  O   LIG    1       30.879 -22.355  10.218  0.00  0.00    -0.250 OA
BRANCH  25  27
ATOM     27  O   LIG    1       32.311 -22.867   8.565  0.00  0.00    -0.480 OA
ATOM     28  H   LIG    1       32.935 -22.302   8.072  0.00  0.00    +0.295 HD
ENDBRANCH  25  27
ENDBRANCH  24  25
ENDBRANCH  18  24
ENDBRANCH  17  18
ENDBRANCH   3  17
TORSDOF 11
ENDMDL
MODEL 7
REMARK VINA RESULT:      -8.0      0.746      4.034
REMARK  Name = *****
REMARK                            x       y       z     vdW  Elec       q    Type
REMARK                         _______ _______ _______ _____ _____    ______ ____
ROOT
ATOM      1  N   LIG    1       26.268 -20.977   5.618  0.00  0.00    -0.284 N 
ATOM      2  H   LIG    1       26.782 -21.462   4.895  0.00  0.00    +0.155 HD
ATOM      3  C   LIG    1       27.041 -20.346   6.606  0.00  0.00    +0.231 C 
ATOM      4  O   LIG    1       26.659 -20.097   7.745  0.00  0.00    -0.274 OA
ENDROOT
BRANCH   1   6
ATOM      5  C   LIG    1       23.819 -20.756   5.368  0.00  0.00    -0.023 A 
ATOM      6  C   LIG    1       24.954 -21.474   5.850  0.00  0.00    +0.040 A 
ATOM      7  C   LIG    1       24.780 -22.750   6.465  0.00  0.00    -0.023 A 
ATOM      8  C   LIG    1       23.463 -23.249   6.616  0.00  0.00    +0.006 A 
ATOM      9  C   LIG    1       22.354 -22.542   6.178  0.00  0.00    +0.001 A 
ATOM     10  C   LIG    1       22.537 -21.313   5.547  0.00  0.00    +0.006 A 
BRANCH   5  12
ATOM     11  C   LIG    1       24.453 -19.724   3.138  0.00  0.00    +0.012 C 
ATOM     12  C   LIG    1       23.921 -19.461   4.553  0.00  0.00    +0.015 C 
ATOM     13  C   LIG    1       22.599 -18.681   4.458  0.00  0.00    +0.012 C 
ENDBRANCH   5  12
BRANCH   7  14
ATOM     14  C   LIG    1       25.857 -23.670   7.050  0.00  0.00    +0.015 C 
ATOM     15  C   LIG    1       25.650 -25.177   6.917  0.00  0.00    +0.012 C 
ATOM     16  C   LIG    1       26.196 -23.300   8.499  0.00  0.00    +0.012 C 
ENDBRANCH   7  14
ENDBRANCH   1   6
BRANCH   3  17
ATOM     17  C   LIG    1       28.470 -19.998   6.101  0.00  0.00    +0.181 C 
BRANCH  17  18
ATOM     18  N   LIG    1       29.555 -19.989   7.182  0.00  0.00    -0.274 NA
BRANCH  18  19
ATOM     19  C   LIG    1       29.422 -21.266   7.978  0.00  0.00    +0.206 C 
BRANCH  19  20
ATOM     20  C   LIG    1       30.663 -21.570   8.823  0.00  0.00    +0.319 C 
ATOM     21  O   LIG    1       30.618 -22.094   9.927  0.00  0.00    -0.250 OA
BRANCH  20  22
ATOM     22  O   LIG    1       31.828 -21.165   8.260  0.00  0.00    -0.480 OA
ATOM     23  H   LIG    1       32.422 -21.937   8.133  0.00  0.00    +0.295 HD
ENDBRANCH  20  22
ENDBRANCH  19  20
ENDBRANCH  18  19
BRANCH  18  24
ATOM     24  C   LIG    1       29.238 -18.804   8.078  0.00  0.00    +0.206 C 
BRANCH  24  25
ATOM     25  C   LIG    1       30.413 -17.914   8.498  0.00  0.00    +0.319 C 
ATOM     26  O   LIG    1       31.542 -18.044   8.057  0.00  0.00    -0.250 OA
BRANCH  25  27
ATOM     27  O   LIG    1       30.117 -16.999   9.444  0.00  0.00    -0.480 OA
ATOM     28  H   LIG    1       30.448 -17.279  10.318  0.00  0.00    +0.295 HD
ENDBRANCH  25  27
ENDBRANCH  24  25
ENDBRANCH  18  24
ENDBRANCH  17  18
ENDBRANCH   3  17
TORSDOF 11
ENDMDL
MODEL 8
REMARK VINA RESULT:      -7.4      1.708      2.689
REMARK  Name = *****
REMARK                            x       y       z     vdW  Elec       q    Type
REMARK                         _______ _______ _______ _____ _____    ______ ____
ROOT
ATOM      1  N   LIG    1       26.801 -22.802   6.644  0.00  0.00    -0.284 N 
ATOM      2  H   LIG    1       27.469 -23.296   6.068  0.00  0.00    +0.155 HD
ATOM      3  C   LIG    1       27.320 -22.173   7.787  0.00  0.00    +0.231 C 
ATOM      4  O   LIG    1       26.679 -21.912   8.800  0.00  0.00    -0.274 OA
ENDROOT
BRANCH   1   6
ATOM      5  C   LIG    1       25.212 -24.686   6.460  0.00  0.00    -0.023 A 
ATOM      6  C   LIG    1       25.465 -23.284   6.555  0.00  0.00    +0.040 A 
ATOM      7  C   LIG    1       24.374 -22.372   6.677  0.00  0.00    -0.023 A 
ATOM      8  C   LIG    1       23.057 -22.893   6.657  0.00  0.00    +0.006 A 
ATOM      9  C   LIG    1       22.805 -24.251   6.534  0.00  0.00    +0.001 A 
ATOM     10  C   LIG    1       23.877 -25.136   6.451  0.00  0.00    +0.006 A 
BRANCH   5  12
ATOM     11  C   LIG    1       26.121 -26.738   7.645  0.00  0.00    +0.012 C 
ATOM     12  C   LIG    1       26.319 -25.748   6.489  0.00  0.00    +0.015 C 
ATOM     13  C   LIG    1       26.462 -26.531   5.173  0.00  0.00    +0.012 C 
ENDBRANCH   5  12
BRANCH   7  14
ATOM     14  C   LIG    1       24.430 -20.844   6.782  0.00  0.00    +0.015 C 
ATOM     15  C   LIG    1       23.651 -20.184   7.919  0.00  0.00    +0.012 C 
ATOM     16  C   LIG    1       24.104 -20.169   5.445  0.00  0.00    +0.012 C 
ENDBRANCH   7  14
ENDBRANCH   1   6
BRANCH   3  17
ATOM     17  C   LIG    1       28.833 -21.842   7.640  0.00  0.00    +0.181 C 
BRANCH  17  18
ATOM     18  N   LIG    1       29.190 -20.361   7.795  0.00  0.00    -0.274 NA
BRANCH  18  19
ATOM     19  C   LIG    1       29.711 -19.871   6.465  0.00  0.00    +0.206 C 
BRANCH  19  20
ATOM     20  C   LIG    1       28.607 -19.300   5.569  0.00  0.00    +0.319 C 
ATOM     21  O   LIG    1       27.515 -19.830   5.419  0.00  0.00    -0.250 OA
BRANCH  20  22
ATOM     22  O   LIG    1       28.961 -18.169   4.909  0.00  0.00    -0.480 OA
ATOM     23  H   LIG    1       28.898 -17.399   5.514  0.00  0.00    +0.295 HD
ENDBRANCH  20  22
ENDBRANCH  19  20
ENDBRANCH  18  19
BRANCH  18  24
ATOM     24  C   LIG    1       30.310 -20.310   8.821  0.00  0.00    +0.206 C 
BRANCH  24  25
ATOM     25  C   LIG    1       30.998 -21.635   9.168  0.00  0.00    +0.319 C 
ATOM     26  O   LIG    1       30.653 -22.345  10.097  0.00  0.00    -0.250 OA
BRANCH  25  27
ATOM     27  O   LIG    1       32.059 -21.939   8.394  0.00  0.00    -0.480 OA
ATOM     28  H   LIG    1       32.535 -22.717   8.741  0.00  0.00    +0.295 HD
ENDBRANCH  25  27
ENDBRANCH  24  25
ENDBRANCH  18  24
ENDBRANCH  17  18
ENDBRANCH   3  17
TORSDOF 11
ENDMDL
MODEL 9
REMARK VINA RESULT:      -7.2      1.432      3.451
REMARK  Name = *****
REMARK                            x       y       z     vdW  Elec       q    Type
REMARK                         _______ _______ _______ _____ _____    ______ ____
ROOT
ATOM      1  N   LIG    1       26.191 -20.991   5.737  0.00  0.00    -0.284 N 
ATOM      2  H   LIG    1       26.482 -21.835   5.262  0.00  0.00    +0.155 HD
ATOM      3  C   LIG    1       26.731 -20.786   7.016  0.00  0.00    +0.231 C 
ATOM      4  O   LIG    1       26.212 -20.110   7.899  0.00  0.00    -0.274 OA
ENDROOT
BRANCH   1   6
ATOM      5  C   LIG    1       24.837 -19.445   4.363  0.00  0.00    -0.023 A 
ATOM      6  C   LIG    1       24.921 -20.489   5.333  0.00  0.00    +0.040 A 
ATOM      7  C   LIG    1       23.730 -21.111   5.814  0.00  0.00    -0.023 A 
ATOM      8  C   LIG    1       22.484 -20.635   5.337  0.00  0.00    +0.006 A 
ATOM      9  C   LIG    1       22.395 -19.601   4.419  0.00  0.00    +0.001 A 
ATOM     10  C   LIG    1       23.564 -19.024   3.929  0.00  0.00    +0.006 A 
BRANCH   5  12
ATOM     11  C   LIG    1       25.779 -17.405   3.185  0.00  0.00    +0.012 C 
ATOM     12  C   LIG    1       26.061 -18.833   3.672  0.00  0.00    +0.015 C 
ATOM     13  C   LIG    1       27.329 -18.828   4.543  0.00  0.00    +0.012 C 
ENDBRANCH   5  12
BRANCH   7  14
ATOM     14  C   LIG    1       23.604 -22.232   6.851  0.00  0.00    +0.015 C 
ATOM     15  C   LIG    1       22.667 -23.394   6.527  0.00  0.00    +0.012 C 
ATOM     16  C   LIG    1       23.313 -21.683   8.252  0.00  0.00    +0.012 C 
ENDBRANCH   7  14
ENDBRANCH   1   6
BRANCH   3  17
ATOM     17  C   LIG    1       28.082 -21.531   7.211  0.00  0.00    +0.181 C 
BRANCH  17  18
ATOM     18  N   LIG    1       29.107 -20.799   8.081  0.00  0.00    -0.274 NA
BRANCH  18  19
ATOM     19  C   LIG    1       29.559 -19.571   7.325  0.00  0.00    +0.206 C 
BRANCH  19  20
ATOM     20  C   LIG    1       30.229 -18.531   8.228  0.00  0.00    +0.319 C 
ATOM     21  O   LIG    1       31.279 -17.969   7.949  0.00  0.00    -0.250 OA
BRANCH  20  22
ATOM     22  O   LIG    1       29.581 -18.316   9.399  0.00  0.00    -0.480 OA
ATOM     23  H   LIG    1       29.772 -19.049  10.024  0.00  0.00    +0.295 HD
ENDBRANCH  20  22
ENDBRANCH  19  20
ENDBRANCH  18  19
BRANCH  18  24
ATOM     24  C   LIG    1       30.279 -21.753   8.233  0.00  0.00    +0.206 C 
BRANCH  24  25
ATOM     25  C   LIG    1       31.211 -21.528   9.428  0.00  0.00    +0.319 C 
ATOM     26  O   LIG    1       32.260 -20.910   9.352  0.00  0.00    -0.250 OA
BRANCH  25  27
ATOM     27  O   LIG    1       30.809 -22.114  10.575  0.00  0.00    -0.480 OA
ATOM     28  H   LIG    1       31.037 -21.564  11.347  0.00  0.00    +0.295 HD
ENDBRANCH  25  27
ENDBRANCH  24  25
ENDBRANCH  18  24
ENDBRANCH  17  18
ENDBRANCH   3  17
TORSDOF 11
ENDMDL
