MODEL 1
REMARK VINA RESULT:      -8.7      0.000      0.000
REMARK  Name = *****
REMARK                            x       y       z     vdW  Elec       q    Type
REMARK                         _______ _______ _______ _____ _____    ______ ____
ROOT
ATOM      1  C   LIG    1       24.176 -29.765   8.443  0.00  0.00    +0.190 C 
ENDROOT
BRANCH   1   4
ATOM      2  N   LIG    1       25.398 -27.614   5.798  0.00  0.00    -0.131 N 
ATOM      3  C   LIG    1       25.511 -28.070   7.059  0.00  0.00    +0.430 A 
ATOM      4  N   LIG    1       24.586 -29.033   7.215  0.00  0.00    -0.207 N 
ATOM      5  N   LIG    1       23.847 -29.190   6.067  0.00  0.00    -0.108 NA
ATOM      6  C   LIG    1       24.376 -28.356   5.248  0.00  0.00    +0.452 A 
BRANCH   2   7
ATOM      7  C   LIG    1       26.215 -26.605   5.098  0.00  0.00    +0.465 C 
ATOM      8  C   LIG    1       27.631 -27.127   4.875  0.00  0.00    +0.138 C 
BRANCH   7   9
ATOM      9  O   LIG    1       26.197 -25.391   5.864  0.00  0.00    -0.387 OA
BRANCH   9  11
ATOM     10  N   LIG    1       24.959 -23.487   6.414  0.00  0.00    -0.224 N 
ATOM     11  C   LIG    1       25.233 -24.480   5.470  0.00  0.00    +0.413 C 
ATOM     12  O   LIG    1       24.630 -24.624   4.411  0.00  0.00    -0.226 OA
ATOM     13  C   LIG    1       25.641 -23.441   7.701  0.00  0.00    +0.143 C 
BRANCH  10  15
ATOM     14  C   LIG    1       25.113 -21.154   5.527  0.00  0.00    +0.030 A 
ATOM     15  C   LIG    1       24.362 -22.257   5.972  0.00  0.00    +0.136 A 
ATOM     16  N   LIG    1       23.004 -22.242   5.926  0.00  0.00    -0.239 NA
ATOM     17  C   LIG    1       22.381 -21.125   5.459  0.00  0.00    +0.113 A 
ATOM     18  C   LIG    1       23.035 -20.002   5.009  0.00  0.00    +0.020 A 
ATOM     19  C   LIG    1       24.415 -20.030   5.034  0.00  0.00    +0.012 A 
BRANCH  14  20
ATOM     20  C   LIG    1       26.594 -20.958   5.702  0.00  0.00    +0.271 C 
BRANCH  20  21
ATOM     21  O   LIG    1       26.855 -20.378   6.995  0.00  0.00    -0.459 OA
BRANCH  21  22
ATOM     22  C   LIG    1       28.140 -20.465   7.474  0.00  0.00    +0.321 C 
ATOM     23  O   LIG    1       28.480 -21.081   8.474  0.00  0.00    -0.249 OA
BRANCH  22  24
ATOM     24  C   LIG    1       29.075 -19.717   6.523  0.00  0.00    +0.202 C 
BRANCH  24  26
ATOM     25  C   LIG    1       31.278 -19.214   7.380  0.00  0.00    +0.101 C 
ATOM     26  N   LIG    1       29.913 -18.728   7.225  0.00  0.00    -0.310 NA
ATOM     27  H   LIG    1       29.887 -17.822   6.755  0.00  0.00    +0.122 HD
ENDBRANCH  24  26
ENDBRANCH  22  24
ENDBRANCH  21  22
ENDBRANCH  20  21
ENDBRANCH  14  20
ENDBRANCH  10  15
ENDBRANCH   9  11
ENDBRANCH   7   9
ENDBRANCH   2   7
ENDBRANCH   1   4
BRANCH   1  28
ATOM     28  C   LIG    1       25.089 -30.984   8.824  0.00  0.00    +0.122 C 
BRANCH  28  29
ATOM     29  C   LIG    1       25.288 -31.985   7.673  0.00  0.00    +0.024 A 
ATOM     30  C   LIG    1       24.207 -32.702   7.135  0.00  0.00    +0.130 A 
ATOM     31  F   LIG    1       22.976 -32.517   7.635  0.00  0.00    -0.205 F 
ATOM     32  C   LIG    1       24.359 -33.600   6.079  0.00  0.00    +0.041 A 
ATOM     33  C   LIG    1       25.616 -33.792   5.517  0.00  0.00    +0.041 A 
ATOM     34  C   LIG    1       26.693 -33.070   6.007  0.00  0.00    +0.124 A 
ATOM     35  F   LIG    1       27.909 -33.242   5.473  0.00  0.00    -0.205 F 
ATOM     36  C   LIG    1       26.537 -32.167   7.056  0.00  0.00    +0.047 A 
ENDBRANCH  28  29
BRANCH  28  37
ATOM     37  O   LIG    1       26.364 -30.360   9.152  0.00  0.00    -0.381 OA
ATOM     38  H   LIG    1       26.779 -30.061   8.315  0.00  0.00    +0.211 HD
ENDBRANCH  28  37
BRANCH  28  39
ATOM     39  C   LIG    1       24.608 -31.801  10.100  0.00  0.00    +0.080 C 
ATOM     40  C   LIG    1       25.558 -32.929  10.534  0.00  0.00    +0.018 C 
BRANCH  39  41
ATOM     41  C   LIG    1       24.259 -30.913  11.280  0.00  0.00    +0.085 A 
ATOM     42  S   LIG    1       23.086 -31.414  12.438  0.00  0.00    -0.080 S 
ATOM     43  C   LIG    1       23.267 -29.923  13.265  0.00  0.00    +0.075 A 
ATOM     44  C   LIG    1       24.193 -29.130  12.615  0.00  0.00    +0.078 A 
ATOM     45  N   LIG    1       24.767 -29.718  11.494  0.00  0.00    -0.244 NA
BRANCH  44  46
ATOM     46  C   LIG    1       24.512 -27.760  13.004  0.00  0.00    +0.001 A 
ATOM     47  C   LIG    1       23.506 -26.941  13.536  0.00  0.00    +0.011 A 
ATOM     48  C   LIG    1       23.795 -25.646  13.977  0.00  0.00    +0.019 A 
ATOM     49  C   LIG    1       25.097 -25.145  13.886  0.00  0.00    +0.052 A 
ATOM     50  C   LIG    1       26.100 -25.944  13.330  0.00  0.00    +0.019 A 
ATOM     51  C   LIG    1       25.810 -27.244  12.892  0.00  0.00    +0.011 A 
BRANCH  49  52
ATOM     52  C   LIG    1       25.398 -23.840  14.357  0.00  0.00    +0.099 C 
ATOM     53  N   LIG    1       25.657 -22.758  14.756  0.00  0.00    -0.191 NA
ENDBRANCH  49  52
ENDBRANCH  44  46
ENDBRANCH  39  41
ENDBRANCH  28  39
ENDBRANCH   1  28
TORSDOF 17
ENDMDL
MODEL 2
REMARK VINA RESULT:      -8.1      1.595      2.873
REMARK  Name = *****
REMARK                            x       y       z     vdW  Elec       q    Type
REMARK                         _______ _______ _______ _____ _____    ______ ____
ROOT
ATOM      1  C   LIG    1       23.984 -30.177   8.733  0.00  0.00    +0.190 C 
ENDROOT
BRANCH   1   4
ATOM      2  N   LIG    1       24.595 -27.949   5.945  0.00  0.00    -0.131 N 
ATOM      3  C   LIG    1       24.787 -28.254   7.241  0.00  0.00    +0.430 A 
ATOM      4  N   LIG    1       24.201 -29.444   7.458  0.00  0.00    -0.207 N 
ATOM      5  N   LIG    1       23.600 -29.907   6.311  0.00  0.00    -0.108 NA
ATOM      6  C   LIG    1       23.880 -29.011   5.437  0.00  0.00    +0.452 A 
BRANCH   2   7
ATOM      7  C   LIG    1       25.090 -26.788   5.180  0.00  0.00    +0.465 C 
ATOM      8  C   LIG    1       26.607 -26.680   5.295  0.00  0.00    +0.138 C 
BRANCH   7   9
ATOM      9  O   LIG    1       24.423 -25.609   5.658  0.00  0.00    -0.387 OA
BRANCH   9  11
ATOM     10  N   LIG    1       25.337 -23.469   5.881  0.00  0.00    -0.224 N 
ATOM     11  C   LIG    1       25.224 -24.762   6.402  0.00  0.00    +0.413 C 
ATOM     12  O   LIG    1       25.839 -25.176   7.381  0.00  0.00    -0.226 OA
ATOM     13  C   LIG    1       24.662 -23.077   4.650  0.00  0.00    +0.143 C 
BRANCH  10  15
ATOM     14  C   LIG    1       24.796 -21.588   7.437  0.00  0.00    +0.030 A 
ATOM     15  C   LIG    1       25.723 -22.400   6.758  0.00  0.00    +0.136 A 
ATOM     16  N   LIG    1       27.059 -22.262   6.970  0.00  0.00    -0.239 NA
ATOM     17  C   LIG    1       27.485 -21.303   7.837  0.00  0.00    +0.113 A 
ATOM     18  C   LIG    1       26.650 -20.464   8.539  0.00  0.00    +0.020 A 
ATOM     19  C   LIG    1       25.293 -20.624   8.340  0.00  0.00    +0.012 A 
BRANCH  14  20
ATOM     20  C   LIG    1       23.321 -21.499   7.157  0.00  0.00    +0.271 C 
BRANCH  20  21
ATOM     21  O   LIG    1       23.025 -20.238   6.527  0.00  0.00    -0.459 OA
BRANCH  21  22
ATOM     22  C   LIG    1       22.468 -20.278   5.272  0.00  0.00    +0.321 C 
ATOM     23  O   LIG    1       21.726 -21.158   4.856  0.00  0.00    -0.249 OA
BRANCH  22  24
ATOM     24  C   LIG    1       22.879 -19.020   4.506  0.00  0.00    +0.202 C 
BRANCH  24  26
ATOM     25  C   LIG    1       25.175 -19.632   4.065  0.00  0.00    +0.101 C 
ATOM     26  N   LIG    1       23.888 -19.300   3.468  0.00  0.00    -0.310 NA
ATOM     27  H   LIG    1       23.569 -20.030   2.830  0.00  0.00    +0.122 HD
ENDBRANCH  24  26
ENDBRANCH  22  24
ENDBRANCH  21  22
ENDBRANCH  20  21
ENDBRANCH  14  20
ENDBRANCH  10  15
ENDBRANCH   9  11
ENDBRANCH   7   9
ENDBRANCH   2   7
ENDBRANCH   1   4
BRANCH   1  28
ATOM     28  C   LIG    1       25.115 -31.198   9.113  0.00  0.00    +0.122 C 
BRANCH  28  29
ATOM     29  C   LIG    1       25.509 -32.133   7.957  0.00  0.00    +0.024 A 
ATOM     30  C   LIG    1       24.566 -32.974   7.345  0.00  0.00    +0.130 A 
ATOM     31  F   LIG    1       23.296 -32.967   7.776  0.00  0.00    -0.205 F 
ATOM     32  C   LIG    1       24.896 -33.816   6.283  0.00  0.00    +0.041 A 
ATOM     33  C   LIG    1       26.196 -33.825   5.791  0.00  0.00    +0.041 A 
ATOM     34  C   LIG    1       27.137 -32.979   6.356  0.00  0.00    +0.124 A 
ATOM     35  F   LIG    1       28.392 -32.974   5.891  0.00  0.00    -0.205 F 
ATOM     36  C   LIG    1       26.804 -32.132   7.411  0.00  0.00    +0.047 A 
ENDBRANCH  28  29
BRANCH  28  37
ATOM     37  O   LIG    1       26.242 -30.340   9.451  0.00  0.00    -0.381 OA
ATOM     38  H   LIG    1       25.902 -29.431   9.586  0.00  0.00    +0.211 HD
ENDBRANCH  28  37
BRANCH  28  39
ATOM     39  C   LIG    1       24.795 -32.100  10.381  0.00  0.00    +0.080 C 
ATOM     40  C   LIG    1       25.809 -33.227  10.636  0.00  0.00    +0.018 C 
BRANCH  39  41
ATOM     41  C   LIG    1       24.565 -31.293  11.645  0.00  0.00    +0.085 A 
ATOM     42  S   LIG    1       23.735 -31.984  12.988  0.00  0.00    -0.080 S 
ATOM     43  C   LIG    1       23.859 -30.495  13.829  0.00  0.00    +0.075 A 
ATOM     44  C   LIG    1       24.509 -29.561  13.045  0.00  0.00    +0.078 A 
ATOM     45  N   LIG    1       24.925 -30.038  11.809  0.00  0.00    -0.244 NA
BRANCH  44  46
ATOM     46  C   LIG    1       24.696 -28.164  13.425  0.00  0.00    +0.001 A 
ATOM     47  C   LIG    1       25.966 -27.721  13.824  0.00  0.00    +0.011 A 
ATOM     48  C   LIG    1       26.191 -26.375  14.131  0.00  0.00    +0.019 A 
ATOM     49  C   LIG    1       25.145 -25.450  14.053  0.00  0.00    +0.052 A 
ATOM     50  C   LIG    1       23.870 -25.888  13.684  0.00  0.00    +0.019 A 
ATOM     51  C   LIG    1       23.647 -27.237  13.372  0.00  0.00    +0.011 A 
BRANCH  49  52
ATOM     52  C   LIG    1       25.378 -24.080  14.339  0.00  0.00    +0.099 C 
ATOM     53  N   LIG    1       25.569 -22.940  14.590  0.00  0.00    -0.191 NA
ENDBRANCH  49  52
ENDBRANCH  44  46
ENDBRANCH  39  41
ENDBRANCH  28  39
ENDBRANCH   1  28
TORSDOF 17
ENDMDL
MODEL 3
REMARK VINA RESULT:      -8.1      1.708      2.404
REMARK  Name = *****
REMARK                            x       y       z     vdW  Elec       q    Type
REMARK                         _______ _______ _______ _____ _____    ______ ____
ROOT
ATOM      1  C   LIG    1       24.066 -29.437   6.272  0.00  0.00    +0.190 C 
ENDROOT
BRANCH   1   4
ATOM      2  N   LIG    1       25.112 -25.993   5.870  0.00  0.00    -0.131 N 
ATOM      3  C   LIG    1       24.374 -26.905   6.529  0.00  0.00    +0.430 A 
ATOM      4  N   LIG    1       24.685 -28.109   6.017  0.00  0.00    -0.207 N 
ATOM      5  N   LIG    1       25.606 -27.985   5.004  0.00  0.00    -0.108 NA
ATOM      6  C   LIG    1       25.851 -26.726   4.969  0.00  0.00    +0.452 A 
BRANCH   2   7
ATOM      7  C   LIG    1       25.199 -24.536   6.087  0.00  0.00    +0.465 C 
ATOM      8  C   LIG    1       26.085 -24.227   7.289  0.00  0.00    +0.138 C 
BRANCH   7   9
ATOM      9  O   LIG    1       23.869 -24.018   6.245  0.00  0.00    -0.387 OA
BRANCH   9  11
ATOM     10  N   LIG    1       24.065 -22.041   5.013  0.00  0.00    -0.224 N 
ATOM     11  C   LIG    1       23.790 -22.637   6.248  0.00  0.00    +0.413 C 
ATOM     12  O   LIG    1       23.583 -22.022   7.289  0.00  0.00    -0.226 OA
ATOM     13  C   LIG    1       24.410 -22.833   3.839  0.00  0.00    +0.143 C 
BRANCH  10  15
ATOM     14  C   LIG    1       24.397 -19.660   4.327  0.00  0.00    +0.030 A 
ATOM     15  C   LIG    1       23.574 -20.715   4.759  0.00  0.00    +0.136 A 
ATOM     16  N   LIG    1       22.230 -20.549   4.879  0.00  0.00    -0.239 NA
ATOM     17  C   LIG    1       21.697 -19.330   4.594  0.00  0.00    +0.113 A 
ATOM     18  C   LIG    1       22.427 -18.243   4.170  0.00  0.00    +0.020 A 
ATOM     19  C   LIG    1       23.788 -18.422   4.026  0.00  0.00    +0.012 A 
BRANCH  14  20
ATOM     20  C   LIG    1       25.902 -19.644   4.338  0.00  0.00    +0.271 C 
BRANCH  20  21
ATOM     21  O   LIG    1       26.380 -20.209   5.574  0.00  0.00    -0.459 OA
BRANCH  21  22
ATOM     22  C   LIG    1       27.685 -19.947   5.919  0.00  0.00    +0.321 C 
ATOM     23  O   LIG    1       28.422 -19.159   5.345  0.00  0.00    -0.249 OA
BRANCH  22  24
ATOM     24  C   LIG    1       28.038 -20.756   7.168  0.00  0.00    +0.202 C 
BRANCH  24  26
ATOM     25  C   LIG    1       30.299 -20.506   7.984  0.00  0.00    +0.101 C 
ATOM     26  N   LIG    1       29.415 -21.281   7.124  0.00  0.00    -0.310 NA
ATOM     27  H   LIG    1       29.439 -22.275   7.357  0.00  0.00    +0.122 HD
ENDBRANCH  24  26
ENDBRANCH  22  24
ENDBRANCH  21  22
ENDBRANCH  20  21
ENDBRANCH  14  20
ENDBRANCH  10  15
ENDBRANCH   9  11
ENDBRANCH   7   9
ENDBRANCH   2   7
ENDBRANCH   1   4
BRANCH   1  28
ATOM     28  C   LIG    1       24.947 -30.430   7.111  0.00  0.00    +0.122 C 
BRANCH  28  29
ATOM     29  C   LIG    1       25.577 -31.551   6.268  0.00  0.00    +0.024 A 
ATOM     30  C   LIG    1       26.715 -32.245   6.710  0.00  0.00    +0.130 A 
ATOM     31  F   LIG    1       27.268 -31.925   7.889  0.00  0.00    -0.205 F 
ATOM     32  C   LIG    1       27.292 -33.279   5.972  0.00  0.00    +0.041 A 
ATOM     33  C   LIG    1       26.725 -33.657   4.761  0.00  0.00    +0.041 A 
ATOM     34  C   LIG    1       25.582 -33.011   4.318  0.00  0.00    +0.124 A 
ATOM     35  F   LIG    1       25.024 -33.367   3.155  0.00  0.00    -0.205 F 
ATOM     36  C   LIG    1       25.002 -31.985   5.061  0.00  0.00    +0.047 A 
ENDBRANCH  28  29
BRANCH  28  37
ATOM     37  O   LIG    1       25.998 -29.576   7.648  0.00  0.00    -0.381 OA
ATOM     38  H   LIG    1       26.576 -29.304   6.905  0.00  0.00    +0.211 HD
ENDBRANCH  28  37
BRANCH  28  39
ATOM     39  C   LIG    1       24.198 -31.107   8.338  0.00  0.00    +0.080 C 
ATOM     40  C   LIG    1       24.052 -32.634   8.234  0.00  0.00    +0.018 C 
BRANCH  39  41
ATOM     41  C   LIG    1       24.782 -30.717   9.683  0.00  0.00    +0.085 A 
ATOM     42  S   LIG    1       25.329 -31.922  10.785  0.00  0.00    -0.080 S 
ATOM     43  C   LIG    1       25.708 -30.703  11.929  0.00  0.00    +0.075 A 
ATOM     44  C   LIG    1       25.391 -29.459  11.418  0.00  0.00    +0.078 A 
ATOM     45  N   LIG    1       24.883 -29.481  10.126  0.00  0.00    -0.244 NA
BRANCH  44  46
ATOM     46  C   LIG    1       25.501 -28.214  12.172  0.00  0.00    +0.001 A 
ATOM     47  C   LIG    1       26.670 -27.445  12.068  0.00  0.00    +0.011 A 
ATOM     48  C   LIG    1       26.779 -26.216  12.726  0.00  0.00    +0.019 A 
ATOM     49  C   LIG    1       25.723 -25.740  13.509  0.00  0.00    +0.052 A 
ATOM     50  C   LIG    1       24.566 -26.513  13.642  0.00  0.00    +0.019 A 
ATOM     51  C   LIG    1       24.456 -27.743  12.978  0.00  0.00    +0.011 A 
BRANCH  49  52
ATOM     52  C   LIG    1       25.822 -24.481  14.158  0.00  0.00    +0.099 C 
ATOM     53  N   LIG    1       25.914 -23.437  14.705  0.00  0.00    -0.191 NA
ENDBRANCH  49  52
ENDBRANCH  44  46
ENDBRANCH  39  41
ENDBRANCH  28  39
ENDBRANCH   1  28
TORSDOF 17
ENDMDL
MODEL 4
REMARK VINA RESULT:      -7.9      1.613      2.158
REMARK  Name = *****
REMARK                            x       y       z     vdW  Elec       q    Type
REMARK                         _______ _______ _______ _____ _____    ______ ____
ROOT
ATOM      1  C   LIG    1       23.849 -30.211   6.732  0.00  0.00    +0.190 C 
ENDROOT
BRANCH   1   4
ATOM      2  N   LIG    1       24.677 -26.753   6.048  0.00  0.00    -0.131 N 
ATOM      3  C   LIG    1       24.219 -27.680   6.908  0.00  0.00    +0.430 A 
ATOM      4  N   LIG    1       24.336 -28.874   6.299  0.00  0.00    -0.207 N 
ATOM      5  N   LIG    1       24.844 -28.727   5.031  0.00  0.00    -0.108 NA
ATOM      6  C   LIG    1       25.058 -27.466   4.933  0.00  0.00    +0.452 A 
BRANCH   2   7
ATOM      7  C   LIG    1       24.830 -25.298   6.244  0.00  0.00    +0.465 C 
ATOM      8  C   LIG    1       25.851 -25.012   7.339  0.00  0.00    +0.138 C 
BRANCH   7   9
ATOM      9  O   LIG    1       23.541 -24.741   6.544  0.00  0.00    -0.387 OA
BRANCH   9  11
ATOM     10  N   LIG    1       24.021 -22.747   5.422  0.00  0.00    -0.224 N 
ATOM     11  C   LIG    1       23.508 -23.358   6.570  0.00  0.00    +0.413 C 
ATOM     12  O   LIG    1       23.136 -22.758   7.574  0.00  0.00    -0.226 OA
ATOM     13  C   LIG    1       24.547 -23.526   4.308  0.00  0.00    +0.143 C 
BRANCH  10  15
ATOM     14  C   LIG    1       24.547 -20.347   4.958  0.00  0.00    +0.030 A 
ATOM     15  C   LIG    1       23.627 -21.399   5.120  0.00  0.00    +0.136 A 
ATOM     16  N   LIG    1       22.298 -21.203   4.912  0.00  0.00    -0.239 NA
ATOM     17  C   LIG    1       21.870 -19.959   4.564  0.00  0.00    +0.113 A 
ATOM     18  C   LIG    1       22.698 -18.874   4.389  0.00  0.00    +0.020 A 
ATOM     19  C   LIG    1       24.050 -19.082   4.577  0.00  0.00    +0.012 A 
BRANCH  14  20
ATOM     20  C   LIG    1       26.002 -20.372   5.342  0.00  0.00    +0.271 C 
BRANCH  20  21
ATOM     21  O   LIG    1       26.122 -20.334   6.777  0.00  0.00    -0.459 OA
BRANCH  21  22
ATOM     22  C   LIG    1       27.333 -20.699   7.314  0.00  0.00    +0.321 C 
ATOM     23  O   LIG    1       27.485 -21.309   8.364  0.00  0.00    -0.249 OA
BRANCH  22  24
ATOM     24  C   LIG    1       28.449 -20.271   6.360  0.00  0.00    +0.202 C 
BRANCH  24  26
ATOM     25  C   LIG    1       30.515 -19.735   7.492  0.00  0.00    +0.101 C 
ATOM     26  N   LIG    1       29.770 -20.767   6.784  0.00  0.00    -0.310 NA
ATOM     27  H   LIG    1       29.684 -21.619   7.341  0.00  0.00    +0.122 HD
ENDBRANCH  24  26
ENDBRANCH  22  24
ENDBRANCH  21  22
ENDBRANCH  20  21
ENDBRANCH  14  20
ENDBRANCH  10  15
ENDBRANCH   9  11
ENDBRANCH   7   9
ENDBRANCH   2   7
ENDBRANCH   1   4
BRANCH   1  28
ATOM     28  C   LIG    1       24.950 -31.329   6.797  0.00  0.00    +0.122 C 
BRANCH  28  29
ATOM     29  C   LIG    1       25.023 -32.190   5.525  0.00  0.00    +0.024 A 
ATOM     30  C   LIG    1       23.967 -33.038   5.155  0.00  0.00    +0.130 A 
ATOM     31  F   LIG    1       22.871 -33.103   5.925  0.00  0.00    -0.205 F 
ATOM     32  C   LIG    1       24.003 -33.813   3.996  0.00  0.00    +0.041 A 
ATOM     33  C   LIG    1       25.111 -33.745   3.159  0.00  0.00    +0.041 A 
ATOM     34  C   LIG    1       26.152 -32.890   3.484  0.00  0.00    +0.124 A 
ATOM     35  F   LIG    1       27.224 -32.812   2.685  0.00  0.00    -0.205 F 
ATOM     36  C   LIG    1       26.110 -32.110   4.637  0.00  0.00    +0.047 A 
ENDBRANCH  28  29
BRANCH  28  37
ATOM     37  O   LIG    1       26.187 -30.575   6.946  0.00  0.00    -0.381 OA
ATOM     38  H   LIG    1       26.716 -30.997   7.655  0.00  0.00    +0.211 HD
ENDBRANCH  28  37
BRANCH  28  39
ATOM     39  C   LIG    1       24.827 -32.310   8.041  0.00  0.00    +0.080 C 
ATOM     40  C   LIG    1       26.014 -33.271   8.218  0.00  0.00    +0.018 C 
BRANCH  39  41
ATOM     41  C   LIG    1       24.525 -31.588   9.342  0.00  0.00    +0.085 A 
ATOM     42  S   LIG    1       23.122 -31.986  10.260  0.00  0.00    -0.080 S 
ATOM     43  C   LIG    1       23.515 -30.757  11.389  0.00  0.00    +0.075 A 
ATOM     44  C   LIG    1       24.674 -30.112  11.003  0.00  0.00    +0.078 A 
ATOM     45  N   LIG    1       25.251 -30.612   9.843  0.00  0.00    -0.244 NA
BRANCH  44  46
ATOM     46  C   LIG    1       25.233 -28.954  11.693  0.00  0.00    +0.001 A 
ATOM     47  C   LIG    1       26.501 -28.477  11.328  0.00  0.00    +0.011 A 
ATOM     48  C   LIG    1       27.035 -27.332  11.926  0.00  0.00    +0.019 A 
ATOM     49  C   LIG    1       26.313 -26.647  12.908  0.00  0.00    +0.052 A 
ATOM     50  C   LIG    1       25.061 -27.131  13.299  0.00  0.00    +0.019 A 
ATOM     51  C   LIG    1       24.524 -28.277  12.695  0.00  0.00    +0.011 A 
BRANCH  49  52
ATOM     52  C   LIG    1       26.842 -25.470  13.497  0.00  0.00    +0.099 C 
ATOM     53  N   LIG    1       27.281 -24.493  13.999  0.00  0.00    -0.191 NA
ENDBRANCH  49  52
ENDBRANCH  44  46
ENDBRANCH  39  41
ENDBRANCH  28  39
ENDBRANCH   1  28
TORSDOF 17
ENDMDL
MODEL 5
REMARK VINA RESULT:      -7.2      1.714      3.343
REMARK  Name = *****
REMARK                            x       y       z     vdW  Elec       q    Type
REMARK                         _______ _______ _______ _____ _____    ______ ____
ROOT
ATOM      1  C   LIG    1       23.989 -30.185   7.044  0.00  0.00    +0.190 C 
ENDROOT
BRANCH   1   4
ATOM      2  N   LIG    1       24.369 -26.773   5.891  0.00  0.00    -0.131 N 
ATOM      3  C   LIG    1       23.913 -27.633   6.821  0.00  0.00    +0.430 A 
ATOM      4  N   LIG    1       24.329 -28.860   6.461  0.00  0.00    -0.207 N 
ATOM      5  N   LIG    1       25.033 -28.810   5.282  0.00  0.00    -0.108 NA
ATOM      6  C   LIG    1       25.058 -27.560   4.995  0.00  0.00    +0.452 A 
BRANCH   2   7
ATOM      7  C   LIG    1       24.250 -25.303   5.846  0.00  0.00    +0.465 C 
ATOM      8  C   LIG    1       24.844 -24.759   4.552  0.00  0.00    +0.138 C 
BRANCH   7   9
ATOM      9  O   LIG    1       24.890 -24.758   7.010  0.00  0.00    -0.387 OA
BRANCH   9  11
ATOM     10  N   LIG    1       25.785 -22.599   7.035  0.00  0.00    -0.224 N 
ATOM     11  C   LIG    1       25.980 -23.951   6.738  0.00  0.00    +0.413 C 
ATOM     12  O   LIG    1       26.981 -24.410   6.195  0.00  0.00    -0.226 OA
ATOM     13  C   LIG    1       24.526 -22.107   7.580  0.00  0.00    +0.143 C 
BRANCH  10  15
ATOM     14  C   LIG    1       27.261 -20.678   6.413  0.00  0.00    +0.030 A 
ATOM     15  C   LIG    1       26.935 -21.763   7.247  0.00  0.00    +0.136 A 
ATOM     16  N   LIG    1       27.660 -22.028   8.366  0.00  0.00    -0.239 NA
ATOM     17  C   LIG    1       28.727 -21.233   8.653  0.00  0.00    +0.113 A 
ATOM     18  C   LIG    1       29.120 -20.156   7.892  0.00  0.00    +0.020 A 
ATOM     19  C   LIG    1       28.366 -19.875   6.770  0.00  0.00    +0.012 A 
BRANCH  14  20
ATOM     20  C   LIG    1       26.675 -20.391   5.058  0.00  0.00    +0.271 C 
BRANCH  20  21
ATOM     21  O   LIG    1       25.308 -19.961   5.205  0.00  0.00    -0.459 OA
BRANCH  21  22
ATOM     22  C   LIG    1       24.606 -19.697   4.053  0.00  0.00    +0.321 C 
ATOM     23  O   LIG    1       24.548 -18.609   3.496  0.00  0.00    -0.249 OA
BRANCH  22  24
ATOM     24  C   LIG    1       23.963 -20.992   3.555  0.00  0.00    +0.202 C 
BRANCH  24  26
ATOM     25  C   LIG    1       21.982 -20.562   4.870  0.00  0.00    +0.101 C 
ATOM     26  N   LIG    1       22.998 -21.546   4.522  0.00  0.00    -0.310 NA
ATOM     27  H   LIG    1       22.581 -22.410   4.174  0.00  0.00    +0.122 HD
ENDBRANCH  24  26
ENDBRANCH  22  24
ENDBRANCH  21  22
ENDBRANCH  20  21
ENDBRANCH  14  20
ENDBRANCH  10  15
ENDBRANCH   9  11
ENDBRANCH   7   9
ENDBRANCH   2   7
ENDBRANCH   1   4
BRANCH   1  28
ATOM     28  C   LIG    1       25.161 -31.231   7.043  0.00  0.00    +0.122 C 
BRANCH  28  29
ATOM     29  C   LIG    1       25.194 -32.112   5.782  0.00  0.00    +0.024 A 
ATOM     30  C   LIG    1       24.117 -32.948   5.448  0.00  0.00    +0.130 A 
ATOM     31  F   LIG    1       23.037 -32.985   6.243  0.00  0.00    -0.205 F 
ATOM     32  C   LIG    1       24.116 -33.741   4.301  0.00  0.00    +0.041 A 
ATOM     33  C   LIG    1       25.207 -33.703   3.439  0.00  0.00    +0.041 A 
ATOM     34  C   LIG    1       26.268 -32.860   3.729  0.00  0.00    +0.124 A 
ATOM     35  F   LIG    1       27.323 -32.811   2.907  0.00  0.00    -0.205 F 
ATOM     36  C   LIG    1       26.262 -32.062   4.871  0.00  0.00    +0.047 A 
ENDBRANCH  28  29
BRANCH  28  37
ATOM     37  O   LIG    1       26.355 -30.398   7.085  0.00  0.00    -0.381 OA
ATOM     38  H   LIG    1       26.919 -30.714   7.823  0.00  0.00    +0.211 HD
ENDBRANCH  28  37
BRANCH  28  39
ATOM     39  C   LIG    1       25.194 -32.191   8.308  0.00  0.00    +0.080 C 
ATOM     40  C   LIG    1       26.484 -33.016   8.452  0.00  0.00    +0.018 C 
BRANCH  39  41
ATOM     41  C   LIG    1       24.869 -31.478   9.608  0.00  0.00    +0.085 A 
ATOM     42  S   LIG    1       23.605 -32.050  10.629  0.00  0.00    -0.080 S 
ATOM     43  C   LIG    1       23.876 -30.736  11.697  0.00  0.00    +0.075 A 
ATOM     44  C   LIG    1       24.895 -29.937  11.216  0.00  0.00    +0.078 A 
ATOM     45  N   LIG    1       25.467 -30.386  10.033  0.00  0.00    -0.244 NA
BRANCH  44  46
ATOM     46  C   LIG    1       25.313 -28.684  11.837  0.00  0.00    +0.001 A 
ATOM     47  C   LIG    1       24.468 -28.058  12.766  0.00  0.00    +0.011 A 
ATOM     48  C   LIG    1       24.869 -26.891  13.425  0.00  0.00    +0.019 A 
ATOM     49  C   LIG    1       26.119 -26.325  13.158  0.00  0.00    +0.052 A 
ATOM     50  C   LIG    1       26.955 -26.926  12.213  0.00  0.00    +0.019 A 
ATOM     51  C   LIG    1       26.554 -28.098  11.556  0.00  0.00    +0.011 A 
BRANCH  49  52
ATOM     52  C   LIG    1       26.537 -25.155  13.845  0.00  0.00    +0.099 C 
ATOM     53  N   LIG    1       26.882 -24.174  14.408  0.00  0.00    -0.191 NA
ENDBRANCH  49  52
ENDBRANCH  44  46
ENDBRANCH  39  41
ENDBRANCH  28  39
ENDBRANCH   1  28
TORSDOF 17
ENDMDL
MODEL 6
REMARK VINA RESULT:      -7.2      2.336      3.159
REMARK  Name = *****
REMARK                            x       y       z     vdW  Elec       q    Type
REMARK                         _______ _______ _______ _____ _____    ______ ____
ROOT
ATOM      1  C   LIG    1       25.507 -29.745   5.152  0.00  0.00    +0.190 C 
ENDROOT
BRANCH   1   4
ATOM      2  N   LIG    1       25.229 -26.183   5.741  0.00  0.00    -0.131 N 
ATOM      3  C   LIG    1       25.950 -27.224   5.287  0.00  0.00    +0.430 A 
ATOM      4  N   LIG    1       25.169 -28.315   5.378  0.00  0.00    -0.207 N 
ATOM      5  N   LIG    1       23.945 -27.995   5.916  0.00  0.00    -0.108 NA
ATOM      6  C   LIG    1       24.012 -26.725   6.090  0.00  0.00    +0.452 A 
BRANCH   2   7
ATOM      7  C   LIG    1       25.593 -24.754   5.796  0.00  0.00    +0.465 C 
ATOM      8  C   LIG    1       26.599 -24.502   6.914  0.00  0.00    +0.138 C 
BRANCH   7   9
ATOM      9  O   LIG    1       24.392 -23.984   5.961  0.00  0.00    -0.387 OA
BRANCH   9  11
ATOM     10  N   LIG    1       23.859 -21.726   5.673  0.00  0.00    -0.224 N 
ATOM     11  C   LIG    1       24.266 -22.925   5.080  0.00  0.00    +0.413 C 
ATOM     12  O   LIG    1       24.420 -23.090   3.873  0.00  0.00    -0.226 OA
ATOM     13  C   LIG    1       23.590 -21.630   7.103  0.00  0.00    +0.143 C 
BRANCH  10  15
ATOM     14  C   LIG    1       25.441 -19.988   4.820  0.00  0.00    +0.030 A 
ATOM     15  C   LIG    1       24.139 -20.489   4.999  0.00  0.00    +0.136 A 
ATOM     16  N   LIG    1       23.065 -19.856   4.456  0.00  0.00    -0.239 NA
ATOM     17  C   LIG    1       23.273 -18.709   3.753  0.00  0.00    +0.113 A 
ATOM     18  C   LIG    1       24.510 -18.145   3.534  0.00  0.00    +0.020 A 
ATOM     19  C   LIG    1       25.600 -18.805   4.065  0.00  0.00    +0.012 A 
BRANCH  14  20
ATOM     20  C   LIG    1       26.683 -20.470   5.519  0.00  0.00    +0.271 C 
BRANCH  20  21
ATOM     21  O   LIG    1       26.453 -20.505   6.941  0.00  0.00    -0.459 OA
BRANCH  21  22
ATOM     22  C   LIG    1       27.545 -20.714   7.748  0.00  0.00    +0.321 C 
ATOM     23  O   LIG    1       27.573 -21.456   8.720  0.00  0.00    -0.249 OA
BRANCH  22  24
ATOM     24  C   LIG    1       28.727 -19.914   7.199  0.00  0.00    +0.202 C 
BRANCH  24  26
ATOM     25  C   LIG    1       30.998 -19.366   7.818  0.00  0.00    +0.101 C 
ATOM     26  N   LIG    1       29.613 -19.419   8.268  0.00  0.00    -0.310 NA
ATOM     27  H   LIG    1       29.297 -18.515   8.621  0.00  0.00    +0.122 HD
ENDBRANCH  24  26
ENDBRANCH  22  24
ENDBRANCH  21  22
ENDBRANCH  20  21
ENDBRANCH  14  20
ENDBRANCH  10  15
ENDBRANCH   9  11
ENDBRANCH   7   9
ENDBRANCH   2   7
ENDBRANCH   1   4
BRANCH   1  28
ATOM     28  C   LIG    1       25.343 -30.672   6.409  0.00  0.00    +0.122 C 
BRANCH  28  29
ATOM     29  C   LIG    1       26.392 -31.794   6.484  0.00  0.00    +0.024 A 
ATOM     30  C   LIG    1       26.935 -32.365   5.322  0.00  0.00    +0.130 A 
ATOM     31  F   LIG    1       26.531 -31.927   4.120  0.00  0.00    -0.205 F 
ATOM     32  C   LIG    1       27.901 -33.370   5.364  0.00  0.00    +0.041 A 
ATOM     33  C   LIG    1       28.365 -33.825   6.594  0.00  0.00    +0.041 A 
ATOM     34  C   LIG    1       27.870 -33.254   7.756  0.00  0.00    +0.124 A 
ATOM     35  F   LIG    1       28.310 -33.679   8.946  0.00  0.00    -0.205 F 
ATOM     36  C   LIG    1       26.911 -32.244   7.710  0.00  0.00    +0.047 A 
ENDBRANCH  28  29
BRANCH  28  37
ATOM     37  O   LIG    1       25.529 -29.757   7.528  0.00  0.00    -0.381 OA
ATOM     38  H   LIG    1       26.038 -30.227   8.222  0.00  0.00    +0.211 HD
ENDBRANCH  28  37
BRANCH  28  39
ATOM     39  C   LIG    1       23.908 -31.337   6.561  0.00  0.00    +0.080 C 
ATOM     40  C   LIG    1       23.712 -32.628   5.749  0.00  0.00    +0.018 C 
BRANCH  39  41
ATOM     41  C   LIG    1       23.498 -31.549   8.007  0.00  0.00    +0.085 A 
ATOM     42  S   LIG    1       23.289 -33.139   8.635  0.00  0.00    -0.080 S 
ATOM     43  C   LIG    1       22.805 -32.478  10.142  0.00  0.00    +0.075 A 
ATOM     44  C   LIG    1       22.820 -31.099  10.080  0.00  0.00    +0.078 A 
ATOM     45  N   LIG    1       23.238 -30.582   8.861  0.00  0.00    -0.244 NA
BRANCH  44  46
ATOM     46  C   LIG    1       22.372 -30.228  11.163  0.00  0.00    +0.001 A 
ATOM     47  C   LIG    1       23.238 -29.243  11.660  0.00  0.00    +0.011 A 
ATOM     48  C   LIG    1       22.815 -28.352  12.651  0.00  0.00    +0.019 A 
ATOM     49  C   LIG    1       21.519 -28.438  13.170  0.00  0.00    +0.052 A 
ATOM     50  C   LIG    1       20.659 -29.435  12.701  0.00  0.00    +0.019 A 
ATOM     51  C   LIG    1       21.083 -30.325  11.704  0.00  0.00    +0.011 A 
BRANCH  49  52
ATOM     52  C   LIG    1       21.080 -27.518  14.158  0.00  0.00    +0.099 C 
ATOM     53  N   LIG    1       20.709 -26.761  14.987  0.00  0.00    -0.191 NA
ENDBRANCH  49  52
ENDBRANCH  44  46
ENDBRANCH  39  41
ENDBRANCH  28  39
ENDBRANCH   1  28
TORSDOF 17
ENDMDL
MODEL 7
REMARK VINA RESULT:      -7.0      2.112      2.596
REMARK  Name = *****
REMARK                            x       y       z     vdW  Elec       q    Type
REMARK                         _______ _______ _______ _____ _____    ______ ____
ROOT
ATOM      1  C   LIG    1       24.027 -30.164   8.504  0.00  0.00    +0.190 C 
ENDROOT
BRANCH   1   4
ATOM      2  N   LIG    1       25.048 -28.041   5.754  0.00  0.00    -0.131 N 
ATOM      3  C   LIG    1       25.197 -28.418   7.037  0.00  0.00    +0.430 A 
ATOM      4  N   LIG    1       24.370 -29.459   7.241  0.00  0.00    -0.207 N 
ATOM      5  N   LIG    1       23.658 -29.747   6.101  0.00  0.00    -0.108 NA
ATOM      6  C   LIG    1       24.108 -28.908   5.241  0.00  0.00    +0.452 A 
BRANCH   2   7
ATOM      7  C   LIG    1       25.766 -26.994   5.003  0.00  0.00    +0.465 C 
ATOM      8  C   LIG    1       27.104 -26.684   5.667  0.00  0.00    +0.138 C 
BRANCH   7   9
ATOM      9  O   LIG    1       24.922 -25.835   4.915  0.00  0.00    -0.387 OA
BRANCH   9  11
ATOM     10  N   LIG    1       25.013 -23.561   5.447  0.00  0.00    -0.224 N 
ATOM     11  C   LIG    1       25.160 -24.879   5.887  0.00  0.00    +0.413 C 
ATOM     12  O   LIG    1       25.555 -25.204   7.003  0.00  0.00    -0.226 OA
ATOM     13  C   LIG    1       24.645 -23.247   4.072  0.00  0.00    +0.143 C 
BRANCH  10  15
ATOM     14  C   LIG    1       25.786 -21.722   6.954  0.00  0.00    +0.030 A 
ATOM     15  C   LIG    1       24.768 -22.530   6.417  0.00  0.00    +0.136 A 
ATOM     16  N   LIG    1       23.464 -22.314   6.733  0.00  0.00    -0.239 NA
ATOM     17  C   LIG    1       23.163 -21.311   7.603  0.00  0.00    +0.113 A 
ATOM     18  C   LIG    1       24.094 -20.477   8.179  0.00  0.00    +0.020 A 
ATOM     19  C   LIG    1       25.414 -20.683   7.835  0.00  0.00    +0.012 A 
BRANCH  14  20
ATOM     20  C   LIG    1       27.266 -21.969   6.847  0.00  0.00    +0.271 C 
BRANCH  20  21
ATOM     21  O   LIG    1       27.886 -21.745   8.128  0.00  0.00    -0.459 OA
BRANCH  21  22
ATOM     22  C   LIG    1       29.172 -21.259   8.127  0.00  0.00    +0.321 C 
ATOM     23  O   LIG    1       30.037 -21.549   8.941  0.00  0.00    -0.249 OA
BRANCH  22  24
ATOM     24  C   LIG    1       29.356 -20.348   6.912  0.00  0.00    +0.202 C 
BRANCH  24  26
ATOM     25  C   LIG    1       30.403 -18.355   7.790  0.00  0.00    +0.101 C 
ATOM     26  N   LIG    1       30.597 -19.556   6.989  0.00  0.00    -0.310 NA
ATOM     27  H   LIG    1       31.374 -20.119   7.336  0.00  0.00    +0.122 HD
ENDBRANCH  24  26
ENDBRANCH  22  24
ENDBRANCH  21  22
ENDBRANCH  20  21
ENDBRANCH  14  20
ENDBRANCH  10  15
ENDBRANCH   9  11
ENDBRANCH   7   9
ENDBRANCH   2   7
ENDBRANCH   1   4
BRANCH   1  28
ATOM     28  C   LIG    1       25.086 -31.220   8.984  0.00  0.00    +0.122 C 
BRANCH  28  29
ATOM     29  C   LIG    1       25.578 -32.148   7.860  0.00  0.00    +0.024 A 
ATOM     30  C   LIG    1       24.684 -32.947   7.130  0.00  0.00    +0.130 A 
ATOM     31  F   LIG    1       23.375 -32.905   7.416  0.00  0.00    -0.205 F 
ATOM     32  C   LIG    1       25.105 -33.781   6.094  0.00  0.00    +0.041 A 
ATOM     33  C   LIG    1       26.451 -33.825   5.751  0.00  0.00    +0.041 A 
ATOM     34  C   LIG    1       27.349 -33.020   6.434  0.00  0.00    +0.124 A 
ATOM     35  F   LIG    1       28.648 -33.049   6.112  0.00  0.00    -0.205 F 
ATOM     36  C   LIG    1       26.925 -32.180   7.462  0.00  0.00    +0.047 A 
ENDBRANCH  28  29
BRANCH  28  37
ATOM     37  O   LIG    1       26.192 -30.397   9.454  0.00  0.00    -0.381 OA
ATOM     38  H   LIG    1       26.963 -30.564   8.872  0.00  0.00    +0.211 HD
ENDBRANCH  28  37
BRANCH  28  39
ATOM     39  C   LIG    1       24.612 -32.132  10.195  0.00  0.00    +0.080 C 
ATOM     40  C   LIG    1       25.583 -33.266  10.561  0.00  0.00    +0.018 C 
BRANCH  39  41
ATOM     41  C   LIG    1       24.232 -31.335  11.430  0.00  0.00    +0.085 A 
ATOM     42  S   LIG    1       25.095 -31.541  12.906  0.00  0.00    -0.080 S 
ATOM     43  C   LIG    1       24.043 -30.427  13.675  0.00  0.00    +0.075 A 
ATOM     44  C   LIG    1       23.096 -29.973  12.777  0.00  0.00    +0.078 A 
ATOM     45  N   LIG    1       23.230 -30.484  11.493  0.00  0.00    -0.244 NA
BRANCH  44  46
ATOM     46  C   LIG    1       21.993 -29.086  13.132  0.00  0.00    +0.001 A 
ATOM     47  C   LIG    1       22.123 -27.704  12.926  0.00  0.00    +0.011 A 
ATOM     48  C   LIG    1       21.061 -26.836  13.196  0.00  0.00    +0.019 A 
ATOM     49  C   LIG    1       19.850 -27.336  13.686  0.00  0.00    +0.052 A 
ATOM     50  C   LIG    1       19.721 -28.707  13.922  0.00  0.00    +0.019 A 
ATOM     51  C   LIG    1       20.786 -29.577  13.647  0.00  0.00    +0.011 A 
BRANCH  49  52
ATOM     52  C   LIG    1       18.762 -26.459  13.936  0.00  0.00    +0.099 C 
ATOM     53  N   LIG    1       17.856 -25.732  14.156  0.00  0.00    -0.191 NA
ENDBRANCH  49  52
ENDBRANCH  44  46
ENDBRANCH  39  41
ENDBRANCH  28  39
ENDBRANCH   1  28
TORSDOF 17
ENDMDL
MODEL 8
REMARK VINA RESULT:      -6.9      4.103     10.566
REMARK  Name = *****
REMARK                            x       y       z     vdW  Elec       q    Type
REMARK                         _______ _______ _______ _____ _____    ______ ____
ROOT
ATOM      1  C   LIG    1       25.407 -22.211   8.460  0.00  0.00    +0.190 C 
ENDROOT
BRANCH   1   4
ATOM      2  N   LIG    1       25.195 -25.230   6.471  0.00  0.00    -0.131 N 
ATOM      3  C   LIG    1       25.912 -24.431   7.284  0.00  0.00    +0.430 A 
ATOM      4  N   LIG    1       25.096 -23.438   7.681  0.00  0.00    -0.207 N 
ATOM      5  N   LIG    1       23.854 -23.569   7.108  0.00  0.00    -0.108 NA
ATOM      6  C   LIG    1       23.946 -24.652   6.426  0.00  0.00    +0.452 A 
BRANCH   2   7
ATOM      7  C   LIG    1       25.595 -26.492   5.820  0.00  0.00    +0.465 C 
ATOM      8  C   LIG    1       25.540 -26.350   4.302  0.00  0.00    +0.138 C 
BRANCH   7   9
ATOM      9  O   LIG    1       24.741 -27.542   6.299  0.00  0.00    -0.387 OA
BRANCH   9  11
ATOM     10  N   LIG    1       24.840 -29.758   7.038  0.00  0.00    -0.224 N 
ATOM     11  C   LIG    1       25.373 -28.468   7.110  0.00  0.00    +0.413 C 
ATOM     12  O   LIG    1       26.263 -28.122   7.882  0.00  0.00    -0.226 OA
ATOM     13  C   LIG    1       23.708 -30.073   6.175  0.00  0.00    +0.143 C 
BRANCH  10  15
ATOM     14  C   LIG    1       25.654 -31.397   8.741  0.00  0.00    +0.030 A 
ATOM     15  C   LIG    1       25.657 -30.869   7.437  0.00  0.00    +0.136 A 
ATOM     16  N   LIG    1       26.388 -31.451   6.450  0.00  0.00    -0.239 NA
ATOM     17  C   LIG    1       27.138 -32.545   6.754  0.00  0.00    +0.113 A 
ATOM     18  C   LIG    1       27.198 -33.124   8.001  0.00  0.00    +0.020 A 
ATOM     19  C   LIG    1       26.435 -32.545   8.995  0.00  0.00    +0.012 A 
BRANCH  14  20
ATOM     20  C   LIG    1       25.057 -30.749   9.960  0.00  0.00    +0.271 C 
BRANCH  20  21
ATOM     21  O   LIG    1       26.015 -29.848  10.546  0.00  0.00    -0.459 OA
BRANCH  21  22
ATOM     22  C   LIG    1       25.869 -29.557  11.882  0.00  0.00    +0.321 C 
ATOM     23  O   LIG    1       25.644 -30.376  12.761  0.00  0.00    -0.249 OA
BRANCH  22  24
ATOM     24  C   LIG    1       26.093 -28.059  12.091  0.00  0.00    +0.202 C 
BRANCH  24  26
ATOM     25  C   LIG    1       27.614 -28.036  13.967  0.00  0.00    +0.101 C 
ATOM     26  N   LIG    1       27.461 -27.755  12.546  0.00  0.00    -0.310 NA
ATOM     27  H   LIG    1       28.156 -28.251  11.987  0.00  0.00    +0.122 HD
ENDBRANCH  24  26
ENDBRANCH  22  24
ENDBRANCH  21  22
ENDBRANCH  20  21
ENDBRANCH  14  20
ENDBRANCH  10  15
ENDBRANCH   9  11
ENDBRANCH   7   9
ENDBRANCH   2   7
ENDBRANCH   1   4
BRANCH   1  28
ATOM     28  C   LIG    1       26.029 -21.035   7.626  0.00  0.00    +0.122 C 
BRANCH  28  29
ATOM     29  C   LIG    1       25.159 -20.603   6.433  0.00  0.00    +0.024 A 
ATOM     30  C   LIG    1       23.780 -20.383   6.577  0.00  0.00    +0.130 A 
ATOM     31  F   LIG    1       23.205 -20.554   7.776  0.00  0.00    -0.205 F 
ATOM     32  C   LIG    1       22.975 -19.972   5.514  0.00  0.00    +0.041 A 
ATOM     33  C   LIG    1       23.546 -19.755   4.265  0.00  0.00    +0.041 A 
ATOM     34  C   LIG    1       24.911 -19.932   4.105  0.00  0.00    +0.124 A 
ATOM     35  F   LIG    1       25.474 -19.724   2.909  0.00  0.00    -0.205 F 
ATOM     36  C   LIG    1       25.714 -20.334   5.170  0.00  0.00    +0.047 A 
ENDBRANCH  28  29
BRANCH  28  37
ATOM     37  O   LIG    1       26.108 -19.945   8.589  0.00  0.00    -0.381 OA
ATOM     38  H   LIG    1       25.686 -19.156   8.189  0.00  0.00    +0.211 HD
ENDBRANCH  28  37
BRANCH  28  39
ATOM     39  C   LIG    1       27.496 -21.310   7.083  0.00  0.00    +0.080 C 
ATOM     40  C   LIG    1       27.555 -21.879   5.656  0.00  0.00    +0.018 C 
BRANCH  39  41
ATOM     41  C   LIG    1       28.417 -20.111   7.218  0.00  0.00    +0.085 A 
ATOM     42  S   LIG    1       28.996 -19.288   5.820  0.00  0.00    -0.080 S 
ATOM     43  C   LIG    1       29.920 -18.245   6.818  0.00  0.00    +0.075 A 
ATOM     44  C   LIG    1       29.747 -18.584   8.146  0.00  0.00    +0.078 A 
ATOM     45  N   LIG    1       28.869 -19.639   8.360  0.00  0.00    -0.244 NA
BRANCH  44  46
ATOM     46  C   LIG    1       30.465 -17.955   9.250  0.00  0.00    +0.001 A 
ATOM     47  C   LIG    1       31.589 -17.161   8.980  0.00  0.00    +0.011 A 
ATOM     48  C   LIG    1       32.259 -16.493  10.010  0.00  0.00    +0.019 A 
ATOM     49  C   LIG    1       31.820 -16.616  11.332  0.00  0.00    +0.052 A 
ATOM     50  C   LIG    1       30.718 -17.428  11.614  0.00  0.00    +0.019 A 
ATOM     51  C   LIG    1       30.045 -18.094  10.580  0.00  0.00    +0.011 A 
BRANCH  49  52
ATOM     52  C   LIG    1       32.483 -15.919  12.375  0.00  0.00    +0.099 C 
ATOM     53  N   LIG    1       33.025 -15.332  13.247  0.00  0.00    -0.191 NA
ENDBRANCH  49  52
ENDBRANCH  44  46
ENDBRANCH  39  41
ENDBRANCH  28  39
ENDBRANCH   1  28
TORSDOF 17
ENDMDL
MODEL 9
REMARK VINA RESULT:      -6.9      3.681     10.536
REMARK  Name = *****
REMARK                            x       y       z     vdW  Elec       q    Type
REMARK                         _______ _______ _______ _____ _____    ______ ____
ROOT
ATOM      1  C   LIG    1       23.187 -22.433   6.658  0.00  0.00    +0.190 C 
ENDROOT
BRANCH   1   4
ATOM      2  N   LIG    1       25.060 -25.436   5.893  0.00  0.00    -0.131 N 
ATOM      3  C   LIG    1       24.343 -24.718   6.776  0.00  0.00    +0.430 A 
ATOM      4  N   LIG    1       23.898 -23.627   6.128  0.00  0.00    -0.207 N 
ATOM      5  N   LIG    1       24.346 -23.614   4.829  0.00  0.00    -0.108 NA
ATOM      6  C   LIG    1       25.003 -24.712   4.723  0.00  0.00    +0.452 A 
BRANCH   2   7
ATOM      7  C   LIG    1       25.710 -26.749   6.073  0.00  0.00    +0.465 C 
ATOM      8  C   LIG    1       26.141 -27.320   4.726  0.00  0.00    +0.138 C 
BRANCH   7   9
ATOM      9  O   LIG    1       24.801 -27.617   6.765  0.00  0.00    -0.387 OA
BRANCH   9  11
ATOM     10  N   LIG    1       24.947 -29.869   7.376  0.00  0.00    -0.224 N 
ATOM     11  C   LIG    1       25.413 -28.565   7.567  0.00  0.00    +0.413 C 
ATOM     12  O   LIG    1       26.226 -28.231   8.423  0.00  0.00    -0.226 OA
ATOM     13  C   LIG    1       23.897 -30.176   6.412  0.00  0.00    +0.143 C 
BRANCH  10  15
ATOM     14  C   LIG    1       25.879 -31.424   9.098  0.00  0.00    +0.030 A 
ATOM     15  C   LIG    1       25.783 -30.968   7.771  0.00  0.00    +0.136 A 
ATOM     16  N   LIG    1       26.427 -31.613   6.762  0.00  0.00    -0.239 NA
ATOM     17  C   LIG    1       27.189 -32.699   7.066  0.00  0.00    +0.113 A 
ATOM     18  C   LIG    1       27.342 -33.210   8.334  0.00  0.00    +0.020 A 
ATOM     19  C   LIG    1       26.666 -32.568   9.352  0.00  0.00    +0.012 A 
BRANCH  14  20
ATOM     20  C   LIG    1       25.387 -30.703  10.323  0.00  0.00    +0.271 C 
BRANCH  20  21
ATOM     21  O   LIG    1       26.393 -30.760  11.353  0.00  0.00    -0.459 OA
BRANCH  21  22
ATOM     22  C   LIG    1       27.269 -29.705  11.434  0.00  0.00    +0.321 C 
ATOM     23  O   LIG    1       28.213 -29.512  10.681  0.00  0.00    -0.249 OA
BRANCH  22  24
ATOM     24  C   LIG    1       26.835 -28.787  12.578  0.00  0.00    +0.202 C 
BRANCH  24  26
ATOM     25  C   LIG    1       26.559 -26.454  13.144  0.00  0.00    +0.101 C 
ATOM     26  N   LIG    1       27.388 -27.427  12.446  0.00  0.00    -0.310 NA
ATOM     27  H   LIG    1       28.359 -27.391  12.761  0.00  0.00    +0.122 HD
ENDBRANCH  24  26
ENDBRANCH  22  24
ENDBRANCH  21  22
ENDBRANCH  20  21
ENDBRANCH  14  20
ENDBRANCH  10  15
ENDBRANCH   9  11
ENDBRANCH   7   9
ENDBRANCH   2   7
ENDBRANCH   1   4
BRANCH   1  28
ATOM     28  C   LIG    1       23.832 -21.053   6.278  0.00  0.00    +0.122 C 
BRANCH  28  29
ATOM     29  C   LIG    1       22.914 -20.161   5.425  0.00  0.00    +0.024 A 
ATOM     30  C   LIG    1       21.795 -20.689   4.762  0.00  0.00    +0.130 A 
ATOM     31  F   LIG    1       21.518 -21.997   4.871  0.00  0.00    -0.205 F 
ATOM     32  C   LIG    1       20.937 -19.897   3.999  0.00  0.00    +0.041 A 
ATOM     33  C   LIG    1       21.177 -18.531   3.892  0.00  0.00    +0.041 A 
ATOM     34  C   LIG    1       22.256 -17.980   4.565  0.00  0.00    +0.124 A 
ATOM     35  F   LIG    1       22.497 -16.667   4.473  0.00  0.00    -0.205 F 
ATOM     36  C   LIG    1       23.106 -18.772   5.334  0.00  0.00    +0.047 A 
ENDBRANCH  28  29
BRANCH  28  37
ATOM     37  O   LIG    1       24.060 -20.421   7.570  0.00  0.00    -0.381 OA
ATOM     38  H   LIG    1       24.695 -20.975   8.071  0.00  0.00    +0.211 HD
ENDBRANCH  28  37
BRANCH  28  39
ATOM     39  C   LIG    1       25.234 -21.158   5.536  0.00  0.00    +0.080 C 
ATOM     40  C   LIG    1       25.456 -20.107   4.437  0.00  0.00    +0.018 C 
BRANCH  39  41
ATOM     41  C   LIG    1       26.413 -21.190   6.491  0.00  0.00    +0.085 A 
ATOM     42  S   LIG    1       26.665 -22.542   7.528  0.00  0.00    -0.080 S 
ATOM     43  C   LIG    1       28.024 -21.756   8.219  0.00  0.00    +0.075 A 
ATOM     44  C   LIG    1       28.202 -20.517   7.636  0.00  0.00    +0.078 A 
ATOM     45  N   LIG    1       27.287 -20.216   6.634  0.00  0.00    -0.244 NA
BRANCH  44  46
ATOM     46  C   LIG    1       29.211 -19.552   8.059  0.00  0.00    +0.001 A 
ATOM     47  C   LIG    1       30.368 -19.377   7.284  0.00  0.00    +0.011 A 
ATOM     48  C   LIG    1       31.322 -18.414   7.629  0.00  0.00    +0.019 A 
ATOM     49  C   LIG    1       31.140 -17.616   8.762  0.00  0.00    +0.052 A 
ATOM     50  C   LIG    1       30.005 -17.804   9.557  0.00  0.00    +0.019 A 
ATOM     51  C   LIG    1       29.047 -18.766   9.207  0.00  0.00    +0.011 A 
BRANCH  49  52
ATOM     52  C   LIG    1       32.094 -16.621   9.099  0.00  0.00    +0.099 C 
ATOM     53  N   LIG    1       32.884 -15.785   9.373  0.00  0.00    -0.191 NA
ENDBRANCH  49  52
ENDBRANCH  44  46
ENDBRANCH  39  41
ENDBRANCH  28  39
ENDBRANCH   1  28
TORSDOF 17
ENDMDL
