MODEL 1
REMARK VINA RESULT:      -5.8      0.000      0.000
REMARK  Name = *****
REMARK                            x       y       z     vdW  Elec       q    Type
REMARK                         _______ _______ _______ _____ _____    ______ ____
ROOT
ATOM      1  O   LIG    1       31.840 -17.979   8.217  0.00  0.00    -0.186 OA
ENDROOT
BRANCH   1   3
ATOM      2  O   LIG    1       30.058 -20.711   8.496  0.00  0.00    -0.227 OA
ATOM      3  P   LIG    1       30.898 -19.423   8.364  0.00  0.00    +0.481 P 
BRANCH   3   4
ATOM      4  O   LIG    1       31.545 -19.894   6.936  0.00  0.00    -0.302 OA
ATOM      5  H   LIG    1       31.153 -20.767   6.731  0.00  0.00    +0.222 HD
ENDBRANCH   3   4
BRANCH   3   6
ATOM      6  O   LIG    1       32.112 -20.008   9.295  0.00  0.00    -0.302 OA
ATOM      7  H   LIG    1       32.834 -19.359   9.334  0.00  0.00    +0.222 HD
ENDBRANCH   3   6
ENDBRANCH   1   3
BRANCH   1   8
ATOM      8  P   LIG    1       31.947 -17.026   9.482  0.00  0.00    +0.481 P 
ATOM      9  O   LIG    1       32.603 -17.569  10.702  0.00  0.00    -0.227 OA
BRANCH   8  10
ATOM     10  O   LIG    1       30.462 -16.497   9.735  0.00  0.00    -0.302 OA
ATOM     11  H   LIG    1       30.457 -15.836  10.455  0.00  0.00    +0.222 HD
ENDBRANCH   8  10
BRANCH   8  12
ATOM     12  O   LIG    1       32.657 -15.710   8.924  0.00  0.00    -0.302 OA
ATOM     13  H   LIG    1       32.048 -14.950   8.976  0.00  0.00    +0.222 HD
ENDBRANCH   8  12
ENDBRANCH   1   8
TORSDOF 6
ENDMDL
MODEL 2
REMARK VINA RESULT:      -5.7      1.777      4.154
REMARK  Name = *****
REMARK                            x       y       z     vdW  Elec       q    Type
REMARK                         _______ _______ _______ _____ _____    ______ ____
ROOT
ATOM      1  O   LIG    1       31.792 -20.075   9.072  0.00  0.00    -0.186 OA
ENDROOT
BRANCH   1   3
ATOM      2  O   LIG    1       30.320 -17.981   7.030  0.00  0.00    -0.227 OA
ATOM      3  P   LIG    1       31.014 -18.969   7.993  0.00  0.00    +0.481 P 
BRANCH   3   4
ATOM      4  O   LIG    1       32.287 -17.967   8.233  0.00  0.00    -0.302 OA
ATOM      5  H   LIG    1       32.662 -18.202   9.105  0.00  0.00    +0.222 HD
ENDBRANCH   3   4
BRANCH   3   6
ATOM      6  O   LIG    1       31.702 -19.820   6.774  0.00  0.00    -0.302 OA
ATOM      7  H   LIG    1       31.392 -20.740   6.805  0.00  0.00    +0.222 HD
ENDBRANCH   3   6
ENDBRANCH   1   3
BRANCH   1   8
ATOM      8  P   LIG    1       31.234 -21.559   9.146  0.00  0.00    +0.481 P 
ATOM      9  O   LIG    1       30.805 -22.070  10.475  0.00  0.00    -0.227 OA
BRANCH   8  10
ATOM     10  O   LIG    1       32.347 -22.462   8.442  0.00  0.00    -0.302 OA
ATOM     11  H   LIG    1       31.926 -23.192   7.947  0.00  0.00    +0.222 HD
ENDBRANCH   8  10
BRANCH   8  12
ATOM     12  O   LIG    1       30.067 -21.596   8.057  0.00  0.00    -0.302 OA
ATOM     13  H   LIG    1       30.309 -21.050   7.285  0.00  0.00    +0.222 HD
ENDBRANCH   8  12
ENDBRANCH   1   8
TORSDOF 6
ENDMDL
MODEL 3
REMARK VINA RESULT:      -5.7      1.212      3.849
REMARK  Name = *****
REMARK                            x       y       z     vdW  Elec       q    Type
REMARK                         _______ _______ _______ _____ _____    ______ ____
ROOT
ATOM      1  O   LIG    1       32.055 -18.360   9.137  0.00  0.00    -0.186 OA
ENDROOT
BRANCH   1   3
ATOM      2  O   LIG    1       30.490 -16.379  11.221  0.00  0.00    -0.227 OA
ATOM      3  P   LIG    1       31.228 -17.313  10.238  0.00  0.00    +0.481 P 
BRANCH   3   4
ATOM      4  O   LIG    1       30.806 -18.658  11.073  0.00  0.00    -0.302 OA
ATOM      5  H   LIG    1       31.493 -19.328  10.880  0.00  0.00    +0.222 HD
ENDBRANCH   3   4
BRANCH   3   6
ATOM      6  O   LIG    1       32.673 -17.106  10.980  0.00  0.00    -0.302 OA
ATOM      7  H   LIG    1       32.922 -16.168  10.952  0.00  0.00    +0.222 HD
ENDBRANCH   3   6
ENDBRANCH   1   3
BRANCH   1   8
ATOM      8  P   LIG    1       31.302 -19.668   8.644  0.00  0.00    +0.481 P 
ATOM      9  O   LIG    1       29.822 -19.706   8.784  0.00  0.00    -0.227 OA
BRANCH   8  10
ATOM     10  O   LIG    1       32.046 -20.880   9.370  0.00  0.00    -0.302 OA
ATOM     11  H   LIG    1       32.975 -20.932   9.073  0.00  0.00    +0.222 HD
ENDBRANCH   8  10
BRANCH   8  12
ATOM     12  O   LIG    1       31.792 -19.859   7.136  0.00  0.00    -0.302 OA
ATOM     13  H   LIG    1       31.637 -19.042   6.626  0.00  0.00    +0.222 HD
ENDBRANCH   8  12
ENDBRANCH   1   8
TORSDOF 6
ENDMDL
MODEL 4
REMARK VINA RESULT:      -5.6      1.699      4.245
REMARK  Name = *****
REMARK                            x       y       z     vdW  Elec       q    Type
REMARK                         _______ _______ _______ _____ _____    ______ ____
ROOT
ATOM      1  O   LIG    1       32.119 -20.249   9.208  0.00  0.00    -0.186 OA
ENDROOT
BRANCH   1   3
ATOM      2  O   LIG    1       30.993 -17.283   8.401  0.00  0.00    -0.227 OA
ATOM      3  P   LIG    1       31.524 -18.682   8.781  0.00  0.00    +0.481 P 
BRANCH   3   4
ATOM      4  O   LIG    1       30.158 -19.067   9.598  0.00  0.00    -0.302 OA
ATOM      5  H   LIG    1       29.636 -19.645   9.005  0.00  0.00    +0.222 HD
ENDBRANCH   3   4
BRANCH   3   6
ATOM      6  O   LIG    1       32.342 -18.120  10.084  0.00  0.00    -0.302 OA
ATOM      7  H   LIG    1       33.224 -17.820   9.810  0.00  0.00    +0.222 HD
ENDBRANCH   3   6
ENDBRANCH   1   3
BRANCH   1   8
ATOM      8  P   LIG    1       31.165 -21.497   8.972  0.00  0.00    +0.481 P 
ATOM      9  O   LIG    1       30.003 -21.316   8.062  0.00  0.00    -0.227 OA
BRANCH   8  10
ATOM     10  O   LIG    1       30.763 -22.000  10.433  0.00  0.00    -0.302 OA
ATOM     11  H   LIG    1       29.924 -21.585  10.714  0.00  0.00    +0.222 HD
ENDBRANCH   8  10
BRANCH   8  12
ATOM     12  O   LIG    1       32.151 -22.662   8.501  0.00  0.00    -0.302 OA
ATOM     13  H   LIG    1       32.540 -22.444   7.633  0.00  0.00    +0.222 HD
ENDBRANCH   8  12
ENDBRANCH   1   8
TORSDOF 6
ENDMDL
MODEL 5
REMARK VINA RESULT:      -5.5      0.934      3.961
REMARK  Name = *****
REMARK                            x       y       z     vdW  Elec       q    Type
REMARK                         _______ _______ _______ _____ _____    ______ ____
ROOT
ATOM      1  O   LIG    1       30.499 -19.016   9.375  0.00  0.00    -0.186 OA
ENDROOT
BRANCH   1   3
ATOM      2  O   LIG    1       32.279 -16.341   8.750  0.00  0.00    -0.227 OA
ATOM      3  P   LIG    1       31.439 -17.603   9.045  0.00  0.00    +0.481 P 
BRANCH   3   4
ATOM      4  O   LIG    1       30.260 -16.743   9.788  0.00  0.00    -0.302 OA
ATOM      5  H   LIG    1       29.576 -16.572   9.110  0.00  0.00    +0.222 HD
ENDBRANCH   3   4
BRANCH   3   6
ATOM      6  O   LIG    1       32.274 -17.953  10.410  0.00  0.00    -0.302 OA
ATOM      7  H   LIG    1       32.628 -17.134  10.793  0.00  0.00    +0.222 HD
ENDBRANCH   3   6
ENDBRANCH   1   3
BRANCH   1   8
ATOM      8  P   LIG    1       30.941 -20.382   8.696  0.00  0.00    +0.481 P 
ATOM      9  O   LIG    1       29.928 -21.466   8.600  0.00  0.00    -0.227 OA
BRANCH   8  10
ATOM     10  O   LIG    1       32.275 -20.817   9.458  0.00  0.00    -0.302 OA
ATOM     11  H   LIG    1       32.684 -20.042   9.891  0.00  0.00    +0.222 HD
ENDBRANCH   8  10
BRANCH   8  12
ATOM     12  O   LIG    1       31.523 -19.943   7.275  0.00  0.00    -0.302 OA
ATOM     13  H   LIG    1       30.860 -20.101   6.576  0.00  0.00    +0.222 HD
ENDBRANCH   8  12
ENDBRANCH   1   8
TORSDOF 6
ENDMDL
MODEL 6
REMARK VINA RESULT:      -5.5      1.362      3.843
REMARK  Name = *****
REMARK                            x       y       z     vdW  Elec       q    Type
REMARK                         _______ _______ _______ _____ _____    ______ ____
ROOT
ATOM      1  O   LIG    1       31.958 -18.549   9.279  0.00  0.00    -0.186 OA
ENDROOT
BRANCH   1   3
ATOM      2  O   LIG    1       30.459 -16.333  11.166  0.00  0.00    -0.227 OA
ATOM      3  P   LIG    1       31.166 -17.378  10.276  0.00  0.00    +0.481 P 
BRANCH   3   4
ATOM      4  O   LIG    1       30.657 -18.630  11.201  0.00  0.00    -0.302 OA
ATOM      5  H   LIG    1       30.133 -19.210  10.614  0.00  0.00    +0.222 HD
ENDBRANCH   3   4
BRANCH   3   6
ATOM      6  O   LIG    1       32.605 -17.188  11.034  0.00  0.00    -0.302 OA
ATOM      7  H   LIG    1       33.294 -17.676  10.552  0.00  0.00    +0.222 HD
ENDBRANCH   3   6
ENDBRANCH   1   3
BRANCH   1   8
ATOM      8  P   LIG    1       31.105 -19.782   8.757  0.00  0.00    +0.481 P 
ATOM      9  O   LIG    1       31.133 -21.032   9.562  0.00  0.00    -0.227 OA
BRANCH   8  10
ATOM     10  O   LIG    1       31.551 -19.988   7.237  0.00  0.00    -0.302 OA
ATOM     11  H   LIG    1       32.391 -19.521   7.066  0.00  0.00    +0.222 HD
ENDBRANCH   8  10
BRANCH   8  12
ATOM     12  O   LIG    1       29.633 -19.191   8.573  0.00  0.00    -0.302 OA
ATOM     13  H   LIG    1       29.488 -18.449   9.189  0.00  0.00    +0.222 HD
ENDBRANCH   8  12
ENDBRANCH   1   8
TORSDOF 6
ENDMDL
MODEL 7
REMARK VINA RESULT:      -5.4      2.525      4.054
REMARK  Name = *****
REMARK                            x       y       z     vdW  Elec       q    Type
REMARK                         _______ _______ _______ _____ _____    ______ ____
ROOT
ATOM      1  O   LIG    1       30.103 -21.142   8.068  0.00  0.00    -0.186 OA
ENDROOT
BRANCH   1   3
ATOM      2  O   LIG    1       30.074 -18.102   6.851  0.00  0.00    -0.227 OA
ATOM      3  P   LIG    1       30.088 -19.536   7.425  0.00  0.00    +0.481 P 
BRANCH   3   4
ATOM      4  O   LIG    1       31.544 -19.876   6.757  0.00  0.00    -0.302 OA
ATOM      5  H   LIG    1       31.358 -20.341   5.916  0.00  0.00    +0.222 HD
ENDBRANCH   3   4
BRANCH   3   6
ATOM      6  O   LIG    1       29.196 -20.138   6.191  0.00  0.00    -0.302 OA
ATOM      7  H   LIG    1       29.785 -20.515   5.517  0.00  0.00    +0.222 HD
ENDBRANCH   3   6
ENDBRANCH   1   3
BRANCH   1   8
ATOM      8  P   LIG    1       31.205 -21.498   9.154  0.00  0.00    +0.481 P 
ATOM      9  O   LIG    1       30.751 -22.164  10.404  0.00  0.00    -0.227 OA
BRANCH   8  10
ATOM     10  O   LIG    1       32.003 -20.139   9.405  0.00  0.00    -0.302 OA
ATOM     11  H   LIG    1       31.377 -19.398   9.527  0.00  0.00    +0.222 HD
ENDBRANCH   8  10
BRANCH   8  12
ATOM     12  O   LIG    1       32.288 -22.353   8.350  0.00  0.00    -0.302 OA
ATOM     13  H   LIG    1       31.898 -22.703   7.527  0.00  0.00    +0.222 HD
ENDBRANCH   8  12
ENDBRANCH   1   8
TORSDOF 6
ENDMDL
MODEL 8
REMARK VINA RESULT:      -5.3      1.035      2.140
REMARK  Name = *****
REMARK                            x       y       z     vdW  Elec       q    Type
REMARK                         _______ _______ _______ _____ _____    ______ ____
ROOT
ATOM      1  O   LIG    1       30.390 -18.499   9.789  0.00  0.00    -0.186 OA
ENDROOT
BRANCH   1   3
ATOM      2  O   LIG    1       31.539 -19.760   6.994  0.00  0.00    -0.227 OA
ATOM      3  P   LIG    1       30.997 -19.165   8.312  0.00  0.00    +0.481 P 
BRANCH   3   4
ATOM      4  O   LIG    1       32.251 -19.751   9.188  0.00  0.00    -0.302 OA
ATOM      5  H   LIG    1       31.877 -20.041  10.044  0.00  0.00    +0.222 HD
ENDBRANCH   3   4
BRANCH   3   6
ATOM      6  O   LIG    1       29.999 -20.435   8.583  0.00  0.00    -0.302 OA
ATOM      7  H   LIG    1       29.761 -20.466   9.525  0.00  0.00    +0.222 HD
ENDBRANCH   3   6
ENDBRANCH   1   3
BRANCH   1   8
ATOM      8  P   LIG    1       31.066 -17.173  10.341  0.00  0.00    +0.481 P 
ATOM      9  O   LIG    1       30.219 -16.245  11.137  0.00  0.00    -0.227 OA
BRANCH   8  10
ATOM     10  O   LIG    1       31.747 -16.488   9.070  0.00  0.00    -0.302 OA
ATOM     11  H   LIG    1       31.667 -17.070   8.289  0.00  0.00    +0.222 HD
ENDBRANCH   8  10
BRANCH   8  12
ATOM     12  O   LIG    1       32.348 -17.689  11.142  0.00  0.00    -0.302 OA
ATOM     13  H   LIG    1       32.374 -18.665  11.142  0.00  0.00    +0.222 HD
ENDBRANCH   8  12
ENDBRANCH   1   8
TORSDOF 6
ENDMDL
MODEL 9
REMARK VINA RESULT:      -5.2      0.830      3.884
REMARK  Name = *****
REMARK                            x       y       z     vdW  Elec       q    Type
REMARK                         _______ _______ _______ _____ _____    ______ ____
ROOT
ATOM      1  O   LIG    1       31.798 -17.481   8.307  0.00  0.00    -0.186 OA
ENDROOT
BRANCH   1   3
ATOM      2  O   LIG    1       32.435 -16.268  11.280  0.00  0.00    -0.227 OA
ATOM      3  P   LIG    1       32.135 -16.840   9.878  0.00  0.00    +0.481 P 
BRANCH   3   4
ATOM      4  O   LIG    1       32.697 -15.500   9.122  0.00  0.00    -0.302 OA
ATOM      5  H   LIG    1       32.552 -15.644   8.165  0.00  0.00    +0.222 HD
ENDBRANCH   3   4
BRANCH   3   6
ATOM      6  O   LIG    1       30.569 -16.363   9.917  0.00  0.00    -0.302 OA
ATOM      7  H   LIG    1       30.463 -15.552   9.393  0.00  0.00    +0.222 HD
ENDBRANCH   3   6
ENDBRANCH   1   3
BRANCH   1   8
ATOM      8  P   LIG    1       31.337 -18.997   8.205  0.00  0.00    +0.481 P 
ATOM      9  O   LIG    1       31.500 -19.681   6.894  0.00  0.00    -0.227 OA
BRANCH   8  10
ATOM     10  O   LIG    1       29.839 -19.019   8.757  0.00  0.00    -0.302 OA
ATOM     11  H   LIG    1       29.557 -19.938   8.930  0.00  0.00    +0.222 HD
ENDBRANCH   8  10
BRANCH   8  12
ATOM     12  O   LIG    1       32.118 -19.727   9.391  0.00  0.00    -0.302 OA
ATOM     13  H   LIG    1       33.067 -19.501   9.358  0.00  0.00    +0.222 HD
ENDBRANCH   8  12
ENDBRANCH   1   8
TORSDOF 6
ENDMDL
