MODEL 1
REMARK VINA RESULT:       1.1      0.000      0.000
REMARK  Name = *****
REMARK                            x       y       z     vdW  Elec       q    Type
REMARK                         _______ _______ _______ _____ _____    ______ ____
ROOT
ATOM      1  C   LIG    1       17.688 -30.880  12.774  0.00  0.00    +0.034 C 
ATOM      2  C   LIG    1       19.036 -30.759  11.885  0.00  0.00    +0.082 C 
ATOM      3  N   LIG    1       19.408 -31.985  11.202  0.00  0.00    -0.294 NA
ATOM      4  C   LIG    1       20.212 -32.799  12.111  0.00  0.00    +0.086 C 
ATOM      5  C   LIG    1       20.614 -31.838  13.266  0.00  0.00    +0.030 C 
ATOM      6  C   LIG    1       18.349 -32.584  10.411  0.00  0.00    +0.112 C 
ATOM      7  C   LIG    1       16.956 -32.065  10.705  0.00  0.00    -0.015 C 
ATOM      8  C   LIG    1       20.287 -30.447  12.677  0.00  0.00    +0.037 C 
ATOM      9  C   LIG    1       20.052 -29.121  13.448  0.00  0.00    +0.128 C 
ATOM     10  C   LIG    1       18.732 -28.950  14.225  0.00  0.00    +0.187 C 
ATOM     11  N   LIG    1       21.321 -28.916  14.199  0.00  0.00    -0.325 N 
ATOM     12  C   LIG    1       21.590 -27.652  14.878  0.00  0.00    +0.130 C 
ATOM     13  C   LIG    1       22.231 -29.232  13.128  0.00  0.00    +0.037 A 
ATOM     14  C   LIG    1       23.564 -28.918  13.052  0.00  0.00    +0.069 A 
ATOM     15  C   LIG    1       24.373 -29.471  12.035  0.00  0.00    +0.127 A 
ATOM     16  C   LIG    1       23.819 -30.294  10.990  0.00  0.00    +0.017 A 
ATOM     17  C   LIG    1       22.416 -30.524  11.055  0.00  0.00    +0.014 A 
ATOM     18  C   LIG    1       21.659 -30.039  12.135  0.00  0.00    -0.016 A 
ATOM     19  C   LIG    1       17.500 -29.454  13.398  0.00  0.00    +0.168 C 
ATOM     20  C   LIG    1       16.630 -31.276  11.750  0.00  0.00    -0.019 C 
ENDROOT
BRANCH  16  21
ATOM     21  C   LIG    1       24.692 -30.976   9.809  0.00  0.00    +0.136 C 
ATOM     22  C   LIG    1       25.216 -29.925   8.721  0.00  0.00    +0.042 C 
ATOM     23  C   LIG    1       26.204 -29.956   7.693  0.00  0.00    -0.017 C 
ATOM     24  C   LIG    1       26.125 -28.694   6.989  0.00  0.00    +0.003 C 
ATOM     25  C   LIG    1       25.103 -27.956   7.562  0.00  0.00    +0.047 C 
ATOM     26  C   LIG    1       24.727 -26.686   7.115  0.00  0.00    +0.026 C 
ATOM     27  C   LIG    1       25.433 -26.139   6.042  0.00  0.00    +0.002 C 
ATOM     28  C   LIG    1       26.468 -26.847   5.438  0.00  0.00    +0.001 C 
ATOM     29  C   LIG    1       26.822 -28.122   5.898  0.00  0.00    +0.010 C 
ATOM     30  C   LIG    1       27.205 -31.024   7.271  0.00  0.00    +0.053 C 
ATOM     31  C   LIG    1       26.810 -31.891   6.025  0.00  0.00    +0.089 C 
ATOM     32  N   LIG    1       26.010 -33.121   6.188  0.00  0.00    -0.299 NA
ATOM     33  C   LIG    1       25.038 -33.413   5.115  0.00  0.00    +0.119 C 
ATOM     34  C   LIG    1       23.546 -32.931   5.285  0.00  0.00    +0.079 C 
ATOM     35  C   LIG    1       23.102 -33.034   6.774  0.00  0.00    +0.040 C 
ATOM     36  C   LIG    1       24.189 -32.423   7.651  0.00  0.00    +0.007 C 
ATOM     37  C   LIG    1       25.425 -33.306   7.506  0.00  0.00    +0.088 C 
ATOM     38  N   LIG    1       24.588 -28.712   8.578  0.00  0.00    -0.356 NA
ATOM     39  H   LIG    1       23.779 -28.427   9.111  0.00  0.00    +0.166 HD
ATOM     40  C   LIG    1       23.788 -32.092   9.098  0.00  0.00    +0.034 C 
BRANCH  21  41
ATOM     41  C   LIG    1       26.009 -31.634  10.403  0.00  0.00    +0.324 C 
ATOM     42  O   LIG    1       27.078 -31.131  10.469  0.00  0.00    -0.249 OA
BRANCH  41  43
ATOM     43  O   LIG    1       25.724 -32.902  10.862  0.00  0.00    -0.467 OA
ATOM     44  C   LIG    1       26.094 -33.188  12.214  0.00  0.00    +0.280 C 
ENDBRANCH  41  43
ENDBRANCH  21  41
BRANCH  34  45
ATOM     45  C   LIG    1       23.282 -31.493   4.761  0.00  0.00    +0.033 C 
ATOM     46  C   LIG    1       23.401 -30.378   5.794  0.00  0.00    +0.007 C 
ENDBRANCH  34  45
BRANCH  34  47
ATOM     47  O   LIG    1       22.675 -33.825   4.570  0.00  0.00    -0.387 OA
ATOM     48  H   LIG    1       23.218 -34.335   3.945  0.00  0.00    +0.210 HD
ENDBRANCH  34  47
ENDBRANCH  16  21
BRANCH  10  49
ATOM     49  C   LIG    1       18.471 -27.424  14.393  0.00  0.00    +0.247 C 
ATOM     50  O   LIG    1       18.884 -26.567  13.617  0.00  0.00    -0.273 OA
ATOM     51  N   LIG    1       17.754 -27.052  15.497  0.00  0.00    -0.327 N 
ATOM     52  H   LIG    1       17.226 -27.743  16.016  0.00  0.00    +0.145 HD
ATOM     53  H   LIG    1       17.480 -26.079  15.557  0.00  0.00    +0.145 HD
ENDBRANCH  10  49
BRANCH   1  55
ATOM     54  C   LIG    1       16.260 -32.736  14.126  0.00  0.00    +0.005 C 
ATOM     55  C   LIG    1       17.588 -31.990  13.895  0.00  0.00    +0.012 C 
ENDBRANCH   1  55
BRANCH  10  56
ATOM     56  O   LIG    1       18.792 -29.607  15.500  0.00  0.00    -0.375 OA
ATOM     57  H   LIG    1       17.940 -30.087  15.578  0.00  0.00    +0.211 HD
ENDBRANCH  10  56
BRANCH  15  58
ATOM     58  O   LIG    1       25.745 -29.306  12.095  0.00  0.00    -0.495 OA
ATOM     59  C   LIG    1       26.335 -29.223  13.401  0.00  0.00    +0.277 C 
ENDBRANCH  15  58
BRANCH  19  60
ATOM     60  O   LIG    1       16.349 -29.377  14.254  0.00  0.00    -0.388 OA
ATOM     61  H   LIG    1       16.392 -30.166  14.832  0.00  0.00    +0.210 HD
ENDBRANCH  19  60
TORSDOF 10
ENDMDL
MODEL 2
REMARK VINA RESULT:       3.0      2.047      9.448
REMARK  Name = *****
REMARK                            x       y       z     vdW  Elec       q    Type
REMARK                         _______ _______ _______ _____ _____    ______ ____
ROOT
ATOM      1  C   LIG    1       25.265 -28.526   5.280  0.00  0.00    +0.034 C 
ATOM      2  C   LIG    1       24.530 -28.928   6.665  0.00  0.00    +0.082 C 
ATOM      3  N   LIG    1       24.614 -27.911   7.698  0.00  0.00    -0.294 NA
ATOM      4  C   LIG    1       25.862 -28.097   8.435  0.00  0.00    +0.086 C 
ATOM      5  C   LIG    1       26.365 -29.511   8.026  0.00  0.00    +0.030 C 
ATOM      6  C   LIG    1       24.191 -26.587   7.281  0.00  0.00    +0.112 C 
ATOM      7  C   LIG    1       24.083 -26.389   5.783  0.00  0.00    -0.015 C 
ATOM      8  C   LIG    1       25.117 -30.136   7.363  0.00  0.00    +0.037 C 
ATOM      9  C   LIG    1       25.064 -31.334   6.379  0.00  0.00    +0.128 C 
ATOM     10  C   LIG    1       25.553 -31.119   4.933  0.00  0.00    +0.187 C 
ATOM     11  N   LIG    1       25.672 -32.454   7.149  0.00  0.00    -0.325 N 
ATOM     12  C   LIG    1       25.604 -33.825   6.652  0.00  0.00    +0.130 C 
ATOM     13  C   LIG    1       24.984 -32.228   8.394  0.00  0.00    +0.037 A 
ATOM     14  C   LIG    1       24.837 -33.111   9.432  0.00  0.00    +0.069 A 
ATOM     15  C   LIG    1       24.312 -32.679  10.671  0.00  0.00    +0.127 A 
ATOM     16  C   LIG    1       23.821 -31.338  10.859  0.00  0.00    +0.017 A 
ATOM     17  C   LIG    1       23.910 -30.477   9.728  0.00  0.00    +0.014 A 
ATOM     18  C   LIG    1       24.527 -30.911   8.544  0.00  0.00    -0.016 A 
ATOM     19  C   LIG    1       25.037 -29.762   4.342  0.00  0.00    +0.168 C 
ATOM     20  C   LIG    1       24.538 -27.256   4.854  0.00  0.00    -0.019 C 
ENDROOT
BRANCH  16  21
ATOM     21  C   LIG    1       23.228 -30.772  12.256  0.00  0.00    +0.136 C 
ATOM     22  C   LIG    1       21.646 -30.974  12.400  0.00  0.00    +0.042 C 
ATOM     23  C   LIG    1       20.725 -30.914  13.487  0.00  0.00    -0.017 C 
ATOM     24  C   LIG    1       19.402 -31.106  12.932  0.00  0.00    +0.003 C 
ATOM     25  C   LIG    1       19.536 -31.242  11.560  0.00  0.00    +0.047 C 
ATOM     26  C   LIG    1       18.452 -31.420  10.695  0.00  0.00    +0.026 C 
ATOM     27  C   LIG    1       17.174 -31.471  11.256  0.00  0.00    +0.002 C 
ATOM     28  C   LIG    1       16.995 -31.340  12.629  0.00  0.00    +0.001 C 
ATOM     29  C   LIG    1       18.096 -31.154  13.477  0.00  0.00    +0.010 C 
ATOM     30  C   LIG    1       20.920 -30.683  14.980  0.00  0.00    +0.053 C 
ATOM     31  C   LIG    1       20.631 -29.232  15.500  0.00  0.00    +0.089 C 
ATOM     32  N   LIG    1       21.695 -28.208  15.499  0.00  0.00    -0.299 NA
ATOM     33  C   LIG    1       21.270 -26.825  15.201  0.00  0.00    +0.119 C 
ATOM     34  C   LIG    1       21.358 -26.303  13.716  0.00  0.00    +0.079 C 
ATOM     35  C   LIG    1       22.607 -26.894  13.000  0.00  0.00    +0.040 C 
ATOM     36  C   LIG    1       22.661 -28.395  13.269  0.00  0.00    +0.007 C 
ATOM     37  C   LIG    1       22.898 -28.568  14.766  0.00  0.00    +0.088 C 
ATOM     38  N   LIG    1       20.871 -31.158  11.281  0.00  0.00    -0.356 NA
ATOM     39  H   LIG    1       21.230 -31.156  10.338  0.00  0.00    +0.166 HD
ATOM     40  C   LIG    1       23.591 -29.215  12.360  0.00  0.00    +0.034 C 
BRANCH  21  41
ATOM     41  C   LIG    1       23.851 -31.563  13.482  0.00  0.00    +0.324 C 
ATOM     42  O   LIG    1       23.345 -32.455  14.074  0.00  0.00    -0.249 OA
BRANCH  41  43
ATOM     43  O   LIG    1       25.107 -31.068  13.760  0.00  0.00    -0.467 OA
ATOM     44  C   LIG    1       25.455 -30.955  15.143  0.00  0.00    +0.280 C 
ENDBRANCH  41  43
ENDBRANCH  21  41
BRANCH  34  45
ATOM     45  C   LIG    1       20.088 -26.588  12.869  0.00  0.00    +0.033 C 
ATOM     46  C   LIG    1       18.757 -26.247  13.529  0.00  0.00    +0.007 C 
ENDBRANCH  34  45
BRANCH  34  47
ATOM     47  O   LIG    1       21.567 -24.880  13.726  0.00  0.00    -0.387 OA
ATOM     48  H   LIG    1       21.057 -24.498  12.992  0.00  0.00    +0.210 HD
ENDBRANCH  34  47
ENDBRANCH  16  21
BRANCH  10  49
ATOM     49  C   LIG    1       24.881 -32.199   4.035  0.00  0.00    +0.247 C 
ATOM     50  O   LIG    1       23.857 -32.804   4.339  0.00  0.00    -0.273 OA
ATOM     51  N   LIG    1       25.510 -32.478   2.853  0.00  0.00    -0.327 N 
ATOM     52  H   LIG    1       26.213 -31.845   2.490  0.00  0.00    +0.145 HD
ATOM     53  H   LIG    1       25.024 -33.091   2.211  0.00  0.00    +0.145 HD
ENDBRANCH  10  49
BRANCH   1  55
ATOM     54  C   LIG    1       27.260 -26.847   4.562  0.00  0.00    +0.005 C 
ATOM     55  C   LIG    1       26.793 -28.120   5.295  0.00  0.00    +0.012 C 
ENDBRANCH   1  55
BRANCH  10  56
ATOM     56  O   LIG    1       26.984 -31.197   4.853  0.00  0.00    -0.375 OA
ATOM     57  H   LIG    1       27.302 -30.934   5.743  0.00  0.00    +0.211 HD
ENDBRANCH  10  56
BRANCH  15  58
ATOM     58  O   LIG    1       24.361 -33.528  11.762  0.00  0.00    -0.495 OA
ATOM     59  C   LIG    1       25.659 -33.823  12.300  0.00  0.00    +0.277 C 
ENDBRANCH  15  58
BRANCH  19  60
ATOM     60  O   LIG    1       25.654 -29.595   3.055  0.00  0.00    -0.388 OA
ATOM     61  H   LIG    1       25.480 -30.425   2.565  0.00  0.00    +0.210 HD
ENDBRANCH  19  60
TORSDOF 10
ENDMDL
