MODEL 1
REMARK VINA RESULT:      -8.8      0.000      0.000
REMARK  Name = *****
REMARK                            x       y       z     vdW  Elec       q    Type
REMARK                         _______ _______ _______ _____ _____    ______ ____
ROOT
ATOM      1  N   LIG    1       26.184 -22.083   6.670  0.00  0.00    -0.301 N 
ATOM      2  H   LIG    1       26.379 -22.288   5.696  0.00  0.00    +0.150 HD
ATOM      3  C   LIG    1       27.153 -21.548   7.475  0.00  0.00    +0.231 C 
ATOM      4  O   LIG    1       27.006 -21.463   8.694  0.00  0.00    -0.274 OA
ENDROOT
BRANCH   1   5
ATOM      5  C   LIG    1       24.892 -22.538   7.208  0.00  0.00    +0.186 C 
BRANCH   5   6
ATOM      6  C   LIG    1       24.377 -23.806   6.480  0.00  0.00    +0.328 C 
ATOM      7  O   LIG    1       23.357 -24.397   6.754  0.00  0.00    -0.249 OA
BRANCH   6   9
ATOM      8  C   LIG    1       25.165 -25.378   4.855  0.00  0.00    +0.280 C 
ATOM      9  O   LIG    1       25.187 -24.049   5.394  0.00  0.00    -0.467 OA
ENDBRANCH   6   9
ENDBRANCH   5   6
BRANCH   5  10
ATOM     10  C   LIG    1       23.817 -21.416   7.232  0.00  0.00    +0.069 C 
BRANCH  10  11
ATOM     11  C   LIG    1       23.692 -20.565   5.979  0.00  0.00    -0.045 A 
ATOM     12  C   LIG    1       24.714 -20.520   5.017  0.00  0.00    +0.003 A 
ATOM     13  C   LIG    1       24.578 -19.724   3.873  0.00  0.00    +0.000 A 
ATOM     14  C   LIG    1       23.421 -18.974   3.668  0.00  0.00    +0.000 A 
ATOM     15  C   LIG    1       22.414 -18.991   4.623  0.00  0.00    +0.000 A 
ATOM     16  C   LIG    1       22.568 -19.753   5.781  0.00  0.00    +0.003 A 
ENDBRANCH  10  11
ENDBRANCH   5  10
ENDBRANCH   1   5
BRANCH   3  17
ATOM     17  C   LIG    1       28.445 -21.075   6.774  0.00  0.00    +0.148 C 
BRANCH  17  18
ATOM     18  N   LIG    1       28.154 -20.316   5.548  0.00  0.00    -0.320 NA
ATOM     19  H   LIG    1       28.010 -20.928   4.748  0.00  0.00    +0.119 HD
ATOM     20  H   LIG    1       27.292 -19.778   5.657  0.00  0.00    +0.119 HD
ENDBRANCH  17  18
BRANCH  17  21
ATOM     21  C   LIG    1       29.351 -20.285   7.728  0.00  0.00    +0.148 C 
BRANCH  21  22
ATOM     22  C   LIG    1       30.441 -19.460   7.084  0.00  0.00    +0.307 C 
ATOM     23  O   LIG    1       30.209 -18.413   6.471  0.00  0.00    -0.251 OA
BRANCH  22  24
ATOM     24  O   LIG    1       31.688 -19.952   7.160  0.00  0.00    -0.481 OA
ATOM     25  H   LIG    1       31.799 -20.695   7.806  0.00  0.00    +0.295 HD
ENDBRANCH  22  24
ENDBRANCH  21  22
ENDBRANCH  17  21
ENDBRANCH   3  17
TORSDOF 10
ENDMDL
MODEL 2
REMARK VINA RESULT:      -8.7      2.067      4.986
REMARK  Name = *****
REMARK                            x       y       z     vdW  Elec       q    Type
REMARK                         _______ _______ _______ _____ _____    ______ ____
ROOT
ATOM      1  N   LIG    1       25.136 -23.320   7.388  0.00  0.00    -0.301 N 
ATOM      2  H   LIG    1       25.275 -23.755   8.293  0.00  0.00    +0.150 HD
ATOM      3  C   LIG    1       24.882 -24.084   6.281  0.00  0.00    +0.231 C 
ATOM      4  O   LIG    1       24.893 -23.603   5.148  0.00  0.00    -0.274 OA
ENDROOT
BRANCH   1   5
ATOM      5  C   LIG    1       25.382 -21.872   7.292  0.00  0.00    +0.186 C 
BRANCH   5   6
ATOM      6  C   LIG    1       26.273 -21.359   8.452  0.00  0.00    +0.328 C 
ATOM      7  O   LIG    1       25.863 -20.814   9.452  0.00  0.00    -0.249 OA
BRANCH   6   9
ATOM      8  C   LIG    1       28.304 -21.026   7.228  0.00  0.00    +0.280 C 
ATOM      9  O   LIG    1       27.570 -21.757   8.220  0.00  0.00    -0.467 OA
ENDBRANCH   6   9
ENDBRANCH   5   6
BRANCH   5  10
ATOM     10  C   LIG    1       24.074 -21.041   7.164  0.00  0.00    +0.069 C 
BRANCH  10  11
ATOM     11  C   LIG    1       23.883 -20.268   5.870  0.00  0.00    -0.045 A 
ATOM     12  C   LIG    1       22.654 -19.672   5.546  0.00  0.00    +0.003 A 
ATOM     13  C   LIG    1       22.500 -18.969   4.343  0.00  0.00    +0.000 A 
ATOM     14  C   LIG    1       23.569 -18.844   3.458  0.00  0.00    +0.000 A 
ATOM     15  C   LIG    1       24.782 -19.450   3.755  0.00  0.00    +0.000 A 
ATOM     16  C   LIG    1       24.921 -20.182   4.933  0.00  0.00    +0.003 A 
ENDBRANCH  10  11
ENDBRANCH   5  10
ENDBRANCH   1   5
BRANCH   3  17
ATOM     17  C   LIG    1       24.601 -25.581   6.529  0.00  0.00    +0.148 C 
BRANCH  17  18
ATOM     18  N   LIG    1       23.681 -26.138   5.525  0.00  0.00    -0.320 NA
ATOM     19  H   LIG    1       23.814 -27.139   5.401  0.00  0.00    +0.119 HD
ATOM     20  H   LIG    1       22.711 -26.010   5.820  0.00  0.00    +0.119 HD
ENDBRANCH  17  18
BRANCH  17  21
ATOM     21  C   LIG    1       25.899 -26.395   6.622  0.00  0.00    +0.148 C 
BRANCH  21  22
ATOM     22  C   LIG    1       26.611 -26.669   5.319  0.00  0.00    +0.307 C 
ATOM     23  O   LIG    1       26.024 -26.693   4.231  0.00  0.00    -0.251 OA
BRANCH  22  24
ATOM     24  O   LIG    1       27.922 -26.948   5.399  0.00  0.00    -0.481 OA
ATOM     25  H   LIG    1       28.263 -27.532   4.676  0.00  0.00    +0.295 HD
ENDBRANCH  22  24
ENDBRANCH  21  22
ENDBRANCH  17  21
ENDBRANCH   3  17
TORSDOF 10
ENDMDL
MODEL 3
REMARK VINA RESULT:      -8.7      1.203      1.787
REMARK  Name = *****
REMARK                            x       y       z     vdW  Elec       q    Type
REMARK                         _______ _______ _______ _____ _____    ______ ____
ROOT
ATOM      1  N   LIG    1       25.785 -21.724   7.282  0.00  0.00    -0.301 N 
ATOM      2  H   LIG    1       26.283 -22.044   6.459  0.00  0.00    +0.150 HD
ATOM      3  C   LIG    1       26.410 -20.934   8.209  0.00  0.00    +0.231 C 
ATOM      4  O   LIG    1       25.894 -20.686   9.299  0.00  0.00    -0.274 OA
ENDROOT
BRANCH   1   5
ATOM      5  C   LIG    1       24.441 -22.278   7.514  0.00  0.00    +0.186 C 
BRANCH   5   6
ATOM      6  C   LIG    1       24.252 -23.647   6.812  0.00  0.00    +0.328 C 
ATOM      7  O   LIG    1       23.210 -24.260   6.758  0.00  0.00    -0.249 OA
BRANCH   6   9
ATOM      8  C   LIG    1       25.939 -25.284   6.354  0.00  0.00    +0.280 C 
ATOM      9  O   LIG    1       25.415 -23.965   6.147  0.00  0.00    -0.467 OA
ENDBRANCH   6   9
ENDBRANCH   5   6
BRANCH   5  10
ATOM     10  C   LIG    1       23.304 -21.284   7.145  0.00  0.00    +0.069 C 
BRANCH  10  11
ATOM     11  C   LIG    1       23.477 -20.500   5.854  0.00  0.00    -0.045 A 
ATOM     12  C   LIG    1       22.555 -19.517   5.463  0.00  0.00    +0.003 A 
ATOM     13  C   LIG    1       22.733 -18.812   4.265  0.00  0.00    +0.000 A 
ATOM     14  C   LIG    1       23.834 -19.070   3.452  0.00  0.00    +0.000 A 
ATOM     15  C   LIG    1       24.741 -20.057   3.815  0.00  0.00    +0.000 A 
ATOM     16  C   LIG    1       24.541 -20.785   4.988  0.00  0.00    +0.003 A 
ENDBRANCH  10  11
ENDBRANCH   5  10
ENDBRANCH   1   5
BRANCH   3  17
ATOM     17  C   LIG    1       27.800 -20.387   7.821  0.00  0.00    +0.148 C 
BRANCH  17  18
ATOM     18  N   LIG    1       28.881 -21.285   8.255  0.00  0.00    -0.320 NA
ATOM     19  H   LIG    1       28.531 -22.056   8.819  0.00  0.00    +0.119 HD
ATOM     20  H   LIG    1       29.342 -21.707   7.446  0.00  0.00    +0.119 HD
ENDBRANCH  17  18
BRANCH  17  21
ATOM     21  C   LIG    1       27.889 -20.077   6.320  0.00  0.00    +0.148 C 
BRANCH  21  22
ATOM     22  C   LIG    1       29.055 -19.221   5.883  0.00  0.00    +0.307 C 
ATOM     23  O   LIG    1       30.159 -19.265   6.437  0.00  0.00    -0.251 OA
BRANCH  22  24
ATOM     24  O   LIG    1       28.821 -18.354   4.886  0.00  0.00    -0.481 OA
ATOM     25  H   LIG    1       28.379 -17.513   5.167  0.00  0.00    +0.295 HD
ENDBRANCH  22  24
ENDBRANCH  21  22
ENDBRANCH  17  21
ENDBRANCH   3  17
TORSDOF 10
ENDMDL
MODEL 4
REMARK VINA RESULT:      -8.6      2.299      5.861
REMARK  Name = *****
REMARK                            x       y       z     vdW  Elec       q    Type
REMARK                         _______ _______ _______ _____ _____    ______ ____
ROOT
ATOM      1  N   LIG    1       25.757 -24.187   6.915  0.00  0.00    -0.301 N 
ATOM      2  H   LIG    1       26.197 -24.604   7.728  0.00  0.00    +0.150 HD
ATOM      3  C   LIG    1       25.465 -24.949   5.816  0.00  0.00    +0.231 C 
ATOM      4  O   LIG    1       25.106 -24.440   4.754  0.00  0.00    -0.274 OA
ENDROOT
BRANCH   1   5
ATOM      5  C   LIG    1       25.607 -22.723   6.907  0.00  0.00    +0.186 C 
BRANCH   5   6
ATOM      6  C   LIG    1       26.246 -22.069   8.159  0.00  0.00    +0.328 C 
ATOM      7  O   LIG    1       25.681 -21.893   9.214  0.00  0.00    -0.249 OA
BRANCH   6   9
ATOM      8  C   LIG    1       27.919 -20.953   6.858  0.00  0.00    +0.280 C 
ATOM      9  O   LIG    1       27.586 -21.866   7.913  0.00  0.00    -0.467 OA
ENDBRANCH   6   9
ENDBRANCH   5   6
BRANCH   5  10
ATOM     10  C   LIG    1       24.134 -22.266   6.712  0.00  0.00    +0.069 C 
BRANCH  10  11
ATOM     11  C   LIG    1       23.896 -21.143   5.716  0.00  0.00    -0.045 A 
ATOM     12  C   LIG    1       24.808 -20.872   4.682  0.00  0.00    +0.003 A 
ATOM     13  C   LIG    1       24.569 -19.827   3.780  0.00  0.00    +0.000 A 
ATOM     14  C   LIG    1       23.419 -19.049   3.890  0.00  0.00    +0.000 A 
ATOM     15  C   LIG    1       22.522 -19.290   4.922  0.00  0.00    +0.000 A 
ATOM     16  C   LIG    1       22.780 -20.305   5.843  0.00  0.00    +0.003 A 
ENDBRANCH  10  11
ENDBRANCH   5  10
ENDBRANCH   1   5
BRANCH   3  17
ATOM     17  C   LIG    1       25.629 -26.476   5.974  0.00  0.00    +0.148 C 
BRANCH  17  18
ATOM     18  N   LIG    1       26.277 -26.825   7.248  0.00  0.00    -0.320 NA
ATOM     19  H   LIG    1       26.711 -27.745   7.214  0.00  0.00    +0.119 HD
ATOM     20  H   LIG    1       27.025 -26.162   7.462  0.00  0.00    +0.119 HD
ENDBRANCH  17  18
BRANCH  17  21
ATOM     21  C   LIG    1       24.294 -27.211   5.796  0.00  0.00    +0.148 C 
BRANCH  21  22
ATOM     22  C   LIG    1       24.379 -28.698   5.540  0.00  0.00    +0.307 C 
ATOM     23  O   LIG    1       25.455 -29.290   5.403  0.00  0.00    -0.251 OA
BRANCH  22  24
ATOM     24  O   LIG    1       23.213 -29.350   5.409  0.00  0.00    -0.481 OA
ATOM     25  H   LIG    1       22.448 -28.777   5.151  0.00  0.00    +0.295 HD
ENDBRANCH  22  24
ENDBRANCH  21  22
ENDBRANCH  17  21
ENDBRANCH   3  17
TORSDOF 10
ENDMDL
MODEL 5
REMARK VINA RESULT:      -8.6      2.368      6.039
REMARK  Name = *****
REMARK                            x       y       z     vdW  Elec       q    Type
REMARK                         _______ _______ _______ _____ _____    ______ ____
ROOT
ATOM      1  N   LIG    1       25.820 -24.308   6.781  0.00  0.00    -0.301 N 
ATOM      2  H   LIG    1       26.286 -24.705   7.589  0.00  0.00    +0.150 HD
ATOM      3  C   LIG    1       25.470 -25.099   5.721  0.00  0.00    +0.231 C 
ATOM      4  O   LIG    1       25.075 -24.618   4.658  0.00  0.00    -0.274 OA
ENDROOT
BRANCH   1   5
ATOM      5  C   LIG    1       25.693 -22.842   6.731  0.00  0.00    +0.186 C 
BRANCH   5   6
ATOM      6  C   LIG    1       26.454 -22.156   7.895  0.00  0.00    +0.328 C 
ATOM      7  O   LIG    1       26.032 -22.031   9.022  0.00  0.00    -0.249 OA
BRANCH   6   9
ATOM      8  C   LIG    1       27.901 -20.618   6.764  0.00  0.00    +0.280 C 
ATOM      9  O   LIG    1       27.729 -21.855   7.469  0.00  0.00    -0.467 OA
ENDBRANCH   6   9
ENDBRANCH   5   6
BRANCH   5  10
ATOM     10  C   LIG    1       24.217 -22.363   6.653  0.00  0.00    +0.069 C 
BRANCH  10  11
ATOM     11  C   LIG    1       23.922 -21.217   5.699  0.00  0.00    -0.045 A 
ATOM     12  C   LIG    1       22.766 -20.431   5.831  0.00  0.00    +0.003 A 
ATOM     13  C   LIG    1       22.514 -19.384   4.935  0.00  0.00    +0.000 A 
ATOM     14  C   LIG    1       23.412 -19.102   3.908  0.00  0.00    +0.000 A 
ATOM     15  C   LIG    1       24.546 -19.888   3.752  0.00  0.00    +0.000 A 
ATOM     16  C   LIG    1       24.776 -20.954   4.620  0.00  0.00    +0.003 A 
ENDBRANCH  10  11
ENDBRANCH   5  10
ENDBRANCH   1   5
BRANCH   3  17
ATOM     17  C   LIG    1       25.615 -26.622   5.922  0.00  0.00    +0.148 C 
BRANCH  17  18
ATOM     18  N   LIG    1       26.243 -26.944   7.213  0.00  0.00    -0.320 NA
ATOM     19  H   LIG    1       27.084 -27.505   7.098  0.00  0.00    +0.119 HD
ATOM     20  H   LIG    1       26.530 -26.089   7.694  0.00  0.00    +0.119 HD
ENDBRANCH  17  18
BRANCH  17  21
ATOM     21  C   LIG    1       24.275 -27.349   5.746  0.00  0.00    +0.148 C 
BRANCH  21  22
ATOM     22  C   LIG    1       24.348 -28.837   5.503  0.00  0.00    +0.307 C 
ATOM     23  O   LIG    1       25.420 -29.439   5.372  0.00  0.00    -0.251 OA
BRANCH  22  24
ATOM     24  O   LIG    1       23.178 -29.482   5.376  0.00  0.00    -0.481 OA
ATOM     25  H   LIG    1       22.586 -29.421   6.169  0.00  0.00    +0.295 HD
ENDBRANCH  22  24
ENDBRANCH  21  22
ENDBRANCH  17  21
ENDBRANCH   3  17
TORSDOF 10
ENDMDL
MODEL 6
REMARK VINA RESULT:      -8.3      1.524      2.196
REMARK  Name = *****
REMARK                            x       y       z     vdW  Elec       q    Type
REMARK                         _______ _______ _______ _____ _____    ______ ____
ROOT
ATOM      1  N   LIG    1       27.315 -21.210   6.526  0.00  0.00    -0.301 N 
ATOM      2  H   LIG    1       27.756 -21.720   5.769  0.00  0.00    +0.150 HD
ATOM      3  C   LIG    1       28.061 -20.422   7.360  0.00  0.00    +0.231 C 
ATOM      4  O   LIG    1       27.587 -19.942   8.391  0.00  0.00    -0.274 OA
ENDROOT
BRANCH   1   5
ATOM      5  C   LIG    1       25.892 -21.486   6.784  0.00  0.00    +0.186 C 
BRANCH   5   6
ATOM      6  C   LIG    1       25.702 -22.652   7.787  0.00  0.00    +0.328 C 
ATOM      7  O   LIG    1       25.944 -22.595   8.971  0.00  0.00    -0.249 OA
BRANCH   6   9
ATOM      8  C   LIG    1       25.898 -24.825   6.798  0.00  0.00    +0.280 C 
ATOM      9  O   LIG    1       25.082 -23.695   7.136  0.00  0.00    -0.467 OA
ENDBRANCH   6   9
ENDBRANCH   5   6
BRANCH   5  10
ATOM     10  C   LIG    1       25.072 -21.710   5.483  0.00  0.00    +0.069 C 
BRANCH  10  11
ATOM     11  C   LIG    1       24.236 -20.539   4.995  0.00  0.00    -0.045 A 
ATOM     12  C   LIG    1       22.939 -20.309   5.482  0.00  0.00    +0.003 A 
ATOM     13  C   LIG    1       22.185 -19.226   5.011  0.00  0.00    +0.000 A 
ATOM     14  C   LIG    1       22.717 -18.356   4.062  0.00  0.00    +0.000 A 
ATOM     15  C   LIG    1       23.988 -18.587   3.553  0.00  0.00    +0.000 A 
ATOM     16  C   LIG    1       24.722 -19.688   3.994  0.00  0.00    +0.003 A 
ENDBRANCH  10  11
ENDBRANCH   5  10
ENDBRANCH   1   5
BRANCH   3  17
ATOM     17  C   LIG    1       29.529 -20.182   6.949  0.00  0.00    +0.148 C 
BRANCH  17  18
ATOM     18  N   LIG    1       29.753 -18.797   6.507  0.00  0.00    -0.320 NA
ATOM     19  H   LIG    1       29.969 -18.745   5.514  0.00  0.00    +0.119 HD
ATOM     20  H   LIG    1       28.910 -18.237   6.648  0.00  0.00    +0.119 HD
ENDBRANCH  17  18
BRANCH  17  21
ATOM     21  C   LIG    1       30.504 -20.586   8.063  0.00  0.00    +0.148 C 
BRANCH  21  22
ATOM     22  C   LIG    1       31.003 -19.472   8.952  0.00  0.00    +0.307 C 
ATOM     23  O   LIG    1       32.193 -19.348   9.260  0.00  0.00    -0.251 OA
BRANCH  22  24
ATOM     24  O   LIG    1       30.074 -18.639   9.448  0.00  0.00    -0.481 OA
ATOM     25  H   LIG    1       30.061 -17.741   9.029  0.00  0.00    +0.295 HD
ENDBRANCH  22  24
ENDBRANCH  21  22
ENDBRANCH  17  21
ENDBRANCH   3  17
TORSDOF 10
ENDMDL
MODEL 7
REMARK VINA RESULT:      -8.3      2.820      6.229
REMARK  Name = *****
REMARK                            x       y       z     vdW  Elec       q    Type
REMARK                         _______ _______ _______ _____ _____    ______ ____
ROOT
ATOM      1  N   LIG    1       25.181 -22.960   5.713  0.00  0.00    -0.301 N 
ATOM      2  H   LIG    1       24.742 -22.927   4.799  0.00  0.00    +0.150 HD
ATOM      3  C   LIG    1       25.535 -24.158   6.271  0.00  0.00    +0.231 C 
ATOM      4  O   LIG    1       25.896 -24.242   7.446  0.00  0.00    -0.274 OA
ENDROOT
BRANCH   1   5
ATOM      5  C   LIG    1       25.262 -21.698   6.467  0.00  0.00    +0.186 C 
BRANCH   5   6
ATOM      6  C   LIG    1       23.858 -21.169   6.859  0.00  0.00    +0.328 C 
ATOM      7  O   LIG    1       23.268 -21.456   7.875  0.00  0.00    -0.249 OA
BRANCH   6   9
ATOM      8  C   LIG    1       22.409 -20.572   5.049  0.00  0.00    +0.280 C 
ATOM      9  O   LIG    1       23.475 -20.217   5.940  0.00  0.00    -0.467 OA
ENDBRANCH   6   9
ENDBRANCH   5   6
BRANCH   5  10
ATOM     10  C   LIG    1       26.101 -20.610   5.740  0.00  0.00    +0.069 C 
BRANCH  10  11
ATOM     11  C   LIG    1       27.508 -20.374   6.263  0.00  0.00    -0.045 A 
ATOM     12  C   LIG    1       28.335 -19.377   5.721  0.00  0.00    +0.003 A 
ATOM     13  C   LIG    1       29.631 -19.182   6.217  0.00  0.00    +0.000 A 
ATOM     14  C   LIG    1       30.112 -19.968   7.261  0.00  0.00    +0.000 A 
ATOM     15  C   LIG    1       29.314 -20.973   7.790  0.00  0.00    +0.000 A 
ATOM     16  C   LIG    1       28.039 -21.192   7.269  0.00  0.00    +0.003 A 
ENDBRANCH  10  11
ENDBRANCH   5  10
ENDBRANCH   1   5
BRANCH   3  17
ATOM     17  C   LIG    1       25.441 -25.398   5.356  0.00  0.00    +0.148 C 
BRANCH  17  18
ATOM     18  N   LIG    1       26.643 -26.241   5.454  0.00  0.00    -0.320 NA
ATOM     19  H   LIG    1       26.655 -26.787   6.312  0.00  0.00    +0.119 HD
ATOM     20  H   LIG    1       26.671 -26.913   4.684  0.00  0.00    +0.119 HD
ENDBRANCH  17  18
BRANCH  17  21
ATOM     21  C   LIG    1       24.161 -26.202   5.620  0.00  0.00    +0.148 C 
BRANCH  21  22
ATOM     22  C   LIG    1       24.346 -27.666   5.943  0.00  0.00    +0.307 C 
ATOM     23  O   LIG    1       24.992 -28.056   6.921  0.00  0.00    -0.251 OA
BRANCH  22  24
ATOM     24  O   LIG    1       23.817 -28.542   5.074  0.00  0.00    -0.481 OA
ATOM     25  H   LIG    1       22.887 -28.339   4.799  0.00  0.00    +0.295 HD
ENDBRANCH  22  24
ENDBRANCH  21  22
ENDBRANCH  17  21
ENDBRANCH   3  17
TORSDOF 10
ENDMDL
MODEL 8
REMARK VINA RESULT:      -8.3      2.147      4.117
REMARK  Name = *****
REMARK                            x       y       z     vdW  Elec       q    Type
REMARK                         _______ _______ _______ _____ _____    ______ ____
ROOT
ATOM      1  N   LIG    1       27.837 -21.001   7.155  0.00  0.00    -0.301 N 
ATOM      2  H   LIG    1       28.332 -21.150   8.027  0.00  0.00    +0.150 HD
ATOM      3  C   LIG    1       28.296 -20.090   6.242  0.00  0.00    +0.231 C 
ATOM      4  O   LIG    1       27.622 -19.756   5.268  0.00  0.00    -0.274 OA
ENDROOT
BRANCH   1   5
ATOM      5  C   LIG    1       26.537 -21.672   6.996  0.00  0.00    +0.186 C 
BRANCH   5   6
ATOM      6  C   LIG    1       25.364 -20.781   7.480  0.00  0.00    +0.328 C 
ATOM      7  O   LIG    1       25.210 -20.395   8.617  0.00  0.00    -0.249 OA
BRANCH   6   9
ATOM      8  C   LIG    1       23.211 -20.607   6.447  0.00  0.00    +0.280 C 
ATOM      9  O   LIG    1       24.627 -20.391   6.385  0.00  0.00    -0.467 OA
ENDBRANCH   6   9
ENDBRANCH   5   6
BRANCH   5  10
ATOM     10  C   LIG    1       26.496 -23.079   7.654  0.00  0.00    +0.069 C 
BRANCH  10  11
ATOM     11  C   LIG    1       25.681 -24.143   6.938  0.00  0.00    -0.045 A 
ATOM     12  C   LIG    1       26.292 -25.249   6.326  0.00  0.00    +0.003 A 
ATOM     13  C   LIG    1       25.519 -26.213   5.666  0.00  0.00    +0.000 A 
ATOM     14  C   LIG    1       24.132 -26.092   5.617  0.00  0.00    +0.000 A 
ATOM     15  C   LIG    1       23.517 -24.991   6.196  0.00  0.00    +0.000 A 
ATOM     16  C   LIG    1       24.291 -24.012   6.819  0.00  0.00    +0.003 A 
ENDBRANCH  10  11
ENDBRANCH   5  10
ENDBRANCH   1   5
BRANCH   3  17
ATOM     17  C   LIG    1       29.694 -19.493   6.510  0.00  0.00    +0.148 C 
BRANCH  17  18
ATOM     18  N   LIG    1       29.925 -18.271   5.723  0.00  0.00    -0.320 NA
ATOM     19  H   LIG    1       30.720 -17.740   6.071  0.00  0.00    +0.119 HD
ATOM     20  H   LIG    1       30.139 -18.508   4.752  0.00  0.00    +0.119 HD
ENDBRANCH  17  18
BRANCH  17  21
ATOM     21  C   LIG    1       29.933 -19.257   8.007  0.00  0.00    +0.148 C 
BRANCH  21  22
ATOM     22  C   LIG    1       31.367 -19.043   8.430  0.00  0.00    +0.307 C 
ATOM     23  O   LIG    1       31.955 -19.808   9.202  0.00  0.00    -0.251 OA
BRANCH  22  24
ATOM     24  O   LIG    1       31.970 -17.936   7.967  0.00  0.00    -0.481 OA
ATOM     25  H   LIG    1       32.846 -17.739   8.386  0.00  0.00    +0.295 HD
ENDBRANCH  22  24
ENDBRANCH  21  22
ENDBRANCH  17  21
ENDBRANCH   3  17
TORSDOF 10
ENDMDL
MODEL 9
REMARK VINA RESULT:      -8.3      3.237      5.660
REMARK  Name = *****
REMARK                            x       y       z     vdW  Elec       q    Type
REMARK                         _______ _______ _______ _____ _____    ______ ____
ROOT
ATOM      1  N   LIG    1       24.242 -22.894   6.393  0.00  0.00    -0.301 N 
ATOM      2  H   LIG    1       25.171 -22.986   5.997  0.00  0.00    +0.150 HD
ATOM      3  C   LIG    1       23.460 -23.998   6.597  0.00  0.00    +0.231 C 
ATOM      4  O   LIG    1       22.270 -23.900   6.899  0.00  0.00    -0.274 OA
ENDROOT
BRANCH   1   5
ATOM      5  C   LIG    1       23.721 -21.529   6.574  0.00  0.00    +0.186 C 
BRANCH   5   6
ATOM      6  C   LIG    1       23.415 -20.842   5.219  0.00  0.00    +0.328 C 
ATOM      7  O   LIG    1       23.849 -21.198   4.147  0.00  0.00    -0.249 OA
BRANCH   6   9
ATOM      8  C   LIG    1       22.413 -18.801   4.467  0.00  0.00    +0.280 C 
ATOM      9  O   LIG    1       22.464 -19.867   5.424  0.00  0.00    -0.467 OA
ENDBRANCH   6   9
ENDBRANCH   5   6
BRANCH   5  10
ATOM     10  C   LIG    1       24.634 -20.646   7.470  0.00  0.00    +0.069 C 
BRANCH  10  11
ATOM     11  C   LIG    1       26.125 -20.691   7.177  0.00  0.00    -0.045 A 
ATOM     12  C   LIG    1       26.663 -20.113   6.017  0.00  0.00    +0.003 A 
ATOM     13  C   LIG    1       28.040 -20.173   5.766  0.00  0.00    +0.000 A 
ATOM     14  C   LIG    1       28.895 -20.800   6.670  0.00  0.00    +0.000 A 
ATOM     15  C   LIG    1       28.373 -21.397   7.809  0.00  0.00    +0.000 A 
ATOM     16  C   LIG    1       26.997 -21.370   8.037  0.00  0.00    +0.003 A 
ENDBRANCH  10  11
ENDBRANCH   5  10
ENDBRANCH   1   5
BRANCH   3  17
ATOM     17  C   LIG    1       24.144 -25.369   6.410  0.00  0.00    +0.148 C 
BRANCH  17  18
ATOM     18  N   LIG    1       23.755 -26.005   5.142  0.00  0.00    -0.320 NA
ATOM     19  H   LIG    1       24.432 -25.826   4.404  0.00  0.00    +0.119 HD
ATOM     20  H   LIG    1       23.710 -27.020   5.251  0.00  0.00    +0.119 HD
ENDBRANCH  17  18
BRANCH  17  21
ATOM     21  C   LIG    1       25.669 -25.266   6.549  0.00  0.00    +0.148 C 
BRANCH  21  22
ATOM     22  C   LIG    1       26.457 -26.507   6.201  0.00  0.00    +0.307 C 
ATOM     23  O   LIG    1       26.925 -26.704   5.074  0.00  0.00    -0.251 OA
BRANCH  22  24
ATOM     24  O   LIG    1       26.581 -27.429   7.169  0.00  0.00    -0.481 OA
ATOM     25  H   LIG    1       27.188 -28.180   6.946  0.00  0.00    +0.295 HD
ENDBRANCH  22  24
ENDBRANCH  21  22
ENDBRANCH  17  21
ENDBRANCH   3  17
TORSDOF 10
ENDMDL
