MODEL 1
REMARK VINA RESULT:      37.7      0.000      0.000
REMARK  Name = *****
REMARK                            x       y       z     vdW  Elec       q    Type
REMARK                         _______ _______ _______ _____ _____    ______ ____
ROOT
ATOM      1  O   LIG    1       26.455 -15.931   2.661  0.00  0.00    -0.340 OA
ENDROOT
BRANCH   1   5
ATOM      2  C   LIG    1       26.325 -13.050   4.180  0.00  0.00    +0.283 C 
ATOM      3  C   LIG    1       27.289 -12.752   3.029  0.00  0.00    +0.201 C 
ATOM      4  C   LIG    1       28.033 -14.046   2.579  0.00  0.00    +0.180 C 
ATOM      5  C   LIG    1       27.661 -15.361   3.277  0.00  0.00    +0.192 C 
ATOM      6  C   LIG    1       27.478 -15.101   4.776  0.00  0.00    +0.261 C 
ATOM      7  O   LIG    1       27.148 -13.725   5.106  0.00  0.00    -0.332 OA
BRANCH   6   8
ATOM      8  C   LIG    1       28.719 -15.377   5.642  0.00  0.00    +0.337 C 
ATOM      9  O   LIG    1       29.394 -14.552   6.234  0.00  0.00    -0.248 OA
BRANCH   8  10
ATOM     10  O   LIG    1       29.049 -16.672   5.789  0.00  0.00    -0.479 OA
ATOM     11  H   LIG    1       29.939 -16.662   5.370  0.00  0.00    +0.295 HD
ENDBRANCH   8  10
ENDBRANCH   6   8
BRANCH   4  12
ATOM     12  O   LIG    1       29.448 -13.889   2.693  0.00  0.00    -0.386 OA
ATOM     13  H   LIG    1       29.733 -14.624   3.264  0.00  0.00    +0.210 HD
ENDBRANCH   4  12
BRANCH   3  14
ATOM     14  O   LIG    1       26.646 -12.109   1.925  0.00  0.00    -0.384 OA
ATOM     15  H   LIG    1       25.762 -12.493   1.775  0.00  0.00    +0.210 HD
ENDBRANCH   3  14
BRANCH   2  16
ATOM     16  O   LIG    1       25.731 -11.881   4.789  0.00  0.00    -0.341 OA
BRANCH  16  18
ATOM     17  C   LIG    1       23.551 -12.453   6.010  0.00  0.00    +0.160 C 
ATOM     18  C   LIG    1       24.264 -11.748   4.819  0.00  0.00    +0.177 C 
ATOM     19  C   LIG    1       23.597 -12.151   3.487  0.00  0.00    +0.176 C 
ATOM     20  C   LIG    1       23.303 -13.669   3.426  0.00  0.00    +0.178 C 
ATOM     21  O   LIG    1       23.928 -14.389   4.482  0.00  0.00    -0.341 OA
ATOM     22  C   LIG    1       23.490 -13.974   5.781  0.00  0.00    +0.270 C 
BRANCH  17  25
ATOM     23  C   LIG    1       19.820 -12.153   6.850  0.00  0.00    +0.109 C 
ATOM     24  C   LIG    1       21.180 -12.803   6.750  0.00  0.00    +0.210 C 
ATOM     25  N   LIG    1       22.161 -11.995   6.243  0.00  0.00    -0.305 N 
ATOM     26  H   LIG    1       21.986 -10.997   6.215  0.00  0.00    +0.149 HD
ATOM     27  O   LIG    1       21.370 -13.972   7.062  0.00  0.00    -0.276 OA
ENDBRANCH  17  25
BRANCH  22  28
ATOM     28  O   LIG    1       24.170 -14.635   6.834  0.00  0.00    -0.365 OA
ATOM     29  H   LIG    1       25.116 -14.361   6.767  0.00  0.00    +0.212 HD
ENDBRANCH  22  28
BRANCH  19  30
ATOM     30  O   LIG    1       22.341 -11.469   3.319  0.00  0.00    -0.387 OA
ATOM     31  H   LIG    1       22.152 -11.009   4.159  0.00  0.00    +0.210 HD
ENDBRANCH  19  30
BRANCH  20  32
ATOM     32  C   LIG    1       23.762 -14.227   2.066  0.00  0.00    +0.190 C 
BRANCH  32  33
ATOM     33  O   LIG    1       25.101 -13.825   1.813  0.00  0.00    -0.392 OA
ATOM     34  H   LIG    1       25.080 -13.105   1.161  0.00  0.00    +0.209 HD
ENDBRANCH  32  33
ENDBRANCH  20  32
ENDBRANCH  16  18
ENDBRANCH   2  16
ENDBRANCH   1   5
BRANCH   1  35
ATOM     35  C   LIG    1       25.672 -16.705   3.606  0.00  0.00    +0.274 C 
ATOM     36  C   LIG    1       24.607 -17.625   2.898  0.00  0.00    +0.160 C 
ATOM     37  C   LIG    1       25.192 -19.033   2.511  0.00  0.00    +0.177 C 
ATOM     38  C   LIG    1       26.623 -19.228   3.058  0.00  0.00    +0.176 C 
ATOM     39  C   LIG    1       26.581 -18.810   4.517  0.00  0.00    +0.178 C 
ATOM     40  O   LIG    1       26.481 -17.391   4.573  0.00  0.00    -0.341 OA
BRANCH  36  41
ATOM     41  N   LIG    1       23.453 -17.637   3.813  0.00  0.00    -0.305 N 
ATOM     42  H   LIG    1       23.637 -18.083   4.703  0.00  0.00    +0.149 HD
ATOM     43  C   LIG    1       22.131 -17.526   3.513  0.00  0.00    +0.210 C 
ATOM     44  O   LIG    1       21.653 -17.842   2.416  0.00  0.00    -0.276 OA
ATOM     45  C   LIG    1       21.296 -16.960   4.634  0.00  0.00    +0.109 C 
ENDBRANCH  36  41
BRANCH  38  46
ATOM     46  O   LIG    1       27.140 -20.529   2.819  0.00  0.00    -0.387 OA
ATOM     47  H   LIG    1       26.368 -21.093   2.596  0.00  0.00    +0.210 HD
ENDBRANCH  38  46
BRANCH  39  48
ATOM     48  C   LIG    1       27.752 -19.303   5.387  0.00  0.00    +0.190 C 
BRANCH  48  49
ATOM     49  O   LIG    1       28.715 -20.034   4.648  0.00  0.00    -0.392 OA
ATOM     50  H   LIG    1       28.210 -20.558   3.990  0.00  0.00    +0.209 HD
ENDBRANCH  48  49
ENDBRANCH  39  48
BRANCH  37  51
ATOM     51  O   LIG    1       24.334 -20.181   2.605  0.00  0.00    -0.341 OA
BRANCH  51  52
ATOM     52  C   LIG    1       24.370 -21.191   3.624  0.00  0.00    +0.283 C 
ATOM     53  C   LIG    1       25.261 -20.582   4.746  0.00  0.00    +0.201 C 
ATOM     54  C   LIG    1       24.492 -19.410   5.401  0.00  0.00    +0.179 C 
ATOM     55  C   LIG    1       22.999 -19.656   5.589  0.00  0.00    +0.185 C 
ATOM     56  C   LIG    1       22.740 -21.140   5.477  0.00  0.00    +0.260 C 
ATOM     57  O   LIG    1       23.048 -21.559   4.105  0.00  0.00    -0.332 OA
BRANCH  56  58
ATOM     58  C   LIG    1       21.276 -21.365   5.739  0.00  0.00    +0.337 C 
ATOM     59  O   LIG    1       20.753 -21.571   6.881  0.00  0.00    -0.248 OA
BRANCH  58  60
ATOM     60  O   LIG    1       20.529 -21.315   4.640  0.00  0.00    -0.479 OA
ATOM     61  H   LIG    1       19.750 -20.784   4.931  0.00  0.00    +0.295 HD
ENDBRANCH  58  60
ENDBRANCH  56  58
BRANCH  55  62
ATOM     62  O   LIG    1       22.614 -19.034   6.812  0.00  0.00    -0.386 OA
ATOM     63  H   LIG    1       21.768 -18.579   6.630  0.00  0.00    +0.210 HD
ENDBRANCH  55  62
BRANCH  54  64
ATOM     64  O   LIG    1       24.574 -18.203   4.634  0.00  0.00    -0.386 OA
ATOM     65  H   LIG    1       25.329 -17.694   5.004  0.00  0.00    +0.210 HD
ENDBRANCH  54  64
BRANCH  53  66
ATOM     66  O   LIG    1       25.624 -21.569   5.728  0.00  0.00    -0.384 OA
ATOM     67  H   LIG    1       26.000 -22.330   5.243  0.00  0.00    +0.210 HD
ENDBRANCH  53  66
ENDBRANCH  51  52
ENDBRANCH  37  51
ENDBRANCH   1  35
TORSDOF 24
ENDMDL
MODEL 2
REMARK VINA RESULT:      39.0      1.326      3.181
REMARK  Name = *****
REMARK                            x       y       z     vdW  Elec       q    Type
REMARK                         _______ _______ _______ _____ _____    ______ ____
ROOT
ATOM      1  O   LIG    1       26.109 -16.061   2.491  0.00  0.00    -0.340 OA
ENDROOT
BRANCH   1   5
ATOM      2  C   LIG    1       26.360 -13.228   4.084  0.00  0.00    +0.283 C 
ATOM      3  C   LIG    1       27.237 -12.974   2.857  0.00  0.00    +0.201 C 
ATOM      4  C   LIG    1       27.826 -14.309   2.308  0.00  0.00    +0.180 C 
ATOM      5  C   LIG    1       27.409 -15.611   3.006  0.00  0.00    +0.192 C 
ATOM      6  C   LIG    1       27.386 -15.385   4.521  0.00  0.00    +0.261 C 
ATOM      7  O   LIG    1       27.204 -13.998   4.914  0.00  0.00    -0.332 OA
BRANCH   6   8
ATOM      8  C   LIG    1       28.673 -15.788   5.261  0.00  0.00    +0.337 C 
ATOM      9  O   LIG    1       29.296 -15.113   6.063  0.00  0.00    -0.248 OA
BRANCH   8  10
ATOM     10  O   LIG    1       29.113 -17.036   5.022  0.00  0.00    -0.479 OA
ATOM     11  H   LIG    1       30.083 -16.879   5.075  0.00  0.00    +0.295 HD
ENDBRANCH   8  10
ENDBRANCH   6   8
BRANCH   4  12
ATOM     12  O   LIG    1       29.253 -14.272   2.294  0.00  0.00    -0.386 OA
ATOM     13  H   LIG    1       29.479 -13.342   2.474  0.00  0.00    +0.210 HD
ENDBRANCH   4  12
BRANCH   3  14
ATOM     14  O   LIG    1       26.553 -12.246   1.833  0.00  0.00    -0.384 OA
ATOM     15  H   LIG    1       27.099 -12.199   1.026  0.00  0.00    +0.210 HD
ENDBRANCH   3  14
BRANCH   2  16
ATOM     16  O   LIG    1       25.924 -12.035   4.774  0.00  0.00    -0.341 OA
BRANCH  16  18
ATOM     17  C   LIG    1       23.924 -12.491   6.311  0.00  0.00    +0.160 C 
ATOM     18  C   LIG    1       24.487 -11.827   5.020  0.00  0.00    +0.177 C 
ATOM     19  C   LIG    1       23.609 -12.198   3.807  0.00  0.00    +0.176 C 
ATOM     20  C   LIG    1       23.233 -13.699   3.805  0.00  0.00    +0.178 C 
ATOM     21  O   LIG    1       23.972 -14.448   4.764  0.00  0.00    -0.341 OA
ATOM     22  C   LIG    1       23.753 -14.007   6.109  0.00  0.00    +0.270 C 
BRANCH  17  25
ATOM     23  C   LIG    1       20.197 -11.842   6.946  0.00  0.00    +0.109 C 
ATOM     24  C   LIG    1       21.422 -12.583   6.465  0.00  0.00    +0.210 C 
ATOM     25  N   LIG    1       22.609 -11.961   6.743  0.00  0.00    -0.305 N 
ATOM     26  H   LIG    1       22.607 -11.225   7.439  0.00  0.00    +0.149 HD
ATOM     27  O   LIG    1       21.347 -13.635   5.841  0.00  0.00    -0.276 OA
ENDBRANCH  17  25
BRANCH  22  28
ATOM     28  O   LIG    1       24.548 -14.700   7.056  0.00  0.00    -0.365 OA
ATOM     29  H   LIG    1       23.942 -15.329   7.518  0.00  0.00    +0.212 HD
ENDBRANCH  22  28
BRANCH  19  30
ATOM     30  O   LIG    1       22.378 -11.453   3.819  0.00  0.00    -0.387 OA
ATOM     31  H   LIG    1       22.364 -10.941   4.651  0.00  0.00    +0.210 HD
ENDBRANCH  19  30
BRANCH  20  32
ATOM     32  C   LIG    1       23.456 -14.283   2.398  0.00  0.00    +0.190 C 
BRANCH  32  33
ATOM     33  O   LIG    1       22.284 -14.963   1.971  0.00  0.00    -0.392 OA
ATOM     34  H   LIG    1       22.106 -14.708   1.051  0.00  0.00    +0.209 HD
ENDBRANCH  32  33
ENDBRANCH  20  32
ENDBRANCH  16  18
ENDBRANCH   2  16
ENDBRANCH   1   5
BRANCH   1  35
ATOM     35  C   LIG    1       25.840 -17.447   2.824  0.00  0.00    +0.274 C 
ATOM     36  C   LIG    1       25.946 -17.729   4.370  0.00  0.00    +0.160 C 
ATOM     37  C   LIG    1       24.588 -17.477   5.122  0.00  0.00    +0.177 C 
ATOM     38  C   LIG    1       23.439 -17.164   4.139  0.00  0.00    +0.176 C 
ATOM     39  C   LIG    1       23.508 -18.222   3.053  0.00  0.00    +0.178 C 
ATOM     40  O   LIG    1       24.633 -17.942   2.225  0.00  0.00    -0.341 OA
BRANCH  36  41
ATOM     41  N   LIG    1       26.492 -19.094   4.467  0.00  0.00    -0.305 N 
ATOM     42  H   LIG    1       25.898 -19.805   4.059  0.00  0.00    +0.149 HD
ATOM     43  C   LIG    1       27.414 -19.580   5.340  0.00  0.00    +0.210 C 
ATOM     44  O   LIG    1       27.615 -19.092   6.460  0.00  0.00    -0.276 OA
ATOM     45  C   LIG    1       28.193 -20.759   4.812  0.00  0.00    +0.109 C 
ENDBRANCH  36  41
BRANCH  38  46
ATOM     46  O   LIG    1       22.177 -17.037   4.776  0.00  0.00    -0.387 OA
ATOM     47  H   LIG    1       22.361 -16.984   5.739  0.00  0.00    +0.210 HD
ENDBRANCH  38  46
BRANCH  39  48
ATOM     48  C   LIG    1       22.238 -18.387   2.199  0.00  0.00    +0.190 C 
BRANCH  48  49
ATOM     49  O   LIG    1       21.197 -17.508   2.588  0.00  0.00    -0.392 OA
ATOM     50  H   LIG    1       20.504 -18.072   2.991  0.00  0.00    +0.209 HD
ENDBRANCH  48  49
ENDBRANCH  39  48
BRANCH  37  51
ATOM     51  O   LIG    1       24.242 -18.336   6.220  0.00  0.00    -0.341 OA
BRANCH  51  52
ATOM     52  C   LIG    1       24.246 -19.772   6.214  0.00  0.00    +0.283 C 
ATOM     53  C   LIG    1       22.837 -20.167   6.747  0.00  0.00    +0.201 C 
ATOM     54  C   LIG    1       21.784 -19.786   5.680  0.00  0.00    +0.179 C 
ATOM     55  C   LIG    1       22.214 -20.048   4.241  0.00  0.00    +0.185 C 
ATOM     56  C   LIG    1       23.384 -21.003   4.257  0.00  0.00    +0.260 C 
ATOM     57  O   LIG    1       24.519 -20.332   4.901  0.00  0.00    -0.332 OA
BRANCH  56  58
ATOM     58  C   LIG    1       23.742 -21.305   2.827  0.00  0.00    +0.337 C 
ATOM     59  O   LIG    1       22.929 -21.316   1.848  0.00  0.00    -0.248 OA
BRANCH  58  60
ATOM     60  O   LIG    1       25.035 -21.556   2.649  0.00  0.00    -0.479 OA
ATOM     61  H   LIG    1       25.219 -22.245   3.331  0.00  0.00    +0.295 HD
ENDBRANCH  58  60
ENDBRANCH  56  58
BRANCH  55  62
ATOM     62  O   LIG    1       21.059 -20.468   3.519  0.00  0.00    -0.386 OA
ATOM     63  H   LIG    1       20.579 -21.082   4.110  0.00  0.00    +0.210 HD
ENDBRANCH  55  62
BRANCH  54  64
ATOM     64  O   LIG    1       21.444 -18.395   5.716  0.00  0.00    -0.386 OA
ATOM     65  H   LIG    1       22.294 -17.907   5.780  0.00  0.00    +0.210 HD
ENDBRANCH  54  64
BRANCH  53  66
ATOM     66  O   LIG    1       22.765 -21.569   7.060  0.00  0.00    -0.384 OA
ATOM     67  H   LIG    1       23.589 -21.799   7.533  0.00  0.00    +0.210 HD
ENDBRANCH  53  66
ENDBRANCH  51  52
ENDBRANCH  37  51
ENDBRANCH   1  35
TORSDOF 24
ENDMDL
