MODEL 1
REMARK VINA RESULT:      -8.4      0.000      0.000
REMARK  Name = *****
REMARK                            x       y       z     vdW  Elec       q    Type
REMARK                         _______ _______ _______ _____ _____    ______ ____
ROOT
ATOM      1  N   LIG    1       25.491 -21.671   5.883  0.00  0.00    -0.310 N 
ENDROOT
BRANCH   1   2
ATOM      2  C   LIG    1       24.607 -20.733   5.310  0.00  0.00    +0.121 A 
ATOM      3  N   LIG    1       24.935 -20.122   4.151  0.00  0.00    -0.240 NA
ATOM      4  C   LIG    1       24.068 -19.228   3.627  0.00  0.00    +0.113 A 
ATOM      5  C   LIG    1       22.842 -18.911   4.191  0.00  0.00    +0.020 A 
ATOM      6  C   LIG    1       22.498 -19.541   5.372  0.00  0.00    +0.005 A 
ATOM      7  C   LIG    1       23.388 -20.453   5.945  0.00  0.00    +0.043 A 
ENDBRANCH   1   2
BRANCH   1   8
ATOM      8  C   LIG    1       26.002 -21.217   7.190  0.00  0.00    +0.141 C 
BRANCH   8  12
ATOM      9  C   LIG    1       30.176 -20.033   7.139  0.00  0.00    +0.120 A 
ATOM     10  C   LIG    1       29.281 -19.424   6.262  0.00  0.00    +0.046 A 
ATOM     11  C   LIG    1       27.932 -19.831   6.255  0.00  0.00    +0.009 A 
ATOM     12  C   LIG    1       27.465 -20.815   7.137  0.00  0.00    -0.030 A 
ATOM     13  C   LIG    1       28.381 -21.431   7.988  0.00  0.00    +0.009 A 
ATOM     14  C   LIG    1       29.720 -21.053   7.980  0.00  0.00    +0.046 A 
BRANCH   9  16
ATOM     15  C   LIG    1       31.757 -18.564   8.080  0.00  0.00    +0.277 C 
ATOM     16  O   LIG    1       31.469 -19.587   7.121  0.00  0.00    -0.495 OA
ENDBRANCH   9  16
ENDBRANCH   8  12
ENDBRANCH   1   8
BRANCH   1  17
ATOM     17  C   LIG    1       24.949 -23.050   5.806  0.00  0.00    +0.122 C 
BRANCH  17  18
ATOM     18  C   LIG    1       25.715 -24.097   6.663  0.00  0.00    +0.103 C 
BRANCH  18  19
ATOM     19  N   LIG    1       26.069 -25.347   5.947  0.00  0.00    -0.307 NA
ATOM     20  C   LIG    1       25.160 -25.543   4.810  0.00  0.00    +0.104 C 
ATOM     21  C   LIG    1       26.018 -26.525   6.815  0.00  0.00    +0.104 C 
ENDBRANCH  18  19
ENDBRANCH  17  18
ENDBRANCH   1  17
TORSDOF 7
ENDMDL
MODEL 2
REMARK VINA RESULT:      -7.7      2.694      6.442
REMARK  Name = *****
REMARK                            x       y       z     vdW  Elec       q    Type
REMARK                         _______ _______ _______ _____ _____    ______ ____
ROOT
ATOM      1  N   LIG    1       26.515 -21.160   6.218  0.00  0.00    -0.310 N 
ENDROOT
BRANCH   1   2
ATOM      2  C   LIG    1       27.792 -20.684   6.581  0.00  0.00    +0.121 A 
ATOM      3  N   LIG    1       28.479 -21.292   7.572  0.00  0.00    -0.240 NA
ATOM      4  C   LIG    1       29.699 -20.813   7.897  0.00  0.00    +0.113 A 
ATOM      5  C   LIG    1       30.311 -19.745   7.261  0.00  0.00    +0.020 A 
ATOM      6  C   LIG    1       29.614 -19.124   6.241  0.00  0.00    +0.005 A 
ATOM      7  C   LIG    1       28.341 -19.588   5.899  0.00  0.00    +0.043 A 
ENDBRANCH   1   2
BRANCH   1   8
ATOM      8  C   LIG    1       25.821 -21.794   7.356  0.00  0.00    +0.141 C 
BRANCH   8  12
ATOM      9  C   LIG    1       24.398 -25.758   6.314  0.00  0.00    +0.120 A 
ATOM     10  C   LIG    1       23.481 -24.720   6.467  0.00  0.00    +0.046 A 
ATOM     11  C   LIG    1       23.939 -23.441   6.838  0.00  0.00    +0.009 A 
ATOM     12  C   LIG    1       25.304 -23.182   7.023  0.00  0.00    -0.030 A 
ATOM     13  C   LIG    1       26.203 -24.240   6.891  0.00  0.00    +0.009 A 
ATOM     14  C   LIG    1       25.754 -25.512   6.552  0.00  0.00    +0.046 A 
BRANCH   9  16
ATOM     15  C   LIG    1       24.873 -27.849   5.343  0.00  0.00    +0.277 C 
ATOM     16  O   LIG    1       23.905 -26.976   5.932  0.00  0.00    -0.495 OA
ENDBRANCH   9  16
ENDBRANCH   8  12
ENDBRANCH   1   8
BRANCH   1  17
ATOM     17  C   LIG    1       25.758 -20.152   5.436  0.00  0.00    +0.122 C 
BRANCH  17  18
ATOM     18  C   LIG    1       24.829 -20.745   4.339  0.00  0.00    +0.103 C 
BRANCH  18  19
ATOM     19  N   LIG    1       23.444 -20.212   4.343  0.00  0.00    -0.307 NA
ATOM     20  C   LIG    1       23.422 -18.880   3.726  0.00  0.00    +0.104 C 
ATOM     21  C   LIG    1       22.879 -20.130   5.691  0.00  0.00    +0.104 C 
ENDBRANCH  18  19
ENDBRANCH  17  18
ENDBRANCH   1  17
TORSDOF 7
ENDMDL
MODEL 3
REMARK VINA RESULT:      -7.6      2.699      6.451
REMARK  Name = *****
REMARK                            x       y       z     vdW  Elec       q    Type
REMARK                         _______ _______ _______ _____ _____    ______ ____
ROOT
ATOM      1  N   LIG    1       26.543 -21.194   6.200  0.00  0.00    -0.310 N 
ENDROOT
BRANCH   1   2
ATOM      2  C   LIG    1       27.816 -20.707   6.563  0.00  0.00    +0.121 A 
ATOM      3  N   LIG    1       28.339 -19.645   5.912  0.00  0.00    -0.240 NA
ATOM      4  C   LIG    1       29.560 -19.202   6.282  0.00  0.00    +0.113 A 
ATOM      5  C   LIG    1       30.310 -19.752   7.310  0.00  0.00    +0.020 A 
ATOM      6  C   LIG    1       29.774 -20.833   7.985  0.00  0.00    +0.005 A 
ATOM      7  C   LIG    1       28.522 -21.323   7.607  0.00  0.00    +0.043 A 
ENDBRANCH   1   2
BRANCH   1   8
ATOM      8  C   LIG    1       25.878 -21.883   7.322  0.00  0.00    +0.141 C 
BRANCH   8  12
ATOM      9  C   LIG    1       24.369 -25.827   6.324  0.00  0.00    +0.120 A 
ATOM     10  C   LIG    1       25.743 -25.629   6.440  0.00  0.00    +0.046 A 
ATOM     11  C   LIG    1       26.236 -24.342   6.731  0.00  0.00    +0.009 A 
ATOM     12  C   LIG    1       25.368 -23.261   6.940  0.00  0.00    -0.030 A 
ATOM     13  C   LIG    1       23.998 -23.473   6.794  0.00  0.00    +0.009 A 
ATOM     14  C   LIG    1       23.507 -24.736   6.479  0.00  0.00    +0.046 A 
BRANCH   9  16
ATOM     15  C   LIG    1       24.889 -27.911   5.361  0.00  0.00    +0.277 C 
ATOM     16  O   LIG    1       23.940 -27.099   6.060  0.00  0.00    -0.495 OA
ENDBRANCH   9  16
ENDBRANCH   8  12
ENDBRANCH   1   8
BRANCH   1  17
ATOM     17  C   LIG    1       25.756 -20.171   5.468  0.00  0.00    +0.122 C 
BRANCH  17  18
ATOM     18  C   LIG    1       24.828 -20.739   4.357  0.00  0.00    +0.103 C 
BRANCH  18  19
ATOM     19  N   LIG    1       23.438 -20.222   4.384  0.00  0.00    -0.307 NA
ATOM     20  C   LIG    1       23.391 -18.891   3.765  0.00  0.00    +0.104 C 
ATOM     21  C   LIG    1       22.894 -20.143   5.741  0.00  0.00    +0.104 C 
ENDBRANCH  18  19
ENDBRANCH  17  18
ENDBRANCH   1  17
TORSDOF 7
ENDMDL
MODEL 4
REMARK VINA RESULT:      -7.5      2.680      5.632
REMARK  Name = *****
REMARK                            x       y       z     vdW  Elec       q    Type
REMARK                         _______ _______ _______ _____ _____    ______ ____
ROOT
ATOM      1  N   LIG    1       25.688 -20.729   7.067  0.00  0.00    -0.310 N 
ENDROOT
BRANCH   1   2
ATOM      2  C   LIG    1       24.829 -20.371   6.007  0.00  0.00    +0.121 A 
ATOM      3  N   LIG    1       25.323 -20.244   4.756  0.00  0.00    -0.240 NA
ATOM      4  C   LIG    1       24.476 -19.900   3.762  0.00  0.00    +0.113 A 
ATOM      5  C   LIG    1       23.117 -19.691   3.934  0.00  0.00    +0.020 A 
ATOM      6  C   LIG    1       22.606 -19.829   5.211  0.00  0.00    +0.005 A 
ATOM      7  C   LIG    1       23.466 -20.163   6.261  0.00  0.00    +0.043 A 
ENDBRANCH   1   2
BRANCH   1   8
ATOM      8  C   LIG    1       25.076 -21.737   7.953  0.00  0.00    +0.141 C 
BRANCH   8  12
ATOM      9  C   LIG    1       24.590 -25.637   6.114  0.00  0.00    +0.120 A 
ATOM     10  C   LIG    1       25.866 -25.197   6.459  0.00  0.00    +0.046 A 
ATOM     11  C   LIG    1       26.029 -23.918   7.026  0.00  0.00    +0.009 A 
ATOM     12  C   LIG    1       24.927 -23.090   7.281  0.00  0.00    -0.030 A 
ATOM     13  C   LIG    1       23.661 -23.537   6.903  0.00  0.00    +0.009 A 
ATOM     14  C   LIG    1       23.497 -24.788   6.318  0.00  0.00    +0.046 A 
BRANCH   9  16
ATOM     15  C   LIG    1       25.700 -27.414   5.042  0.00  0.00    +0.277 C 
ATOM     16  O   LIG    1       24.483 -26.895   5.587  0.00  0.00    -0.495 OA
ENDBRANCH   9  16
ENDBRANCH   8  12
ENDBRANCH   1   8
BRANCH   1  17
ATOM     17  C   LIG    1       27.067 -20.992   6.586  0.00  0.00    +0.122 C 
BRANCH  17  18
ATOM     18  C   LIG    1       28.191 -20.535   7.558  0.00  0.00    +0.103 C 
BRANCH  18  19
ATOM     19  N   LIG    1       29.477 -20.191   6.903  0.00  0.00    -0.307 NA
ATOM     20  C   LIG    1       30.546 -20.128   7.908  0.00  0.00    +0.104 C 
ATOM     21  C   LIG    1       29.417 -18.918   6.181  0.00  0.00    +0.104 C 
ENDBRANCH  18  19
ENDBRANCH  17  18
ENDBRANCH   1  17
TORSDOF 7
ENDMDL
MODEL 5
REMARK VINA RESULT:      -7.5      3.038      6.189
REMARK  Name = *****
REMARK                            x       y       z     vdW  Elec       q    Type
REMARK                         _______ _______ _______ _____ _____    ______ ____
ROOT
ATOM      1  N   LIG    1       24.484 -23.055   6.299  0.00  0.00    -0.310 N 
ENDROOT
BRANCH   1   2
ATOM      2  C   LIG    1       24.050 -21.875   5.658  0.00  0.00    +0.121 A 
ATOM      3  N   LIG    1       24.505 -21.577   4.422  0.00  0.00    -0.240 NA
ATOM      4  C   LIG    1       24.072 -20.441   3.834  0.00  0.00    +0.113 A 
ATOM      5  C   LIG    1       23.164 -19.564   4.408  0.00  0.00    +0.020 A 
ATOM      6  C   LIG    1       22.689 -19.871   5.669  0.00  0.00    +0.005 A 
ATOM      7  C   LIG    1       23.138 -21.030   6.307  0.00  0.00    +0.043 A 
ENDBRANCH   1   2
BRANCH   1   8
ATOM      8  C   LIG    1       25.115 -23.994   5.353  0.00  0.00    +0.141 C 
BRANCH   8  12
ATOM      9  C   LIG    1       25.194 -28.098   6.758  0.00  0.00    +0.120 A 
ATOM     10  C   LIG    1       24.211 -27.703   5.853  0.00  0.00    +0.046 A 
ATOM     11  C   LIG    1       24.164 -26.363   5.422  0.00  0.00    +0.009 A 
ATOM     12  C   LIG    1       25.109 -25.425   5.860  0.00  0.00    -0.030 A 
ATOM     13  C   LIG    1       26.069 -25.833   6.785  0.00  0.00    +0.009 A 
ATOM     14  C   LIG    1       26.103 -27.148   7.236  0.00  0.00    +0.046 A 
BRANCH   9  16
ATOM     15  C   LIG    1       24.199 -29.775   8.077  0.00  0.00    +0.277 C 
ATOM     16  O   LIG    1       25.209 -29.415   7.129  0.00  0.00    -0.495 OA
ENDBRANCH   9  16
ENDBRANCH   8  12
ENDBRANCH   1   8
BRANCH   1  17
ATOM     17  C   LIG    1       25.218 -22.756   7.553  0.00  0.00    +0.122 C 
BRANCH  17  18
ATOM     18  C   LIG    1       26.698 -22.324   7.350  0.00  0.00    +0.103 C 
BRANCH  18  19
ATOM     19  N   LIG    1       27.155 -21.231   8.244  0.00  0.00    -0.307 NA
ATOM     20  C   LIG    1       25.995 -20.502   8.770  0.00  0.00    +0.104 C 
ATOM     21  C   LIG    1       28.052 -20.291   7.568  0.00  0.00    +0.104 C 
ENDBRANCH  18  19
ENDBRANCH  17  18
ENDBRANCH   1  17
TORSDOF 7
ENDMDL
MODEL 6
REMARK VINA RESULT:      -7.4      1.112      4.194
REMARK  Name = *****
REMARK                            x       y       z     vdW  Elec       q    Type
REMARK                         _______ _______ _______ _____ _____    ______ ____
ROOT
ATOM      1  N   LIG    1       25.221 -21.939   6.848  0.00  0.00    -0.310 N 
ENDROOT
BRANCH   1   2
ATOM      2  C   LIG    1       25.287 -23.263   6.367  0.00  0.00    +0.121 A 
ATOM      3  N   LIG    1       24.851 -23.547   5.121  0.00  0.00    -0.240 NA
ATOM      4  C   LIG    1       24.927 -24.825   4.688  0.00  0.00    +0.113 A 
ATOM      5  C   LIG    1       25.449 -25.869   5.434  0.00  0.00    +0.020 A 
ATOM      6  C   LIG    1       25.903 -25.582   6.708  0.00  0.00    +0.005 A 
ATOM      7  C   LIG    1       25.816 -24.271   7.186  0.00  0.00    +0.043 A 
ENDBRANCH   1   2
BRANCH   1   8
ATOM      8  C   LIG    1       25.966 -21.004   5.985  0.00  0.00    +0.141 C 
BRANCH   8  12
ATOM      9  C   LIG    1       29.993 -20.204   7.389  0.00  0.00    +0.120 A 
ATOM     10  C   LIG    1       29.226 -21.176   8.028  0.00  0.00    +0.046 A 
ATOM     11  C   LIG    1       27.907 -21.413   7.594  0.00  0.00    +0.009 A 
ATOM     12  C   LIG    1       27.361 -20.713   6.509  0.00  0.00    -0.030 A 
ATOM     13  C   LIG    1       28.136 -19.726   5.900  0.00  0.00    +0.009 A 
ATOM     14  C   LIG    1       29.429 -19.469   6.342  0.00  0.00    +0.046 A 
BRANCH   9  16
ATOM     15  C   LIG    1       31.625 -18.667   8.109  0.00  0.00    +0.277 C 
ATOM     16  O   LIG    1       31.275 -20.027   7.834  0.00  0.00    -0.495 OA
ENDBRANCH   9  16
ENDBRANCH   8  12
ENDBRANCH   1   8
BRANCH   1  17
ATOM     17  C   LIG    1       23.835 -21.562   7.221  0.00  0.00    +0.122 C 
BRANCH  17  18
ATOM     18  C   LIG    1       23.341 -20.219   6.612  0.00  0.00    +0.103 C 
BRANCH  18  19
ATOM     19  N   LIG    1       22.907 -20.301   5.195  0.00  0.00    -0.307 NA
ATOM     20  C   LIG    1       22.372 -19.004   4.764  0.00  0.00    +0.104 C 
ATOM     21  C   LIG    1       21.896 -21.338   4.977  0.00  0.00    +0.104 C 
ENDBRANCH  18  19
ENDBRANCH  17  18
ENDBRANCH   1  17
TORSDOF 7
ENDMDL
MODEL 7
REMARK VINA RESULT:      -7.3      2.697      6.346
REMARK  Name = *****
REMARK                            x       y       z     vdW  Elec       q    Type
REMARK                         _______ _______ _______ _____ _____    ______ ____
ROOT
ATOM      1  N   LIG    1       25.279 -23.764   6.352  0.00  0.00    -0.310 N 
ENDROOT
BRANCH   1   2
ATOM      2  C   LIG    1       25.358 -25.147   6.085  0.00  0.00    +0.121 A 
ATOM      3  N   LIG    1       26.546 -25.701   5.761  0.00  0.00    -0.240 NA
ATOM      4  C   LIG    1       26.590 -27.028   5.511  0.00  0.00    +0.113 A 
ATOM      5  C   LIG    1       25.493 -27.871   5.587  0.00  0.00    +0.020 A 
ATOM      6  C   LIG    1       24.276 -27.309   5.926  0.00  0.00    +0.005 A 
ATOM      7  C   LIG    1       24.201 -25.935   6.169  0.00  0.00    +0.043 A 
ENDBRANCH   1   2
BRANCH   1   8
ATOM      8  C   LIG    1       23.883 -23.288   6.375  0.00  0.00    +0.141 C 
BRANCH   8  12
ATOM      9  C   LIG    1       23.313 -19.423   4.486  0.00  0.00    +0.120 A 
ATOM     10  C   LIG    1       24.157 -20.358   3.891  0.00  0.00    +0.046 A 
ATOM     11  C   LIG    1       24.369 -21.600   4.521  0.00  0.00    +0.009 A 
ATOM     12  C   LIG    1       23.720 -21.928   5.719  0.00  0.00    -0.030 A 
ATOM     13  C   LIG    1       22.900 -20.969   6.312  0.00  0.00    +0.009 A 
ATOM     14  C   LIG    1       22.709 -19.731   5.710  0.00  0.00    +0.046 A 
BRANCH   9  16
ATOM     15  C   LIG    1       22.211 -17.343   4.463  0.00  0.00    +0.277 C 
ATOM     16  O   LIG    1       23.124 -18.240   3.825  0.00  0.00    -0.495 OA
ENDBRANCH   9  16
ENDBRANCH   8  12
ENDBRANCH   1   8
BRANCH   1  17
ATOM     17  C   LIG    1       26.148 -23.378   7.491  0.00  0.00    +0.122 C 
BRANCH  17  18
ATOM     18  C   LIG    1       27.148 -22.227   7.184  0.00  0.00    +0.103 C 
BRANCH  18  19
ATOM     19  N   LIG    1       27.260 -21.200   8.249  0.00  0.00    -0.307 NA
ATOM     20  C   LIG    1       25.931 -20.656   8.556  0.00  0.00    +0.104 C 
ATOM     21  C   LIG    1       28.158 -20.104   7.879  0.00  0.00    +0.104 C 
ENDBRANCH  18  19
ENDBRANCH  17  18
ENDBRANCH   1  17
TORSDOF 7
ENDMDL
MODEL 8
REMARK VINA RESULT:      -7.1      2.848      6.577
REMARK  Name = *****
REMARK                            x       y       z     vdW  Elec       q    Type
REMARK                         _______ _______ _______ _____ _____    ______ ____
ROOT
ATOM      1  N   LIG    1       27.749 -20.395   6.734  0.00  0.00    -0.310 N 
ENDROOT
BRANCH   1   2
ATOM      2  C   LIG    1       28.954 -20.067   7.390  0.00  0.00    +0.121 A 
ATOM      3  N   LIG    1       29.577 -20.993   8.151  0.00  0.00    -0.240 NA
ATOM      4  C   LIG    1       30.729 -20.649   8.767  0.00  0.00    +0.113 A 
ATOM      5  C   LIG    1       31.333 -19.407   8.651  0.00  0.00    +0.020 A 
ATOM      6  C   LIG    1       30.703 -18.460   7.866  0.00  0.00    +0.005 A 
ATOM      7  C   LIG    1       29.499 -18.784   7.235  0.00  0.00    +0.043 A 
ENDBRANCH   1   2
BRANCH   1   8
ATOM      8  C   LIG    1       26.625 -20.522   7.680  0.00  0.00    +0.141 C 
BRANCH   8  12
ATOM      9  C   LIG    1       24.202 -24.009   6.785  0.00  0.00    +0.120 A 
ATOM     10  C   LIG    1       23.580 -22.783   7.011  0.00  0.00    +0.046 A 
ATOM     11  C   LIG    1       24.363 -21.657   7.335  0.00  0.00    +0.009 A 
ATOM     12  C   LIG    1       25.761 -21.738   7.401  0.00  0.00    -0.030 A 
ATOM     13  C   LIG    1       26.363 -22.980   7.197  0.00  0.00    +0.009 A 
ATOM     14  C   LIG    1       25.593 -24.100   6.905  0.00  0.00    +0.046 A 
BRANCH   9  16
ATOM     15  C   LIG    1       24.083 -26.157   5.830  0.00  0.00    +0.277 C 
ATOM     16  O   LIG    1       23.399 -25.065   6.453  0.00  0.00    -0.495 OA
ENDBRANCH   9  16
ENDBRANCH   8  12
ENDBRANCH   1   8
BRANCH   1  17
ATOM     17  C   LIG    1       27.535 -19.552   5.532  0.00  0.00    +0.122 C 
BRANCH  17  18
ATOM     18  C   LIG    1       26.557 -20.153   4.483  0.00  0.00    +0.103 C 
BRANCH  18  19
ATOM     19  N   LIG    1       25.280 -19.414   4.328  0.00  0.00    -0.307 NA
ATOM     20  C   LIG    1       24.234 -20.325   3.848  0.00  0.00    +0.104 C 
ATOM     21  C   LIG    1       25.396 -18.282   3.405  0.00  0.00    +0.104 C 
ENDBRANCH  18  19
ENDBRANCH  17  18
ENDBRANCH   1  17
TORSDOF 7
ENDMDL
MODEL 9
REMARK VINA RESULT:      -7.0      2.594      5.628
REMARK  Name = *****
REMARK                            x       y       z     vdW  Elec       q    Type
REMARK                         _______ _______ _______ _____ _____    ______ ____
ROOT
ATOM      1  N   LIG    1       26.001 -21.883   6.714  0.00  0.00    -0.310 N 
ENDROOT
BRANCH   1   2
ATOM      2  C   LIG    1       27.260 -21.268   6.872  0.00  0.00    +0.121 A 
ATOM      3  N   LIG    1       28.126 -21.739   7.795  0.00  0.00    -0.240 NA
ATOM      4  C   LIG    1       29.325 -21.129   7.923  0.00  0.00    +0.113 A 
ATOM      5  C   LIG    1       29.740 -20.058   7.148  0.00  0.00    +0.020 A 
ATOM      6  C   LIG    1       28.860 -19.577   6.197  0.00  0.00    +0.005 A 
ATOM      7  C   LIG    1       27.606 -20.178   6.059  0.00  0.00    +0.043 A 
ENDBRANCH   1   2
BRANCH   1   8
ATOM      8  C   LIG    1       25.552 -21.861   5.309  0.00  0.00    +0.141 C 
BRANCH   8  12
ATOM      9  C   LIG    1       22.658 -18.731   4.497  0.00  0.00    +0.120 A 
ATOM     10  C   LIG    1       23.759 -18.881   3.656  0.00  0.00    +0.046 A 
ATOM     11  C   LIG    1       24.716 -19.875   3.938  0.00  0.00    +0.009 A 
ATOM     12  C   LIG    1       24.566 -20.740   5.030  0.00  0.00    -0.030 A 
ATOM     13  C   LIG    1       23.472 -20.557   5.875  0.00  0.00    +0.009 A 
ATOM     14  C   LIG    1       22.538 -19.559   5.618  0.00  0.00    +0.046 A 
BRANCH   9  16
ATOM     15  C   LIG    1       22.039 -16.469   4.699  0.00  0.00    +0.277 C 
ATOM     16  O   LIG    1       21.747 -17.765   4.168  0.00  0.00    -0.495 OA
ENDBRANCH   9  16
ENDBRANCH   8  12
ENDBRANCH   1   8
BRANCH   1  17
ATOM     17  C   LIG    1       25.935 -23.182   7.429  0.00  0.00    +0.122 C 
BRANCH  17  18
ATOM     18  C   LIG    1       25.769 -24.422   6.506  0.00  0.00    +0.103 C 
BRANCH  18  19
ATOM     19  N   LIG    1       24.476 -25.136   6.650  0.00  0.00    -0.307 NA
ATOM     20  C   LIG    1       24.309 -26.090   5.547  0.00  0.00    +0.104 C 
ATOM     21  C   LIG    1       23.331 -24.223   6.677  0.00  0.00    +0.104 C 
ENDBRANCH  18  19
ENDBRANCH  17  18
ENDBRANCH   1  17
TORSDOF 7
ENDMDL
