MODEL 1
REMARK VINA RESULT:      -9.7      0.000      0.000
REMARK  Name = *****
REMARK                            x       y       z     vdW  Elec       q    Type
REMARK                         _______ _______ _______ _____ _____    ______ ____
ROOT
ATOM      1  C   LIG    1       26.078 -21.164   6.786  0.00  0.00    -0.019 C 
ATOM      2  C   LIG    1       24.817 -21.008   6.123  0.00  0.00    +0.005 C 
ATOM      3  C   LIG    1       24.255 -22.285   5.941  0.00  0.00    +0.054 C 
ATOM      4  C   LIG    1       22.953 -22.429   5.417  0.00  0.00    +0.028 C 
ATOM      5  C   LIG    1       22.248 -21.290   5.016  0.00  0.00    +0.022 C 
ATOM      6  C   LIG    1       22.817 -20.032   5.136  0.00  0.00    +0.042 C 
ATOM      7 CL   LIG    1       21.912 -18.649   4.650  0.00  0.00    -0.084 Cl
ATOM      8  N   LIG    1       25.178 -23.219   6.421  0.00  0.00    -0.316 NA
ATOM      9  C   LIG    1       24.094 -19.872   5.681  0.00  0.00    +0.030 C 
ATOM     10  C   LIG    1       26.247 -22.522   6.951  0.00  0.00    +0.096 C 
ENDROOT
BRANCH   8  11
ATOM     11  C   LIG    1       25.106 -24.650   6.395  0.00  0.00    +0.047 C 
ATOM     12  C   LIG    1       24.045 -25.316   5.770  0.00  0.00    +0.029 C 
ATOM     13  C   LIG    1       23.997 -26.715   5.757  0.00  0.00    +0.040 C 
ATOM     14  C   LIG    1       25.014 -27.447   6.356  0.00  0.00    +0.123 C 
ATOM     15  F   LIG    1       24.964 -28.785   6.338  0.00  0.00    -0.205 F 
ATOM     16  C   LIG    1       26.087 -26.809   6.960  0.00  0.00    +0.040 C 
ATOM     17  C   LIG    1       26.139 -25.412   6.977  0.00  0.00    +0.029 C 
ENDBRANCH   8  11
BRANCH   1  21
ATOM     18  N   LIG    1       30.005 -20.473   7.022  0.00  0.00    -0.301 NA
ATOM     19  C   LIG    1       29.195 -21.159   8.034  0.00  0.00    +0.085 C 
ATOM     20  C   LIG    1       27.902 -20.433   8.403  0.00  0.00    +0.023 C 
ATOM     21  C   LIG    1       27.037 -20.059   7.187  0.00  0.00    +0.024 C 
ATOM     22  C   LIG    1       27.893 -19.521   6.023  0.00  0.00    +0.023 C 
ATOM     23  C   LIG    1       29.209 -20.281   5.802  0.00  0.00    +0.085 C 
BRANCH  18  24
ATOM     24  C   LIG    1       30.615 -19.200   7.463  0.00  0.00    +0.103 C 
BRANCH  24  25
ATOM     25  C   LIG    1       31.506 -19.243   8.720  0.00  0.00    +0.124 C 
BRANCH  25  28
ATOM     26  O   LIG    1       30.428 -18.454  11.364  0.00  0.00    -0.253 OA
ATOM     27  C   LIG    1       31.142 -17.723  10.687  0.00  0.00    +0.302 C 
ATOM     28  N   LIG    1       31.630 -17.972   9.407  0.00  0.00    -0.283 N 
ATOM     29  C   LIG    1       32.525 -16.924   8.995  0.00  0.00    +0.128 C 
ATOM     30  C   LIG    1       32.218 -15.799   9.996  0.00  0.00    +0.124 C 
ATOM     31  N   LIG    1       31.599 -16.485  11.087  0.00  0.00    -0.298 N 
ATOM     32  H   LIG    1       31.244 -16.071  11.935  0.00  0.00    +0.150 HD
ENDBRANCH  25  28
ENDBRANCH  24  25
ENDBRANCH  18  24
ENDBRANCH   1  21
TORSDOF 5
ENDMDL
MODEL 2
REMARK VINA RESULT:      -9.3      4.487      9.278
REMARK  Name = *****
REMARK                            x       y       z     vdW  Elec       q    Type
REMARK                         _______ _______ _______ _____ _____    ______ ____
ROOT
ATOM      1  C   LIG    1       25.519 -23.459   6.790  0.00  0.00    -0.019 C 
ATOM      2  C   LIG    1       24.788 -22.358   6.234  0.00  0.00    +0.005 C 
ATOM      3  C   LIG    1       25.666 -21.265   6.115  0.00  0.00    +0.054 C 
ATOM      4  C   LIG    1       25.247 -20.075   5.484  0.00  0.00    +0.028 C 
ATOM      5  C   LIG    1       23.927 -19.966   5.035  0.00  0.00    +0.022 C 
ATOM      6  C   LIG    1       23.039 -21.017   5.202  0.00  0.00    +0.042 C 
ATOM      7 CL   LIG    1       21.426 -20.855   4.620  0.00  0.00    -0.084 Cl
ATOM      8  N   LIG    1       26.897 -21.658   6.647  0.00  0.00    -0.316 NA
ATOM      9  C   LIG    1       23.448 -22.213   5.798  0.00  0.00    +0.030 C 
ATOM     10  C   LIG    1       26.793 -22.986   7.016  0.00  0.00    +0.096 C 
ENDROOT
BRANCH   8  11
ATOM     11  C   LIG    1       28.090 -20.882   6.822  0.00  0.00    +0.047 C 
ATOM     12  C   LIG    1       29.024 -21.195   7.818  0.00  0.00    +0.029 C 
ATOM     13  C   LIG    1       30.181 -20.423   7.968  0.00  0.00    +0.040 C 
ATOM     14  C   LIG    1       30.413 -19.350   7.117  0.00  0.00    +0.123 C 
ATOM     15  F   LIG    1       31.524 -18.617   7.264  0.00  0.00    -0.205 F 
ATOM     16  C   LIG    1       29.514 -19.037   6.109  0.00  0.00    +0.040 C 
ATOM     17  C   LIG    1       28.355 -19.804   5.955  0.00  0.00    +0.029 C 
ENDBRANCH   8  11
BRANCH   1  21
ATOM     18  N   LIG    1       25.277 -27.076   5.110  0.00  0.00    -0.301 NA
ATOM     19  C   LIG    1       24.358 -25.958   4.870  0.00  0.00    +0.085 C 
ATOM     20  C   LIG    1       23.856 -25.273   6.139  0.00  0.00    +0.023 C 
ATOM     21  C   LIG    1       24.982 -24.845   7.096  0.00  0.00    +0.024 C 
ATOM     22  C   LIG    1       26.073 -25.928   7.211  0.00  0.00    +0.023 C 
ATOM     23  C   LIG    1       26.436 -26.603   5.880  0.00  0.00    +0.085 C 
BRANCH  18  24
ATOM     24  C   LIG    1       24.667 -28.264   5.744  0.00  0.00    +0.103 C 
BRANCH  24  25
ATOM     25  C   LIG    1       25.285 -29.636   5.411  0.00  0.00    +0.124 C 
BRANCH  25  28
ATOM     26  O   LIG    1       26.749 -32.187   5.764  0.00  0.00    -0.253 OA
ATOM     27  C   LIG    1       25.934 -31.765   6.577  0.00  0.00    +0.302 C 
ATOM     28  N   LIG    1       25.143 -30.625   6.463  0.00  0.00    -0.283 N 
ATOM     29  C   LIG    1       24.398 -30.405   7.674  0.00  0.00    +0.128 C 
ATOM     30  C   LIG    1       24.506 -31.758   8.393  0.00  0.00    +0.124 C 
ATOM     31  N   LIG    1       25.647 -32.368   7.783  0.00  0.00    -0.298 N 
ATOM     32  H   LIG    1       26.024 -33.279   7.989  0.00  0.00    +0.150 HD
ENDBRANCH  25  28
ENDBRANCH  24  25
ENDBRANCH  18  24
ENDBRANCH   1  21
TORSDOF 5
ENDMDL
MODEL 3
REMARK VINA RESULT:      -8.7      3.042      4.852
REMARK  Name = *****
REMARK                            x       y       z     vdW  Elec       q    Type
REMARK                         _______ _______ _______ _____ _____    ______ ____
ROOT
ATOM      1  C   LIG    1       26.927 -21.750   6.862  0.00  0.00    -0.019 C 
ATOM      2  C   LIG    1       26.164 -22.953   6.708  0.00  0.00    +0.005 C 
ATOM      3  C   LIG    1       24.985 -22.636   6.007  0.00  0.00    +0.054 C 
ATOM      4  C   LIG    1       24.093 -23.654   5.607  0.00  0.00    +0.028 C 
ATOM      5  C   LIG    1       24.359 -24.978   5.970  0.00  0.00    +0.022 C 
ATOM      6  C   LIG    1       25.487 -25.291   6.711  0.00  0.00    +0.042 C 
ATOM      7 CL   LIG    1       25.793 -26.935   7.126  0.00  0.00    -0.084 Cl
ATOM      8  N   LIG    1       24.985 -21.255   5.791  0.00  0.00    -0.316 NA
ATOM      9  C   LIG    1       26.394 -24.297   7.090  0.00  0.00    +0.030 C 
ATOM     10  C   LIG    1       26.174 -20.751   6.284  0.00  0.00    +0.096 C 
ENDROOT
BRANCH   8  11
ATOM     11  C   LIG    1       23.974 -20.439   5.186  0.00  0.00    +0.047 C 
ATOM     12  C   LIG    1       24.301 -19.424   4.279  0.00  0.00    +0.029 C 
ATOM     13  C   LIG    1       23.295 -18.641   3.702  0.00  0.00    +0.040 C 
ATOM     14  C   LIG    1       21.964 -18.881   4.018  0.00  0.00    +0.123 C 
ATOM     15  F   LIG    1       21.006 -18.131   3.460  0.00  0.00    -0.205 F 
ATOM     16  C   LIG    1       21.615 -19.897   4.895  0.00  0.00    +0.040 C 
ATOM     17  C   LIG    1       22.616 -20.681   5.476  0.00  0.00    +0.029 C 
ENDBRANCH   8  11
BRANCH   1  21
ATOM     18  N   LIG    1       29.731 -18.987   7.542  0.00  0.00    -0.301 NA
ATOM     19  C   LIG    1       29.602 -19.793   6.324  0.00  0.00    +0.085 C 
ATOM     20  C   LIG    1       29.414 -21.287   6.575  0.00  0.00    +0.023 C 
ATOM     21  C   LIG    1       28.271 -21.608   7.554  0.00  0.00    +0.024 C 
ATOM     22  C   LIG    1       28.259 -20.639   8.752  0.00  0.00    +0.023 C 
ATOM     23  C   LIG    1       28.542 -19.175   8.384  0.00  0.00    +0.085 C 
BRANCH  18  24
ATOM     24  C   LIG    1       30.971 -19.212   8.316  0.00  0.00    +0.103 C 
BRANCH  24  25
ATOM     25  C   LIG    1       31.936 -18.019   8.464  0.00  0.00    +0.124 C 
BRANCH  25  28
ATOM     26  O   LIG    1       33.025 -15.387   9.277  0.00  0.00    -0.253 OA
ATOM     27  C   LIG    1       32.396 -16.116  10.037  0.00  0.00    +0.302 C 
ATOM     28  N   LIG    1       31.916 -17.395   9.773  0.00  0.00    -0.283 N 
ATOM     29  C   LIG    1       31.132 -17.878  10.878  0.00  0.00    +0.128 C 
ATOM     30  C   LIG    1       31.521 -16.922  12.017  0.00  0.00    +0.124 C 
ATOM     31  N   LIG    1       32.049 -15.785  11.330  0.00  0.00    -0.298 N 
ATOM     32  H   LIG    1       32.422 -14.948  11.750  0.00  0.00    +0.150 HD
ENDBRANCH  25  28
ENDBRANCH  24  25
ENDBRANCH  18  24
ENDBRANCH   1  21
TORSDOF 5
ENDMDL
MODEL 4
REMARK VINA RESULT:      -8.3      4.805      8.228
REMARK  Name = *****
REMARK                            x       y       z     vdW  Elec       q    Type
REMARK                         _______ _______ _______ _____ _____    ______ ____
ROOT
ATOM      1  C   LIG    1       25.387 -28.375   6.616  0.00  0.00    -0.019 C 
ATOM      2  C   LIG    1       25.405 -29.778   6.321  0.00  0.00    +0.005 C 
ATOM      3  C   LIG    1       25.311 -30.482   7.535  0.00  0.00    +0.054 C 
ATOM      4  C   LIG    1       25.187 -31.888   7.541  0.00  0.00    +0.028 C 
ATOM      5  C   LIG    1       25.224 -32.583   6.329  0.00  0.00    +0.022 C 
ATOM      6  C   LIG    1       25.376 -31.901   5.132  0.00  0.00    +0.042 C 
ATOM      7 CL   LIG    1       25.399 -32.788   3.655  0.00  0.00    -0.084 Cl
ATOM      8  N   LIG    1       25.303 -29.538   8.567  0.00  0.00    -0.316 NA
ATOM      9  C   LIG    1       25.471 -30.507   5.108  0.00  0.00    +0.030 C 
ATOM     10  C   LIG    1       25.316 -28.283   7.989  0.00  0.00    +0.096 C 
ENDROOT
BRANCH   8  11
ATOM     11  C   LIG    1       25.292 -29.754   9.983  0.00  0.00    +0.047 C 
ATOM     12  C   LIG    1       24.109 -30.063  10.666  0.00  0.00    +0.029 C 
ATOM     13  C   LIG    1       24.124 -30.270  12.050  0.00  0.00    +0.040 C 
ATOM     14  C   LIG    1       25.321 -30.183  12.749  0.00  0.00    +0.123 C 
ATOM     15  F   LIG    1       25.330 -30.385  14.072  0.00  0.00    -0.205 F 
ATOM     16  C   LIG    1       26.509 -29.903  12.090  0.00  0.00    +0.040 C 
ATOM     17  C   LIG    1       26.499 -29.693  10.708  0.00  0.00    +0.029 C 
ENDBRANCH   8  11
BRANCH   1  21
ATOM     18  N   LIG    1       24.797 -24.428   6.442  0.00  0.00    -0.301 NA
ATOM     19  C   LIG    1       23.757 -25.454   6.319  0.00  0.00    +0.085 C 
ATOM     20  C   LIG    1       24.099 -26.583   5.349  0.00  0.00    +0.023 C 
ATOM     21  C   LIG    1       25.466 -27.235   5.618  0.00  0.00    +0.024 C 
ATOM     22  C   LIG    1       26.542 -26.183   5.954  0.00  0.00    +0.023 C 
ATOM     23  C   LIG    1       26.056 -25.052   6.872  0.00  0.00    +0.085 C 
BRANCH  18  24
ATOM     24  C   LIG    1       25.002 -23.594   5.239  0.00  0.00    +0.103 C 
BRANCH  24  25
ATOM     25  C   LIG    1       24.658 -22.096   5.352  0.00  0.00    +0.124 C 
BRANCH  25  28
ATOM     26  O   LIG    1       23.320 -21.328   7.880  0.00  0.00    -0.253 OA
ATOM     27  C   LIG    1       24.522 -21.184   7.689  0.00  0.00    +0.302 C 
ATOM     28  N   LIG    1       25.225 -21.440   6.515  0.00  0.00    -0.283 N 
ATOM     29  C   LIG    1       26.636 -21.254   6.721  0.00  0.00    +0.128 C 
ATOM     30  C   LIG    1       26.689 -20.463   8.037  0.00  0.00    +0.124 C 
ATOM     31  N   LIG    1       25.416 -20.725   8.633  0.00  0.00    -0.298 N 
ATOM     32  H   LIG    1       25.076 -20.362   9.509  0.00  0.00    +0.150 HD
ENDBRANCH  25  28
ENDBRANCH  24  25
ENDBRANCH  18  24
ENDBRANCH   1  21
TORSDOF 5
ENDMDL
MODEL 5
REMARK VINA RESULT:      -8.3      4.834      8.331
REMARK  Name = *****
REMARK                            x       y       z     vdW  Elec       q    Type
REMARK                         _______ _______ _______ _____ _____    ______ ____
ROOT
ATOM      1  C   LIG    1       25.116 -28.537   6.442  0.00  0.00    -0.019 C 
ATOM      2  C   LIG    1       25.260 -29.923   6.108  0.00  0.00    +0.005 C 
ATOM      3  C   LIG    1       24.932 -30.684   7.245  0.00  0.00    +0.054 C 
ATOM      4  C   LIG    1       24.871 -32.092   7.173  0.00  0.00    +0.028 C 
ATOM      5  C   LIG    1       25.205 -32.731   5.974  0.00  0.00    +0.022 C 
ATOM      6  C   LIG    1       25.587 -31.991   4.866  0.00  0.00    +0.042 C 
ATOM      7 CL   LIG    1       25.973 -32.809   3.400  0.00  0.00    -0.084 Cl
ATOM      8  N   LIG    1       24.655 -29.789   8.282  0.00  0.00    -0.316 NA
ATOM      9  C   LIG    1       25.623 -30.595   4.915  0.00  0.00    +0.030 C 
ATOM     10  C   LIG    1       24.741 -28.509   7.768  0.00  0.00    +0.096 C 
ENDROOT
BRANCH   8  11
ATOM     11  C   LIG    1       24.343 -30.068   9.652  0.00  0.00    +0.047 C 
ATOM     12  C   LIG    1       25.314 -29.974  10.656  0.00  0.00    +0.029 C 
ATOM     13  C   LIG    1       24.984 -30.251  11.988  0.00  0.00    +0.040 C 
ATOM     14  C   LIG    1       23.683 -30.608  12.318  0.00  0.00    +0.123 C 
ATOM     15  F   LIG    1       23.373 -30.869  13.594  0.00  0.00    -0.205 F 
ATOM     16  C   LIG    1       22.699 -30.684  11.344  0.00  0.00    +0.040 C 
ATOM     17  C   LIG    1       23.024 -30.409  10.012  0.00  0.00    +0.029 C 
ENDBRANCH   8  11
BRANCH   1  21
ATOM     18  N   LIG    1       24.817 -24.553   6.467  0.00  0.00    -0.301 NA
ATOM     19  C   LIG    1       23.724 -25.491   6.191  0.00  0.00    +0.085 C 
ATOM     20  C   LIG    1       24.073 -26.585   5.184  0.00  0.00    +0.023 C 
ATOM     21  C   LIG    1       25.362 -27.351   5.528  0.00  0.00    +0.024 C 
ATOM     22  C   LIG    1       26.474 -26.402   6.020  0.00  0.00    +0.023 C 
ATOM     23  C   LIG    1       25.986 -25.293   6.963  0.00  0.00    +0.085 C 
BRANCH  18  24
ATOM     24  C   LIG    1       25.186 -23.670   5.341  0.00  0.00    +0.103 C 
BRANCH  24  25
ATOM     25  C   LIG    1       24.759 -22.192   5.434  0.00  0.00    +0.124 C 
BRANCH  25  28
ATOM     26  O   LIG    1       23.331 -21.318   7.877  0.00  0.00    -0.253 OA
ATOM     27  C   LIG    1       24.540 -21.186   7.725  0.00  0.00    +0.302 C 
ATOM     28  N   LIG    1       25.285 -21.491   6.590  0.00  0.00    -0.283 N 
ATOM     29  C   LIG    1       26.689 -21.302   6.841  0.00  0.00    +0.128 C 
ATOM     30  C   LIG    1       26.696 -20.458   8.125  0.00  0.00    +0.124 C 
ATOM     31  N   LIG    1       25.401 -20.691   8.683  0.00  0.00    -0.298 N 
ATOM     32  H   LIG    1       25.029 -20.291   9.530  0.00  0.00    +0.150 HD
ENDBRANCH  25  28
ENDBRANCH  24  25
ENDBRANCH  18  24
ENDBRANCH   1  21
TORSDOF 5
ENDMDL
MODEL 6
REMARK VINA RESULT:      -8.0      4.967      9.605
REMARK  Name = *****
REMARK                            x       y       z     vdW  Elec       q    Type
REMARK                         _______ _______ _______ _____ _____    ______ ____
ROOT
ATOM      1  C   LIG    1       25.628 -23.554   6.666  0.00  0.00    -0.019 C 
ATOM      2  C   LIG    1       26.626 -22.560   6.933  0.00  0.00    +0.005 C 
ATOM      3  C   LIG    1       26.139 -21.319   6.485  0.00  0.00    +0.054 C 
ATOM      4  C   LIG    1       26.865 -20.133   6.727  0.00  0.00    +0.028 C 
ATOM      5  C   LIG    1       28.108 -20.210   7.361  0.00  0.00    +0.022 C 
ATOM      6  C   LIG    1       28.623 -21.436   7.753  0.00  0.00    +0.042 C 
ATOM      7 CL   LIG    1       30.150 -21.492   8.548  0.00  0.00    -0.084 Cl
ATOM      8  N   LIG    1       24.894 -21.548   5.891  0.00  0.00    -0.316 NA
ATOM      9  C   LIG    1       27.902 -22.615   7.546  0.00  0.00    +0.030 C 
ATOM     10  C   LIG    1       24.596 -22.889   6.041  0.00  0.00    +0.096 C 
ENDROOT
BRANCH   8  11
ATOM     11  C   LIG    1       24.032 -20.619   5.223  0.00  0.00    +0.047 C 
ATOM     12  C   LIG    1       24.498 -19.813   4.177  0.00  0.00    +0.029 C 
ATOM     13  C   LIG    1       23.635 -18.914   3.539  0.00  0.00    +0.040 C 
ATOM     14  C   LIG    1       22.307 -18.829   3.935  0.00  0.00    +0.123 C 
ATOM     15  F   LIG    1       21.486 -17.969   3.319  0.00  0.00    -0.205 F 
ATOM     16  C   LIG    1       21.818 -19.635   4.952  0.00  0.00    +0.040 C 
ATOM     17  C   LIG    1       22.675 -20.534   5.594  0.00  0.00    +0.029 C 
ENDBRANCH   8  11
BRANCH   1  21
ATOM     18  N   LIG    1       25.031 -27.084   4.894  0.00  0.00    -0.301 NA
ATOM     19  C   LIG    1       23.995 -26.252   5.514  0.00  0.00    +0.085 C 
ATOM     20  C   LIG    1       24.350 -25.741   6.909  0.00  0.00    +0.023 C 
ATOM     21  C   LIG    1       25.715 -25.037   6.979  0.00  0.00    +0.024 C 
ATOM     22  C   LIG    1       26.785 -25.786   6.160  0.00  0.00    +0.023 C 
ATOM     23  C   LIG    1       26.287 -26.325   4.811  0.00  0.00    +0.085 C 
BRANCH  18  24
ATOM     24  C   LIG    1       25.247 -28.399   5.534  0.00  0.00    +0.103 C 
BRANCH  24  25
ATOM     25  C   LIG    1       23.996 -29.230   5.878  0.00  0.00    +0.124 C 
BRANCH  25  28
ATOM     26  O   LIG    1       23.493 -30.053   8.678  0.00  0.00    -0.253 OA
ATOM     27  C   LIG    1       23.939 -30.814   7.827  0.00  0.00    +0.302 C 
ATOM     28  N   LIG    1       24.281 -30.502   6.514  0.00  0.00    -0.283 N 
ATOM     29  C   LIG    1       24.662 -31.689   5.796  0.00  0.00    +0.128 C 
ATOM     30  C   LIG    1       24.908 -32.705   6.921  0.00  0.00    +0.124 C 
ATOM     31  N   LIG    1       24.193 -32.154   8.029  0.00  0.00    -0.298 N 
ATOM     32  H   LIG    1       24.133 -32.540   8.958  0.00  0.00    +0.150 HD
ENDBRANCH  25  28
ENDBRANCH  24  25
ENDBRANCH  18  24
ENDBRANCH   1  21
TORSDOF 5
ENDMDL
MODEL 7
REMARK VINA RESULT:      -7.9      5.686      8.624
REMARK  Name = *****
REMARK                            x       y       z     vdW  Elec       q    Type
REMARK                         _______ _______ _______ _____ _____    ______ ____
ROOT
ATOM      1  C   LIG    1       25.138 -28.358   6.446  0.00  0.00    -0.019 C 
ATOM      2  C   LIG    1       25.286 -29.727   6.046  0.00  0.00    +0.005 C 
ATOM      3  C   LIG    1       24.986 -30.542   7.154  0.00  0.00    +0.054 C 
ATOM      4  C   LIG    1       24.934 -31.945   7.018  0.00  0.00    +0.028 C 
ATOM      5  C   LIG    1       25.248 -32.525   5.786  0.00  0.00    +0.022 C 
ATOM      6  C   LIG    1       25.603 -31.733   4.705  0.00  0.00    +0.042 C 
ATOM      7 CL   LIG    1       25.966 -32.481   3.196  0.00  0.00    -0.084 Cl
ATOM      8  N   LIG    1       24.724 -29.696   8.236  0.00  0.00    -0.316 NA
ATOM      9  C   LIG    1       25.630 -30.340   4.817  0.00  0.00    +0.030 C 
ATOM     10  C   LIG    1       24.790 -28.394   7.779  0.00  0.00    +0.096 C 
ENDROOT
BRANCH   8  11
ATOM     11  C   LIG    1       24.440 -30.041   9.598  0.00  0.00    +0.047 C 
ATOM     12  C   LIG    1       23.133 -30.300  10.028  0.00  0.00    +0.029 C 
ATOM     13  C   LIG    1       22.882 -30.636  11.363  0.00  0.00    +0.040 C 
ATOM     14  C   LIG    1       23.935 -30.725  12.264  0.00  0.00    +0.123 C 
ATOM     15  F   LIG    1       23.689 -31.049  13.540  0.00  0.00    -0.205 F 
ATOM     16  C   LIG    1       25.240 -30.495  11.855  0.00  0.00    +0.040 C 
ATOM     17  C   LIG    1       25.497 -30.159  10.522  0.00  0.00    +0.029 C 
ENDBRANCH   8  11
BRANCH   1  21
ATOM     18  N   LIG    1       24.757 -24.386   6.640  0.00  0.00    -0.301 NA
ATOM     19  C   LIG    1       23.683 -25.335   6.326  0.00  0.00    +0.085 C 
ATOM     20  C   LIG    1       24.053 -26.377   5.273  0.00  0.00    +0.023 C 
ATOM     21  C   LIG    1       25.359 -27.130   5.583  0.00  0.00    +0.024 C 
ATOM     22  C   LIG    1       26.451 -26.180   6.113  0.00  0.00    +0.023 C 
ATOM     23  C   LIG    1       25.942 -25.121   7.103  0.00  0.00    +0.085 C 
BRANCH  18  24
ATOM     24  C   LIG    1       25.106 -23.449   5.551  0.00  0.00    +0.103 C 
BRANCH  24  25
ATOM     25  C   LIG    1       25.446 -22.000   5.950  0.00  0.00    +0.124 C 
BRANCH  25  28
ATOM     26  O   LIG    1       25.567 -20.062   3.714  0.00  0.00    -0.253 OA
ATOM     27  C   LIG    1       24.580 -20.199   4.428  0.00  0.00    +0.302 C 
ATOM     28  N   LIG    1       24.455 -21.021   5.544  0.00  0.00    -0.283 N 
ATOM     29  C   LIG    1       23.108 -20.990   6.046  0.00  0.00    +0.128 C 
ATOM     30  C   LIG    1       22.517 -19.747   5.364  0.00  0.00    +0.124 C 
ATOM     31  N   LIG    1       23.383 -19.538   4.246  0.00  0.00    -0.298 N 
ATOM     32  H   LIG    1       23.319 -18.798   3.565  0.00  0.00    +0.150 HD
ENDBRANCH  25  28
ENDBRANCH  24  25
ENDBRANCH  18  24
ENDBRANCH   1  21
TORSDOF 5
ENDMDL
MODEL 8
REMARK VINA RESULT:      -7.5     10.005     12.611
REMARK  Name = *****
REMARK                            x       y       z     vdW  Elec       q    Type
REMARK                         _______ _______ _______ _____ _____    ______ ____
ROOT
ATOM      1  C   LIG    1       23.165 -29.280  12.530  0.00  0.00    -0.019 C 
ATOM      2  C   LIG    1       23.798 -28.051  12.910  0.00  0.00    +0.005 C 
ATOM      3  C   LIG    1       22.838 -27.243  13.548  0.00  0.00    +0.054 C 
ATOM      4  C   LIG    1       23.211 -26.015  14.136  0.00  0.00    +0.028 C 
ATOM      5  C   LIG    1       24.533 -25.576  14.022  0.00  0.00    +0.022 C 
ATOM      6  C   LIG    1       25.472 -26.338  13.343  0.00  0.00    +0.042 C 
ATOM      7 CL   LIG    1       27.096 -25.775  13.238  0.00  0.00    -0.084 Cl
ATOM      8  N   LIG    1       21.620 -27.927  13.505  0.00  0.00    -0.316 NA
ATOM      9  C   LIG    1       25.124 -27.570  12.781  0.00  0.00    +0.030 C 
ATOM     10  C   LIG    1       21.849 -29.158  12.920  0.00  0.00    +0.096 C 
ENDROOT
BRANCH   8  11
ATOM     11  C   LIG    1       20.330 -27.496  13.956  0.00  0.00    +0.047 C 
ATOM     12  C   LIG    1       19.699 -28.101  15.049  0.00  0.00    +0.029 C 
ATOM     13  C   LIG    1       18.439 -27.662  15.471  0.00  0.00    +0.040 C 
ATOM     14  C   LIG    1       17.816 -26.610  14.810  0.00  0.00    +0.123 C 
ATOM     15  F   LIG    1       16.612 -26.192  15.220  0.00  0.00    -0.205 F 
ATOM     16  C   LIG    1       18.434 -25.980  13.740  0.00  0.00    +0.040 C 
ATOM     17  C   LIG    1       19.692 -26.416  13.314  0.00  0.00    +0.029 C 
ENDBRANCH   8  11
BRANCH   1  21
ATOM     18  N   LIG    1       22.793 -31.366   9.144  0.00  0.00    -0.301 NA
ATOM     19  C   LIG    1       22.016 -31.579  10.370  0.00  0.00    +0.085 C 
ATOM     20  C   LIG    1       22.855 -31.645  11.643  0.00  0.00    +0.023 C 
ATOM     21  C   LIG    1       23.811 -30.452  11.815  0.00  0.00    +0.024 C 
ATOM     22  C   LIG    1       24.494 -30.074  10.486  0.00  0.00    +0.023 C 
ATOM     23  C   LIG    1       23.567 -30.123   9.262  0.00  0.00    +0.085 C 
BRANCH  18  24
ATOM     24  C   LIG    1       23.660 -32.496   8.747  0.00  0.00    +0.103 C 
BRANCH  24  25
ATOM     25  C   LIG    1       23.475 -33.061   7.325  0.00  0.00    +0.124 C 
BRANCH  25  28
ATOM     26  O   LIG    1       23.298 -30.473   5.895  0.00  0.00    -0.253 OA
ATOM     27  C   LIG    1       24.246 -31.241   5.774  0.00  0.00    +0.302 C 
ATOM     28  N   LIG    1       24.383 -32.505   6.339  0.00  0.00    -0.283 N 
ATOM     29  C   LIG    1       25.685 -33.046   6.056  0.00  0.00    +0.128 C 
ATOM     30  C   LIG    1       26.187 -32.150   4.914  0.00  0.00    +0.124 C 
ATOM     31  N   LIG    1       25.377 -30.978   5.031  0.00  0.00    -0.298 N 
ATOM     32  H   LIG    1       25.408 -30.164   4.438  0.00  0.00    +0.150 HD
ENDBRANCH  25  28
ENDBRANCH  24  25
ENDBRANCH  18  24
ENDBRANCH   1  21
TORSDOF 5
ENDMDL
MODEL 9
REMARK VINA RESULT:      -7.5      9.304     11.881
REMARK  Name = *****
REMARK                            x       y       z     vdW  Elec       q    Type
REMARK                         _______ _______ _______ _____ _____    ______ ____
ROOT
ATOM      1  C   LIG    1       24.849 -28.360  12.698  0.00  0.00    -0.019 C 
ATOM      2  C   LIG    1       25.298 -27.109  13.235  0.00  0.00    +0.005 C 
ATOM      3  C   LIG    1       24.190 -26.457  13.808  0.00  0.00    +0.054 C 
ATOM      4  C   LIG    1       24.359 -25.250  14.520  0.00  0.00    +0.028 C 
ATOM      5  C   LIG    1       25.629 -24.673  14.597  0.00  0.00    +0.022 C 
ATOM      6  C   LIG    1       26.716 -25.279  13.986  0.00  0.00    +0.042 C 
ATOM      7 CL   LIG    1       28.270 -24.549  14.116  0.00  0.00    -0.084 Cl
ATOM      8  N   LIG    1       23.067 -27.254  13.571  0.00  0.00    -0.316 NA
ATOM      9  C   LIG    1       26.569 -26.489  13.302  0.00  0.00    +0.030 C 
ATOM     10  C   LIG    1       23.492 -28.404  12.933  0.00  0.00    +0.096 C 
ENDROOT
BRANCH   8  11
ATOM     11  C   LIG    1       21.695 -26.992  13.891  0.00  0.00    +0.047 C 
ATOM     12  C   LIG    1       21.233 -27.031  15.213  0.00  0.00    +0.029 C 
ATOM     13  C   LIG    1       19.888 -26.771  15.500  0.00  0.00    +0.040 C 
ATOM     14  C   LIG    1       19.009 -26.458  14.471  0.00  0.00    +0.123 C 
ATOM     15  F   LIG    1       17.725 -26.207  14.753  0.00  0.00    -0.205 F 
ATOM     16  C   LIG    1       19.449 -26.390  13.158  0.00  0.00    +0.040 C 
ATOM     17  C   LIG    1       20.791 -26.651  12.865  0.00  0.00    +0.029 C 
ENDBRANCH   8  11
BRANCH   1  21
ATOM     18  N   LIG    1       25.457 -29.800   9.021  0.00  0.00    -0.301 NA
ATOM     19  C   LIG    1       24.386 -30.211   9.935  0.00  0.00    +0.085 C 
ATOM     20  C   LIG    1       24.855 -30.522  11.354  0.00  0.00    +0.023 C 
ATOM     21  C   LIG    1       25.696 -29.400  11.986  0.00  0.00    +0.024 C 
ATOM     22  C   LIG    1       26.700 -28.805  10.978  0.00  0.00    +0.023 C 
ATOM     23  C   LIG    1       26.137 -28.615   9.562  0.00  0.00    +0.085 C 
BRANCH  18  24
ATOM     24  C   LIG    1       26.430 -30.859   8.677  0.00  0.00    +0.103 C 
BRANCH  24  25
ATOM     25  C   LIG    1       25.865 -32.186   8.135  0.00  0.00    +0.124 C 
BRANCH  25  28
ATOM     26  O   LIG    1       23.704 -31.199   6.367  0.00  0.00    -0.253 OA
ATOM     27  C   LIG    1       24.744 -31.691   5.943  0.00  0.00    +0.302 C 
ATOM     28  N   LIG    1       25.777 -32.250   6.689  0.00  0.00    -0.283 N 
ATOM     29  C   LIG    1       26.875 -32.617   5.835  0.00  0.00    +0.128 C 
ATOM     30  C   LIG    1       26.242 -32.596   4.435  0.00  0.00    +0.124 C 
ATOM     31  N   LIG    1       25.080 -31.781   4.609  0.00  0.00    -0.298 N 
ATOM     32  H   LIG    1       24.399 -31.547   3.904  0.00  0.00    +0.150 HD
ENDBRANCH  25  28
ENDBRANCH  24  25
ENDBRANCH  18  24
ENDBRANCH   1  21
TORSDOF 5
ENDMDL
