MODEL 1
REMARK VINA RESULT:      -9.2      0.000      0.000
REMARK  Name = *****
REMARK                            x       y       z     vdW  Elec       q    Type
REMARK                         _______ _______ _______ _____ _____    ______ ____
ROOT
ATOM      1  O   LIG    1       29.631 -20.192   6.373  0.00  0.00    -0.273 OA
ATOM      2  C   LIG    1       28.408 -20.319   6.352  0.00  0.00    +0.239 C 
ATOM      3  N   LIG    1       27.720 -20.017   5.204  0.00  0.00    -0.283 N 
ATOM      4  H   LIG    1       28.313 -19.592   4.501  0.00  0.00    +0.155 HD
ATOM      5  C   LIG    1       26.330 -20.021   5.025  0.00  0.00    +0.043 A 
ATOM      6  C   LIG    1       25.433 -20.844   5.734  0.00  0.00    +0.028 A 
ATOM      7  C   LIG    1       24.048 -20.670   5.572  0.00  0.00    +0.096 A 
ATOM      8  C   LIG    1       23.569 -19.751   4.628  0.00  0.00    +0.274 A 
ATOM      9  C   LIG    1       24.457 -18.991   3.860  0.00  0.00    +0.086 A 
ATOM     10  C   LIG    1       25.917 -22.001   6.550  0.00  0.00    +0.077 C 
ATOM     11  N   LIG    1       26.895 -21.930   7.389  0.00  0.00    -0.273 NA
ATOM     12  C   LIG    1       25.832 -19.129   4.063  0.00  0.00    +0.030 A 
ATOM     13  C   LIG    1       27.600 -20.671   7.586  0.00  0.00    +0.238 C 
ENDROOT
BRANCH  10  14
ATOM     14  C   LIG    1       25.239 -23.346   6.439  0.00  0.00    +0.019 A 
ATOM     15  C   LIG    1       23.904 -23.619   6.779  0.00  0.00    +0.050 A 
ATOM     16 CL   LIG    1       22.763 -22.414   7.266  0.00  0.00    -0.083 Cl
ATOM     17  C   LIG    1       23.405 -24.925   6.662  0.00  0.00    +0.021 A 
ATOM     18  C   LIG    1       24.203 -25.951   6.159  0.00  0.00    +0.002 A 
ATOM     19  C   LIG    1       25.508 -25.680   5.766  0.00  0.00    +0.001 A 
ATOM     20  C   LIG    1       26.023 -24.391   5.910  0.00  0.00    +0.011 A 
ENDBRANCH  10  14
BRANCH   8  21
ATOM     21  N   LIG    1       22.124 -19.618   4.409  0.00  0.00    +0.080 N 
ATOM     22  O   LIG    1       21.698 -18.518   4.030  0.00  0.00    -0.576 OA
ATOM     23  O   LIG    1       21.418 -20.615   4.615  0.00  0.00    +0.041 OA
ENDBRANCH   8  21
TORSDOF 2
ENDMDL
MODEL 2
REMARK VINA RESULT:      -8.6      2.558      4.747
REMARK  Name = *****
REMARK                            x       y       z     vdW  Elec       q    Type
REMARK                         _______ _______ _______ _____ _____    ______ ____
ROOT
ATOM      1  O   LIG    1       28.950 -19.569   8.364  0.00  0.00    -0.273 OA
ATOM      2  C   LIG    1       28.231 -20.245   7.629  0.00  0.00    +0.239 C 
ATOM      3  N   LIG    1       27.458 -21.238   8.174  0.00  0.00    -0.283 N 
ATOM      4  H   LIG    1       27.661 -21.389   9.155  0.00  0.00    +0.155 HD
ATOM      5  C   LIG    1       26.649 -22.154   7.486  0.00  0.00    +0.043 A 
ATOM      6  C   LIG    1       26.030 -21.903   6.247  0.00  0.00    +0.028 A 
ATOM      7  C   LIG    1       25.352 -22.938   5.581  0.00  0.00    +0.096 A 
ATOM      8  C   LIG    1       25.207 -24.186   6.204  0.00  0.00    +0.274 A 
ATOM      9  C   LIG    1       25.748 -24.415   7.473  0.00  0.00    +0.086 A 
ATOM     10  C   LIG    1       25.948 -20.518   5.683  0.00  0.00    +0.077 C 
ATOM     11  N   LIG    1       26.951 -19.708   5.621  0.00  0.00    -0.273 NA
ATOM     12  C   LIG    1       26.467 -23.399   8.107  0.00  0.00    +0.030 A 
ATOM     13  C   LIG    1       28.256 -20.120   6.118  0.00  0.00    +0.238 C 
ENDROOT
BRANCH  10  14
ATOM     14  C   LIG    1       24.646 -20.002   5.119  0.00  0.00    +0.019 A 
ATOM     15  C   LIG    1       23.389 -20.110   5.735  0.00  0.00    +0.050 A 
ATOM     16 CL   LIG    1       23.140 -20.747   7.324  0.00  0.00    -0.083 Cl
ATOM     17  C   LIG    1       22.246 -19.618   5.086  0.00  0.00    +0.021 A 
ATOM     18  C   LIG    1       22.349 -18.971   3.856  0.00  0.00    +0.002 A 
ATOM     19  C   LIG    1       23.595 -18.807   3.264  0.00  0.00    +0.001 A 
ATOM     20  C   LIG    1       24.733 -19.323   3.887  0.00  0.00    +0.011 A 
ENDBRANCH  10  14
BRANCH   8  21
ATOM     21  N   LIG    1       24.440 -25.247   5.540  0.00  0.00    +0.080 N 
ATOM     22  O   LIG    1       23.397 -25.631   6.087  0.00  0.00    -0.576 OA
ATOM     23  O   LIG    1       24.883 -25.693   4.473  0.00  0.00    +0.041 OA
ENDBRANCH   8  21
TORSDOF 2
ENDMDL
MODEL 3
REMARK VINA RESULT:      -8.2      2.415      4.589
REMARK  Name = *****
REMARK                            x       y       z     vdW  Elec       q    Type
REMARK                         _______ _______ _______ _____ _____    ______ ____
ROOT
ATOM      1  O   LIG    1       23.021 -24.562   6.834  0.00  0.00    -0.273 OA
ATOM      2  C   LIG    1       23.641 -23.633   6.319  0.00  0.00    +0.239 C 
ATOM      3  N   LIG    1       23.066 -22.390   6.262  0.00  0.00    -0.283 N 
ATOM      4  H   LIG    1       22.099 -22.399   6.563  0.00  0.00    +0.155 HD
ATOM      5  C   LIG    1       23.586 -21.244   5.643  0.00  0.00    +0.043 A 
ATOM      6  C   LIG    1       24.958 -20.974   5.480  0.00  0.00    +0.028 A 
ATOM      7  C   LIG    1       25.367 -19.862   4.724  0.00  0.00    +0.096 A 
ATOM      8  C   LIG    1       24.407 -18.970   4.226  0.00  0.00    +0.274 A 
ATOM      9  C   LIG    1       23.045 -19.188   4.458  0.00  0.00    +0.086 A 
ATOM     10  C   LIG    1       25.999 -21.761   6.213  0.00  0.00    +0.077 C 
ATOM     11  N   LIG    1       26.012 -23.050   6.278  0.00  0.00    -0.273 NA
ATOM     12  C   LIG    1       22.641 -20.323   5.164  0.00  0.00    +0.030 A 
ATOM     13  C   LIG    1       24.972 -23.826   5.617  0.00  0.00    +0.238 C 
ENDROOT
BRANCH  10  14
ATOM     14  C   LIG    1       27.135 -21.053   6.912  0.00  0.00    +0.019 A 
ATOM     15  C   LIG    1       27.063 -20.443   8.176  0.00  0.00    +0.050 A 
ATOM     16 CL   LIG    1       25.678 -20.516   9.209  0.00  0.00    -0.083 Cl
ATOM     17  C   LIG    1       28.186 -19.785   8.700  0.00  0.00    +0.021 A 
ATOM     18  C   LIG    1       29.394 -19.774   8.006  0.00  0.00    +0.002 A 
ATOM     19  C   LIG    1       29.492 -20.423   6.781  0.00  0.00    +0.001 A 
ATOM     20  C   LIG    1       28.371 -21.052   6.237  0.00  0.00    +0.011 A 
ENDBRANCH  10  14
BRANCH   8  21
ATOM     21  N   LIG    1       24.836 -17.771   3.496  0.00  0.00    +0.080 N 
ATOM     22  O   LIG    1       25.840 -17.864   2.776  0.00  0.00    -0.576 OA
ATOM     23  O   LIG    1       24.167 -16.739   3.644  0.00  0.00    +0.041 OA
ENDBRANCH   8  21
TORSDOF 2
ENDMDL
MODEL 4
REMARK VINA RESULT:      -7.6      6.453      8.967
REMARK  Name = *****
REMARK                            x       y       z     vdW  Elec       q    Type
REMARK                         _______ _______ _______ _____ _____    ______ ____
ROOT
ATOM      1  O   LIG    1       25.582 -33.380   5.444  0.00  0.00    -0.273 OA
ATOM      2  C   LIG    1       25.635 -32.251   5.928  0.00  0.00    +0.239 C 
ATOM      3  N   LIG    1       24.792 -31.277   5.455  0.00  0.00    -0.283 N 
ATOM      4  H   LIG    1       24.273 -31.580   4.639  0.00  0.00    +0.155 HD
ATOM      5  C   LIG    1       24.769 -29.925   5.826  0.00  0.00    +0.043 A 
ATOM      6  C   LIG    1       25.158 -29.433   7.086  0.00  0.00    +0.028 A 
ATOM      7  C   LIG    1       25.225 -28.047   7.306  0.00  0.00    +0.096 A 
ATOM      8  C   LIG    1       24.802 -27.164   6.302  0.00  0.00    +0.274 A 
ATOM      9  C   LIG    1       24.334 -27.650   5.077  0.00  0.00    +0.086 A 
ATOM     10  C   LIG    1       25.366 -30.351   8.250  0.00  0.00    +0.077 C 
ATOM     11  N   LIG    1       26.056 -31.440   8.192  0.00  0.00    -0.273 NA
ATOM     12  C   LIG    1       24.321 -29.027   4.845  0.00  0.00    +0.030 A 
ATOM     13  C   LIG    1       26.686 -31.842   6.942  0.00  0.00    +0.238 C 
ENDROOT
BRANCH  10  14
ATOM     14  C   LIG    1       24.775 -30.014   9.598  0.00  0.00    +0.019 A 
ATOM     15  C   LIG    1       25.459 -29.397  10.659  0.00  0.00    +0.050 A 
ATOM     16 CL   LIG    1       27.077 -28.795  10.549  0.00  0.00    -0.083 Cl
ATOM     17  C   LIG    1       24.802 -29.172  11.878  0.00  0.00    +0.021 A 
ATOM     18  C   LIG    1       23.457 -29.503  12.036  0.00  0.00    +0.002 A 
ATOM     19  C   LIG    1       22.756 -30.061  10.974  0.00  0.00    +0.001 A 
ATOM     20  C   LIG    1       23.410 -30.320   9.768  0.00  0.00    +0.011 A 
ENDBRANCH  10  14
BRANCH   8  21
ATOM     21  N   LIG    1       24.805 -25.718   6.554  0.00  0.00    +0.080 N 
ATOM     22  O   LIG    1       25.895 -25.176   6.783  0.00  0.00    -0.576 OA
ATOM     23  O   LIG    1       23.717 -25.128   6.523  0.00  0.00    +0.041 OA
ENDBRANCH   8  21
TORSDOF 2
ENDMDL
MODEL 5
REMARK VINA RESULT:      -7.6      6.448      8.896
REMARK  Name = *****
REMARK                            x       y       z     vdW  Elec       q    Type
REMARK                         _______ _______ _______ _____ _____    ______ ____
ROOT
ATOM      1  O   LIG    1       24.734 -33.309   6.904  0.00  0.00    -0.273 OA
ATOM      2  C   LIG    1       25.118 -32.153   7.072  0.00  0.00    +0.239 C 
ATOM      3  N   LIG    1       24.339 -31.115   6.627  0.00  0.00    -0.283 N 
ATOM      4  H   LIG    1       23.548 -31.435   6.080  0.00  0.00    +0.155 HD
ATOM      5  C   LIG    1       24.651 -29.749   6.656  0.00  0.00    +0.043 A 
ATOM      6  C   LIG    1       25.491 -29.139   7.608  0.00  0.00    +0.028 A 
ATOM      7  C   LIG    1       25.846 -27.787   7.464  0.00  0.00    +0.096 A 
ATOM      8  C   LIG    1       25.278 -27.027   6.432  0.00  0.00    +0.274 A 
ATOM      9  C   LIG    1       24.377 -27.607   5.533  0.00  0.00    +0.086 A 
ATOM     10  C   LIG    1       25.902 -29.856   8.856  0.00  0.00    +0.077 C 
ATOM     11  N   LIG    1       26.354 -31.065   8.875  0.00  0.00    -0.273 NA
ATOM     12  C   LIG    1       24.070 -28.964   5.649  0.00  0.00    +0.030 A 
ATOM     13  C   LIG    1       26.485 -31.816   7.634  0.00  0.00    +0.238 C 
ENDROOT
BRANCH  10  14
ATOM     14  C   LIG    1       25.827 -29.158  10.193  0.00  0.00    +0.019 A 
ATOM     15  C   LIG    1       24.765 -29.254  11.107  0.00  0.00    +0.050 A 
ATOM     16 CL   LIG    1       23.405 -30.304  10.904  0.00  0.00    -0.083 Cl
ATOM     17  C   LIG    1       24.802 -28.524  12.304  0.00  0.00    +0.021 A 
ATOM     18  C   LIG    1       25.910 -27.742  12.628  0.00  0.00    +0.002 A 
ATOM     19  C   LIG    1       26.992 -27.686  11.758  0.00  0.00    +0.001 A 
ATOM     20  C   LIG    1       26.949 -28.383  10.549  0.00  0.00    +0.011 A 
ENDBRANCH  10  14
BRANCH   8  21
ATOM     21  N   LIG    1       25.594 -25.597   6.321  0.00  0.00    +0.080 N 
ATOM     22  O   LIG    1       25.770 -24.964   7.371  0.00  0.00    -0.576 OA
ATOM     23  O   LIG    1       25.665 -25.112   5.184  0.00  0.00    +0.041 OA
ENDBRANCH   8  21
TORSDOF 2
ENDMDL
MODEL 6
REMARK VINA RESULT:      -7.0      7.287     10.073
REMARK  Name = *****
REMARK                            x       y       z     vdW  Elec       q    Type
REMARK                         _______ _______ _______ _____ _____    ______ ____
ROOT
ATOM      1  O   LIG    1       27.735 -33.102   5.664  0.00  0.00    -0.273 OA
ATOM      2  C   LIG    1       26.790 -32.470   6.134  0.00  0.00    +0.239 C 
ATOM      3  N   LIG    1       26.693 -32.318   7.494  0.00  0.00    -0.283 N 
ATOM      4  H   LIG    1       27.382 -32.869   7.993  0.00  0.00    +0.155 HD
ATOM      5  C   LIG    1       25.650 -31.707   8.205  0.00  0.00    +0.043 A 
ATOM      6  C   LIG    1       24.838 -30.672   7.705  0.00  0.00    +0.028 A 
ATOM      7  C   LIG    1       23.734 -30.226   8.451  0.00  0.00    +0.096 A 
ATOM      8  C   LIG    1       23.511 -30.741   9.736  0.00  0.00    +0.274 A 
ATOM      9  C   LIG    1       24.365 -31.710  10.273  0.00  0.00    +0.086 A 
ATOM     10  C   LIG    1       25.203 -29.930   6.457  0.00  0.00    +0.077 C 
ATOM     11  N   LIG    1       25.567 -30.504   5.360  0.00  0.00    -0.273 NA
ATOM     12  C   LIG    1       25.429 -32.189   9.505  0.00  0.00    +0.030 A 
ATOM     13  C   LIG    1       25.644 -31.956   5.285  0.00  0.00    +0.238 C 
ENDROOT
BRANCH  10  14
ATOM     14  C   LIG    1       25.134 -28.422   6.422  0.00  0.00    +0.019 A 
ATOM     15  C   LIG    1       25.715 -27.555   7.362  0.00  0.00    +0.050 A 
ATOM     16 CL   LIG    1       26.729 -28.075   8.663  0.00  0.00    -0.083 Cl
ATOM     17  C   LIG    1       25.545 -26.168   7.233  0.00  0.00    +0.021 A 
ATOM     18  C   LIG    1       24.852 -25.632   6.150  0.00  0.00    +0.002 A 
ATOM     19  C   LIG    1       24.322 -26.478   5.183  0.00  0.00    +0.001 A 
ATOM     20  C   LIG    1       24.457 -27.860   5.321  0.00  0.00    +0.011 A 
ENDBRANCH  10  14
BRANCH   8  21
ATOM     21  N   LIG    1       22.400 -30.226  10.545  0.00  0.00    +0.080 N 
ATOM     22  O   LIG    1       22.678 -29.490  11.502  0.00  0.00    -0.576 OA
ATOM     23  O   LIG    1       21.252 -30.558  10.220  0.00  0.00    +0.041 OA
ENDBRANCH   8  21
TORSDOF 2
ENDMDL
MODEL 7
REMARK VINA RESULT:      -7.0      7.334      9.888
REMARK  Name = *****
REMARK                            x       y       z     vdW  Elec       q    Type
REMARK                         _______ _______ _______ _____ _____    ______ ____
ROOT
ATOM      1  O   LIG    1       25.924 -31.793  11.959  0.00  0.00    -0.273 OA
ATOM      2  C   LIG    1       25.487 -31.313  10.914  0.00  0.00    +0.239 C 
ATOM      3  N   LIG    1       26.239 -30.392  10.231  0.00  0.00    -0.283 N 
ATOM      4  H   LIG    1       27.063 -30.109  10.748  0.00  0.00    +0.155 HD
ATOM      5  C   LIG    1       25.869 -29.685   9.078  0.00  0.00    +0.043 A 
ATOM      6  C   LIG    1       24.969 -30.156   8.104  0.00  0.00    +0.028 A 
ATOM      7  C   LIG    1       24.564 -29.309   7.058  0.00  0.00    +0.096 A 
ATOM      8  C   LIG    1       25.140 -28.037   6.932  0.00  0.00    +0.274 A 
ATOM      9  C   LIG    1       26.098 -27.596   7.850  0.00  0.00    +0.086 A 
ATOM     10  C   LIG    1       24.539 -31.589   8.068  0.00  0.00    +0.077 C 
ATOM     11  N   LIG    1       24.138 -32.245   9.105  0.00  0.00    -0.273 NA
ATOM     12  C   LIG    1       26.457 -28.421   8.919  0.00  0.00    +0.030 A 
ATOM     13  C   LIG    1       24.086 -31.594  10.407  0.00  0.00    +0.238 C 
ENDROOT
BRANCH  10  14
ATOM     14  C   LIG    1       24.533 -32.349   6.763  0.00  0.00    +0.019 A 
ATOM     15  C   LIG    1       25.670 -32.708   6.021  0.00  0.00    +0.050 A 
ATOM     16 CL   LIG    1       27.295 -32.448   6.553  0.00  0.00    -0.083 Cl
ATOM     17  C   LIG    1       25.525 -33.386   4.801  0.00  0.00    +0.021 A 
ATOM     18  C   LIG    1       24.264 -33.758   4.338  0.00  0.00    +0.002 A 
ATOM     19  C   LIG    1       23.136 -33.458   5.092  0.00  0.00    +0.001 A 
ATOM     20  C   LIG    1       23.269 -32.755   6.291  0.00  0.00    +0.011 A 
ENDBRANCH  10  14
BRANCH   8  21
ATOM     21  N   LIG    1       24.770 -27.177   5.801  0.00  0.00    +0.080 N 
ATOM     22  O   LIG    1       23.900 -26.316   5.993  0.00  0.00    -0.576 OA
ATOM     23  O   LIG    1       25.351 -27.366   4.724  0.00  0.00    +0.041 OA
ENDBRANCH   8  21
TORSDOF 2
ENDMDL
MODEL 8
REMARK VINA RESULT:      -6.8      6.815      9.335
REMARK  Name = *****
REMARK                            x       y       z     vdW  Elec       q    Type
REMARK                         _______ _______ _______ _____ _____    ______ ____
ROOT
ATOM      1  O   LIG    1       25.468 -33.825   7.938  0.00  0.00    -0.273 OA
ATOM      2  C   LIG    1       25.579 -32.604   8.037  0.00  0.00    +0.239 C 
ATOM      3  N   LIG    1       24.732 -31.792   7.326  0.00  0.00    -0.283 N 
ATOM      4  H   LIG    1       24.155 -32.313   6.676  0.00  0.00    +0.155 HD
ATOM      5  C   LIG    1       24.766 -30.392   7.252  0.00  0.00    +0.043 A 
ATOM      6  C   LIG    1       25.247 -29.547   8.270  0.00  0.00    +0.028 A 
ATOM      7  C   LIG    1       25.361 -28.166   8.038  0.00  0.00    +0.096 A 
ATOM      8  C   LIG    1       24.897 -27.625   6.831  0.00  0.00    +0.274 A 
ATOM      9  C   LIG    1       24.340 -28.450   5.848  0.00  0.00    +0.086 A 
ATOM     10  C   LIG    1       25.505 -30.062   9.652  0.00  0.00    +0.077 C 
ATOM     11  N   LIG    1       26.163 -31.144   9.904  0.00  0.00    -0.273 NA
ATOM     12  C   LIG    1       24.278 -29.829   6.063  0.00  0.00    +0.030 A 
ATOM     13  C   LIG    1       26.702 -31.943   8.813  0.00  0.00    +0.238 C 
ENDROOT
BRANCH  10  14
ATOM     14  C   LIG    1       25.010 -29.295  10.855  0.00  0.00    +0.019 A 
ATOM     15  C   LIG    1       25.773 -28.401  11.625  0.00  0.00    +0.050 A 
ATOM     16 CL   LIG    1       27.391 -27.928  11.240  0.00  0.00    -0.083 Cl
ATOM     17  C   LIG    1       25.201 -27.777  12.744  0.00  0.00    +0.021 A 
ATOM     18  C   LIG    1       23.863 -27.990  13.073  0.00  0.00    +0.002 A 
ATOM     19  C   LIG    1       23.083 -28.827  12.284  0.00  0.00    +0.001 A 
ATOM     20  C   LIG    1       23.653 -29.478  11.188  0.00  0.00    +0.011 A 
ENDBRANCH  10  14
BRANCH   8  21
ATOM     21  N   LIG    1       24.951 -26.174   6.613  0.00  0.00    +0.080 N 
ATOM     22  O   LIG    1       23.883 -25.584   6.402  0.00  0.00    -0.576 OA
ATOM     23  O   LIG    1       26.063 -25.629   6.655  0.00  0.00    +0.041 OA
ENDBRANCH   8  21
TORSDOF 2
ENDMDL
MODEL 9
REMARK VINA RESULT:      -6.7      2.712      5.871
REMARK  Name = *****
REMARK                            x       y       z     vdW  Elec       q    Type
REMARK                         _______ _______ _______ _____ _____    ______ ____
ROOT
ATOM      1  O   LIG    1       23.237 -25.266   6.488  0.00  0.00    -0.273 OA
ATOM      2  C   LIG    1       23.746 -24.165   6.695  0.00  0.00    +0.239 C 
ATOM      3  N   LIG    1       25.075 -23.976   6.412  0.00  0.00    -0.283 N 
ATOM      4  H   LIG    1       25.542 -24.839   6.160  0.00  0.00    +0.155 HD
ATOM      5  C   LIG    1       25.837 -22.825   6.659  0.00  0.00    +0.043 A 
ATOM      6  C   LIG    1       25.322 -21.515   6.693  0.00  0.00    +0.028 A 
ATOM      7  C   LIG    1       26.149 -20.448   7.084  0.00  0.00    +0.096 A 
ATOM      8  C   LIG    1       27.508 -20.680   7.337  0.00  0.00    +0.274 A 
ATOM      9  C   LIG    1       28.044 -21.967   7.224  0.00  0.00    +0.086 A 
ATOM     10  C   LIG    1       23.950 -21.204   6.181  0.00  0.00    +0.077 C 
ATOM     11  N   LIG    1       22.898 -21.886   6.487  0.00  0.00    -0.273 NA
ATOM     12  C   LIG    1       27.206 -23.032   6.887  0.00  0.00    +0.030 A 
ATOM     13  C   LIG    1       23.003 -23.033   7.377  0.00  0.00    +0.238 C 
ENDROOT
BRANCH  10  14
ATOM     14  C   LIG    1       23.728 -20.020   5.270  0.00  0.00    +0.019 A 
ATOM     15  C   LIG    1       24.651 -19.526   4.333  0.00  0.00    +0.050 A 
ATOM     16 CL   LIG    1       26.164 -20.281   3.972  0.00  0.00    -0.083 Cl
ATOM     17  C   LIG    1       24.334 -18.391   3.570  0.00  0.00    +0.021 A 
ATOM     18  C   LIG    1       23.088 -17.777   3.690  0.00  0.00    +0.002 A 
ATOM     19  C   LIG    1       22.147 -18.292   4.573  0.00  0.00    +0.001 A 
ATOM     20  C   LIG    1       22.466 -19.400   5.360  0.00  0.00    +0.011 A 
ENDBRANCH  10  14
BRANCH   8  21
ATOM     21  N   LIG    1       28.388 -19.556   7.679  0.00  0.00    +0.080 N 
ATOM     22  O   LIG    1       28.538 -19.286   8.878  0.00  0.00    -0.576 OA
ATOM     23  O   LIG    1       28.928 -18.946   6.746  0.00  0.00    +0.041 OA
ENDBRANCH   8  21
TORSDOF 2
ENDMDL
