MODEL 1
REMARK VINA RESULT:      -9.0      0.000      0.000
REMARK  Name = *****
REMARK                            x       y       z     vdW  Elec       q    Type
REMARK                         _______ _______ _______ _____ _____    ______ ____
ROOT
ATOM      1  S   LIG    1       29.802 -18.860   6.682  0.00  0.00    +0.095 S 
ATOM      2  O   LIG    1       30.874 -19.745   6.102  0.00  0.00    -0.249 OA
ENDROOT
BRANCH   1   8
ATOM      3  C   LIG    1       31.581 -16.136  12.009  0.00  0.00    +0.122 A 
ATOM      4  C   LIG    1       30.500 -16.797  11.418  0.00  0.00    +0.073 A 
ATOM      5  C   LIG    1       30.689 -17.285  10.122  0.00  0.00    +0.070 A 
ATOM      6  C   LIG    1       31.872 -17.132   9.410  0.00  0.00    +0.090 A 
ATOM      7  N   LIG    1       31.768 -17.683   8.156  0.00  0.00    -0.220 NA
ATOM      8  C   LIG    1       30.535 -18.155   8.094  0.00  0.00    +0.198 A 
ATOM      9  C   LIG    1       32.946 -16.455  10.010  0.00  0.00    +0.033 A 
ATOM     10  N   LIG    1       29.866 -17.962   9.266  0.00  0.00    -0.331 N 
ATOM     11  H   LIG    1       28.897 -18.226   9.422  0.00  0.00    +0.168 HD
ATOM     12  C   LIG    1       32.779 -15.950  11.308  0.00  0.00    +0.048 A 
BRANCH   3  14
ATOM     13  C   LIG    1       32.709 -15.867  14.064  0.00  0.00    +0.277 C 
ATOM     14  O   LIG    1       31.554 -15.598  13.272  0.00  0.00    -0.495 OA
ENDBRANCH   3  14
ENDBRANCH   1   8
BRANCH   1  15
ATOM     15  C   LIG    1       28.608 -19.872   7.601  0.00  0.00    +0.167 C 
BRANCH  15  16
ATOM     16  C   LIG    1       27.335 -20.136   6.840  0.00  0.00    +0.060 A 
ATOM     17  C   LIG    1       26.138 -20.570   7.430  0.00  0.00    +0.014 A 
ATOM     18  C   LIG    1       26.034 -20.958   8.883  0.00  0.00    +0.049 C 
ATOM     19  C   LIG    1       24.984 -20.682   6.611  0.00  0.00    +0.129 A 
ATOM     20  C   LIG    1       25.070 -20.416   5.240  0.00  0.00    +0.009 A 
ATOM     21  C   LIG    1       23.957 -20.551   4.248  0.00  0.00    +0.049 C 
ATOM     22  C   LIG    1       26.310 -20.009   4.763  0.00  0.00    +0.118 A 
ATOM     23  N   LIG    1       27.419 -19.859   5.515  0.00  0.00    -0.258 NA
BRANCH  19  24
ATOM     24  O   LIG    1       23.873 -21.161   7.262  0.00  0.00    -0.494 OA
ATOM     25  C   LIG    1       23.465 -22.500   7.024  0.00  0.00    +0.277 C 
ENDBRANCH  19  24
ENDBRANCH  15  16
ENDBRANCH   1  15
TORSDOF 5
ENDMDL
MODEL 2
REMARK VINA RESULT:      -8.6      1.548      2.224
REMARK  Name = *****
REMARK                            x       y       z     vdW  Elec       q    Type
REMARK                         _______ _______ _______ _____ _____    ______ ____
ROOT
ATOM      1  S   LIG    1       29.997 -20.348   7.834  0.00  0.00    +0.095 S 
ATOM      2  O   LIG    1       30.121 -21.573   8.702  0.00  0.00    -0.249 OA
ENDROOT
BRANCH   1   8
ATOM      3  C   LIG    1       32.619 -16.117  11.599  0.00  0.00    +0.122 A 
ATOM      4  C   LIG    1       31.897 -17.314  11.622  0.00  0.00    +0.073 A 
ATOM      5  C   LIG    1       31.602 -17.898  10.388  0.00  0.00    +0.070 A 
ATOM      6  C   LIG    1       31.974 -17.345   9.169  0.00  0.00    +0.090 A 
ATOM      7  N   LIG    1       31.529 -18.115   8.121  0.00  0.00    -0.220 NA
ATOM      8  C   LIG    1       30.882 -19.117   8.688  0.00  0.00    +0.198 A 
ATOM      9  C   LIG    1       32.688 -16.136   9.158  0.00  0.00    +0.033 A 
ATOM     10  N   LIG    1       30.929 -19.039  10.048  0.00  0.00    -0.331 N 
ATOM     11  H   LIG    1       30.472 -19.695  10.676  0.00  0.00    +0.168 HD
ATOM     12  C   LIG    1       32.992 -15.526  10.385  0.00  0.00    +0.048 A 
BRANCH   3  14
ATOM     13  C   LIG    1       32.395 -15.881  13.936  0.00  0.00    +0.277 C 
ATOM     14  O   LIG    1       32.985 -15.419  12.724  0.00  0.00    -0.495 OA
ENDBRANCH   3  14
ENDBRANCH   1   8
BRANCH   1  15
ATOM     15  C   LIG    1       28.368 -19.587   8.083  0.00  0.00    +0.167 C 
BRANCH  15  16
ATOM     16  C   LIG    1       27.222 -20.480   7.684  0.00  0.00    +0.060 A 
ATOM     17  C   LIG    1       26.724 -20.589   6.377  0.00  0.00    +0.014 A 
ATOM     18  C   LIG    1       27.193 -19.712   5.245  0.00  0.00    +0.049 C 
ATOM     19  C   LIG    1       25.705 -21.544   6.121  0.00  0.00    +0.129 A 
ATOM     20  C   LIG    1       25.184 -22.310   7.169  0.00  0.00    +0.009 A 
ATOM     21  C   LIG    1       24.073 -23.307   7.060  0.00  0.00    +0.049 C 
ATOM     22  C   LIG    1       25.744 -22.106   8.425  0.00  0.00    +0.118 A 
ATOM     23  N   LIG    1       26.734 -21.233   8.701  0.00  0.00    -0.258 NA
BRANCH  19  24
ATOM     24  O   LIG    1       25.245 -21.545   4.827  0.00  0.00    -0.494 OA
ATOM     25  C   LIG    1       23.993 -20.936   4.546  0.00  0.00    +0.277 C 
ENDBRANCH  19  24
ENDBRANCH  15  16
ENDBRANCH   1  15
TORSDOF 5
ENDMDL
MODEL 3
REMARK VINA RESULT:      -8.1      3.505      9.157
REMARK  Name = *****
REMARK                            x       y       z     vdW  Elec       q    Type
REMARK                         _______ _______ _______ _____ _____    ______ ____
ROOT
ATOM      1  S   LIG    1       25.437 -20.538   6.842  0.00  0.00    +0.095 S 
ATOM      2  O   LIG    1       25.804 -20.469   8.301  0.00  0.00    -0.249 OA
ENDROOT
BRANCH   1   8
ATOM      3  C   LIG    1       25.569 -26.755   6.308  0.00  0.00    +0.122 A 
ATOM      4  C   LIG    1       25.781 -25.724   7.229  0.00  0.00    +0.073 A 
ATOM      5  C   LIG    1       25.528 -24.422   6.789  0.00  0.00    +0.070 A 
ATOM      6  C   LIG    1       25.098 -24.116   5.504  0.00  0.00    +0.090 A 
ATOM      7  N   LIG    1       24.957 -22.759   5.341  0.00  0.00    -0.220 NA
ATOM      8  C   LIG    1       25.307 -22.239   6.504  0.00  0.00    +0.198 A 
ATOM      9  C   LIG    1       24.901 -25.159   4.585  0.00  0.00    +0.033 A 
ATOM     10  N   LIG    1       25.628 -23.207   7.408  0.00  0.00    -0.331 N 
ATOM     11  H   LIG    1       25.949 -23.022   8.355  0.00  0.00    +0.168 HD
ATOM     12  C   LIG    1       25.154 -26.475   4.999  0.00  0.00    +0.048 A 
BRANCH   3  14
ATOM     13  C   LIG    1       24.603 -28.896   6.532  0.00  0.00    +0.277 C 
ATOM     14  O   LIG    1       25.773 -28.084   6.583  0.00  0.00    -0.495 OA
ENDBRANCH   3  14
ENDBRANCH   1   8
BRANCH   1  15
ATOM     15  C   LIG    1       26.921 -20.279   5.828  0.00  0.00    +0.167 C 
BRANCH  15  16
ATOM     16  C   LIG    1       28.207 -20.456   6.592  0.00  0.00    +0.060 A 
ATOM     17  C   LIG    1       29.275 -19.547   6.561  0.00  0.00    +0.014 A 
ATOM     18  C   LIG    1       29.309 -18.352   5.642  0.00  0.00    +0.049 C 
ATOM     19  C   LIG    1       30.389 -19.786   7.408  0.00  0.00    +0.129 A 
ATOM     20  C   LIG    1       30.429 -20.934   8.206  0.00  0.00    +0.009 A 
ATOM     21  C   LIG    1       31.558 -21.345   9.097  0.00  0.00    +0.049 C 
ATOM     22  C   LIG    1       29.321 -21.772   8.143  0.00  0.00    +0.118 A 
ATOM     23  N   LIG    1       28.232 -21.561   7.377  0.00  0.00    -0.258 NA
BRANCH  19  24
ATOM     24  O   LIG    1       31.407 -18.873   7.274  0.00  0.00    -0.494 OA
ATOM     25  C   LIG    1       31.721 -18.032   8.375  0.00  0.00    +0.277 C 
ENDBRANCH  19  24
ENDBRANCH  15  16
ENDBRANCH   1  15
TORSDOF 5
ENDMDL
MODEL 4
REMARK VINA RESULT:      -7.9      4.287      9.262
REMARK  Name = *****
REMARK                            x       y       z     vdW  Elec       q    Type
REMARK                         _______ _______ _______ _____ _____    ______ ____
ROOT
ATOM      1  S   LIG    1       24.433 -21.449   4.711  0.00  0.00    +0.095 S 
ATOM      2  O   LIG    1       22.933 -21.499   4.578  0.00  0.00    -0.249 OA
ENDROOT
BRANCH   1   8
ATOM      3  C   LIG    1       25.528 -27.534   5.564  0.00  0.00    +0.122 A 
ATOM      4  C   LIG    1       25.151 -26.609   4.585  0.00  0.00    +0.073 A 
ATOM      5  C   LIG    1       25.120 -25.265   4.963  0.00  0.00    +0.070 A 
ATOM      6  C   LIG    1       25.427 -24.821   6.244  0.00  0.00    +0.090 A 
ATOM      7  N   LIG    1       25.287 -23.458   6.340  0.00  0.00    -0.220 NA
ATOM      8  C   LIG    1       24.887 -23.072   5.141  0.00  0.00    +0.198 A 
ATOM      9  C   LIG    1       25.791 -25.760   7.221  0.00  0.00    +0.033 A 
ATOM     10  N   LIG    1       24.804 -24.124   4.279  0.00  0.00    -0.331 N 
ATOM     11  H   LIG    1       24.491 -24.051   3.315  0.00  0.00    +0.168 HD
ATOM     12  C   LIG    1       25.824 -27.118   6.868  0.00  0.00    +0.048 A 
BRANCH   3  14
ATOM     13  C   LIG    1       24.896 -29.686   6.297  0.00  0.00    +0.277 C 
ATOM     14  O   LIG    1       25.605 -28.889   5.352  0.00  0.00    -0.495 OA
ENDBRANCH   3  14
ENDBRANCH   1   8
BRANCH   1  15
ATOM     15  C   LIG    1       24.878 -20.721   6.313  0.00  0.00    +0.167 C 
BRANCH  15  16
ATOM     16  C   LIG    1       26.325 -20.309   6.403  0.00  0.00    +0.060 A 
ATOM     17  C   LIG    1       27.146 -20.548   7.516  0.00  0.00    +0.014 A 
ATOM     18  C   LIG    1       26.628 -21.124   8.809  0.00  0.00    +0.049 C 
ATOM     19  C   LIG    1       28.519 -20.197   7.428  0.00  0.00    +0.129 A 
ATOM     20  C   LIG    1       29.011 -19.578   6.275  0.00  0.00    +0.009 A 
ATOM     21  C   LIG    1       30.414 -19.100   6.066  0.00  0.00    +0.049 C 
ATOM     22  C   LIG    1       28.103 -19.376   5.243  0.00  0.00    +0.118 A 
ATOM     23  N   LIG    1       26.801 -19.726   5.276  0.00  0.00    -0.258 NA
BRANCH  19  24
ATOM     24  O   LIG    1       29.233 -20.421   8.581  0.00  0.00    -0.494 OA
ATOM     25  C   LIG    1       30.282 -21.379   8.560  0.00  0.00    +0.277 C 
ENDBRANCH  19  24
ENDBRANCH  15  16
ENDBRANCH   1  15
TORSDOF 5
ENDMDL
MODEL 5
REMARK VINA RESULT:      -7.8      7.748     10.361
REMARK  Name = *****
REMARK                            x       y       z     vdW  Elec       q    Type
REMARK                         _______ _______ _______ _____ _____    ______ ____
ROOT
ATOM      1  S   LIG    1       25.473 -26.506   5.379  0.00  0.00    +0.095 S 
ATOM      2  O   LIG    1       26.879 -26.400   5.909  0.00  0.00    -0.249 OA
ENDROOT
BRANCH   1   8
ATOM      3  C   LIG    1       23.753 -20.507   5.258  0.00  0.00    +0.122 A 
ATOM      4  C   LIG    1       24.330 -21.503   4.464  0.00  0.00    +0.073 A 
ATOM      5  C   LIG    1       24.429 -22.779   5.025  0.00  0.00    +0.070 A 
ATOM      6  C   LIG    1       24.003 -23.088   6.310  0.00  0.00    +0.090 A 
ATOM      7  N   LIG    1       24.247 -24.407   6.608  0.00  0.00    -0.220 NA
ATOM      8  C   LIG    1       24.828 -24.896   5.527  0.00  0.00    +0.198 A 
ATOM      9  C   LIG    1       23.437 -22.076   7.102  0.00  0.00    +0.033 A 
ATOM     10  N   LIG    1       24.928 -23.958   4.544  0.00  0.00    -0.331 N 
ATOM     11  H   LIG    1       25.366 -24.119   3.641  0.00  0.00    +0.168 HD
ATOM     12  C   LIG    1       23.331 -20.784   6.565  0.00  0.00    +0.048 A 
BRANCH   3  14
ATOM     13  C   LIG    1       22.232 -18.808   4.651  0.00  0.00    +0.277 C 
ATOM     14  O   LIG    1       23.586 -19.205   4.855  0.00  0.00    -0.495 OA
ENDBRANCH   3  14
ENDBRANCH   1   8
BRANCH   1  15
ATOM     15  C   LIG    1       24.398 -27.234   6.647  0.00  0.00    +0.167 C 
BRANCH  15  16
ATOM     16  C   LIG    1       24.646 -28.703   6.872  0.00  0.00    +0.060 A 
ATOM     17  C   LIG    1       25.461 -29.219   7.891  0.00  0.00    +0.014 A 
ATOM     18  C   LIG    1       26.296 -28.347   8.793  0.00  0.00    +0.049 C 
ATOM     19  C   LIG    1       25.527 -30.628   8.053  0.00  0.00    +0.129 A 
ATOM     20  C   LIG    1       24.835 -31.467   7.174  0.00  0.00    +0.009 A 
ATOM     21  C   LIG    1       24.860 -32.964   7.186  0.00  0.00    +0.049 C 
ATOM     22  C   LIG    1       24.072 -30.845   6.193  0.00  0.00    +0.118 A 
ATOM     23  N   LIG    1       23.958 -29.512   6.028  0.00  0.00    -0.258 NA
BRANCH  19  24
ATOM     24  O   LIG    1       26.387 -31.043   9.041  0.00  0.00    -0.494 OA
ATOM     25  C   LIG    1       25.844 -31.539  10.256  0.00  0.00    +0.277 C 
ENDBRANCH  19  24
ENDBRANCH  15  16
ENDBRANCH   1  15
TORSDOF 5
ENDMDL
MODEL 6
REMARK VINA RESULT:      -7.8      6.544     10.642
REMARK  Name = *****
REMARK                            x       y       z     vdW  Elec       q    Type
REMARK                         _______ _______ _______ _____ _____    ______ ____
ROOT
ATOM      1  S   LIG    1       25.844 -26.599   5.793  0.00  0.00    +0.095 S 
ATOM      2  O   LIG    1       25.584 -27.323   4.498  0.00  0.00    -0.249 OA
ENDROOT
BRANCH   1   8
ATOM      3  C   LIG    1       25.768 -30.804  10.406  0.00  0.00    +0.122 A 
ATOM      4  C   LIG    1       26.461 -29.675   9.955  0.00  0.00    +0.073 A 
ATOM      5  C   LIG    1       25.969 -29.048   8.808  0.00  0.00    +0.070 A 
ATOM      6  C   LIG    1       24.858 -29.496   8.105  0.00  0.00    +0.090 A 
ATOM      7  N   LIG    1       24.618 -28.708   7.006  0.00  0.00    -0.220 NA
ATOM      8  C   LIG    1       25.576 -27.798   7.025  0.00  0.00    +0.198 A 
ATOM      9  C   LIG    1       24.179 -30.638   8.560  0.00  0.00    +0.033 A 
ATOM     10  N   LIG    1       26.389 -27.951   8.108  0.00  0.00    -0.331 N 
ATOM     11  H   LIG    1       27.203 -27.373   8.299  0.00  0.00    +0.168 HD
ATOM     12  C   LIG    1       24.656 -31.289   9.707  0.00  0.00    +0.048 A 
BRANCH   3  14
ATOM     13  C   LIG    1       25.395 -31.219  12.698  0.00  0.00    +0.277 C 
ATOM     14  O   LIG    1       26.124 -31.531  11.514  0.00  0.00    -0.495 OA
ENDBRANCH   3  14
ENDBRANCH   1   8
BRANCH   1  15
ATOM     15  C   LIG    1       24.400 -25.588   6.227  0.00  0.00    +0.167 C 
BRANCH  15  16
ATOM     16  C   LIG    1       24.755 -24.190   6.661  0.00  0.00    +0.060 A 
ATOM     17  C   LIG    1       23.817 -23.170   6.882  0.00  0.00    +0.014 A 
ATOM     18  C   LIG    1       22.350 -23.323   6.571  0.00  0.00    +0.049 C 
ATOM     19  C   LIG    1       24.280 -21.927   7.389  0.00  0.00    +0.129 A 
ATOM     20  C   LIG    1       25.647 -21.723   7.602  0.00  0.00    +0.009 A 
ATOM     21  C   LIG    1       26.282 -20.452   8.072  0.00  0.00    +0.049 C 
ATOM     22  C   LIG    1       26.484 -22.799   7.334  0.00  0.00    +0.118 A 
ATOM     23  N   LIG    1       26.079 -24.004   6.884  0.00  0.00    -0.258 NA
BRANCH  19  24
ATOM     24  O   LIG    1       23.300 -20.974   7.526  0.00  0.00    -0.494 OA
ATOM     25  C   LIG    1       23.003 -20.133   6.421  0.00  0.00    +0.277 C 
ENDBRANCH  19  24
ENDBRANCH  15  16
ENDBRANCH   1  15
TORSDOF 5
ENDMDL
MODEL 7
REMARK VINA RESULT:      -7.8      6.789     11.848
REMARK  Name = *****
REMARK                            x       y       z     vdW  Elec       q    Type
REMARK                         _______ _______ _______ _____ _____    ______ ____
ROOT
ATOM      1  S   LIG    1       26.106 -26.589   5.863  0.00  0.00    +0.095 S 
ATOM      2  O   LIG    1       26.191 -26.754   4.368  0.00  0.00    -0.249 OA
ENDROOT
BRANCH   1   8
ATOM      3  C   LIG    1       23.646 -32.195   7.079  0.00  0.00    +0.122 A 
ATOM      4  C   LIG    1       24.155 -31.419   6.032  0.00  0.00    +0.073 A 
ATOM      5  C   LIG    1       24.665 -30.162   6.367  0.00  0.00    +0.070 A 
ATOM      6  C   LIG    1       24.674 -29.658   7.662  0.00  0.00    +0.090 A 
ATOM      7  N   LIG    1       25.207 -28.392   7.695  0.00  0.00    -0.220 NA
ATOM      8  C   LIG    1       25.507 -28.118   6.438  0.00  0.00    +0.198 A 
ATOM      9  C   LIG    1       24.149 -30.441   8.702  0.00  0.00    +0.033 A 
ATOM     10  N   LIG    1       25.224 -29.166   5.615  0.00  0.00    -0.331 N 
ATOM     11  H   LIG    1       25.354 -29.155   4.607  0.00  0.00    +0.168 HD
ATOM     12  C   LIG    1       23.625 -31.705   8.391  0.00  0.00    +0.048 A 
BRANCH   3  14
ATOM     13  C   LIG    1       22.867 -33.825   5.562  0.00  0.00    +0.277 C 
ATOM     14  O   LIG    1       23.109 -33.448   6.915  0.00  0.00    -0.495 OA
ENDBRANCH   3  14
ENDBRANCH   1   8
BRANCH   1  15
ATOM     15  C   LIG    1       24.611 -25.652   6.288  0.00  0.00    +0.167 C 
BRANCH  15  16
ATOM     16  C   LIG    1       24.892 -24.231   6.703  0.00  0.00    +0.060 A 
ATOM     17  C   LIG    1       23.902 -23.257   6.903  0.00  0.00    +0.014 A 
ATOM     18  C   LIG    1       22.447 -23.490   6.587  0.00  0.00    +0.049 C 
ATOM     19  C   LIG    1       24.297 -21.984   7.392  0.00  0.00    +0.129 A 
ATOM     20  C   LIG    1       25.650 -21.707   7.609  0.00  0.00    +0.009 A 
ATOM     21  C   LIG    1       26.217 -20.397   8.062  0.00  0.00    +0.049 C 
ATOM     22  C   LIG    1       26.544 -22.743   7.362  0.00  0.00    +0.118 A 
ATOM     23  N   LIG    1       26.204 -23.974   6.930  0.00  0.00    -0.258 NA
BRANCH  19  24
ATOM     24  O   LIG    1       23.269 -21.080   7.509  0.00  0.00    -0.494 OA
ATOM     25  C   LIG    1       22.976 -20.230   6.410  0.00  0.00    +0.277 C 
ENDBRANCH  19  24
ENDBRANCH  15  16
ENDBRANCH   1  15
TORSDOF 5
ENDMDL
MODEL 8
REMARK VINA RESULT:      -7.7      7.145     10.534
REMARK  Name = *****
REMARK                            x       y       z     vdW  Elec       q    Type
REMARK                         _______ _______ _______ _____ _____    ______ ____
ROOT
ATOM      1  S   LIG    1       25.277 -27.670   5.422  0.00  0.00    +0.095 S 
ATOM      2  O   LIG    1       26.670 -27.574   4.856  0.00  0.00    -0.249 OA
ENDROOT
BRANCH   1   8
ATOM      3  C   LIG    1       24.676 -21.880   7.674  0.00  0.00    +0.122 A 
ATOM      4  C   LIG    1       25.637 -22.853   7.379  0.00  0.00    +0.073 A 
ATOM      5  C   LIG    1       25.180 -24.033   6.790  0.00  0.00    +0.070 A 
ATOM      6  C   LIG    1       23.843 -24.282   6.505  0.00  0.00    +0.090 A 
ATOM      7  N   LIG    1       23.678 -25.530   5.955  0.00  0.00    -0.220 NA
ATOM      8  C   LIG    1       24.894 -26.046   5.916  0.00  0.00    +0.198 A 
ATOM      9  C   LIG    1       22.886 -23.303   6.818  0.00  0.00    +0.033 A 
ATOM     10  N   LIG    1       25.826 -25.167   6.380  0.00  0.00    -0.331 N 
ATOM     11  H   LIG    1       26.818 -25.373   6.460  0.00  0.00    +0.168 HD
ATOM     12  C   LIG    1       23.319 -22.110   7.416  0.00  0.00    +0.048 A 
BRANCH   3  14
ATOM     13  C   LIG    1       26.343 -20.449   8.536  0.00  0.00    +0.277 C 
ATOM     14  O   LIG    1       24.963 -20.669   8.255  0.00  0.00    -0.495 OA
ENDBRANCH   3  14
ENDBRANCH   1   8
BRANCH   1  15
ATOM     15  C   LIG    1       25.348 -28.345   7.105  0.00  0.00    +0.167 C 
BRANCH  15  16
ATOM     16  C   LIG    1       24.775 -29.733   7.219  0.00  0.00    +0.060 A 
ATOM     17  C   LIG    1       24.471 -30.365   8.435  0.00  0.00    +0.014 A 
ATOM     18  C   LIG    1       24.819 -29.772   9.776  0.00  0.00    +0.049 C 
ATOM     19  C   LIG    1       23.840 -31.636   8.395  0.00  0.00    +0.129 A 
ATOM     20  C   LIG    1       23.586 -32.254   7.167  0.00  0.00    +0.009 A 
ATOM     21  C   LIG    1       22.986 -33.611   6.974  0.00  0.00    +0.049 C 
ATOM     22  C   LIG    1       23.944 -31.541   6.028  0.00  0.00    +0.118 A 
ATOM     23  N   LIG    1       24.513 -30.319   6.024  0.00  0.00    -0.258 NA
BRANCH  19  24
ATOM     24  O   LIG    1       23.627 -32.199   9.630  0.00  0.00    -0.494 OA
ATOM     25  C   LIG    1       22.314 -32.185  10.171  0.00  0.00    +0.277 C 
ENDBRANCH  19  24
ENDBRANCH  15  16
ENDBRANCH   1  15
TORSDOF 5
ENDMDL
MODEL 9
REMARK VINA RESULT:      -7.6      7.273     10.535
REMARK  Name = *****
REMARK                            x       y       z     vdW  Elec       q    Type
REMARK                         _______ _______ _______ _____ _____    ______ ____
ROOT
ATOM      1  S   LIG    1       25.227 -27.490   5.025  0.00  0.00    +0.095 S 
ATOM      2  O   LIG    1       26.732 -27.557   5.011  0.00  0.00    -0.249 OA
ENDROOT
BRANCH   1   8
ATOM      3  C   LIG    1       24.730 -21.877   7.712  0.00  0.00    +0.122 A 
ATOM      4  C   LIG    1       25.677 -22.822   7.300  0.00  0.00    +0.073 A 
ATOM      5  C   LIG    1       25.192 -23.960   6.652  0.00  0.00    +0.070 A 
ATOM      6  C   LIG    1       23.843 -24.195   6.419  0.00  0.00    +0.090 A 
ATOM      7  N   LIG    1       23.653 -25.402   5.790  0.00  0.00    -0.220 NA
ATOM      8  C   LIG    1       24.867 -25.907   5.653  0.00  0.00    +0.198 A 
ATOM      9  C   LIG    1       22.902 -23.246   6.848  0.00  0.00    +0.033 A 
ATOM     10  N   LIG    1       25.819 -25.058   6.131  0.00  0.00    -0.331 N 
ATOM     11  H   LIG    1       26.815 -25.264   6.145  0.00  0.00    +0.168 HD
ATOM     12  C   LIG    1       23.362 -22.096   7.507  0.00  0.00    +0.048 A 
BRANCH   3  14
ATOM     13  C   LIG    1       26.429 -20.373   8.358  0.00  0.00    +0.277 C 
ATOM     14  O   LIG    1       25.044 -20.710   8.362  0.00  0.00    -0.495 OA
ENDBRANCH   3  14
ENDBRANCH   1   8
BRANCH   1  15
ATOM     15  C   LIG    1       24.590 -28.390   6.467  0.00  0.00    +0.167 C 
BRANCH  15  16
ATOM     16  C   LIG    1       25.226 -29.742   6.658  0.00  0.00    +0.060 A 
ATOM     17  C   LIG    1       25.634 -30.254   7.899  0.00  0.00    +0.014 A 
ATOM     18  C   LIG    1       25.608 -29.444   9.170  0.00  0.00    +0.049 C 
ATOM     19  C   LIG    1       26.126 -31.585   7.951  0.00  0.00    +0.129 A 
ATOM     20  C   LIG    1       26.247 -32.333   6.776  0.00  0.00    +0.009 A 
ATOM     21  C   LIG    1       26.804 -33.719   6.670  0.00  0.00    +0.049 C 
ATOM     22  C   LIG    1       25.827 -31.717   5.602  0.00  0.00    +0.118 A 
ATOM     23  N   LIG    1       25.324 -30.469   5.518  0.00  0.00    -0.258 NA
BRANCH  19  24
ATOM     24  O   LIG    1       26.548 -31.983   9.197  0.00  0.00    -0.494 OA
ATOM     25  C   LIG    1       25.734 -32.879   9.940  0.00  0.00    +0.277 C 
ENDBRANCH  19  24
ENDBRANCH  15  16
ENDBRANCH   1  15
TORSDOF 5
ENDMDL
