MODEL 1
REMARK VINA RESULT:       5.8      0.000      0.000
REMARK  Name = *****
REMARK                            x       y       z     vdW  Elec       q    Type
REMARK                         _______ _______ _______ _____ _____    ______ ____
ROOT
ATOM      1  C   LIG    1       23.843 -14.010   5.716  0.00  0.00    +0.008 C 
ATOM      2  C   LIG    1       24.725 -14.032   4.471  0.00  0.00    -0.003 C 
ATOM      3  C   LIG    1       26.088 -14.702   4.743  0.00  0.00    +0.067 C 
ATOM      4  C   LIG    1       26.423 -15.459   3.429  0.00  0.00    -0.017 C 
ATOM      5  C   LIG    1       25.034 -16.011   3.011  0.00  0.00    +0.001 C 
ATOM      6  C   LIG    1       24.584 -17.309   3.753  0.00  0.00    +0.020 C 
ATOM      7  C   LIG    1       25.670 -18.432   3.833  0.00  0.00    +0.087 C 
ATOM      8  C   LIG    1       26.975 -17.788   4.405  0.00  0.00    +0.137 C 
ATOM      9 CL   LIG    1       26.058 -18.982   2.118  0.00  0.00    -0.114 Cl
ATOM     10  C   LIG    1       25.133 -19.709   4.666  0.00  0.00    +0.032 C 
ATOM     11  C   LIG    1       23.691 -20.120   4.235  0.00  0.00    -0.021 C 
ATOM     12  C   LIG    1       23.125 -21.182   4.861  0.00  0.00    +0.054 C 
ATOM     13  C   LIG    1       23.064 -20.949   6.357  0.00  0.00    +0.179 C 
ATOM     14  C   LIG    1       24.081 -20.026   6.948  0.00  0.00    +0.047 C 
ATOM     15  O   LIG    1       22.281 -21.572   7.062  0.00  0.00    -0.288 OA
ATOM     16  C   LIG    1       22.720 -18.991   3.942  0.00  0.00    +0.194 C 
ATOM     17  F   LIG    1       22.283 -18.437   5.112  0.00  0.00    -0.241 F 
ATOM     18  C   LIG    1       26.074 -20.945   4.505  0.00  0.00    +0.022 C 
ATOM     19  C   LIG    1       25.044 -19.473   6.185  0.00  0.00    -0.010 C 
ATOM     20  C   LIG    1       23.293 -17.861   3.113  0.00  0.00    +0.047 C 
ATOM     21  C   LIG    1       26.958 -14.506   2.331  0.00  0.00    +0.012 C 
ATOM     22  C   LIG    1       27.464 -16.570   3.614  0.00  0.00    +0.040 C 
ATOM     23  C   LIG    1       24.089 -14.826   3.317  0.00  0.00    +0.008 C 
ENDROOT
BRANCH   3  24
ATOM     24  C   LIG    1       27.138 -13.684   5.191  0.00  0.00    +0.162 C 
ATOM     25  O   LIG    1       27.294 -13.357   6.370  0.00  0.00    -0.295 OA
BRANCH  24  26
ATOM     26  C   LIG    1       28.004 -13.057   4.104  0.00  0.00    +0.230 C 
BRANCH  26  27
ATOM     27  O   LIG    1       29.085 -12.320   4.656  0.00  0.00    -0.388 OA
ATOM     28  H   LIG    1       29.265 -11.586   4.033  0.00  0.00    +0.210 HD
ENDBRANCH  26  27
ENDBRANCH  24  26
ENDBRANCH   3  24
BRANCH   8  29
ATOM     29  O   LIG    1       28.070 -18.698   4.472  0.00  0.00    -0.390 OA
ATOM     30  H   LIG    1       28.166 -19.112   3.593  0.00  0.00    +0.210 HD
ENDBRANCH   8  29
TORSDOF 4
ENDMDL
