MODEL 1
REMARK VINA RESULT:      13.8      0.000      0.000
REMARK  Name = *****
REMARK                            x       y       z     vdW  Elec       q    Type
REMARK                         _______ _______ _______ _____ _____    ______ ____
ROOT
ATOM      1  C   LIG    1       25.869 -12.209   4.266  0.00  0.00    +0.179 C 
ATOM      2  C   LIG    1       25.533 -13.697   4.664  0.00  0.00    +0.025 C 
ATOM      3  C   LIG    1       26.944 -14.300   4.976  0.00  0.00    +0.003 C 
ATOM      4  C   LIG    1       27.633 -15.092   3.836  0.00  0.00    -0.003 C 
ATOM      5  C   LIG    1       26.672 -16.031   3.089  0.00  0.00    -0.000 C 
ATOM      6  C   LIG    1       25.525 -15.189   2.515  0.00  0.00    +0.005 C 
ATOM      7  C   LIG    1       26.190 -17.227   3.957  0.00  0.00    +0.019 C 
ATOM      8  C   LIG    1       27.290 -17.893   4.769  0.00  0.00    -0.064 C 
ATOM      9  C   LIG    1       27.204 -19.181   5.153  0.00  0.00    +0.026 C 
ATOM     10  C   LIG    1       26.000 -20.009   4.845  0.00  0.00    +0.080 C 
ATOM     11  N   LIG    1       25.716 -21.162   5.374  0.00  0.00    -0.092 NA
ATOM     12  C   LIG    1       24.976 -19.445   3.881  0.00  0.00    +0.059 C 
ATOM     13  C   LIG    1       28.450 -17.058   5.254  0.00  0.00    +0.031 C 
ATOM     14  C   LIG    1       25.511 -18.284   3.064  0.00  0.00    +0.014 C 
ATOM     15  C   LIG    1       28.839 -15.915   4.321  0.00  0.00    +0.008 C 
ATOM     16  C   LIG    1       27.807 -13.093   5.428  0.00  0.00    +0.009 C 
ATOM     17  C   LIG    1       24.717 -14.463   3.587  0.00  0.00    +0.012 C 
ATOM     18  C   LIG    1       26.943 -11.832   5.287  0.00  0.00    +0.062 C 
ENDROOT
BRANCH   1  20
ATOM     19  C   LIG    1       26.911 -11.944   1.812  0.00  0.00    +0.008 C 
ATOM     20  C   LIG    1       26.395 -12.073   2.884  0.00  0.00    -0.058 C 
ENDBRANCH   1  20
BRANCH   2  21
ATOM     21  C   LIG    1       24.710 -13.792   6.022  0.00  0.00    +0.009 C 
ATOM     22  C   LIG    1       23.241 -14.206   5.967  0.00  0.00    +0.004 C 
ENDBRANCH   2  21
BRANCH  11  23
ATOM     23  O   LIG    1       26.675 -21.571   6.305  0.00  0.00    -0.409 OA
ATOM     24  H   LIG    1       27.429 -20.990   6.092  0.00  0.00    +0.328 HD
ENDBRANCH  11  23
BRANCH   1  25
ATOM     25  O   LIG    1       24.660 -11.447   4.378  0.00  0.00    -0.445 OA
BRANCH  25  26
ATOM     26  C   LIG    1       23.681 -11.529   3.446  0.00  0.00    +0.305 C 
ATOM     27  O   LIG    1       23.822 -11.630   2.238  0.00  0.00    -0.251 OA
ATOM     28  C   LIG    1       22.363 -11.514   4.161  0.00  0.00    +0.136 C 
ENDBRANCH  25  26
ENDBRANCH   1  25
TORSDOF 5
ENDMDL
MODEL 2
REMARK VINA RESULT:      13.8      3.065      6.805
REMARK  Name = *****
REMARK                            x       y       z     vdW  Elec       q    Type
REMARK                         _______ _______ _______ _____ _____    ______ ____
ROOT
ATOM      1  C   LIG    1       22.730 -18.805   4.162  0.00  0.00    +0.179 C 
ATOM      2  C   LIG    1       24.076 -18.002   4.332  0.00  0.00    +0.025 C 
ATOM      3  C   LIG    1       23.613 -16.696   5.060  0.00  0.00    +0.003 C 
ATOM      4  C   LIG    1       23.352 -15.455   4.170  0.00  0.00    -0.003 C 
ATOM      5  C   LIG    1       24.424 -15.253   3.088  0.00  0.00    -0.000 C 
ATOM      6  C   LIG    1       24.471 -16.515   2.216  0.00  0.00    +0.005 C 
ATOM      7  C   LIG    1       25.808 -14.847   3.668  0.00  0.00    +0.019 C 
ATOM      8  C   LIG    1       25.743 -13.790   4.758  0.00  0.00    -0.064 C 
ATOM      9  C   LIG    1       26.780 -12.969   5.010  0.00  0.00    +0.026 C 
ATOM     10  C   LIG    1       28.069 -13.088   4.265  0.00  0.00    +0.080 C 
ATOM     11  N   LIG    1       29.192 -12.522   4.596  0.00  0.00    -0.092 NA
ATOM     12  C   LIG    1       28.108 -13.994   3.051  0.00  0.00    +0.059 C 
ATOM     13  C   LIG    1       24.530 -13.736   5.655  0.00  0.00    +0.031 C 
ATOM     14  C   LIG    1       26.726 -14.349   2.535  0.00  0.00    +0.014 C 
ATOM     15  C   LIG    1       23.226 -14.152   4.979  0.00  0.00    +0.008 C 
ATOM     16  C   LIG    1       22.342 -17.104   5.850  0.00  0.00    +0.009 C 
ATOM     17  C   LIG    1       24.840 -17.773   2.998  0.00  0.00    +0.012 C 
ATOM     18  C   LIG    1       22.038 -18.569   5.506  0.00  0.00    +0.062 C 
ENDROOT
BRANCH   1  20
ATOM     19  C   LIG    1       21.119 -17.926   2.210  0.00  0.00    +0.008 C 
ATOM     20  C   LIG    1       21.884 -18.308   3.048  0.00  0.00    -0.058 C 
ENDBRANCH   1  20
BRANCH   2  21
ATOM     21  C   LIG    1       25.090 -18.719   5.326  0.00  0.00    +0.009 C 
ATOM     22  C   LIG    1       26.114 -19.699   4.757  0.00  0.00    +0.004 C 
ENDBRANCH   2  21
BRANCH  11  23
ATOM     23  O   LIG    1       29.083 -11.767   5.767  0.00  0.00    -0.409 OA
ATOM     24  H   LIG    1       29.241 -12.437   6.458  0.00  0.00    +0.328 HD
ENDBRANCH  11  23
BRANCH   1  25
ATOM     25  O   LIG    1       23.071 -20.174   3.910  0.00  0.00    -0.445 OA
BRANCH  25  26
ATOM     26  C   LIG    1       22.863 -21.138   4.839  0.00  0.00    +0.305 C 
ATOM     27  O   LIG    1       23.672 -21.572   5.643  0.00  0.00    -0.251 OA
ATOM     28  C   LIG    1       21.430 -21.570   4.741  0.00  0.00    +0.136 C 
ENDBRANCH  25  26
ENDBRANCH   1  25
TORSDOF 5
ENDMDL
MODEL 3
REMARK VINA RESULT:      15.3      1.546      2.337
REMARK  Name = *****
REMARK                            x       y       z     vdW  Elec       q    Type
REMARK                         _______ _______ _______ _____ _____    ______ ____
ROOT
ATOM      1  C   LIG    1       25.121 -12.554   3.733  0.00  0.00    +0.179 C 
ATOM      2  C   LIG    1       25.232 -13.848   4.626  0.00  0.00    +0.025 C 
ATOM      3  C   LIG    1       26.103 -14.805   3.745  0.00  0.00    +0.003 C 
ATOM      4  C   LIG    1       25.345 -15.846   2.884  0.00  0.00    -0.003 C 
ATOM      5  C   LIG    1       24.189 -16.524   3.636  0.00  0.00    -0.000 C 
ATOM      6  C   LIG    1       23.217 -15.435   4.108  0.00  0.00    +0.005 C 
ATOM      7  C   LIG    1       24.672 -17.462   4.778  0.00  0.00    +0.019 C 
ATOM      8  C   LIG    1       25.847 -18.351   4.402  0.00  0.00    -0.064 C 
ATOM      9  C   LIG    1       26.070 -19.527   5.020  0.00  0.00    +0.026 C 
ATOM     10  C   LIG    1       25.203 -19.996   6.142  0.00  0.00    +0.080 C 
ATOM     11  N   LIG    1       25.475 -20.975   6.952  0.00  0.00    -0.092 NA
ATOM     12  C   LIG    1       23.921 -19.237   6.417  0.00  0.00    +0.059 C 
ATOM     13  C   LIG    1       26.851 -17.850   3.393  0.00  0.00    +0.031 C 
ATOM     14  C   LIG    1       23.505 -18.344   5.263  0.00  0.00    +0.014 C 
ATOM     15  C   LIG    1       26.265 -16.941   2.316  0.00  0.00    +0.008 C 
ATOM     16  C   LIG    1       26.969 -13.865   2.866  0.00  0.00    +0.009 C 
ATOM     17  C   LIG    1       23.858 -14.428   5.060  0.00  0.00    +0.012 C 
ATOM     18  C   LIG    1       26.536 -12.424   3.169  0.00  0.00    +0.062 C 
ENDROOT
BRANCH   1  20
ATOM     19  C   LIG    1       23.266 -12.812   1.817  0.00  0.00    +0.008 C 
ATOM     20  C   LIG    1       24.132 -12.680   2.633  0.00  0.00    -0.058 C 
ENDBRANCH   1  20
BRANCH   2  21
ATOM     21  C   LIG    1       26.069 -13.599   5.956  0.00  0.00    +0.009 C 
ATOM     22  C   LIG    1       27.565 -13.316   5.845  0.00  0.00    +0.004 C 
ENDBRANCH   2  21
BRANCH  11  23
ATOM     23  O   LIG    1       26.710 -21.570   6.673  0.00  0.00    -0.409 OA
ATOM     24  H   LIG    1       26.523 -22.050   5.845  0.00  0.00    +0.328 HD
ENDBRANCH  11  23
BRANCH   1  25
ATOM     25  O   LIG    1       24.728 -11.471   4.586  0.00  0.00    -0.445 OA
BRANCH  25  26
ATOM     26  C   LIG    1       23.516 -11.449   5.190  0.00  0.00    +0.305 C 
ATOM     27  O   LIG    1       22.423 -11.455   4.648  0.00  0.00    -0.251 OA
ATOM     28  C   LIG    1       23.741 -11.454   6.673  0.00  0.00    +0.136 C 
ENDBRANCH  25  26
ENDBRANCH   1  25
TORSDOF 5
ENDMDL
MODEL 4
REMARK VINA RESULT:      15.8      3.071      7.389
REMARK  Name = *****
REMARK                            x       y       z     vdW  Elec       q    Type
REMARK                         _______ _______ _______ _____ _____    ______ ____
ROOT
ATOM      1  C   LIG    1       23.906 -20.788   4.065  0.00  0.00    +0.179 C 
ATOM      2  C   LIG    1       23.551 -19.308   3.655  0.00  0.00    +0.025 C 
ATOM      3  C   LIG    1       24.945 -18.710   3.267  0.00  0.00    +0.003 C 
ATOM      4  C   LIG    1       25.685 -17.897   4.358  0.00  0.00    -0.003 C 
ATOM      5  C   LIG    1       24.760 -16.945   5.132  0.00  0.00    -0.000 C 
ATOM      6  C   LIG    1       23.642 -17.776   5.775  0.00  0.00    +0.005 C 
ATOM      7  C   LIG    1       24.236 -15.765   4.265  0.00  0.00    +0.019 C 
ATOM      8  C   LIG    1       25.296 -15.114   3.390  0.00  0.00    -0.064 C 
ATOM      9  C   LIG    1       25.190 -13.833   2.987  0.00  0.00    +0.026 C 
ATOM     10  C   LIG    1       24.001 -13.000   3.336  0.00  0.00    +0.080 C 
ATOM     11  N   LIG    1       23.692 -11.857   2.799  0.00  0.00    -0.092 NA
ATOM     12  C   LIG    1       23.024 -13.546   4.356  0.00  0.00    +0.059 C 
ATOM     13  C   LIG    1       26.433 -15.957   2.867  0.00  0.00    +0.031 C 
ATOM     14  C   LIG    1       23.598 -14.692   5.169  0.00  0.00    +0.014 C 
ATOM     15  C   LIG    1       26.867 -17.083   3.802  0.00  0.00    +0.008 C 
ATOM     16  C   LIG    1       25.787 -19.925   2.797  0.00  0.00    +0.009 C 
ATOM     17  C   LIG    1       22.785 -18.522   4.754  0.00  0.00    +0.012 C 
ATOM     18  C   LIG    1       24.932 -21.184   3.002  0.00  0.00    +0.062 C 
ENDROOT
BRANCH   1  20
ATOM     19  C   LIG    1       25.062 -20.956   6.476  0.00  0.00    +0.008 C 
ATOM     20  C   LIG    1       24.496 -20.898   5.423  0.00  0.00    -0.058 C 
ENDBRANCH   1  20
BRANCH   2  21
ATOM     21  C   LIG    1       22.665 -19.238   2.336  0.00  0.00    +0.009 C 
ATOM     22  C   LIG    1       21.283 -18.592   2.407  0.00  0.00    +0.004 C 
ENDBRANCH   2  21
BRANCH  11  23
ATOM     23  O   LIG    1       24.606 -11.465   1.817  0.00  0.00    -0.409 OA
ATOM     24  H   LIG    1       24.430 -10.508   1.744  0.00  0.00    +0.328 HD
ENDBRANCH  11  23
BRANCH   1  25
ATOM     25  O   LIG    1       22.694 -21.552   4.023  0.00  0.00    -0.445 OA
BRANCH  25  26
ATOM     26  C   LIG    1       21.769 -21.468   5.009  0.00  0.00    +0.305 C 
ATOM     27  O   LIG    1       21.963 -21.559   6.210  0.00  0.00    -0.251 OA
ATOM     28  C   LIG    1       20.440 -21.198   4.369  0.00  0.00    +0.136 C 
ENDBRANCH  25  26
ENDBRANCH   1  25
TORSDOF 5
ENDMDL
MODEL 5
REMARK VINA RESULT:      15.9      2.772      7.563
REMARK  Name = *****
REMARK                            x       y       z     vdW  Elec       q    Type
REMARK                         _______ _______ _______ _____ _____    ______ ____
ROOT
ATOM      1  C   LIG    1       24.795 -20.881   4.973  0.00  0.00    +0.179 C 
ATOM      2  C   LIG    1       24.989 -19.351   5.297  0.00  0.00    +0.025 C 
ATOM      3  C   LIG    1       23.520 -18.808   5.306  0.00  0.00    +0.003 C 
ATOM      4  C   LIG    1       23.012 -18.145   4.001  0.00  0.00    -0.003 C 
ATOM      5  C   LIG    1       24.049 -17.211   3.357  0.00  0.00    -0.000 C 
ATOM      6  C   LIG    1       25.315 -18.027   3.064  0.00  0.00    +0.005 C 
ATOM      7  C   LIG    1       24.316 -15.928   4.192  0.00  0.00    +0.019 C 
ATOM      8  C   LIG    1       23.062 -15.267   4.741  0.00  0.00    -0.064 C 
ATOM      9  C   LIG    1       23.022 -13.951   5.025  0.00  0.00    +0.026 C 
ATOM     10  C   LIG    1       24.225 -13.080   4.863  0.00  0.00    +0.080 C 
ATOM     11  N   LIG    1       24.360 -11.877   5.334  0.00  0.00    -0.092 NA
ATOM     12  C   LIG    1       25.428 -13.655   4.143  0.00  0.00    +0.059 C 
ATOM     13  C   LIG    1       21.871 -16.128   5.085  0.00  0.00    +0.031 C 
ATOM     14  C   LIG    1       25.098 -14.904   3.346  0.00  0.00    +0.014 C 
ATOM     15  C   LIG    1       21.704 -17.359   4.198  0.00  0.00    +0.008 C 
ATOM     16  C   LIG    1       22.644 -20.026   5.701  0.00  0.00    +0.009 C 
ATOM     17  C   LIG    1       25.950 -18.622   4.318  0.00  0.00    +0.012 C 
ATOM     18  C   LIG    1       23.573 -21.242   5.819  0.00  0.00    +0.062 C 
ENDROOT
BRANCH   1  20
ATOM     19  C   LIG    1       24.218 -21.389   2.406  0.00  0.00    +0.008 C 
ATOM     20  C   LIG    1       24.530 -21.151   3.536  0.00  0.00    -0.058 C 
ENDBRANCH   1  20
BRANCH   2  21
ATOM     21  C   LIG    1       25.553 -19.108   6.765  0.00  0.00    +0.009 C 
ATOM     22  C   LIG    1       27.046 -19.294   7.022  0.00  0.00    +0.004 C 
ENDBRANCH   2  21
BRANCH  11  23
ATOM     23  O   LIG    1       23.233 -11.455   6.047  0.00  0.00    -0.409 OA
ATOM     24  H   LIG    1       23.445 -10.520   6.229  0.00  0.00    +0.328 HD
ENDBRANCH  11  23
BRANCH   1  25
ATOM     25  O   LIG    1       25.996 -21.562   5.357  0.00  0.00    -0.445 OA
BRANCH  25  26
ATOM     26  C   LIG    1       27.178 -20.909   5.462  0.00  0.00    +0.305 C 
ATOM     27  O   LIG    1       27.593 -20.018   4.739  0.00  0.00    -0.251 OA
ATOM     28  C   LIG    1       27.895 -21.447   6.665  0.00  0.00    +0.136 C 
ENDBRANCH  25  26
ENDBRANCH   1  25
TORSDOF 5
ENDMDL
MODEL 6
REMARK VINA RESULT:      16.2      2.902      4.436
REMARK  Name = *****
REMARK                            x       y       z     vdW  Elec       q    Type
REMARK                         _______ _______ _______ _____ _____    ______ ____
ROOT
ATOM      1  C   LIG    1       26.056 -12.709   3.973  0.00  0.00    +0.179 C 
ATOM      2  C   LIG    1       25.159 -13.879   3.414  0.00  0.00    +0.025 C 
ATOM      3  C   LIG    1       23.950 -13.895   4.408  0.00  0.00    +0.003 C 
ATOM      4  C   LIG    1       24.013 -14.920   5.569  0.00  0.00    -0.003 C 
ATOM      5  C   LIG    1       24.512 -16.304   5.125  0.00  0.00    -0.000 C 
ATOM      6  C   LIG    1       25.905 -16.138   4.504  0.00  0.00    +0.005 C 
ATOM      7  C   LIG    1       23.506 -17.047   4.201  0.00  0.00    +0.019 C 
ATOM      8  C   LIG    1       22.059 -16.966   4.661  0.00  0.00    -0.064 C 
ATOM      9  C   LIG    1       21.157 -17.910   4.328  0.00  0.00    +0.026 C 
ATOM     10  C   LIG    1       21.519 -19.060   3.447  0.00  0.00    +0.080 C 
ATOM     11  N   LIG    1       20.681 -19.871   2.875  0.00  0.00    -0.092 NA
ATOM     12  C   LIG    1       22.984 -19.278   3.128  0.00  0.00    +0.059 C 
ATOM     13  C   LIG    1       21.596 -15.741   5.411  0.00  0.00    +0.031 C 
ATOM     14  C   LIG    1       23.911 -18.528   4.067  0.00  0.00    +0.014 C 
ATOM     15  C   LIG    1       22.665 -15.096   6.289  0.00  0.00    +0.008 C 
ATOM     16  C   LIG    1       23.846 -12.442   4.941  0.00  0.00    +0.009 C 
ATOM     17  C   LIG    1       25.912 -15.231   3.276  0.00  0.00    +0.012 C 
ATOM     18  C   LIG    1       25.017 -11.649   4.343  0.00  0.00    +0.062 C 
ENDROOT
BRANCH   1  20
ATOM     19  C   LIG    1       27.406 -13.400   6.182  0.00  0.00    +0.008 C 
ATOM     20  C   LIG    1       26.852 -13.094   5.166  0.00  0.00    -0.058 C 
ENDBRANCH   1  20
BRANCH   2  21
ATOM     21  C   LIG    1       24.544 -13.544   1.986  0.00  0.00    +0.009 C 
ATOM     22  C   LIG    1       23.737 -12.260   1.812  0.00  0.00    +0.004 C 
ENDBRANCH   2  21
BRANCH  11  23
ATOM     23  O   LIG    1       19.350 -19.553   3.164  0.00  0.00    -0.409 OA
ATOM     24  H   LIG    1       19.171 -20.109   3.945  0.00  0.00    +0.328 HD
ENDBRANCH  11  23
BRANCH   1  25
ATOM     25  O   LIG    1       26.951 -12.311   2.927  0.00  0.00    -0.445 OA
BRANCH  25  26
ATOM     26  C   LIG    1       28.180 -12.866   2.797  0.00  0.00    +0.305 C 
ATOM     27  O   LIG    1       28.502 -13.777   2.051  0.00  0.00    -0.251 OA
ATOM     28  C   LIG    1       29.114 -12.134   3.714  0.00  0.00    +0.136 C 
ENDBRANCH  25  26
ENDBRANCH   1  25
TORSDOF 5
ENDMDL
MODEL 7
REMARK VINA RESULT:      16.5      1.945      2.520
REMARK  Name = *****
REMARK                            x       y       z     vdW  Elec       q    Type
REMARK                         _______ _______ _______ _____ _____    ______ ____
ROOT
ATOM      1  C   LIG    1       26.283 -12.912   4.454  0.00  0.00    +0.179 C 
ATOM      2  C   LIG    1       25.292 -14.069   4.856  0.00  0.00    +0.025 C 
ATOM      3  C   LIG    1       26.160 -15.357   4.651  0.00  0.00    +0.003 C 
ATOM      4  C   LIG    1       25.992 -16.106   3.305  0.00  0.00    -0.003 C 
ATOM      5  C   LIG    1       24.525 -16.231   2.864  0.00  0.00    -0.000 C 
ATOM      6  C   LIG    1       23.935 -14.819   2.748  0.00  0.00    +0.005 C 
ATOM      7  C   LIG    1       23.693 -17.178   3.773  0.00  0.00    +0.019 C 
ATOM      8  C   LIG    1       24.400 -18.473   4.139  0.00  0.00    -0.064 C 
ATOM      9  C   LIG    1       23.714 -19.588   4.456  0.00  0.00    +0.026 C 
ATOM     10  C   LIG    1       22.222 -19.597   4.515  0.00  0.00    +0.080 C 
ATOM     11  N   LIG    1       21.489 -20.532   5.042  0.00  0.00    -0.092 NA
ATOM     12  C   LIG    1       21.482 -18.390   3.976  0.00  0.00    +0.059 C 
ATOM     13  C   LIG    1       25.905 -18.477   4.262  0.00  0.00    +0.031 C 
ATOM     14  C   LIG    1       22.349 -17.510   3.095  0.00  0.00    +0.014 C 
ATOM     15  C   LIG    1       26.617 -17.511   3.319  0.00  0.00    +0.008 C 
ATOM     16  C   LIG    1       27.625 -14.893   4.862  0.00  0.00    +0.009 C 
ATOM     17  C   LIG    1       23.954 -14.049   4.066  0.00  0.00    +0.012 C 
ATOM     18  C   LIG    1       27.598 -13.374   5.084  0.00  0.00    +0.062 C 
ENDROOT
BRANCH   1  20
ATOM     19  C   LIG    1       26.661 -12.589   1.821  0.00  0.00    +0.008 C 
ATOM     20  C   LIG    1       26.439 -12.751   2.986  0.00  0.00    -0.058 C 
ENDBRANCH   1  20
BRANCH   2  21
ATOM     21  C   LIG    1       24.916 -14.039   6.401  0.00  0.00    +0.009 C 
ATOM     22  C   LIG    1       23.559 -14.582   6.842  0.00  0.00    +0.004 C 
ENDBRANCH   2  21
BRANCH  11  23
ATOM     23  O   LIG    1       22.255 -21.570   5.581  0.00  0.00    -0.409 OA
ATOM     24  H   LIG    1       21.571 -22.211   5.851  0.00  0.00    +0.328 HD
ENDBRANCH  11  23
BRANCH   1  25
ATOM     25  O   LIG    1       25.769 -11.691   5.001  0.00  0.00    -0.445 OA
BRANCH  25  26
ATOM     26  C   LIG    1       24.450 -11.536   5.272  0.00  0.00    +0.305 C 
ATOM     27  O   LIG    1       23.930 -11.448   6.372  0.00  0.00    -0.251 OA
ATOM     28  C   LIG    1       23.721 -11.447   3.964  0.00  0.00    +0.136 C 
ENDBRANCH  25  26
ENDBRANCH   1  25
TORSDOF 5
ENDMDL
MODEL 8
REMARK VINA RESULT:      16.7      2.700      4.578
REMARK  Name = *****
REMARK                            x       y       z     vdW  Elec       q    Type
REMARK                         _______ _______ _______ _____ _____    ______ ____
ROOT
ATOM      1  C   LIG    1       25.710 -13.130   3.499  0.00  0.00    +0.179 C 
ATOM      2  C   LIG    1       25.378 -14.659   3.689  0.00  0.00    +0.025 C 
ATOM      3  C   LIG    1       24.035 -14.824   2.902  0.00  0.00    +0.003 C 
ATOM      4  C   LIG    1       22.727 -14.760   3.731  0.00  0.00    -0.003 C 
ATOM      5  C   LIG    1       22.811 -15.544   5.050  0.00  0.00    -0.000 C 
ATOM      6  C   LIG    1       23.974 -14.976   5.874  0.00  0.00    +0.005 C 
ATOM      7  C   LIG    1       22.890 -17.082   4.842  0.00  0.00    +0.019 C 
ATOM      8  C   LIG    1       21.927 -17.622   3.797  0.00  0.00    -0.064 C 
ATOM      9  C   LIG    1       21.486 -18.894   3.830  0.00  0.00    +0.026 C 
ATOM     10  C   LIG    1       21.961 -19.857   4.869  0.00  0.00    +0.080 C 
ATOM     11  N   LIG    1       21.793 -21.146   4.841  0.00  0.00    -0.092 NA
ATOM     12  C   LIG    1       22.765 -19.312   6.031  0.00  0.00    +0.059 C 
ATOM     13  C   LIG    1       21.547 -16.745   2.629  0.00  0.00    +0.031 C 
ATOM     14  C   LIG    1       22.642 -17.807   6.179  0.00  0.00    +0.014 C 
ATOM     15  C   LIG    1       21.497 -15.253   2.949  0.00  0.00    +0.008 C 
ATOM     16  C   LIG    1       24.068 -13.721   1.812  0.00  0.00    +0.009 C 
ATOM     17  C   LIG    1       25.326 -15.107   5.176  0.00  0.00    +0.012 C 
ATOM     18  C   LIG    1       25.344 -12.896   2.033  0.00  0.00    +0.062 C 
ENDROOT
BRANCH   1  20
ATOM     19  C   LIG    1       24.229 -11.607   5.133  0.00  0.00    +0.008 C 
ATOM     20  C   LIG    1       24.913 -12.239   4.381  0.00  0.00    -0.058 C 
ENDBRANCH   1  20
BRANCH   2  21
ATOM     21  C   LIG    1       26.429 -15.604   2.959  0.00  0.00    +0.009 C 
ATOM     22  C   LIG    1       26.489 -17.079   3.347  0.00  0.00    +0.004 C 
ENDBRANCH   2  21
BRANCH  11  23
ATOM     23  O   LIG    1       21.107 -21.570   3.699  0.00  0.00    -0.409 OA
ATOM     24  H   LIG    1       20.176 -21.494   3.980  0.00  0.00    +0.328 HD
ENDBRANCH  11  23
BRANCH   1  25
ATOM     25  O   LIG    1       27.100 -12.948   3.793  0.00  0.00    -0.445 OA
BRANCH  25  26
ATOM     26  C   LIG    1       27.553 -12.880   5.068  0.00  0.00    +0.305 C 
ATOM     27  O   LIG    1       27.035 -13.368   6.059  0.00  0.00    -0.251 OA
ATOM     28  C   LIG    1       28.847 -12.122   5.056  0.00  0.00    +0.136 C 
ENDBRANCH  25  26
ENDBRANCH   1  25
TORSDOF 5
ENDMDL
