MODEL 1
REMARK VINA RESULT:      -5.0      0.000      0.000
REMARK  Name = *****
REMARK                            x       y       z     vdW  Elec       q    Type
REMARK                         _______ _______ _______ _____ _____    ______ ____
ROOT
ATOM      1  C   LIG    1       25.695 -14.129   3.343  0.00  0.00    +0.054 A 
ATOM      2  C   LIG    1       25.552 -13.388   2.179  0.00  0.00    +0.123 A 
ATOM      3  N   LIG    1       24.718 -12.324   2.054  0.00  0.00    -0.263 NA
ATOM      4  C   LIG    1       23.977 -12.004   3.139  0.00  0.00    +0.111 A 
ATOM      5  C   LIG    1       24.031 -12.696   4.338  0.00  0.00    +0.020 A 
ATOM      6  C   LIG    1       24.902 -13.778   4.439  0.00  0.00    +0.016 A 
ENDROOT
BRANCH   1  10
ATOM      7  N   LIG    1       27.873 -15.047   3.954  0.00  0.00    -0.325 N 
ATOM      8  H   LIG    1       28.130 -14.205   4.450  0.00  0.00    +0.145 HD
ATOM      9  H   LIG    1       28.443 -15.870   4.111  0.00  0.00    +0.145 HD
ATOM     10  C   LIG    1       26.621 -15.277   3.453  0.00  0.00    +0.243 C 
ATOM     11  O   LIG    1       26.269 -16.410   3.147  0.00  0.00    -0.270 OA
ENDBRANCH   1  10
TORSDOF 1
ENDMDL
MODEL 2
REMARK VINA RESULT:      -5.0      0.933      1.603
REMARK  Name = *****
REMARK                            x       y       z     vdW  Elec       q    Type
REMARK                         _______ _______ _______ _____ _____    ______ ____
ROOT
ATOM      1  C   LIG    1       25.672 -14.025   3.379  0.00  0.00    +0.054 A 
ATOM      2  C   LIG    1       24.948 -13.571   4.473  0.00  0.00    +0.123 A 
ATOM      3  N   LIG    1       24.068 -12.539   4.424  0.00  0.00    -0.263 NA
ATOM      4  C   LIG    1       23.922 -11.921   3.231  0.00  0.00    +0.111 A 
ATOM      5  C   LIG    1       24.615 -12.285   2.087  0.00  0.00    +0.020 A 
ATOM      6  C   LIG    1       25.507 -13.352   2.166  0.00  0.00    +0.016 A 
ENDROOT
BRANCH   1  10
ATOM      7  N   LIG    1       27.868 -14.921   3.956  0.00  0.00    -0.325 N 
ATOM      8  H   LIG    1       28.115 -14.086   4.468  0.00  0.00    +0.145 HD
ATOM      9  H   LIG    1       28.452 -15.737   4.092  0.00  0.00    +0.145 HD
ATOM     10  C   LIG    1       26.616 -15.160   3.459  0.00  0.00    +0.243 C 
ATOM     11  O   LIG    1       26.281 -16.291   3.131  0.00  0.00    -0.270 OA
ENDBRANCH   1  10
TORSDOF 1
ENDMDL
MODEL 3
REMARK VINA RESULT:      -4.8      6.722      7.141
REMARK  Name = *****
REMARK                            x       y       z     vdW  Elec       q    Type
REMARK                         _______ _______ _______ _____ _____    ______ ____
ROOT
ATOM      1  C   LIG    1       25.406 -20.497   5.729  0.00  0.00    +0.054 A 
ATOM      2  C   LIG    1       24.944 -20.072   4.492  0.00  0.00    +0.123 A 
ATOM      3  N   LIG    1       23.630 -19.921   4.184  0.00  0.00    -0.263 NA
ATOM      4  C   LIG    1       22.740 -20.229   5.153  0.00  0.00    +0.111 A 
ATOM      5  C   LIG    1       23.100 -20.683   6.411  0.00  0.00    +0.020 A 
ATOM      6  C   LIG    1       24.456 -20.822   6.702  0.00  0.00    +0.016 A 
ENDROOT
BRANCH   1  10
ATOM      7  N   LIG    1       27.747 -20.072   5.187  0.00  0.00    -0.325 N 
ATOM      8  H   LIG    1       27.500 -19.383   4.490  0.00  0.00    +0.145 HD
ATOM      9  H   LIG    1       28.716 -20.102   5.484  0.00  0.00    +0.145 HD
ATOM     10  C   LIG    1       26.844 -20.642   6.041  0.00  0.00    +0.243 C 
ATOM     11  O   LIG    1       27.220 -21.217   7.055  0.00  0.00    -0.270 OA
ENDBRANCH   1  10
TORSDOF 1
ENDMDL
MODEL 4
REMARK VINA RESULT:      -4.8      1.750      2.181
REMARK  Name = *****
REMARK                            x       y       z     vdW  Elec       q    Type
REMARK                         _______ _______ _______ _____ _____    ______ ____
ROOT
ATOM      1  C   LIG    1       26.384 -13.570   3.591  0.00  0.00    +0.054 A 
ATOM      2  C   LIG    1       25.527 -13.264   4.639  0.00  0.00    +0.123 A 
ATOM      3  N   LIG    1       24.284 -12.745   4.475  0.00  0.00    -0.263 NA
ATOM      4  C   LIG    1       23.889 -12.504   3.205  0.00  0.00    +0.111 A 
ATOM      5  C   LIG    1       24.678 -12.753   2.094  0.00  0.00    +0.020 A 
ATOM      6  C   LIG    1       25.948 -13.292   2.292  0.00  0.00    +0.016 A 
ENDROOT
BRANCH   1  10
ATOM      7  N   LIG    1       27.827 -15.487   4.035  0.00  0.00    -0.325 N 
ATOM      8  H   LIG    1       27.076 -16.140   3.863  0.00  0.00    +0.145 HD
ATOM      9  H   LIG    1       28.768 -15.863   4.071  0.00  0.00    +0.145 HD
ATOM     10  C   LIG    1       27.730 -14.144   3.798  0.00  0.00    +0.243 C 
ATOM     11  O   LIG    1       28.737 -13.450   3.719  0.00  0.00    -0.270 OA
ENDBRANCH   1  10
TORSDOF 1
ENDMDL
MODEL 5
REMARK VINA RESULT:      -4.8      2.217      3.691
REMARK  Name = *****
REMARK                            x       y       z     vdW  Elec       q    Type
REMARK                         _______ _______ _______ _____ _____    ______ ____
ROOT
ATOM      1  C   LIG    1       25.189 -12.949   3.353  0.00  0.00    +0.054 A 
ATOM      2  C   LIG    1       25.719 -13.503   2.197  0.00  0.00    +0.123 A 
ATOM      3  N   LIG    1       26.705 -14.436   2.186  0.00  0.00    -0.263 NA
ATOM      4  C   LIG    1       27.195 -14.815   3.387  0.00  0.00    +0.111 A 
ATOM      5  C   LIG    1       26.749 -14.304   4.596  0.00  0.00    +0.020 A 
ATOM      6  C   LIG    1       25.731 -13.353   4.576  0.00  0.00    +0.016 A 
ENDROOT
BRANCH   1  10
ATOM      7  N   LIG    1       23.709 -11.447   2.124  0.00  0.00    -0.325 N 
ATOM      8  H   LIG    1       23.946 -11.875   1.240  0.00  0.00    +0.145 HD
ATOM      9  H   LIG    1       22.899 -10.838   2.140  0.00  0.00    +0.145 HD
ATOM     10  C   LIG    1       24.107 -11.942   3.335  0.00  0.00    +0.243 C 
ATOM     11  O   LIG    1       23.550 -11.588   4.367  0.00  0.00    -0.270 OA
ENDBRANCH   1  10
TORSDOF 1
ENDMDL
MODEL 6
REMARK VINA RESULT:      -4.7      6.822      7.389
REMARK  Name = *****
REMARK                            x       y       z     vdW  Elec       q    Type
REMARK                         _______ _______ _______ _____ _____    ______ ____
ROOT
ATOM      1  C   LIG    1       25.442 -20.503   5.851  0.00  0.00    +0.054 A 
ATOM      2  C   LIG    1       24.530 -20.811   6.850  0.00  0.00    +0.123 A 
ATOM      3  N   LIG    1       23.183 -20.791   6.680  0.00  0.00    -0.263 NA
ATOM      4  C   LIG    1       22.730 -20.427   5.460  0.00  0.00    +0.111 A 
ATOM      5  C   LIG    1       23.559 -20.079   4.405  0.00  0.00    +0.020 A 
ATOM      6  C   LIG    1       24.937 -20.115   4.607  0.00  0.00    +0.016 A 
ENDROOT
BRANCH   1  10
ATOM      7  N   LIG    1       27.705 -19.935   5.134  0.00  0.00    -0.325 N 
ATOM      8  H   LIG    1       27.362 -19.283   4.442  0.00  0.00    +0.145 HD
ATOM      9  H   LIG    1       28.692 -19.893   5.361  0.00  0.00    +0.145 HD
ATOM     10  C   LIG    1       26.905 -20.543   6.061  0.00  0.00    +0.243 C 
ATOM     11  O   LIG    1       27.390 -21.066   7.057  0.00  0.00    -0.270 OA
ENDBRANCH   1  10
TORSDOF 1
ENDMDL
MODEL 7
REMARK VINA RESULT:      -4.6      2.496      3.016
REMARK  Name = *****
REMARK                            x       y       z     vdW  Elec       q    Type
REMARK                         _______ _______ _______ _____ _____    ______ ____
ROOT
ATOM      1  C   LIG    1       27.302 -13.651   4.088  0.00  0.00    +0.054 A 
ATOM      2  C   LIG    1       27.239 -14.851   3.395  0.00  0.00    +0.123 A 
ATOM      3  N   LIG    1       26.097 -15.561   3.210  0.00  0.00    -0.263 NA
ATOM      4  C   LIG    1       24.972 -15.054   3.762  0.00  0.00    +0.111 A 
ATOM      5  C   LIG    1       24.936 -13.876   4.491  0.00  0.00    +0.020 A 
ATOM      6  C   LIG    1       26.122 -13.166   4.658  0.00  0.00    +0.016 A 
ENDROOT
BRANCH   1  10
ATOM      7  N   LIG    1       28.694 -12.123   5.387  0.00  0.00    -0.325 N 
ATOM      8  H   LIG    1       28.096 -12.206   6.196  0.00  0.00    +0.145 HD
ATOM      9  H   LIG    1       29.605 -11.701   5.526  0.00  0.00    +0.145 HD
ATOM     10  C   LIG    1       28.560 -12.893   4.265  0.00  0.00    +0.243 C 
ATOM     11  O   LIG    1       29.475 -12.982   3.455  0.00  0.00    -0.270 OA
ENDBRANCH   1  10
TORSDOF 1
ENDMDL
MODEL 8
REMARK VINA RESULT:      -4.5      2.008      3.248
REMARK  Name = *****
REMARK                            x       y       z     vdW  Elec       q    Type
REMARK                         _______ _______ _______ _____ _____    ______ ____
ROOT
ATOM      1  C   LIG    1       25.566 -13.768   3.763  0.00  0.00    +0.054 A 
ATOM      2  C   LIG    1       26.416 -13.867   2.671  0.00  0.00    +0.123 A 
ATOM      3  N   LIG    1       27.766 -13.740   2.747  0.00  0.00    -0.263 NA
ATOM      4  C   LIG    1       28.284 -13.482   3.969  0.00  0.00    +0.111 A 
ATOM      5  C   LIG    1       27.517 -13.343   5.115  0.00  0.00    +0.020 A 
ATOM      6  C   LIG    1       26.135 -13.485   5.008  0.00  0.00    +0.016 A 
ENDROOT
BRANCH   1  10
ATOM      7  N   LIG    1       23.456 -13.242   2.656  0.00  0.00    -0.325 N 
ATOM      8  H   LIG    1       23.930 -12.824   1.868  0.00  0.00    +0.145 HD
ATOM      9  H   LIG    1       22.469 -13.449   2.545  0.00  0.00    +0.145 HD
ATOM     10  C   LIG    1       24.100 -13.921   3.653  0.00  0.00    +0.243 C 
ATOM     11  O   LIG    1       23.479 -14.665   4.402  0.00  0.00    -0.270 OA
ENDBRANCH   1  10
TORSDOF 1
ENDMDL
MODEL 9
REMARK VINA RESULT:      -4.5      2.463      3.630
REMARK  Name = *****
REMARK                            x       y       z     vdW  Elec       q    Type
REMARK                         _______ _______ _______ _____ _____    ______ ____
ROOT
ATOM      1  C   LIG    1       25.191 -12.940   3.606  0.00  0.00    +0.054 A 
ATOM      2  C   LIG    1       25.599 -13.333   2.339  0.00  0.00    +0.123 A 
ATOM      3  N   LIG    1       26.598 -14.222   2.107  0.00  0.00    -0.263 NA
ATOM      4  C   LIG    1       27.230 -14.723   3.192  0.00  0.00    +0.111 A 
ATOM      5  C   LIG    1       26.912 -14.375   4.495  0.00  0.00    +0.020 A 
ATOM      6  C   LIG    1       25.877 -13.466   4.703  0.00  0.00    +0.016 A 
ENDROOT
BRANCH   1  10
ATOM      7  N   LIG    1       23.770 -11.655   5.119  0.00  0.00    -0.325 N 
ATOM      8  H   LIG    1       24.365 -11.857   5.909  0.00  0.00    +0.145 HD
ATOM      9  H   LIG    1       23.083 -10.918   5.233  0.00  0.00    +0.145 HD
ATOM     10  C   LIG    1       24.091 -11.977   3.829  0.00  0.00    +0.243 C 
ATOM     11  O   LIG    1       23.508 -11.447   2.890  0.00  0.00    -0.270 OA
ENDBRANCH   1  10
TORSDOF 1
ENDMDL
