MODEL 1
REMARK VINA RESULT:      -4.9      0.000      0.000
REMARK  Name = *****
REMARK                            x       y       z     vdW  Elec       q    Type
REMARK                         _______ _______ _______ _____ _____    ______ ____
ROOT
ATOM      1  N   LIG    1       24.443 -18.565   3.720  0.00  0.00    -0.267 N 
ATOM      2  N   LIG    1       25.620 -19.086   3.322  0.00  0.00    -0.179 NA
ATOM      3  C   LIG    1       26.418 -18.019   3.224  0.00  0.00    +0.144 A 
ATOM      4  C   LIG    1       25.754 -16.809   3.520  0.00  0.00    +0.038 A 
ATOM      5  C   LIG    1       24.479 -17.207   3.864  0.00  0.00    +0.118 A 
ENDROOT
BRANCH   4   6
ATOM      6  C   LIG    1       26.209 -15.439   3.506  0.00  0.00    +0.086 A 
ATOM      7  C   LIG    1       25.311 -14.365   3.506  0.00  0.00    +0.045 A 
ATOM      8  C   LIG    1       25.888 -13.103   3.490  0.00  0.00    +0.142 A 
ATOM      9  N   LIG    1       24.885 -12.172   3.483  0.00  0.00    -0.346 N 
ATOM     10  H   LIG    1       25.043 -11.176   3.459  0.00  0.00    +0.167 HD
ATOM     11  C   LIG    1       23.667 -12.803   3.507  0.00  0.00    +0.085 A 
ATOM     12  N   LIG    1       27.196 -12.809   3.475  0.00  0.00    -0.218 NA
ATOM     13  C   LIG    1       27.953 -13.921   3.483  0.00  0.00    +0.224 A 
ATOM     14  C   LIG    1       23.901 -14.162   3.528  0.00  0.00    +0.031 A 
ATOM     15  N   LIG    1       27.545 -15.203   3.508  0.00  0.00    -0.235 NA
ENDBRANCH   4   6
BRANCH   1  16
ATOM     16  C   LIG    1       23.297 -19.444   3.969  0.00  0.00    +0.124 C 
BRANCH  16  17
ATOM     17  C   LIG    1       23.712 -20.687   4.803  0.00  0.00    +0.015 C 
ATOM     18  C   LIG    1       24.841 -20.401   5.806  0.00  0.00    +0.006 C 
ATOM     19  C   LIG    1       24.671 -21.464   6.875  0.00  0.00    +0.000 C 
ATOM     20  C   LIG    1       23.167 -21.514   7.060  0.00  0.00    +0.000 C 
ATOM     21  C   LIG    1       22.592 -21.326   5.655  0.00  0.00    +0.006 C 
ENDBRANCH  16  17
BRANCH  16  22
ATOM     22  C   LIG    1       22.143 -18.673   4.642  0.00  0.00    +0.145 C 
BRANCH  22  24
ATOM     23  N   LIG    1       20.033 -18.473   3.084  0.00  0.00    -0.197 NA
ATOM     24  C   LIG    1       20.979 -18.549   3.758  0.00  0.00    +0.065 C 
ENDBRANCH  22  24
ENDBRANCH  16  22
ENDBRANCH   1  16
TORSDOF 5
ENDMDL
MODEL 2
REMARK VINA RESULT:      -4.8      2.650      7.231
REMARK  Name = *****
REMARK                            x       y       z     vdW  Elec       q    Type
REMARK                         _______ _______ _______ _____ _____    ______ ____
ROOT
ATOM      1  N   LIG    1       27.001 -15.407   3.224  0.00  0.00    -0.267 N 
ATOM      2  N   LIG    1       25.964 -16.103   2.719  0.00  0.00    -0.179 NA
ATOM      3  C   LIG    1       26.074 -17.298   3.307  0.00  0.00    +0.144 A 
ATOM      4  C   LIG    1       27.195 -17.389   4.159  0.00  0.00    +0.038 A 
ATOM      5  C   LIG    1       27.758 -16.131   4.100  0.00  0.00    +0.118 A 
ENDROOT
BRANCH   4   6
ATOM      6  C   LIG    1       27.710 -18.480   4.952  0.00  0.00    +0.086 A 
ATOM      7  C   LIG    1       26.923 -19.591   5.274  0.00  0.00    +0.045 A 
ATOM      8  C   LIG    1       27.547 -20.564   6.044  0.00  0.00    +0.142 A 
ATOM      9  N   LIG    1       26.648 -21.570   6.275  0.00  0.00    -0.346 N 
ATOM     10  H   LIG    1       26.854 -22.391   6.824  0.00  0.00    +0.167 HD
ATOM     11  C   LIG    1       25.457 -21.277   5.661  0.00  0.00    +0.085 A 
ATOM     12  N   LIG    1       28.806 -20.549   6.504  0.00  0.00    -0.218 NA
ATOM     13  C   LIG    1       29.458 -19.436   6.125  0.00  0.00    +0.224 A 
ATOM     14  C   LIG    1       25.600 -20.061   5.028  0.00  0.00    +0.031 A 
ATOM     15  N   LIG    1       28.997 -18.417   5.377  0.00  0.00    -0.235 NA
ENDBRANCH   4   6
BRANCH   1  16
ATOM     16  C   LIG    1       27.208 -14.010   2.831  0.00  0.00    +0.124 C 
BRANCH  16  17
ATOM     17  C   LIG    1       26.118 -13.087   3.440  0.00  0.00    +0.015 C 
ATOM     18  C   LIG    1       25.050 -12.649   2.425  0.00  0.00    +0.006 C 
ATOM     19  C   LIG    1       23.836 -12.322   3.274  0.00  0.00    +0.000 C 
ATOM     20  C   LIG    1       23.834 -13.442   4.298  0.00  0.00    +0.000 C 
ATOM     21  C   LIG    1       25.310 -13.688   4.613  0.00  0.00    +0.006 C 
ENDBRANCH  16  17
BRANCH  16  22
ATOM     22  C   LIG    1       28.625 -13.532   3.208  0.00  0.00    +0.145 C 
BRANCH  22  24
ATOM     23  N   LIG    1       28.677 -12.160   5.452  0.00  0.00    -0.197 NA
ATOM     24  C   LIG    1       28.630 -12.770   4.462  0.00  0.00    +0.065 C 
ENDBRANCH  22  24
ENDBRANCH  16  22
ENDBRANCH   1  16
TORSDOF 5
ENDMDL
MODEL 3
REMARK VINA RESULT:      -4.4      1.778      7.082
REMARK  Name = *****
REMARK                            x       y       z     vdW  Elec       q    Type
REMARK                         _______ _______ _______ _____ _____    ______ ____
ROOT
ATOM      1  N   LIG    1       26.618 -16.150   3.586  0.00  0.00    -0.267 N 
ATOM      2  N   LIG    1       27.726 -16.871   3.845  0.00  0.00    -0.179 NA
ATOM      3  C   LIG    1       27.258 -18.109   4.029  0.00  0.00    +0.144 A 
ATOM      4  C   LIG    1       25.852 -18.184   3.926  0.00  0.00    +0.038 A 
ATOM      5  C   LIG    1       25.474 -16.895   3.610  0.00  0.00    +0.118 A 
ENDROOT
BRANCH   4   6
ATOM      6  C   LIG    1       24.938 -19.290   4.084  0.00  0.00    +0.086 A 
ATOM      7  C   LIG    1       23.552 -19.100   4.121  0.00  0.00    +0.045 A 
ATOM      8  C   LIG    1       22.794 -20.252   4.279  0.00  0.00    +0.142 A 
ATOM      9  N   LIG    1       21.472 -19.897   4.304  0.00  0.00    -0.346 N 
ATOM     10  H   LIG    1       20.717 -20.554   4.423  0.00  0.00    +0.167 HD
ATOM     11  C   LIG    1       21.355 -18.539   4.152  0.00  0.00    +0.085 A 
ATOM     12  N   LIG    1       23.245 -21.509   4.399  0.00  0.00    -0.218 NA
ATOM     13  C   LIG    1       24.588 -21.561   4.343  0.00  0.00    +0.224 A 
ATOM     14  C   LIG    1       22.627 -18.020   4.030  0.00  0.00    +0.031 A 
ATOM     15  N   LIG    1       25.452 -20.541   4.184  0.00  0.00    -0.235 NA
ENDBRANCH   4   6
BRANCH   1  16
ATOM     16  C   LIG    1       26.726 -14.716   3.297  0.00  0.00    +0.124 C 
BRANCH  16  17
ATOM     17  C   LIG    1       25.331 -14.089   3.029  0.00  0.00    +0.015 C 
ATOM     18  C   LIG    1       24.801 -13.253   4.205  0.00  0.00    +0.006 C 
ATOM     19  C   LIG    1       23.823 -12.285   3.566  0.00  0.00    +0.000 C 
ATOM     20  C   LIG    1       24.544 -11.871   2.297  0.00  0.00    +0.000 C 
ATOM     21  C   LIG    1       25.245 -13.141   1.812  0.00  0.00    +0.006 C 
ENDBRANCH  16  17
BRANCH  16  22
ATOM     22  C   LIG    1       27.469 -13.977   4.429  0.00  0.00    +0.145 C 
BRANCH  22  24
ATOM     23  N   LIG    1       29.433 -12.473   3.535  0.00  0.00    -0.197 NA
ATOM     24  C   LIG    1       28.551 -13.131   3.912  0.00  0.00    +0.065 C 
ENDBRANCH  22  24
ENDBRANCH  16  22
ENDBRANCH   1  16
TORSDOF 5
ENDMDL
MODEL 4
REMARK VINA RESULT:      -4.1      2.077      7.268
REMARK  Name = *****
REMARK                            x       y       z     vdW  Elec       q    Type
REMARK                         _______ _______ _______ _____ _____    ______ ____
ROOT
ATOM      1  N   LIG    1       27.122 -15.351   3.308  0.00  0.00    -0.267 N 
ATOM      2  N   LIG    1       28.150 -15.806   4.050  0.00  0.00    -0.179 NA
ATOM      3  C   LIG    1       27.793 -17.059   4.346  0.00  0.00    +0.144 A 
ATOM      4  C   LIG    1       26.525 -17.404   3.831  0.00  0.00    +0.038 A 
ATOM      5  C   LIG    1       26.132 -16.277   3.139  0.00  0.00    +0.118 A 
ENDROOT
BRANCH   4   6
ATOM      6  C   LIG    1       25.745 -18.614   3.936  0.00  0.00    +0.086 A 
ATOM      7  C   LIG    1       26.036 -19.597   4.888  0.00  0.00    +0.045 A 
ATOM      8  C   LIG    1       25.205 -20.709   4.874  0.00  0.00    +0.142 A 
ATOM      9  N   LIG    1       25.625 -21.571   5.851  0.00  0.00    -0.346 N 
ATOM     10  H   LIG    1       25.191 -22.463   6.036  0.00  0.00    +0.167 HD
ATOM     11  C   LIG    1       26.703 -21.037   6.508  0.00  0.00    +0.085 A 
ATOM     12  N   LIG    1       24.168 -20.936   4.055  0.00  0.00    -0.218 NA
ATOM     13  C   LIG    1       23.987 -19.920   3.192  0.00  0.00    +0.224 A 
ATOM     14  C   LIG    1       26.976 -19.812   5.937  0.00  0.00    +0.031 A 
ATOM     15  N   LIG    1       24.698 -18.781   3.090  0.00  0.00    -0.235 NA
ENDBRANCH   4   6
BRANCH   1  16
ATOM     16  C   LIG    1       27.156 -13.992   2.760  0.00  0.00    +0.124 C 
BRANCH  16  17
ATOM     17  C   LIG    1       26.001 -13.125   3.332  0.00  0.00    +0.015 C 
ATOM     18  C   LIG    1       24.855 -12.897   2.334  0.00  0.00    +0.006 C 
ATOM     19  C   LIG    1       23.648 -12.609   3.207  0.00  0.00    +0.000 C 
ATOM     20  C   LIG    1       23.801 -13.617   4.330  0.00  0.00    +0.000 C 
ATOM     21  C   LIG    1       25.307 -13.684   4.594  0.00  0.00    +0.006 C 
ENDBRANCH  16  17
BRANCH  16  22
ATOM     22  C   LIG    1       28.529 -13.332   3.000  0.00  0.00    +0.145 C 
BRANCH  22  24
ATOM     23  N   LIG    1       28.709 -12.183   5.360  0.00  0.00    -0.197 NA
ATOM     24  C   LIG    1       28.606 -12.697   4.321  0.00  0.00    +0.065 C 
ENDBRANCH  22  24
ENDBRANCH  16  22
ENDBRANCH   1  16
TORSDOF 5
ENDMDL
MODEL 5
REMARK VINA RESULT:      -3.9      0.838      1.952
REMARK  Name = *****
REMARK                            x       y       z     vdW  Elec       q    Type
REMARK                         _______ _______ _______ _____ _____    ______ ____
ROOT
ATOM      1  N   LIG    1       24.087 -18.525   3.762  0.00  0.00    -0.267 N 
ATOM      2  N   LIG    1       25.350 -18.716   3.333  0.00  0.00    -0.179 NA
ATOM      3  C   LIG    1       25.859 -17.481   3.302  0.00  0.00    +0.144 A 
ATOM      4  C   LIG    1       24.923 -16.492   3.673  0.00  0.00    +0.038 A 
ATOM      5  C   LIG    1       23.790 -17.212   3.991  0.00  0.00    +0.118 A 
ENDROOT
BRANCH   4   6
ATOM      6  C   LIG    1       25.026 -15.054   3.744  0.00  0.00    +0.086 A 
ATOM      7  C   LIG    1       26.265 -14.404   3.742  0.00  0.00    +0.045 A 
ATOM      8  C   LIG    1       26.215 -13.019   3.818  0.00  0.00    +0.142 A 
ATOM      9  N   LIG    1       27.498 -12.541   3.813  0.00  0.00    -0.346 N 
ATOM     10  H   LIG    1       27.732 -11.562   3.873  0.00  0.00    +0.167 HD
ATOM     11  C   LIG    1       28.381 -13.587   3.724  0.00  0.00    +0.085 A 
ATOM     12  N   LIG    1       25.119 -12.250   3.891  0.00  0.00    -0.218 NA
ATOM     13  C   LIG    1       23.995 -12.988   3.879  0.00  0.00    +0.224 A 
ATOM     14  C   LIG    1       27.645 -14.752   3.672  0.00  0.00    +0.031 A 
ATOM     15  N   LIG    1       23.882 -14.327   3.801  0.00  0.00    -0.235 NA
ENDBRANCH   4   6
BRANCH   1  16
ATOM     16  C   LIG    1       23.196 -19.673   3.955  0.00  0.00    +0.124 C 
BRANCH  16  17
ATOM     17  C   LIG    1       23.915 -20.822   4.714  0.00  0.00    +0.015 C 
ATOM     18  C   LIG    1       25.202 -20.374   5.424  0.00  0.00    +0.006 C 
ATOM     19  C   LIG    1       25.388 -21.388   6.538  0.00  0.00    +0.000 C 
ATOM     20  C   LIG    1       23.976 -21.571   7.062  0.00  0.00    +0.000 C 
ATOM     21  C   LIG    1       23.087 -21.516   5.819  0.00  0.00    +0.006 C 
ENDBRANCH  16  17
BRANCH  16  22
ATOM     22  C   LIG    1       21.897 -19.251   4.672  0.00  0.00    +0.145 C 
BRANCH  22  24
ATOM     23  N   LIG    1       20.005 -18.548   2.985  0.00  0.00    -0.197 NA
ATOM     24  C   LIG    1       20.856 -18.843   3.721  0.00  0.00    +0.065 C 
ENDBRANCH  22  24
ENDBRANCH  16  22
ENDBRANCH   1  16
TORSDOF 5
ENDMDL
MODEL 6
REMARK VINA RESULT:      -3.4      1.720      7.291
REMARK  Name = *****
REMARK                            x       y       z     vdW  Elec       q    Type
REMARK                         _______ _______ _______ _____ _____    ______ ____
ROOT
ATOM      1  N   LIG    1       25.573 -15.436   3.336  0.00  0.00    -0.267 N 
ATOM      2  N   LIG    1       24.303 -15.146   3.681  0.00  0.00    -0.179 NA
ATOM      3  C   LIG    1       23.801 -16.329   4.046  0.00  0.00    +0.144 A 
ATOM      4  C   LIG    1       24.726 -17.385   3.904  0.00  0.00    +0.038 A 
ATOM      5  C   LIG    1       25.876 -16.761   3.466  0.00  0.00    +0.118 A 
ENDROOT
BRANCH   4   6
ATOM      6  C   LIG    1       24.604 -18.804   4.141  0.00  0.00    +0.086 A 
ATOM      7  C   LIG    1       23.357 -19.421   4.288  0.00  0.00    +0.045 A 
ATOM      8  C   LIG    1       23.390 -20.790   4.513  0.00  0.00    +0.142 A 
ATOM      9  N   LIG    1       22.101 -21.235   4.641  0.00  0.00    -0.346 N 
ATOM     10  H   LIG    1       21.855 -22.196   4.824  0.00  0.00    +0.167 HD
ATOM     11  C   LIG    1       21.232 -20.186   4.491  0.00  0.00    +0.085 A 
ATOM     12  N   LIG    1       24.475 -21.572   4.604  0.00  0.00    -0.218 NA
ATOM     13  C   LIG    1       25.608 -20.866   4.440  0.00  0.00    +0.224 A 
ATOM     14  C   LIG    1       21.981 -19.051   4.265  0.00  0.00    +0.031 A 
ATOM     15  N   LIG    1       25.738 -19.546   4.207  0.00  0.00    -0.235 NA
ENDBRANCH   4   6
BRANCH   1  16
ATOM     16  C   LIG    1       26.477 -14.368   2.897  0.00  0.00    +0.124 C 
BRANCH  16  17
ATOM     17  C   LIG    1       25.871 -12.966   3.181  0.00  0.00    +0.015 C 
ATOM     18  C   LIG    1       24.803 -12.543   2.160  0.00  0.00    +0.006 C 
ATOM     19  C   LIG    1       23.950 -11.534   2.906  0.00  0.00    +0.000 C 
ATOM     20  C   LIG    1       23.818 -12.160   4.281  0.00  0.00    +0.000 C 
ATOM     21  C   LIG    1       25.180 -12.801   4.553  0.00  0.00    +0.006 C 
ENDBRANCH  16  17
BRANCH  16  22
ATOM     22  C   LIG    1       27.870 -14.521   3.540  0.00  0.00    +0.145 C 
BRANCH  22  24
ATOM     23  N   LIG    1       28.957 -12.210   4.170  0.00  0.00    -0.197 NA
ATOM     24  C   LIG    1       28.465 -13.222   3.873  0.00  0.00    +0.065 C 
ENDBRANCH  22  24
ENDBRANCH  16  22
ENDBRANCH   1  16
TORSDOF 5
ENDMDL
MODEL 7
REMARK VINA RESULT:      -2.9      1.364      1.890
REMARK  Name = *****
REMARK                            x       y       z     vdW  Elec       q    Type
REMARK                         _______ _______ _______ _____ _____    ______ ____
ROOT
ATOM      1  N   LIG    1       24.858 -18.723   3.580  0.00  0.00    -0.267 N 
ATOM      2  N   LIG    1       23.708 -18.198   4.046  0.00  0.00    -0.179 NA
ATOM      3  C   LIG    1       23.939 -16.882   4.040  0.00  0.00    +0.144 A 
ATOM      4  C   LIG    1       25.243 -16.557   3.607  0.00  0.00    +0.038 A 
ATOM      5  C   LIG    1       25.801 -17.778   3.292  0.00  0.00    +0.118 A 
ENDROOT
BRANCH   4   6
ATOM      6  C   LIG    1       25.921 -15.289   3.480  0.00  0.00    +0.086 A 
ATOM      7  C   LIG    1       25.222 -14.101   3.238  0.00  0.00    +0.045 A 
ATOM      8  C   LIG    1       26.002 -12.957   3.137  0.00  0.00    +0.142 A 
ATOM      9  N   LIG    1       25.176 -11.894   2.895  0.00  0.00    -0.346 N 
ATOM     10  H   LIG    1       25.501 -10.948   2.767  0.00  0.00    +0.167 HD
ATOM     11  C   LIG    1       23.873 -12.320   2.848  0.00  0.00    +0.085 A 
ATOM     12  N   LIG    1       27.336 -12.874   3.245  0.00  0.00    -0.218 NA
ATOM     13  C   LIG    1       27.890 -14.076   3.482  0.00  0.00    +0.224 A 
ATOM     14  C   LIG    1       23.871 -13.682   3.065  0.00  0.00    +0.031 A 
ATOM     15  N   LIG    1       27.270 -15.264   3.614  0.00  0.00    -0.235 NA
ENDBRANCH   4   6
BRANCH   1  16
ATOM     16  C   LIG    1       24.988 -20.173   3.413  0.00  0.00    +0.124 C 
BRANCH  16  17
ATOM     17  C   LIG    1       25.706 -20.819   4.630  0.00  0.00    +0.015 C 
ATOM     18  C   LIG    1       26.946 -20.039   5.093  0.00  0.00    +0.006 C 
ATOM     19  C   LIG    1       27.111 -20.426   6.550  0.00  0.00    +0.000 C 
ATOM     20  C   LIG    1       25.683 -20.417   7.062  0.00  0.00    +0.000 C 
ATOM     21  C   LIG    1       24.849 -20.973   5.907  0.00  0.00    +0.006 C 
ENDBRANCH  16  17
BRANCH  16  22
ATOM     22  C   LIG    1       23.615 -20.827   3.156  0.00  0.00    +0.145 C 
BRANCH  22  24
ATOM     23  N   LIG    1       22.028 -20.720   5.252  0.00  0.00    -0.197 NA
ATOM     24  C   LIG    1       22.749 -20.762   4.339  0.00  0.00    +0.065 C 
ENDBRANCH  22  24
ENDBRANCH  16  22
ENDBRANCH   1  16
TORSDOF 5
ENDMDL
MODEL 8
REMARK VINA RESULT:      -2.8      1.754      7.230
REMARK  Name = *****
REMARK                            x       y       z     vdW  Elec       q    Type
REMARK                         _______ _______ _______ _____ _____    ______ ____
ROOT
ATOM      1  N   LIG    1       26.406 -15.426   3.118  0.00  0.00    -0.267 N 
ATOM      2  N   LIG    1       27.331 -16.374   3.370  0.00  0.00    -0.179 NA
ATOM      3  C   LIG    1       26.600 -17.448   3.684  0.00  0.00    +0.144 A 
ATOM      4  C   LIG    1       25.212 -17.189   3.672  0.00  0.00    +0.038 A 
ATOM      5  C   LIG    1       25.125 -15.872   3.274  0.00  0.00    +0.118 A 
ENDROOT
BRANCH   4   6
ATOM      6  C   LIG    1       24.080 -18.030   3.977  0.00  0.00    +0.086 A 
ATOM      7  C   LIG    1       24.227 -19.395   4.247  0.00  0.00    +0.045 A 
ATOM      8  C   LIG    1       23.052 -20.081   4.522  0.00  0.00    +0.142 A 
ATOM      9  N   LIG    1       23.365 -21.393   4.754  0.00  0.00    -0.346 N 
ATOM     10  H   LIG    1       22.682 -22.105   4.965  0.00  0.00    +0.167 HD
ATOM     11  C   LIG    1       24.721 -21.572   4.649  0.00  0.00    +0.085 A 
ATOM     12  N   LIG    1       21.809 -19.580   4.555  0.00  0.00    -0.218 NA
ATOM     13  C   LIG    1       21.799 -18.263   4.285  0.00  0.00    +0.224 A 
ATOM     14  C   LIG    1       25.281 -20.350   4.342  0.00  0.00    +0.031 A 
ATOM     15  N   LIG    1       22.847 -17.464   4.011  0.00  0.00    -0.235 NA
ENDBRANCH   4   6
BRANCH   1  16
ATOM     16  C   LIG    1       26.825 -14.084   2.705  0.00  0.00    +0.124 C 
BRANCH  16  17
ATOM     17  C   LIG    1       25.951 -12.989   3.377  0.00  0.00    +0.015 C 
ATOM     18  C   LIG    1       24.805 -12.488   2.485  0.00  0.00    +0.006 C 
ATOM     19  C   LIG    1       23.775 -11.952   3.462  0.00  0.00    +0.000 C 
ATOM     20  C   LIG    1       23.792 -12.991   4.567  0.00  0.00    +0.000 C 
ATOM     21  C   LIG    1       25.260 -13.402   4.696  0.00  0.00    +0.006 C 
ENDBRANCH  16  17
BRANCH  16  22
ATOM     22  C   LIG    1       28.325 -13.859   2.986  0.00  0.00    +0.145 C 
BRANCH  22  24
ATOM     23  N   LIG    1       28.732 -12.140   4.935  0.00  0.00    -0.197 NA
ATOM     24  C   LIG    1       28.539 -12.914   4.088  0.00  0.00    +0.065 C 
ENDBRANCH  22  24
ENDBRANCH  16  22
ENDBRANCH   1  16
TORSDOF 5
ENDMDL
MODEL 9
REMARK VINA RESULT:      -2.5      1.576      3.063
REMARK  Name = *****
REMARK                            x       y       z     vdW  Elec       q    Type
REMARK                         _______ _______ _______ _____ _____    ______ ____
ROOT
ATOM      1  N   LIG    1       23.829 -18.713   3.950  0.00  0.00    -0.267 N 
ATOM      2  N   LIG    1       22.640 -18.365   4.478  0.00  0.00    -0.179 NA
ATOM      3  C   LIG    1       22.671 -17.029   4.465  0.00  0.00    +0.144 A 
ATOM      4  C   LIG    1       23.887 -16.514   3.966  0.00  0.00    +0.038 A 
ATOM      5  C   LIG    1       24.604 -17.639   3.616  0.00  0.00    +0.118 A 
ENDROOT
BRANCH   4   6
ATOM      6  C   LIG    1       24.360 -15.159   3.809  0.00  0.00    +0.086 A 
ATOM      7  C   LIG    1       25.726 -14.858   3.751  0.00  0.00    +0.045 A 
ATOM      8  C   LIG    1       26.036 -13.514   3.601  0.00  0.00    +0.142 A 
ATOM      9  N   LIG    1       27.399 -13.389   3.570  0.00  0.00    -0.346 N 
ATOM     10  H   LIG    1       27.880 -12.507   3.481  0.00  0.00    +0.167 HD
ATOM     11  C   LIG    1       27.980 -14.626   3.685  0.00  0.00    +0.085 A 
ATOM     12  N   LIG    1       25.178 -12.489   3.506  0.00  0.00    -0.218 NA
ATOM     13  C   LIG    1       23.901 -12.906   3.569  0.00  0.00    +0.224 A 
ATOM     14  C   LIG    1       26.968 -15.555   3.792  0.00  0.00    +0.031 A 
ATOM     15  N   LIG    1       23.444 -14.165   3.703  0.00  0.00    -0.235 NA
ENDBRANCH   4   6
BRANCH   1  16
ATOM     16  C   LIG    1       24.166 -20.128   3.768  0.00  0.00    +0.124 C 
BRANCH  16  17
ATOM     17  C   LIG    1       25.611 -20.430   4.251  0.00  0.00    +0.015 C 
ATOM     18  C   LIG    1       26.450 -19.166   4.496  0.00  0.00    +0.006 C 
ATOM     19  C   LIG    1       27.509 -19.604   5.490  0.00  0.00    +0.000 C 
ATOM     20  C   LIG    1       26.724 -20.477   6.451  0.00  0.00    +0.000 C 
ATOM     21  C   LIG    1       25.724 -21.228   5.570  0.00  0.00    +0.006 C 
ENDBRANCH  16  17
BRANCH  16  22
ATOM     22  C   LIG    1       23.136 -21.037   4.470  0.00  0.00    +0.145 C 
BRANCH  22  24
ATOM     23  N   LIG    1       23.096 -20.587   7.062  0.00  0.00    -0.197 NA
ATOM     24  C   LIG    1       23.100 -20.806   5.919  0.00  0.00    +0.065 C 
ENDBRANCH  22  24
ENDBRANCH  16  22
ENDBRANCH   1  16
TORSDOF 5
ENDMDL
