MODEL 1
REMARK VINA RESULT:      -3.9      0.000      0.000
REMARK  Name = *****
REMARK                            x       y       z     vdW  Elec       q    Type
REMARK                         _______ _______ _______ _____ _____    ______ ____
ROOT
ATOM      1  C   LIG    1       23.121 -19.536   4.287  0.00  0.00    +0.120 A 
ATOM      2  C   LIG    1       22.332 -18.423   4.579  0.00  0.00    +0.046 A 
ATOM      3  C   LIG    1       22.841 -17.132   4.397  0.00  0.00    +0.012 A 
ATOM      4  C   LIG    1       24.144 -16.942   3.917  0.00  0.00    -0.011 A 
ATOM      5  C   LIG    1       24.934 -18.060   3.631  0.00  0.00    +0.012 A 
ATOM      6  C   LIG    1       24.422 -19.346   3.814  0.00  0.00    +0.046 A 
ENDROOT
BRANCH   4   7
ATOM      7  C   LIG    1       24.678 -15.591   3.750  0.00  0.00    +0.028 A 
ATOM      8  S   LIG    1       26.333 -15.435   3.295  0.00  0.00    -0.051 S 
ATOM      9  S   LIG    1       26.291 -13.393   3.289  0.00  0.00    -0.044 S 
ATOM     10  C   LIG    1       24.593 -13.203   3.706  0.00  0.00    +0.064 A 
ATOM     11  S   LIG    1       23.849 -11.713   3.836  0.00  0.00    -0.044 S 
ATOM     12  C   LIG    1       23.923 -14.501   3.924  0.00  0.00    +0.039 A 
ENDBRANCH   4   7
BRANCH   1  14
ATOM     13  C   LIG    1       22.774 -21.393   5.732  0.00  0.00    +0.277 C 
ATOM     14  O   LIG    1       22.746 -20.844   4.420  0.00  0.00    -0.495 OA
ENDBRANCH   1  14
TORSDOF 2
ENDMDL
MODEL 2
REMARK VINA RESULT:      -3.8      0.496      1.379
REMARK  Name = *****
REMARK                            x       y       z     vdW  Elec       q    Type
REMARK                         _______ _______ _______ _____ _____    ______ ____
ROOT
ATOM      1  C   LIG    1       23.766 -19.681   3.998  0.00  0.00    +0.120 A 
ATOM      2  C   LIG    1       25.066 -19.383   3.588  0.00  0.00    +0.046 A 
ATOM      3  C   LIG    1       25.480 -18.050   3.476  0.00  0.00    +0.012 A 
ATOM      4  C   LIG    1       24.600 -17.003   3.779  0.00  0.00    -0.011 A 
ATOM      5  C   LIG    1       23.296 -17.306   4.184  0.00  0.00    +0.012 A 
ATOM      6  C   LIG    1       22.887 -18.637   4.293  0.00  0.00    +0.046 A 
ENDROOT
BRANCH   4   7
ATOM      7  C   LIG    1       25.031 -15.613   3.639  0.00  0.00    +0.028 A 
ATOM      8  S   LIG    1       26.691 -15.322   3.281  0.00  0.00    -0.051 S 
ATOM      9  S   LIG    1       26.483 -13.290   3.267  0.00  0.00    -0.044 S 
ATOM     10  C   LIG    1       24.754 -13.240   3.584  0.00  0.00    +0.064 A 
ATOM     11  S   LIG    1       23.884 -11.816   3.664  0.00  0.00    -0.044 S 
ATOM     12  C   LIG    1       24.180 -14.589   3.766  0.00  0.00    +0.039 A 
ENDBRANCH   4   7
BRANCH   1  14
ATOM     13  C   LIG    1       22.436 -21.163   5.298  0.00  0.00    +0.277 C 
ATOM     14  O   LIG    1       23.237 -20.934   4.146  0.00  0.00    -0.495 OA
ENDBRANCH   1  14
TORSDOF 2
ENDMDL
MODEL 3
REMARK VINA RESULT:      -3.5      1.285      2.200
REMARK  Name = *****
REMARK                            x       y       z     vdW  Elec       q    Type
REMARK                         _______ _______ _______ _____ _____    ______ ____
ROOT
ATOM      1  C   LIG    1       23.737 -19.793   3.961  0.00  0.00    +0.120 A 
ATOM      2  C   LIG    1       25.045 -19.485   3.585  0.00  0.00    +0.046 A 
ATOM      3  C   LIG    1       25.462 -18.151   3.515  0.00  0.00    +0.012 A 
ATOM      4  C   LIG    1       24.576 -17.111   3.826  0.00  0.00    -0.011 A 
ATOM      5  C   LIG    1       23.264 -17.422   4.197  0.00  0.00    +0.012 A 
ATOM      6  C   LIG    1       22.852 -18.755   4.265  0.00  0.00    +0.046 A 
ENDROOT
BRANCH   4   7
ATOM      7  C   LIG    1       25.010 -15.717   3.729  0.00  0.00    +0.028 A 
ATOM      8  S   LIG    1       23.816 -14.491   3.925  0.00  0.00    -0.051 S 
ATOM      9  S   LIG    1       25.138 -12.957   3.655  0.00  0.00    -0.044 S 
ATOM     10  C   LIG    1       26.582 -13.939   3.454  0.00  0.00    +0.064 A 
ATOM     11  S   LIG    1       28.102 -13.286   3.225  0.00  0.00    -0.044 S 
ATOM     12  C   LIG    1       26.287 -15.386   3.512  0.00  0.00    +0.039 A 
ENDBRANCH   4   7
BRANCH   1  14
ATOM     13  C   LIG    1       22.372 -21.301   5.192  0.00  0.00    +0.277 C 
ATOM     14  O   LIG    1       23.205 -21.048   4.068  0.00  0.00    -0.495 OA
ENDBRANCH   1  14
TORSDOF 2
ENDMDL
MODEL 4
REMARK VINA RESULT:      -3.3      1.476      1.980
REMARK  Name = *****
REMARK                            x       y       z     vdW  Elec       q    Type
REMARK                         _______ _______ _______ _____ _____    ______ ____
ROOT
ATOM      1  C   LIG    1       23.950 -19.428   3.732  0.00  0.00    +0.120 A 
ATOM      2  C   LIG    1       23.096 -18.385   4.093  0.00  0.00    +0.046 A 
ATOM      3  C   LIG    1       23.551 -17.062   4.064  0.00  0.00    +0.012 A 
ATOM      4  C   LIG    1       24.863 -16.768   3.670  0.00  0.00    -0.011 A 
ATOM      5  C   LIG    1       25.717 -17.816   3.314  0.00  0.00    +0.012 A 
ATOM      6  C   LIG    1       25.259 -19.136   3.345  0.00  0.00    +0.046 A 
ENDROOT
BRANCH   4   7
ATOM      7  C   LIG    1       25.339 -15.385   3.663  0.00  0.00    +0.028 A 
ATOM      8  S   LIG    1       24.158 -14.131   3.686  0.00  0.00    -0.051 S 
ATOM      9  S   LIG    1       25.541 -12.628   3.650  0.00  0.00    -0.044 S 
ATOM     10  C   LIG    1       26.976 -13.644   3.665  0.00  0.00    +0.064 A 
ATOM     11  S   LIG    1       28.528 -13.027   3.687  0.00  0.00    -0.044 S 
ATOM     12  C   LIG    1       26.642 -15.083   3.655  0.00  0.00    +0.039 A 
ENDBRANCH   4   7
BRANCH   1  14
ATOM     13  C   LIG    1       24.217 -21.572   4.727  0.00  0.00    +0.277 C 
ATOM     14  O   LIG    1       23.632 -20.758   3.717  0.00  0.00    -0.495 OA
ENDBRANCH   1  14
TORSDOF 2
ENDMDL
MODEL 5
REMARK VINA RESULT:      -3.0      3.733      6.095
REMARK  Name = *****
REMARK                            x       y       z     vdW  Elec       q    Type
REMARK                         _______ _______ _______ _____ _____    ______ ____
ROOT
ATOM      1  C   LIG    1       25.007 -14.004   3.599  0.00  0.00    +0.120 A 
ATOM      2  C   LIG    1       25.990 -14.915   3.212  0.00  0.00    +0.046 A 
ATOM      3  C   LIG    1       25.756 -16.291   3.321  0.00  0.00    +0.012 A 
ATOM      4  C   LIG    1       24.535 -16.769   3.815  0.00  0.00    -0.011 A 
ATOM      5  C   LIG    1       23.554 -15.852   4.207  0.00  0.00    +0.012 A 
ATOM      6  C   LIG    1       23.792 -14.481   4.097  0.00  0.00    +0.046 A 
ENDROOT
BRANCH   4   7
ATOM      7  C   LIG    1       24.305 -18.207   3.948  0.00  0.00    +0.028 A 
ATOM      8  S   LIG    1       25.642 -19.260   3.680  0.00  0.00    -0.051 S 
ATOM      9  S   LIG    1       24.560 -20.959   4.019  0.00  0.00    -0.044 S 
ATOM     10  C   LIG    1       23.029 -20.178   4.393  0.00  0.00    +0.064 A 
ATOM     11  S   LIG    1       21.656 -21.026   4.823  0.00  0.00    -0.044 S 
ATOM     12  C   LIG    1       23.110 -18.707   4.280  0.00  0.00    +0.039 A 
ENDBRANCH   4   7
BRANCH   1  14
ATOM     13  C   LIG    1       23.903 -11.913   3.343  0.00  0.00    +0.277 C 
ATOM     14  O   LIG    1       25.107 -12.641   3.544  0.00  0.00    -0.495 OA
ENDBRANCH   1  14
TORSDOF 2
ENDMDL
MODEL 6
REMARK VINA RESULT:      -2.9      3.890      6.236
REMARK  Name = *****
REMARK                            x       y       z     vdW  Elec       q    Type
REMARK                         _______ _______ _______ _____ _____    ______ ____
ROOT
ATOM      1  C   LIG    1       26.667 -13.675   3.443  0.00  0.00    +0.120 A 
ATOM      2  C   LIG    1       25.334 -13.542   3.835  0.00  0.00    +0.046 A 
ATOM      3  C   LIG    1       24.533 -14.678   4.000  0.00  0.00    +0.012 A 
ATOM      4  C   LIG    1       25.059 -15.958   3.781  0.00  0.00    -0.011 A 
ATOM      5  C   LIG    1       26.393 -16.087   3.383  0.00  0.00    +0.012 A 
ATOM      6  C   LIG    1       27.189 -14.951   3.218  0.00  0.00    +0.046 A 
ENDROOT
BRANCH   4   7
ATOM      7  C   LIG    1       24.211 -17.140   3.934  0.00  0.00    +0.028 A 
ATOM      8  S   LIG    1       22.565 -16.892   4.381  0.00  0.00    -0.051 S 
ATOM      9  S   LIG    1       22.117 -18.885   4.395  0.00  0.00    -0.044 S 
ATOM     10  C   LIG    1       23.699 -19.473   3.900  0.00  0.00    +0.064 A 
ATOM     11  S   LIG    1       24.034 -21.093   3.665  0.00  0.00    -0.044 S 
ATOM     12  C   LIG    1       24.673 -18.377   3.724  0.00  0.00    +0.039 A 
ENDBRANCH   4   7
BRANCH   1  14
ATOM     13  C   LIG    1       28.719 -12.643   4.059  0.00  0.00    +0.277 C 
ATOM     14  O   LIG    1       27.553 -12.652   3.246  0.00  0.00    -0.495 OA
ENDBRANCH   1  14
TORSDOF 2
ENDMDL
MODEL 7
REMARK VINA RESULT:      -2.8      4.226      5.438
REMARK  Name = *****
REMARK                            x       y       z     vdW  Elec       q    Type
REMARK                         _______ _______ _______ _____ _____    ______ ____
ROOT
ATOM      1  C   LIG    1       21.731 -19.670   4.143  0.00  0.00    +0.120 A 
ATOM      2  C   LIG    1       22.722 -18.705   3.957  0.00  0.00    +0.046 A 
ATOM      3  C   LIG    1       24.014 -18.918   4.453  0.00  0.00    +0.012 A 
ATOM      4  C   LIG    1       24.328 -20.100   5.137  0.00  0.00    -0.011 A 
ATOM      5  C   LIG    1       23.331 -21.062   5.326  0.00  0.00    +0.012 A 
ATOM      6  C   LIG    1       22.044 -20.846   4.830  0.00  0.00    +0.046 A 
ENDROOT
BRANCH   4   7
ATOM      7  C   LIG    1       25.673 -20.307   5.673  0.00  0.00    +0.028 A 
ATOM      8  S   LIG    1       25.890 -21.572   6.823  0.00  0.00    -0.051 S 
ATOM      9  S   LIG    1       27.887 -21.210   7.060  0.00  0.00    -0.044 S 
ATOM     10  C   LIG    1       28.015 -19.895   5.901  0.00  0.00    +0.064 A 
ATOM     11  S   LIG    1       29.457 -19.126   5.553  0.00  0.00    -0.044 S 
ATOM     12  C   LIG    1       26.714 -19.562   5.286  0.00  0.00    +0.039 A 
ENDBRANCH   4   7
BRANCH   1  14
ATOM     13  C   LIG    1       20.030 -18.356   3.126  0.00  0.00    +0.277 C 
ATOM     14  O   LIG    1       20.437 -19.587   3.711  0.00  0.00    -0.495 OA
ENDBRANCH   1  14
TORSDOF 2
ENDMDL
MODEL 8
REMARK VINA RESULT:      -2.6      3.788      6.333
REMARK  Name = *****
REMARK                            x       y       z     vdW  Elec       q    Type
REMARK                         _______ _______ _______ _____ _____    ______ ____
ROOT
ATOM      1  C   LIG    1       25.186 -13.836   3.260  0.00  0.00    +0.120 A 
ATOM      2  C   LIG    1       26.005 -14.943   3.036  0.00  0.00    +0.046 A 
ATOM      3  C   LIG    1       25.542 -16.231   3.329  0.00  0.00    +0.012 A 
ATOM      4  C   LIG    1       24.255 -16.425   3.846  0.00  0.00    -0.011 A 
ATOM      5  C   LIG    1       23.439 -15.313   4.076  0.00  0.00    +0.012 A 
ATOM      6  C   LIG    1       23.904 -14.029   3.782  0.00  0.00    +0.046 A 
ENDROOT
BRANCH   4   7
ATOM      7  C   LIG    1       23.785 -17.772   4.172  0.00  0.00    +0.028 A 
ATOM      8  S   LIG    1       22.103 -17.980   4.478  0.00  0.00    -0.051 S 
ATOM      9  S   LIG    1       22.269 -19.984   4.840  0.00  0.00    -0.044 S 
ATOM     10  C   LIG    1       23.997 -20.122   4.547  0.00  0.00    +0.064 A 
ATOM     11  S   LIG    1       24.822 -21.572   4.635  0.00  0.00    -0.044 S 
ATOM     12  C   LIG    1       24.614 -18.820   4.220  0.00  0.00    +0.039 A 
ENDBRANCH   4   7
BRANCH   1  14
ATOM     13  C   LIG    1       24.669 -11.806   2.134  0.00  0.00    +0.277 C 
ATOM     14  O   LIG    1       25.514 -12.531   3.019  0.00  0.00    -0.495 OA
ENDBRANCH   1  14
TORSDOF 2
ENDMDL
MODEL 9
REMARK VINA RESULT:      -1.5      4.604      5.881
REMARK  Name = *****
REMARK                            x       y       z     vdW  Elec       q    Type
REMARK                         _______ _______ _______ _____ _____    ______ ____
ROOT
ATOM      1  C   LIG    1       27.781 -20.062   5.951  0.00  0.00    +0.120 A 
ATOM      2  C   LIG    1       27.331 -19.392   4.813  0.00  0.00    +0.046 A 
ATOM      3  C   LIG    1       25.972 -19.413   4.476  0.00  0.00    +0.012 A 
ATOM      4  C   LIG    1       25.051 -20.101   5.276  0.00  0.00    -0.011 A 
ATOM      5  C   LIG    1       25.507 -20.777   6.412  0.00  0.00    +0.012 A 
ATOM      6  C   LIG    1       26.863 -20.754   6.745  0.00  0.00    +0.046 A 
ENDROOT
BRANCH   4   7
ATOM      7  C   LIG    1       23.636 -20.139   4.906  0.00  0.00    +0.028 A 
ATOM      8  S   LIG    1       22.749 -21.568   5.280  0.00  0.00    -0.051 S 
ATOM      9  S   LIG    1       21.003 -20.866   4.485  0.00  0.00    -0.044 S 
ATOM     10  C   LIG    1       21.594 -19.279   4.011  0.00  0.00    +0.064 A 
ATOM     11  S   LIG    1       20.622 -18.120   3.302  0.00  0.00    -0.044 S 
ATOM     12  C   LIG    1       23.030 -19.105   4.312  0.00  0.00    +0.039 A 
ENDBRANCH   4   7
BRANCH   1  14
ATOM     13  C   LIG    1       29.475 -21.309   7.062  0.00  0.00    +0.277 C 
ATOM     14  O   LIG    1       29.075 -20.121   6.390  0.00  0.00    -0.495 OA
ENDBRANCH   1  14
TORSDOF 2
ENDMDL
