MODEL 1
REMARK VINA RESULT:      -7.7      0.000      0.000
REMARK  Name = *****
REMARK                            x       y       z     vdW  Elec       q    Type
REMARK                         _______ _______ _______ _____ _____    ______ ____
ROOT
ATOM      1  O   LIG    1       26.248 -20.220   5.319  0.00  0.00    -0.267 OA
ATOM      2  C   LIG    1       27.262 -20.092   6.000  0.00  0.00    +0.267 C 
ATOM      3  C   LIG    1       27.395 -20.628   7.379  0.00  0.00    +0.094 C 
ATOM      4  I   LIG    1       25.822 -21.587   8.267  0.00  0.00    -0.037 I 
ATOM      5  C   LIG    1       28.569 -20.462   8.000  0.00  0.00    +0.113 C 
ATOM      6  N   LIG    1       29.648 -19.817   7.420  0.00  0.00    -0.273 N 
ATOM      7  C   LIG    1       29.554 -19.248   6.156  0.00  0.00    +0.331 C 
ATOM      8  O   LIG    1       30.460 -18.619   5.617  0.00  0.00    -0.246 OA
ATOM      9  N   LIG    1       28.355 -19.428   5.515  0.00  0.00    -0.274 N 
ATOM     10  H   LIG    1       28.280 -19.050   4.583  0.00  0.00    +0.173 HD
ENDROOT
BRANCH   6  11
ATOM     11  C1* LIG    1       30.927 -19.676   8.117  0.00  0.00    +0.226 C 
ATOM     12  O4* LIG    1       30.706 -19.561   9.537  0.00  0.00    -0.348 OA
ATOM     13  C4* LIG    1       31.287 -18.319   9.986  0.00  0.00    +0.175 C 
ATOM     14  C3* LIG    1       31.414 -17.440   8.752  0.00  0.00    +0.150 C 
ATOM     15  C2* LIG    1       31.730 -18.454   7.677  0.00  0.00    +0.088 C 
BRANCH  14  16
ATOM     16  O3* LIG    1       32.415 -16.445   8.870  0.00  0.00    -0.389 OA
ATOM     17  H3* LIG    1       32.106 -15.747   9.474  0.00  0.00    +0.210 HD
ENDBRANCH  14  16
BRANCH  13  18
ATOM     18  C5* LIG    1       30.397 -17.714  11.069  0.00  0.00    +0.190 C 
BRANCH  18  19
ATOM     19  O5* LIG    1       30.365 -16.294  10.925  0.00  0.00    -0.392 OA
ATOM     20  H5* LIG    1       29.747 -16.108  10.192  0.00  0.00    +0.209 HD
ENDBRANCH  18  19
ENDBRANCH  13  18
ENDBRANCH   6  11
TORSDOF 4
ENDMDL
MODEL 2
REMARK VINA RESULT:      -7.6      5.950      8.748
REMARK  Name = *****
REMARK                            x       y       z     vdW  Elec       q    Type
REMARK                         _______ _______ _______ _____ _____    ______ ____
ROOT
ATOM      1  O   LIG    1       24.733 -20.527   8.366  0.00  0.00    -0.267 OA
ATOM      2  C   LIG    1       24.695 -21.585   7.743  0.00  0.00    +0.267 C 
ATOM      3  C   LIG    1       25.904 -22.267   7.214  0.00  0.00    +0.094 C 
ATOM      4  I   LIG    1       27.750 -21.421   7.451  0.00  0.00    -0.037 I 
ATOM      5  C   LIG    1       25.734 -23.440   6.591  0.00  0.00    +0.113 C 
ATOM      6  N   LIG    1       24.495 -24.032   6.418  0.00  0.00    -0.273 N 
ATOM      7  C   LIG    1       23.330 -23.406   6.843  0.00  0.00    +0.331 C 
ATOM      8  O   LIG    1       22.203 -23.860   6.668  0.00  0.00    -0.246 OA
ATOM      9  N   LIG    1       23.504 -22.211   7.492  0.00  0.00    -0.274 N 
ATOM     10  H   LIG    1       22.673 -21.757   7.836  0.00  0.00    +0.173 HD
ENDROOT
BRANCH   6  11
ATOM     11  C1* LIG    1       24.346 -25.328   5.755  0.00  0.00    +0.226 C 
ATOM     12  O4* LIG    1       24.310 -26.384   6.737  0.00  0.00    -0.348 OA
ATOM     13  C4* LIG    1       25.379 -27.309   6.446  0.00  0.00    +0.175 C 
ATOM     14  C3* LIG    1       26.379 -26.545   5.592  0.00  0.00    +0.150 C 
ATOM     15  C2* LIG    1       25.475 -25.649   4.779  0.00  0.00    +0.088 C 
BRANCH  14  16
ATOM     16  O3* LIG    1       27.183 -27.384   4.782  0.00  0.00    -0.389 OA
ATOM     17  H3* LIG    1       27.031 -28.313   5.030  0.00  0.00    +0.210 HD
ENDBRANCH  14  16
BRANCH  13  18
ATOM     18  C5* LIG    1       25.970 -27.818   7.759  0.00  0.00    +0.190 C 
BRANCH  18  19
ATOM     19  O5* LIG    1       25.971 -29.245   7.762  0.00  0.00    -0.392 OA
ATOM     20  H5* LIG    1       25.155 -29.517   8.223  0.00  0.00    +0.209 HD
ENDBRANCH  18  19
ENDBRANCH  13  18
ENDBRANCH   6  11
TORSDOF 4
ENDMDL
MODEL 3
REMARK VINA RESULT:      -7.5      1.513      2.435
REMARK  Name = *****
REMARK                            x       y       z     vdW  Elec       q    Type
REMARK                         _______ _______ _______ _____ _____    ______ ____
ROOT
ATOM      1  O   LIG    1       25.524 -20.508   5.008  0.00  0.00    -0.267 OA
ATOM      2  C   LIG    1       26.574 -20.175   5.550  0.00  0.00    +0.267 C 
ATOM      3  C   LIG    1       27.010 -20.689   6.874  0.00  0.00    +0.094 C 
ATOM      4  I   LIG    1       25.815 -21.974   7.923  0.00  0.00    -0.037 I 
ATOM      5  C   LIG    1       28.200 -20.285   7.337  0.00  0.00    +0.113 C 
ATOM      6  N   LIG    1       29.025 -19.416   6.645  0.00  0.00    -0.273 N 
ATOM      7  C   LIG    1       28.636 -18.863   5.432  0.00  0.00    +0.331 C 
ATOM      8  O   LIG    1       29.305 -18.047   4.803  0.00  0.00    -0.246 OA
ATOM      9  N   LIG    1       27.424 -19.286   4.951  0.00  0.00    -0.274 N 
ATOM     10  H   LIG    1       27.140 -18.920   4.056  0.00  0.00    +0.173 HD
ENDROOT
BRANCH   6  11
ATOM     11  C1* LIG    1       30.332 -19.014   7.168  0.00  0.00    +0.226 C 
ATOM     12  O4* LIG    1       31.115 -20.181   7.491  0.00  0.00    -0.348 OA
ATOM     13  C4* LIG    1       31.478 -20.109   8.886  0.00  0.00    +0.175 C 
ATOM     14  C3* LIG    1       30.486 -19.154   9.533  0.00  0.00    +0.150 C 
ATOM     15  C2* LIG    1       30.248 -18.154   8.427  0.00  0.00    +0.088 C 
BRANCH  14  16
ATOM     16  O3* LIG    1       30.979 -18.549  10.715  0.00  0.00    -0.389 OA
ATOM     17  H3* LIG    1       31.798 -18.063  10.512  0.00  0.00    +0.210 HD
ENDBRANCH  14  16
BRANCH  13  18
ATOM     18  C5* LIG    1       31.443 -21.513   9.484  0.00  0.00    +0.190 C 
BRANCH  18  19
ATOM     19  O5* LIG    1       32.160 -22.412   8.638  0.00  0.00    -0.392 OA
ATOM     20  H5* LIG    1       32.575 -23.070   9.227  0.00  0.00    +0.209 HD
ENDBRANCH  18  19
ENDBRANCH  13  18
ENDBRANCH   6  11
TORSDOF 4
ENDMDL
MODEL 4
REMARK VINA RESULT:      -7.4      3.866      5.565
REMARK  Name = *****
REMARK                            x       y       z     vdW  Elec       q    Type
REMARK                         _______ _______ _______ _____ _____    ______ ____
ROOT
ATOM      1  O   LIG    1       22.960 -24.817   6.230  0.00  0.00    -0.267 OA
ATOM      2  C   LIG    1       23.787 -24.027   6.679  0.00  0.00    +0.267 C 
ATOM      3  C   LIG    1       25.237 -24.333   6.785  0.00  0.00    +0.094 C 
ATOM      4  I   LIG    1       25.945 -26.167   6.227  0.00  0.00    -0.037 I 
ATOM      5  C   LIG    1       26.043 -23.370   7.250  0.00  0.00    +0.113 C 
ATOM      6  N   LIG    1       25.587 -22.121   7.634  0.00  0.00    -0.273 N 
ATOM      7  C   LIG    1       24.233 -21.808   7.607  0.00  0.00    +0.331 C 
ATOM      8  O   LIG    1       23.769 -20.736   7.987  0.00  0.00    -0.246 OA
ATOM      9  N   LIG    1       23.409 -22.788   7.121  0.00  0.00    -0.274 N 
ATOM     10  H   LIG    1       22.427 -22.567   7.064  0.00  0.00    +0.173 HD
ENDROOT
BRANCH   6  11
ATOM     11  C1* LIG    1       26.498 -21.081   8.113  0.00  0.00    +0.226 C 
ATOM     12  O4* LIG    1       26.626 -20.042   7.122  0.00  0.00    -0.348 OA
ATOM     13  C4* LIG    1       28.021 -19.919   6.773  0.00  0.00    +0.175 C 
ATOM     14  C3* LIG    1       28.676 -21.230   7.178  0.00  0.00    +0.150 C 
ATOM     15  C2* LIG    1       27.902 -21.594   8.423  0.00  0.00    +0.088 C 
BRANCH  14  16
ATOM     16  O3* LIG    1       30.067 -21.113   7.419  0.00  0.00    -0.389 OA
ATOM     17  H3* LIG    1       30.546 -21.156   6.572  0.00  0.00    +0.210 HD
ENDBRANCH  14  16
BRANCH  13  18
ATOM     18  C5* LIG    1       28.138 -19.621   5.280  0.00  0.00    +0.190 C 
BRANCH  18  19
ATOM     19  O5* LIG    1       26.939 -20.021   4.616  0.00  0.00    -0.392 OA
ATOM     20  H5* LIG    1       26.548 -20.729   5.163  0.00  0.00    +0.209 HD
ENDBRANCH  18  19
ENDBRANCH  13  18
ENDBRANCH   6  11
TORSDOF 4
ENDMDL
MODEL 5
REMARK VINA RESULT:      -7.2      3.917      7.147
REMARK  Name = *****
REMARK                            x       y       z     vdW  Elec       q    Type
REMARK                         _______ _______ _______ _____ _____    ______ ____
ROOT
ATOM      1  O   LIG    1       28.471 -18.716   4.986  0.00  0.00    -0.267 OA
ATOM      2  C   LIG    1       27.805 -19.560   5.578  0.00  0.00    +0.267 C 
ATOM      3  C   LIG    1       26.439 -19.968   5.158  0.00  0.00    +0.094 C 
ATOM      4  I   LIG    1       25.546 -19.070   3.553  0.00  0.00    -0.037 I 
ATOM      5  C   LIG    1       25.835 -20.933   5.861  0.00  0.00    +0.113 C 
ATOM      6  N   LIG    1       26.419 -21.555   6.951  0.00  0.00    -0.273 N 
ATOM      7  C   LIG    1       27.669 -21.168   7.417  0.00  0.00    +0.331 C 
ATOM      8  O   LIG    1       28.210 -21.648   8.410  0.00  0.00    -0.246 OA
ATOM      9  N   LIG    1       28.294 -20.188   6.691  0.00  0.00    -0.274 N 
ATOM     10  H   LIG    1       29.216 -19.917   6.995  0.00  0.00    +0.173 HD
ENDROOT
BRANCH   6  11
ATOM     11  C1* LIG    1       25.741 -22.626   7.682  0.00  0.00    +0.226 C 
ATOM     12  O4* LIG    1       26.156 -23.910   7.174  0.00  0.00    -0.348 OA
ATOM     13  C4* LIG    1       24.981 -24.621   6.730  0.00  0.00    +0.175 C 
ATOM     14  C3* LIG    1       23.910 -23.566   6.498  0.00  0.00    +0.150 C 
ATOM     15  C2* LIG    1       24.219 -22.564   7.585  0.00  0.00    +0.088 C 
BRANCH  14  16
ATOM     16  O3* LIG    1       22.592 -24.076   6.588  0.00  0.00    -0.389 OA
ATOM     17  H3* LIG    1       22.141 -23.958   5.732  0.00  0.00    +0.210 HD
ENDBRANCH  14  16
BRANCH  13  18
ATOM     18  C5* LIG    1       25.326 -25.418   5.474  0.00  0.00    +0.190 C 
BRANCH  18  19
ATOM     19  O5* LIG    1       24.756 -24.780   4.330  0.00  0.00    -0.392 OA
ATOM     20  H5* LIG    1       24.876 -23.821   4.466  0.00  0.00    +0.209 HD
ENDBRANCH  18  19
ENDBRANCH  13  18
ENDBRANCH   6  11
TORSDOF 4
ENDMDL
MODEL 6
REMARK VINA RESULT:      -7.1      2.623      3.624
REMARK  Name = *****
REMARK                            x       y       z     vdW  Elec       q    Type
REMARK                         _______ _______ _______ _____ _____    ______ ____
ROOT
ATOM      1  O   LIG    1       22.977 -20.555   6.810  0.00  0.00    -0.267 OA
ATOM      2  C   LIG    1       24.196 -20.701   6.812  0.00  0.00    +0.267 C 
ATOM      3  C   LIG    1       25.058 -20.399   5.640  0.00  0.00    +0.094 C 
ATOM      4  I   LIG    1       24.224 -19.760   3.886  0.00  0.00    -0.037 I 
ATOM      5  C   LIG    1       26.380 -20.556   5.784  0.00  0.00    +0.113 C 
ATOM      6  N   LIG    1       26.967 -20.986   6.961  0.00  0.00    -0.273 N 
ATOM      7  C   LIG    1       26.200 -21.337   8.064  0.00  0.00    +0.331 C 
ATOM      8  O   LIG    1       26.664 -21.775   9.113  0.00  0.00    -0.246 OA
ATOM      9  N   LIG    1       24.847 -21.165   7.923  0.00  0.00    -0.274 N 
ATOM     10  H   LIG    1       24.277 -21.383   8.724  0.00  0.00    +0.173 HD
ENDROOT
BRANCH   6  11
ATOM     11  C1* LIG    1       28.418 -21.123   7.093  0.00  0.00    +0.226 C 
ATOM     12  O4* LIG    1       28.847 -20.615   8.373  0.00  0.00    -0.348 OA
ATOM     13  C4* LIG    1       29.816 -19.570   8.143  0.00  0.00    +0.175 C 
ATOM     14  C3* LIG    1       29.595 -19.095   6.715  0.00  0.00    +0.150 C 
ATOM     15  C2* LIG    1       29.203 -20.376   6.017  0.00  0.00    +0.088 C 
BRANCH  14  16
ATOM     16  O3* LIG    1       30.742 -18.493   6.140  0.00  0.00    -0.389 OA
ATOM     17  H3* LIG    1       30.491 -18.048   5.311  0.00  0.00    +0.210 HD
ENDBRANCH  14  16
BRANCH  13  18
ATOM     18  C5* LIG    1       29.618 -18.469   9.183  0.00  0.00    +0.190 C 
BRANCH  18  19
ATOM     19  O5* LIG    1       30.516 -18.674  10.274  0.00  0.00    -0.392 OA
ATOM     20  H5* LIG    1       30.293 -17.998  10.941  0.00  0.00    +0.209 HD
ENDBRANCH  18  19
ENDBRANCH  13  18
ENDBRANCH   6  11
TORSDOF 4
ENDMDL
MODEL 7
REMARK VINA RESULT:      -6.7      3.555      7.039
REMARK  Name = *****
REMARK                            x       y       z     vdW  Elec       q    Type
REMARK                         _______ _______ _______ _____ _____    ______ ____
ROOT
ATOM      1  O   LIG    1       29.609 -20.755   8.359  0.00  0.00    -0.267 OA
ATOM      2  C   LIG    1       28.527 -20.926   7.803  0.00  0.00    +0.267 C 
ATOM      3  C   LIG    1       28.110 -20.192   6.582  0.00  0.00    +0.094 C 
ATOM      4  I   LIG    1       29.330 -18.767   5.770  0.00  0.00    -0.037 I 
ATOM      5  C   LIG    1       26.923 -20.502   6.045  0.00  0.00    +0.113 C 
ATOM      6  N   LIG    1       26.080 -21.462   6.576  0.00  0.00    -0.273 N 
ATOM      7  C   LIG    1       26.399 -22.134   7.749  0.00  0.00    +0.331 C 
ATOM      8  O   LIG    1       25.665 -22.955   8.293  0.00  0.00    -0.246 OA
ATOM      9  N   LIG    1       27.619 -21.826   8.293  0.00  0.00    -0.274 N 
ATOM     10  H   LIG    1       27.883 -22.327   9.127  0.00  0.00    +0.173 HD
ENDROOT
BRANCH   6  11
ATOM     11  C1* LIG    1       24.800 -21.796   5.949  0.00  0.00    +0.226 C 
ATOM     12  O4* LIG    1       24.896 -21.641   4.519  0.00  0.00    -0.348 OA
ATOM     13  C4* LIG    1       23.891 -20.694   4.099  0.00  0.00    +0.175 C 
ATOM     14  C3* LIG    1       23.523 -19.890   5.337  0.00  0.00    +0.150 C 
ATOM     15  C2* LIG    1       23.640 -20.928   6.428  0.00  0.00    +0.088 C 
BRANCH  14  16
ATOM     16  O3* LIG    1       22.229 -19.316   5.270  0.00  0.00    -0.389 OA
ATOM     17  H3* LIG    1       21.675 -19.840   4.664  0.00  0.00    +0.210 HD
ENDBRANCH  14  16
BRANCH  13  18
ATOM     18  C5* LIG    1       24.454 -19.836   2.968  0.00  0.00    +0.190 C 
BRANCH  18  19
ATOM     19  O5* LIG    1       24.680 -18.508   3.441  0.00  0.00    -0.392 OA
ATOM     20  H5* LIG    1       24.114 -18.399   4.229  0.00  0.00    +0.209 HD
ENDBRANCH  18  19
ENDBRANCH  13  18
ENDBRANCH   6  11
TORSDOF 4
ENDMDL
MODEL 8
REMARK VINA RESULT:      -6.6      4.929      7.445
REMARK  Name = *****
REMARK                            x       y       z     vdW  Elec       q    Type
REMARK                         _______ _______ _______ _____ _____    ______ ____
ROOT
ATOM      1  O   LIG    1       26.892 -22.333   9.088  0.00  0.00    -0.267 OA
ATOM      2  C   LIG    1       26.235 -22.002   8.105  0.00  0.00    +0.267 C 
ATOM      3  C   LIG    1       26.737 -21.071   7.062  0.00  0.00    +0.094 C 
ATOM      4  I   LIG    1       28.585 -20.218   7.245  0.00  0.00    -0.037 I 
ATOM      5  C   LIG    1       25.940 -20.824   6.014  0.00  0.00    +0.113 C 
ATOM      6  N   LIG    1       24.685 -21.389   5.868  0.00  0.00    -0.273 N 
ATOM      7  C   LIG    1       24.149 -22.219   6.844  0.00  0.00    +0.331 C 
ATOM      8  O   LIG    1       23.022 -22.703   6.791  0.00  0.00    -0.246 OA
ATOM      9  N   LIG    1       24.968 -22.482   7.912  0.00  0.00    -0.274 N 
ATOM     10  H   LIG    1       24.609 -23.108   8.615  0.00  0.00    +0.173 HD
ENDROOT
BRANCH   6  11
ATOM     11  C1* LIG    1       23.850 -21.120   4.697  0.00  0.00    +0.226 C 
ATOM     12  O4* LIG    1       24.592 -20.352   3.727  0.00  0.00    -0.348 OA
ATOM     13  C4* LIG    1       23.871 -19.129   3.471  0.00  0.00    +0.175 C 
ATOM     14  C3* LIG    1       22.952 -18.922   4.664  0.00  0.00    +0.150 C 
ATOM     15  C2* LIG    1       22.577 -20.341   5.020  0.00  0.00    +0.088 C 
BRANCH  14  16
ATOM     16  O3* LIG    1       21.821 -18.120   4.370  0.00  0.00    -0.389 OA
ATOM     17  H3* LIG    1       21.393 -18.451   3.560  0.00  0.00    +0.210 HD
ENDBRANCH  14  16
BRANCH  13  18
ATOM     18  C5* LIG    1       24.871 -17.992   3.275  0.00  0.00    +0.190 C 
BRANCH  18  19
ATOM     19  O5* LIG    1       26.201 -18.494   3.414  0.00  0.00    -0.392 OA
ATOM     20  H5* LIG    1       26.585 -18.500   2.517  0.00  0.00    +0.209 HD
ENDBRANCH  18  19
ENDBRANCH  13  18
ENDBRANCH   6  11
TORSDOF 4
ENDMDL
MODEL 9
REMARK VINA RESULT:      -6.5      4.286      6.183
REMARK  Name = *****
REMARK                            x       y       z     vdW  Elec       q    Type
REMARK                         _______ _______ _______ _____ _____    ______ ____
ROOT
ATOM      1  O   LIG    1       25.155 -26.640   4.303  0.00  0.00    -0.267 OA
ATOM      2  C   LIG    1       25.204 -25.654   5.033  0.00  0.00    +0.267 C 
ATOM      3  C   LIG    1       25.622 -25.710   6.458  0.00  0.00    +0.094 C 
ATOM      4  I   LIG    1       26.094 -27.501   7.322  0.00  0.00    -0.037 I 
ATOM      5  C   LIG    1       25.678 -24.556   7.135  0.00  0.00    +0.113 C 
ATOM      6  N   LIG    1       25.363 -23.332   6.571  0.00  0.00    -0.273 N 
ATOM      7  C   LIG    1       24.911 -23.235   5.261  0.00  0.00    +0.331 C 
ATOM      8  O   LIG    1       24.567 -22.183   4.729  0.00  0.00    -0.246 OA
ATOM      9  N   LIG    1       24.865 -24.414   4.563  0.00  0.00    -0.274 N 
ATOM     10  H   LIG    1       24.571 -24.359   3.601  0.00  0.00    +0.173 HD
ENDROOT
BRANCH   6  11
ATOM     11  C1* LIG    1       25.460 -22.085   7.332  0.00  0.00    +0.226 C 
ATOM     12  O4* LIG    1       25.647 -20.973   6.434  0.00  0.00    -0.348 OA
ATOM     13  C4* LIG    1       26.872 -20.300   6.797  0.00  0.00    +0.175 C 
ATOM     14  C3* LIG    1       27.689 -21.308   7.591  0.00  0.00    +0.150 C 
ATOM     15  C2* LIG    1       26.613 -22.067   8.332  0.00  0.00    +0.088 C 
BRANCH  14  16
ATOM     16  O3* LIG    1       28.628 -20.707   8.464  0.00  0.00    -0.389 OA
ATOM     17  H3* LIG    1       29.444 -20.507   7.972  0.00  0.00    +0.210 HD
ENDBRANCH  14  16
BRANCH  13  18
ATOM     18  C5* LIG    1       27.573 -19.821   5.528  0.00  0.00    +0.190 C 
BRANCH  18  19
ATOM     19  O5* LIG    1       26.738 -20.069   4.397  0.00  0.00    -0.392 OA
ATOM     20  H5* LIG    1       27.328 -20.082   3.619  0.00  0.00    +0.209 HD
ENDBRANCH  18  19
ENDBRANCH  13  18
ENDBRANCH   6  11
TORSDOF 4
ENDMDL
