MODEL 1
REMARK VINA RESULT:      -6.8      0.000      0.000
REMARK  Name = *****
REMARK                            x       y       z     vdW  Elec       q    Type
REMARK                         _______ _______ _______ _____ _____    ______ ____
ROOT
ATOM      1  C   LIG    1       24.203 -25.714   5.816  0.00  0.00    +0.218 C 
ATOM      2  N   LIG    1       23.303 -25.140   6.532  0.00  0.00    -0.159 NA
ATOM      3  C   LIG    1       23.307 -23.778   6.603  0.00  0.00    +0.354 C 
ATOM      4  O   LIG    1       22.290 -23.158   6.903  0.00  0.00    -0.244 OA
ATOM      5  N   LIG    1       24.478 -23.126   6.291  0.00  0.00    -0.256 N 
ATOM      6  C   LIG    1       25.254 -23.778   5.392  0.00  0.00    +0.209 C 
ATOM      7  N   LIG    1       25.140 -25.029   5.119  0.00  0.00    -0.205 NA
ENDROOT
BRANCH   5   8
ATOM      8  C1* LIG    1       24.518 -21.676   6.414  0.00  0.00    +0.228 C 
ATOM      9  O4* LIG    1       25.807 -21.195   5.968  0.00  0.00    -0.348 OA
ATOM     10  C4* LIG    1       26.559 -20.738   7.116  0.00  0.00    +0.175 C 
ATOM     11  C3* LIG    1       25.789 -21.189   8.347  0.00  0.00    +0.150 C 
ATOM     12  C2* LIG    1       24.367 -21.149   7.841  0.00  0.00    +0.088 C 
BRANCH  11  13
ATOM     13  O3* LIG    1       25.992 -20.353   9.472  0.00  0.00    -0.389 OA
ATOM     14  H3* LIG    1       25.853 -20.870  10.286  0.00  0.00    +0.210 HD
ENDBRANCH  11  13
BRANCH  10  15
ATOM     15  C5* LIG    1       27.972 -21.310   7.053  0.00  0.00    +0.190 C 
BRANCH  15  16
ATOM     16  O5* LIG    1       28.494 -21.448   8.375  0.00  0.00    -0.392 OA
ATOM     17  H5* LIG    1       28.822 -22.363   8.447  0.00  0.00    +0.209 HD
ENDBRANCH  15  16
ENDBRANCH  10  15
ENDBRANCH   5   8
BRANCH   1  18
ATOM     18  N   LIG    1       24.227 -27.063   5.711  0.00  0.00    -0.327 N 
ATOM     19  H   LIG    1       23.491 -27.429   5.121  0.00  0.00    +0.145 HD
ATOM     20  H   LIG    1       25.148 -27.433   5.522  0.00  0.00    +0.145 HD
ENDBRANCH   1  18
TORSDOF 5
ENDMDL
MODEL 2
REMARK VINA RESULT:      -6.6      3.053      5.242
REMARK  Name = *****
REMARK                            x       y       z     vdW  Elec       q    Type
REMARK                         _______ _______ _______ _____ _____    ______ ____
ROOT
ATOM      1  C   LIG    1       28.629 -20.025   7.498  0.00  0.00    +0.218 C 
ATOM      2  N   LIG    1       27.862 -20.052   8.529  0.00  0.00    -0.159 NA
ATOM      3  C   LIG    1       26.567 -20.444   8.361  0.00  0.00    +0.354 C 
ATOM      4  O   LIG    1       25.912 -20.882   9.304  0.00  0.00    -0.244 OA
ATOM      5  N   LIG    1       26.036 -20.369   7.094  0.00  0.00    -0.256 N 
ATOM      6  C   LIG    1       26.945 -20.524   6.101  0.00  0.00    +0.209 C 
ATOM      7  N   LIG    1       28.213 -20.385   6.260  0.00  0.00    -0.205 NA
ENDROOT
BRANCH   5   8
ATOM      8  C1* LIG    1       24.639 -20.732   6.905  0.00  0.00    +0.228 C 
ATOM      9  O4* LIG    1       24.493 -22.162   7.064  0.00  0.00    -0.348 OA
ATOM     10  C4* LIG    1       24.225 -22.752   5.771  0.00  0.00    +0.175 C 
ATOM     11  C3* LIG    1       24.463 -21.662   4.738  0.00  0.00    +0.150 C 
ATOM     12  C2* LIG    1       24.081 -20.426   5.516  0.00  0.00    +0.088 C 
BRANCH  11  13
ATOM     13  O3* LIG    1       23.694 -21.827   3.561  0.00  0.00    -0.389 OA
ATOM     14  H3* LIG    1       23.052 -21.098   3.491  0.00  0.00    +0.210 HD
ENDBRANCH  11  13
BRANCH  10  15
ATOM     15  C5* LIG    1       25.127 -23.967   5.574  0.00  0.00    +0.190 C 
BRANCH  15  16
ATOM     16  O5* LIG    1       24.752 -24.657   4.382  0.00  0.00    -0.392 OA
ATOM     17  H5* LIG    1       24.858 -25.608   4.569  0.00  0.00    +0.209 HD
ENDBRANCH  15  16
ENDBRANCH  10  15
ENDBRANCH   5   8
BRANCH   1  18
ATOM     18  N   LIG    1       29.923 -19.651   7.625  0.00  0.00    -0.327 N 
ATOM     19  H   LIG    1       30.347 -19.973   8.484  0.00  0.00    +0.145 HD
ATOM     20  H   LIG    1       30.470 -19.817   6.791  0.00  0.00    +0.145 HD
ENDBRANCH   1  18
TORSDOF 5
ENDMDL
MODEL 3
REMARK VINA RESULT:      -6.5      3.151      5.114
REMARK  Name = *****
REMARK                            x       y       z     vdW  Elec       q    Type
REMARK                         _______ _______ _______ _____ _____    ______ ____
ROOT
ATOM      1  C   LIG    1       28.213 -19.973   7.679  0.00  0.00    +0.218 C 
ATOM      2  N   LIG    1       27.344 -20.200   8.598  0.00  0.00    -0.159 NA
ATOM      3  C   LIG    1       26.192 -20.845   8.254  0.00  0.00    +0.354 C 
ATOM      4  O   LIG    1       25.529 -21.447   9.095  0.00  0.00    -0.244 OA
ATOM      5  N   LIG    1       25.823 -20.828   6.929  0.00  0.00    -0.256 N 
ATOM      6  C   LIG    1       26.863 -20.750   6.063  0.00  0.00    +0.209 C 
ATOM      7  N   LIG    1       28.043 -20.359   6.392  0.00  0.00    -0.205 NA
ENDROOT
BRANCH   5   8
ATOM      8  C1* LIG    1       24.570 -21.463   6.549  0.00  0.00    +0.228 C 
ATOM      9  O4* LIG    1       24.645 -21.878   5.166  0.00  0.00    -0.348 OA
ATOM     10  C4* LIG    1       23.787 -21.024   4.375  0.00  0.00    +0.175 C 
ATOM     11  C3* LIG    1       23.358 -19.880   5.279  0.00  0.00    +0.150 C 
ATOM     12  C2* LIG    1       23.342 -20.556   6.629  0.00  0.00    +0.088 C 
BRANCH  11  13
ATOM     13  O3* LIG    1       22.101 -19.329   4.929  0.00  0.00    -0.389 OA
ATOM     14  H3* LIG    1       21.634 -19.943   4.335  0.00  0.00    +0.210 HD
ENDBRANCH  11  13
BRANCH  10  15
ATOM     15  C5* LIG    1       24.545 -20.554   3.137  0.00  0.00    +0.190 C 
BRANCH  15  16
ATOM     16  O5* LIG    1       25.340 -19.414   3.464  0.00  0.00    -0.392 OA
ATOM     17  H5* LIG    1       26.227 -19.583   3.096  0.00  0.00    +0.209 HD
ENDBRANCH  15  16
ENDBRANCH  10  15
ENDBRANCH   5   8
BRANCH   1  18
ATOM     18  N   LIG    1       29.372 -19.346   7.982  0.00  0.00    -0.327 N 
ATOM     19  H   LIG    1       29.487 -19.179   8.973  0.00  0.00    +0.145 HD
ATOM     20  H   LIG    1       30.177 -19.749   7.522  0.00  0.00    +0.145 HD
ENDBRANCH   1  18
TORSDOF 5
ENDMDL
MODEL 4
REMARK VINA RESULT:      -6.4      1.184      1.570
REMARK  Name = *****
REMARK                            x       y       z     vdW  Elec       q    Type
REMARK                         _______ _______ _______ _____ _____    ______ ____
ROOT
ATOM      1  C   LIG    1       24.854 -25.842   5.717  0.00  0.00    +0.218 C 
ATOM      2  N   LIG    1       23.699 -25.532   6.191  0.00  0.00    -0.159 NA
ATOM      3  C   LIG    1       23.520 -24.273   6.683  0.00  0.00    +0.354 C 
ATOM      4  O   LIG    1       22.398 -23.780   6.763  0.00  0.00    -0.244 OA
ATOM      5  N   LIG    1       24.642 -23.565   7.049  0.00  0.00    -0.256 N 
ATOM      6  C   LIG    1       25.755 -23.886   6.346  0.00  0.00    +0.209 C 
ATOM      7  N   LIG    1       25.890 -24.972   5.671  0.00  0.00    -0.205 NA
ENDROOT
BRANCH   5   8
ATOM      8  C1* LIG    1       24.468 -22.241   7.627  0.00  0.00    +0.228 C 
ATOM      9  O4* LIG    1       24.391 -21.263   6.565  0.00  0.00    -0.348 OA
ATOM     10  C4* LIG    1       25.604 -20.475   6.566  0.00  0.00    +0.175 C 
ATOM     11  C3* LIG    1       26.570 -21.165   7.515  0.00  0.00    +0.150 C 
ATOM     12  C2* LIG    1       25.619 -21.774   8.517  0.00  0.00    +0.088 C 
BRANCH  11  13
ATOM     13  O3* LIG    1       27.499 -20.278   8.112  0.00  0.00    -0.389 OA
ATOM     14  H3* LIG    1       28.033 -20.764   8.766  0.00  0.00    +0.210 HD
ENDBRANCH  11  13
BRANCH  10  15
ATOM     15  C5* LIG    1       26.139 -20.371   5.140  0.00  0.00    +0.190 C 
BRANCH  15  16
ATOM     16  O5* LIG    1       27.548 -20.143   5.171  0.00  0.00    -0.392 OA
ATOM     17  H5* LIG    1       27.970 -21.006   5.005  0.00  0.00    +0.209 HD
ENDBRANCH  15  16
ENDBRANCH  10  15
ENDBRANCH   5   8
BRANCH   1  18
ATOM     18  N   LIG    1       25.068 -27.078   5.210  0.00  0.00    -0.327 N 
ATOM     19  H   LIG    1       25.719 -27.625   5.757  0.00  0.00    +0.145 HD
ATOM     20  H   LIG    1       24.216 -27.559   4.955  0.00  0.00    +0.145 HD
ENDBRANCH   1  18
TORSDOF 5
ENDMDL
MODEL 5
REMARK VINA RESULT:      -6.3      3.442      4.752
REMARK  Name = *****
REMARK                            x       y       z     vdW  Elec       q    Type
REMARK                         _______ _______ _______ _____ _____    ______ ____
ROOT
ATOM      1  C   LIG    1       25.171 -21.333   7.558  0.00  0.00    +0.218 C 
ATOM      2  N   LIG    1       25.226 -20.536   6.551  0.00  0.00    -0.159 NA
ATOM      3  C   LIG    1       26.445 -20.288   5.990  0.00  0.00    +0.354 C 
ATOM      4  O   LIG    1       26.538 -19.895   4.830  0.00  0.00    -0.244 OA
ATOM      5  N   LIG    1       27.561 -20.529   6.756  0.00  0.00    -0.256 N 
ATOM      6  C   LIG    1       27.404 -21.517   7.671  0.00  0.00    +0.209 C 
ATOM      7  N   LIG    1       26.262 -21.949   8.072  0.00  0.00    -0.205 NA
ENDROOT
BRANCH   5   8
ATOM      8  C1* LIG    1       28.868 -20.219   6.195  0.00  0.00    +0.228 C 
ATOM      9  O4* LIG    1       29.870 -21.042   6.835  0.00  0.00    -0.348 OA
ATOM     10  C4* LIG    1       30.680 -20.209   7.696  0.00  0.00    +0.175 C 
ATOM     11  C3* LIG    1       29.985 -18.859   7.773  0.00  0.00    +0.150 C 
ATOM     12  C2* LIG    1       29.334 -18.781   6.413  0.00  0.00    +0.088 C 
BRANCH  11  13
ATOM     13  O3* LIG    1       30.874 -17.784   8.016  0.00  0.00    -0.389 OA
ATOM     14  H3* LIG    1       31.642 -18.109   8.519  0.00  0.00    +0.210 HD
ENDBRANCH  11  13
BRANCH  10  15
ATOM     15  C5* LIG    1       30.827 -20.883   9.057  0.00  0.00    +0.190 C 
BRANCH  15  16
ATOM     16  O5* LIG    1       32.209 -21.102   9.338  0.00  0.00    -0.392 OA
ATOM     17  H5* LIG    1       32.253 -21.897   9.902  0.00  0.00    +0.209 HD
ENDBRANCH  15  16
ENDBRANCH  10  15
ENDBRANCH   5   8
BRANCH   1  18
ATOM     18  N   LIG    1       23.980 -21.613   8.135  0.00  0.00    -0.327 N 
ATOM     19  H   LIG    1       23.756 -20.995   8.904  0.00  0.00    +0.145 HD
ATOM     20  H   LIG    1       23.234 -21.749   7.467  0.00  0.00    +0.145 HD
ENDBRANCH   1  18
TORSDOF 5
ENDMDL
MODEL 6
REMARK VINA RESULT:      -6.2      3.334      5.595
REMARK  Name = *****
REMARK                            x       y       z     vdW  Elec       q    Type
REMARK                         _______ _______ _______ _____ _____    ______ ____
ROOT
ATOM      1  C   LIG    1       29.041 -19.129   5.899  0.00  0.00    +0.218 C 
ATOM      2  N   LIG    1       29.552 -19.560   6.997  0.00  0.00    -0.159 NA
ATOM      3  C   LIG    1       28.902 -20.557   7.664  0.00  0.00    +0.354 C 
ATOM      4  O   LIG    1       29.499 -21.282   8.454  0.00  0.00    -0.244 OA
ATOM      5  N   LIG    1       27.566 -20.742   7.390  0.00  0.00    -0.256 N 
ATOM      6  C   LIG    1       27.204 -20.395   6.132  0.00  0.00    +0.209 C 
ATOM      7  N   LIG    1       27.901 -19.630   5.369  0.00  0.00    -0.205 NA
ENDROOT
BRANCH   5   8
ATOM      8  C1* LIG    1       26.842 -21.764   8.131  0.00  0.00    +0.228 C 
ATOM      9  O4* LIG    1       26.518 -22.858   7.242  0.00  0.00    -0.348 OA
ATOM     10  C4* LIG    1       25.094 -22.848   6.988  0.00  0.00    +0.175 C 
ATOM     11  C3* LIG    1       24.561 -21.541   7.552  0.00  0.00    +0.150 C 
ATOM     12  C2* LIG    1       25.502 -21.309   8.709  0.00  0.00    +0.088 C 
BRANCH  11  13
ATOM     13  O3* LIG    1       23.206 -21.616   7.956  0.00  0.00    -0.389 OA
ATOM     14  H3* LIG    1       22.887 -20.724   8.182  0.00  0.00    +0.210 HD
ENDBRANCH  11  13
BRANCH  10  15
ATOM     15  C5* LIG    1       24.848 -22.997   5.489  0.00  0.00    +0.190 C 
BRANCH  15  16
ATOM     16  O5* LIG    1       23.747 -22.176   5.099  0.00  0.00    -0.392 OA
ATOM     17  H5* LIG    1       23.396 -22.562   4.275  0.00  0.00    +0.209 HD
ENDBRANCH  15  16
ENDBRANCH  10  15
ENDBRANCH   5   8
BRANCH   1  18
ATOM     18  N   LIG    1       29.662 -18.149   5.203  0.00  0.00    -0.327 N 
ATOM     19  H   LIG    1       30.511 -17.823   5.644  0.00  0.00    +0.145 HD
ATOM     20  H   LIG    1       29.746 -18.351   4.216  0.00  0.00    +0.145 HD
ENDBRANCH   1  18
TORSDOF 5
ENDMDL
MODEL 7
REMARK VINA RESULT:      -6.2      4.877      6.878
REMARK  Name = *****
REMARK                            x       y       z     vdW  Elec       q    Type
REMARK                         _______ _______ _______ _____ _____    ______ ____
ROOT
ATOM      1  C   LIG    1       27.621 -20.486   6.422  0.00  0.00    +0.218 C 
ATOM      2  N   LIG    1       28.379 -19.565   5.942  0.00  0.00    -0.159 NA
ATOM      3  C   LIG    1       29.637 -19.433   6.451  0.00  0.00    +0.354 C 
ATOM      4  O   LIG    1       30.527 -18.890   5.802  0.00  0.00    -0.244 OA
ATOM      5  N   LIG    1       29.879 -19.962   7.697  0.00  0.00    -0.256 N 
ATOM      6  C   LIG    1       29.114 -21.038   8.003  0.00  0.00    +0.209 C 
ATOM      7  N   LIG    1       28.022 -21.338   7.395  0.00  0.00    -0.205 NA
ENDROOT
BRANCH   5   8
ATOM      8  C1* LIG    1       31.201 -19.784   8.281  0.00  0.00    +0.228 C 
ATOM      9  O4* LIG    1       31.072 -19.627   9.713  0.00  0.00    -0.348 OA
ATOM     10  C4* LIG    1       31.364 -18.255  10.062  0.00  0.00    +0.175 C 
ATOM     11  C3* LIG    1       31.433 -17.480   8.756  0.00  0.00    +0.150 C 
ATOM     12  C2* LIG    1       31.947 -18.537   7.809  0.00  0.00    +0.088 C 
BRANCH  11  13
ATOM     13  O3* LIG    1       32.279 -16.346   8.821  0.00  0.00    -0.389 OA
ATOM     14  H3* LIG    1       31.787 -15.599   9.205  0.00  0.00    +0.210 HD
ENDBRANCH  11  13
BRANCH  10  15
ATOM     15  C5* LIG    1       30.285 -17.735  11.008  0.00  0.00    +0.190 C 
BRANCH  15  16
ATOM     16  O5* LIG    1       30.355 -16.311  11.081  0.00  0.00    -0.392 OA
ATOM     17  H5* LIG    1       30.789 -16.100  11.928  0.00  0.00    +0.209 HD
ENDBRANCH  15  16
ENDBRANCH  10  15
ENDBRANCH   5   8
BRANCH   1  18
ATOM     18  N   LIG    1       26.370 -20.655   5.936  0.00  0.00    -0.327 N 
ATOM     19  H   LIG    1       25.662 -20.679   6.658  0.00  0.00    +0.145 HD
ATOM     20  H   LIG    1       26.160 -20.050   5.154  0.00  0.00    +0.145 HD
ENDBRANCH   1  18
TORSDOF 5
ENDMDL
MODEL 8
REMARK VINA RESULT:      -6.2      1.904      3.722
REMARK  Name = *****
REMARK                            x       y       z     vdW  Elec       q    Type
REMARK                         _______ _______ _______ _____ _____    ______ ____
ROOT
ATOM      1  C   LIG    1       24.410 -25.410   6.360  0.00  0.00    +0.218 C 
ATOM      2  N   LIG    1       25.569 -24.856   6.402  0.00  0.00    -0.159 NA
ATOM      3  C   LIG    1       25.640 -23.528   6.705  0.00  0.00    +0.354 C 
ATOM      4  O   LIG    1       26.671 -23.037   7.157  0.00  0.00    -0.244 OA
ATOM      5  N   LIG    1       24.506 -22.771   6.522  0.00  0.00    -0.256 N 
ATOM      6  C   LIG    1       23.348 -23.458   6.672  0.00  0.00    +0.209 C 
ATOM      7  N   LIG    1       23.263 -24.740   6.619  0.00  0.00    -0.205 NA
ENDROOT
BRANCH   5   8
ATOM      8  C1* LIG    1       24.577 -21.341   6.787  0.00  0.00    +0.228 C 
ATOM      9  O4* LIG    1       23.261 -20.762   6.633  0.00  0.00    -0.348 OA
ATOM     10  C4* LIG    1       23.242 -19.955   5.433  0.00  0.00    +0.175 C 
ATOM     11  C3* LIG    1       24.534 -20.253   4.689  0.00  0.00    +0.150 C 
ATOM     12  C2* LIG    1       25.473 -20.555   5.832  0.00  0.00    +0.088 C 
BRANCH  11  13
ATOM     13  O3* LIG    1       24.980 -19.176   3.885  0.00  0.00    -0.389 OA
ATOM     14  H3* LIG    1       25.112 -19.488   2.972  0.00  0.00    +0.210 HD
ENDBRANCH  11  13
BRANCH  10  15
ATOM     15  C5* LIG    1       21.995 -20.288   4.620  0.00  0.00    +0.190 C 
BRANCH  15  16
ATOM     16  O5* LIG    1       21.575 -21.622   4.908  0.00  0.00    -0.392 OA
ATOM     17  H5* LIG    1       21.470 -21.674   5.876  0.00  0.00    +0.209 HD
ENDBRANCH  15  16
ENDBRANCH  10  15
ENDBRANCH   5   8
BRANCH   1  18
ATOM     18  N   LIG    1       24.299 -26.727   6.074  0.00  0.00    -0.327 N 
ATOM     19  H   LIG    1       23.354 -27.008   5.849  0.00  0.00    +0.145 HD
ATOM     20  H   LIG    1       25.006 -27.057   5.429  0.00  0.00    +0.145 HD
ENDBRANCH   1  18
TORSDOF 5
ENDMDL
MODEL 9
REMARK VINA RESULT:      -6.2      3.231      5.454
REMARK  Name = *****
REMARK                            x       y       z     vdW  Elec       q    Type
REMARK                         _______ _______ _______ _____ _____    ______ ____
ROOT
ATOM      1  C   LIG    1       29.308 -21.156   7.696  0.00  0.00    +0.218 C 
ATOM      2  N   LIG    1       29.250 -20.543   6.568  0.00  0.00    -0.159 NA
ATOM      3  C   LIG    1       28.037 -20.090   6.140  0.00  0.00    +0.354 C 
ATOM      4  O   LIG    1       27.956 -19.175   5.324  0.00  0.00    -0.244 OA
ATOM      5  N   LIG    1       26.913 -20.666   6.684  0.00  0.00    -0.256 N 
ATOM      6  C   LIG    1       27.079 -21.123   7.949  0.00  0.00    +0.209 C 
ATOM      7  N   LIG    1       28.224 -21.355   8.484  0.00  0.00    -0.205 NA
ENDROOT
BRANCH   5   8
ATOM      8  C1* LIG    1       25.609 -20.234   6.201  0.00  0.00    +0.228 C 
ATOM      9  O4* LIG    1       24.575 -20.872   6.985  0.00  0.00    -0.348 OA
ATOM     10  C4* LIG    1       23.911 -21.862   6.166  0.00  0.00    +0.175 C 
ATOM     11  C3* LIG    1       24.740 -22.007   4.901  0.00  0.00    +0.150 C 
ATOM     12  C2* LIG    1       25.304 -20.614   4.752  0.00  0.00    +0.088 C 
BRANCH  11  13
ATOM     13  O3* LIG    1       23.981 -22.412   3.776  0.00  0.00    -0.389 OA
ATOM     14  H3* LIG    1       23.495 -21.645   3.423  0.00  0.00    +0.210 HD
ENDBRANCH  11  13
BRANCH  10  15
ATOM     15  C5* LIG    1       23.786 -23.164   6.951  0.00  0.00    +0.190 C 
BRANCH  15  16
ATOM     16  O5* LIG    1       22.833 -24.018   6.319  0.00  0.00    -0.392 OA
ATOM     17  H5* LIG    1       23.291 -24.860   6.144  0.00  0.00    +0.209 HD
ENDBRANCH  15  16
ENDBRANCH  10  15
ENDBRANCH   5   8
BRANCH   1  18
ATOM     18  N   LIG    1       30.494 -21.611   8.160  0.00  0.00    -0.327 N 
ATOM     19  H   LIG    1       30.792 -22.469   7.715  0.00  0.00    +0.145 HD
ATOM     20  H   LIG    1       31.203 -20.893   8.217  0.00  0.00    +0.145 HD
ENDBRANCH   1  18
TORSDOF 5
ENDMDL
