MODEL 1
REMARK VINA RESULT:      -6.9      0.000      0.000
REMARK  Name = *****
REMARK                            x       y       z     vdW  Elec       q    Type
REMARK                         _______ _______ _______ _____ _____    ______ ____
ROOT
ATOM      1  C   LIG    1       25.036 -23.862   7.220  0.00  0.00    +0.132 C 
ENDROOT
BRANCH   1   2
ATOM      2  C   LIG    1       25.321 -25.310   6.691  0.00  0.00    +0.173 C 
ATOM      3  C   LIG    1       25.770 -25.410   5.222  0.00  0.00    +0.176 C 
ATOM      4  C   LIG    1       25.877 -26.861   4.739  0.00  0.00    +0.177 C 
ATOM      5  C   LIG    1       24.602 -27.638   5.054  0.00  0.00    +0.184 C 
ATOM      6  C   LIG    1       24.223 -27.484   6.544  0.00  0.00    +0.207 C 
ATOM      7  O   LIG    1       24.100 -26.083   6.861  0.00  0.00    -0.356 OA
BRANCH   3   8
ATOM      8  O   LIG    1       24.871 -24.715   4.340  0.00  0.00    -0.387 OA
ATOM      9  H   LIG    1       24.052 -25.242   4.268  0.00  0.00    +0.210 HD
ENDBRANCH   3   8
BRANCH   4  10
ATOM     10  O   LIG    1       26.088 -26.887   3.313  0.00  0.00    -0.387 OA
ATOM     11  H   LIG    1       25.992 -27.826   3.047  0.00  0.00    +0.210 HD
ENDBRANCH   4  10
BRANCH   5  12
ATOM     12  O   LIG    1       24.729 -28.994   4.620  0.00  0.00    -0.386 OA
ATOM     13  H   LIG    1       24.101 -29.085   3.873  0.00  0.00    +0.210 HD
ENDBRANCH   5  12
BRANCH   6  14
ATOM     14  S   LIG    1       25.328 -28.370   7.718  0.00  0.00    -0.131 S 
ATOM     15  C   LIG    1       24.309 -29.830   8.057  0.00  0.00    +0.087 C 
ENDBRANCH   6  14
ENDBRANCH   1   2
BRANCH   1  17
ATOM     16  C   LIG    1       26.795 -22.106   7.795  0.00  0.00    +0.231 C 
ATOM     17  N   LIG    1       26.236 -23.010   6.920  0.00  0.00    -0.306 N 
ATOM     18  H   LIG    1       26.416 -22.841   5.934  0.00  0.00    +0.149 HD
ATOM     19  O   LIG    1       26.346 -21.943   8.937  0.00  0.00    -0.274 OA
BRANCH  16  24
ATOM     20  C   LIG    1       28.986 -19.074   7.271  0.00  0.00    +0.005 C 
ATOM     21  C   LIG    1       28.927 -19.684   5.871  0.00  0.00    +0.088 C 
ATOM     22  N   LIG    1       27.851 -20.700   5.915  0.00  0.00    -0.294 NA
ATOM     23  C   LIG    1       26.547 -20.051   5.745  0.00  0.00    +0.105 C 
ATOM     24  C   LIG    1       28.030 -21.334   7.259  0.00  0.00    +0.143 C 
ATOM     25  C   LIG    1       28.508 -20.207   8.186  0.00  0.00    +0.033 C 
BRANCH  20  26
ATOM     26  C   LIG    1       30.365 -18.525   7.659  0.00  0.00    +0.004 C 
BRANCH  26  28
ATOM     27  C   LIG    1       30.327 -17.222   9.825  0.00  0.00    +0.004 C 
ATOM     28  C   LIG    1       30.612 -18.565   9.170  0.00  0.00    -0.003 C 
ENDBRANCH  26  28
ENDBRANCH  20  26
ENDBRANCH  16  24
ENDBRANCH   1  17
BRANCH   1  29
ATOM     29  C   LIG    1       23.785 -23.169   6.610  0.00  0.00    +0.134 C 
ATOM     30  C   LIG    1       23.287 -21.901   7.297  0.00  0.00    +0.039 C 
BRANCH  29  31
ATOM     31  O   LIG    1       22.709 -24.114   6.576  0.00  0.00    -0.390 OA
ATOM     32  H   LIG    1       22.989 -24.883   7.104  0.00  0.00    +0.210 HD
ENDBRANCH  29  31
ENDBRANCH   1  29
TORSDOF 11
ENDMDL
MODEL 2
REMARK VINA RESULT:      -6.7      3.194      8.922
REMARK  Name = *****
REMARK                            x       y       z     vdW  Elec       q    Type
REMARK                         _______ _______ _______ _____ _____    ______ ____
ROOT
ATOM      1  C   LIG    1       26.150 -26.545   6.680  0.00  0.00    +0.132 C 
ENDROOT
BRANCH   1   2
ATOM      2  C   LIG    1       25.419 -25.189   6.974  0.00  0.00    +0.173 C 
ATOM      3  C   LIG    1       23.908 -25.165   6.679  0.00  0.00    +0.176 C 
ATOM      4  C   LIG    1       23.301 -23.768   6.842  0.00  0.00    +0.177 C 
ATOM      5  C   LIG    1       24.103 -22.728   6.065  0.00  0.00    +0.184 C 
ATOM      6  C   LIG    1       25.604 -22.820   6.418  0.00  0.00    +0.207 C 
ATOM      7  O   LIG    1       26.069 -24.163   6.172  0.00  0.00    -0.356 OA
BRANCH   3   8
ATOM      8  O   LIG    1       23.617 -25.621   5.346  0.00  0.00    -0.387 OA
ATOM      9  H   LIG    1       24.320 -25.293   4.754  0.00  0.00    +0.210 HD
ENDBRANCH   3   8
BRANCH   4  10
ATOM     10  O   LIG    1       21.946 -23.763   6.349  0.00  0.00    -0.387 OA
ATOM     11  H   LIG    1       21.563 -24.625   6.615  0.00  0.00    +0.210 HD
ENDBRANCH   4  10
BRANCH   5  12
ATOM     12  O   LIG    1       23.538 -21.428   6.249  0.00  0.00    -0.386 OA
ATOM     13  H   LIG    1       24.267 -20.878   6.603  0.00  0.00    +0.210 HD
ENDBRANCH   5  12
BRANCH   6  14
ATOM     14  S   LIG    1       26.039 -22.231   8.106  0.00  0.00    -0.131 S 
ATOM     15  C   LIG    1       26.593 -20.550   7.710  0.00  0.00    +0.087 C 
ENDBRANCH   6  14
ENDBRANCH   1   2
BRANCH   1  17
ATOM     16  C   LIG    1       25.342 -28.579   7.991  0.00  0.00    +0.231 C 
ATOM     17  N   LIG    1       25.192 -27.664   6.972  0.00  0.00    -0.306 N 
ATOM     18  H   LIG    1       24.620 -27.965   6.188  0.00  0.00    +0.149 HD
ATOM     19  O   LIG    1       26.296 -28.526   8.778  0.00  0.00    -0.274 OA
BRANCH  16  24
ATOM     20  C   LIG    1       23.643 -31.640   9.408  0.00  0.00    +0.005 C 
ATOM     21  C   LIG    1       23.548 -31.879   7.901  0.00  0.00    +0.088 C 
ATOM     22  N   LIG    1       24.448 -30.885   7.275  0.00  0.00    -0.294 NA
ATOM     23  C   LIG    1       25.832 -31.370   7.318  0.00  0.00    +0.105 C 
ATOM     24  C   LIG    1       24.225 -29.652   8.094  0.00  0.00    +0.143 C 
ATOM     25  C   LIG    1       23.970 -30.148   9.525  0.00  0.00    +0.033 C 
BRANCH  20  26
ATOM     26  C   LIG    1       22.385 -32.047  10.189  0.00  0.00    +0.004 C 
BRANCH  26  28
ATOM     27  C   LIG    1       20.160 -30.885  10.488  0.00  0.00    +0.004 C 
ATOM     28  C   LIG    1       21.650 -30.844  10.788  0.00  0.00    -0.003 C 
ENDBRANCH  26  28
ENDBRANCH  20  26
ENDBRANCH  16  24
ENDBRANCH   1  17
BRANCH   1  29
ATOM     29  C   LIG    1       26.667 -26.717   5.224  0.00  0.00    +0.134 C 
ATOM     30  C   LIG    1       26.015 -27.805   4.377  0.00  0.00    +0.039 C 
BRANCH  29  31
ATOM     31  O   LIG    1       28.078 -26.964   5.265  0.00  0.00    -0.390 OA
ATOM     32  H   LIG    1       28.332 -27.307   4.389  0.00  0.00    +0.210 HD
ENDBRANCH  29  31
ENDBRANCH   1  29
TORSDOF 11
ENDMDL
MODEL 3
REMARK VINA RESULT:      -6.5      2.247      3.624
REMARK  Name = *****
REMARK                            x       y       z     vdW  Elec       q    Type
REMARK                         _______ _______ _______ _____ _____    ______ ____
ROOT
ATOM      1  C   LIG    1       25.135 -20.567   5.070  0.00  0.00    +0.132 C 
ENDROOT
BRANCH   1   2
ATOM      2  C   LIG    1       24.563 -22.021   5.203  0.00  0.00    +0.173 C 
ATOM      3  C   LIG    1       23.265 -22.158   6.017  0.00  0.00    +0.176 C 
ATOM      4  C   LIG    1       22.858 -23.620   6.232  0.00  0.00    +0.177 C 
ATOM      5  C   LIG    1       24.025 -24.438   6.779  0.00  0.00    +0.184 C 
ATOM      6  C   LIG    1       25.285 -24.244   5.906  0.00  0.00    +0.207 C 
ATOM      7  O   LIG    1       25.595 -22.838   5.825  0.00  0.00    -0.356 OA
BRANCH   3   8
ATOM      8  O   LIG    1       23.377 -21.536   7.310  0.00  0.00    -0.387 OA
ATOM      9  H   LIG    1       24.105 -20.887   7.270  0.00  0.00    +0.210 HD
ENDBRANCH   3   8
BRANCH   4  10
ATOM     10  O   LIG    1       21.768 -23.691   7.173  0.00  0.00    -0.387 OA
ATOM     11  H   LIG    1       21.212 -22.904   6.996  0.00  0.00    +0.210 HD
ENDBRANCH   4  10
BRANCH   5  12
ATOM     12  O   LIG    1       23.636 -25.803   6.948  0.00  0.00    -0.386 OA
ATOM     13  H   LIG    1       23.047 -25.999   6.190  0.00  0.00    +0.210 HD
ENDBRANCH   5  12
BRANCH   6  14
ATOM     14  S   LIG    1       25.205 -25.037   4.248  0.00  0.00    -0.131 S 
ATOM     15  C   LIG    1       25.852 -26.679   4.661  0.00  0.00    +0.087 C 
ENDBRANCH   6  14
ENDBRANCH   1   2
BRANCH   1  17
ATOM     16  C   LIG    1       26.895 -20.359   6.904  0.00  0.00    +0.231 C 
ATOM     17  N   LIG    1       26.544 -20.570   5.589  0.00  0.00    -0.306 N 
ATOM     18  H   LIG    1       27.263 -20.368   4.901  0.00  0.00    +0.149 HD
ATOM     19  O   LIG    1       26.044 -20.169   7.783  0.00  0.00    -0.274 OA
BRANCH  16  24
ATOM     20  C   LIG    1       30.197 -18.977   8.111  0.00  0.00    +0.005 C 
ATOM     21  C   LIG    1       30.577 -19.619   6.777  0.00  0.00    +0.088 C 
ATOM     22  N   LIG    1       29.299 -19.920   6.092  0.00  0.00    -0.294 NA
ATOM     23  C   LIG    1       28.794 -18.714   5.428  0.00  0.00    +0.105 C 
ATOM     24  C   LIG    1       28.418 -20.402   7.202  0.00  0.00    +0.143 C 
ATOM     25  C   LIG    1       28.831 -19.591   8.439  0.00  0.00    +0.033 C 
BRANCH  20  26
ATOM     26  C   LIG    1       31.234 -19.181   9.224  0.00  0.00    +0.004 C 
BRANCH  26  28
ATOM     27  C   LIG    1       30.577 -17.380  10.871  0.00  0.00    +0.004 C 
ATOM     28  C   LIG    1       31.640 -17.868   9.899  0.00  0.00    -0.003 C 
ENDBRANCH  26  28
ENDBRANCH  20  26
ENDBRANCH  16  24
ENDBRANCH   1  17
BRANCH   1  29
ATOM     29  C   LIG    1       25.152 -19.992   3.625  0.00  0.00    +0.134 C 
ATOM     30  C   LIG    1       25.003 -18.481   3.475  0.00  0.00    +0.039 C 
BRANCH  29  31
ATOM     31  O   LIG    1       24.112 -20.624   2.869  0.00  0.00    -0.390 OA
ATOM     32  H   LIG    1       23.783 -21.369   3.403  0.00  0.00    +0.210 HD
ENDBRANCH  29  31
ENDBRANCH   1  29
TORSDOF 11
ENDMDL
MODEL 4
REMARK VINA RESULT:      -6.4      4.669      7.579
REMARK  Name = *****
REMARK                            x       y       z     vdW  Elec       q    Type
REMARK                         _______ _______ _______ _____ _____    ______ ____
ROOT
ATOM      1  C   LIG    1       24.346 -30.936   6.557  0.00  0.00    +0.132 C 
ENDROOT
BRANCH   1   2
ATOM      2  C   LIG    1       24.552 -31.713   7.903  0.00  0.00    +0.173 C 
ATOM      3  C   LIG    1       23.476 -31.485   8.979  0.00  0.00    +0.176 C 
ATOM      4  C   LIG    1       23.830 -32.152  10.314  0.00  0.00    +0.177 C 
ATOM      5  C   LIG    1       25.242 -31.777  10.756  0.00  0.00    +0.184 C 
ATOM      6  C   LIG    1       26.256 -32.036   9.620  0.00  0.00    +0.207 C 
ATOM      7  O   LIG    1       25.845 -31.315   8.441  0.00  0.00    -0.356 OA
BRANCH   3   8
ATOM      8  O   LIG    1       23.259 -30.084   9.229  0.00  0.00    -0.387 OA
ATOM      9  H   LIG    1       22.324 -29.884   9.028  0.00  0.00    +0.210 HD
ENDBRANCH   3   8
BRANCH   4  10
ATOM     10  O   LIG    1       22.903 -31.727  11.333  0.00  0.00    -0.387 OA
ATOM     11  H   LIG    1       22.387 -32.525  11.573  0.00  0.00    +0.210 HD
ENDBRANCH   4  10
BRANCH   5  12
ATOM     12  O   LIG    1       25.563 -32.427  11.987  0.00  0.00    -0.386 OA
ATOM     13  H   LIG    1       24.979 -32.014  12.657  0.00  0.00    +0.210 HD
ENDBRANCH   5  12
BRANCH   6  14
ATOM     14  S   LIG    1       26.588 -33.811   9.271  0.00  0.00    -0.131 S 
ATOM     15  C   LIG    1       27.798 -33.639   7.932  0.00  0.00    +0.087 C 
ENDBRANCH   6  14
ENDBRANCH   1   2
BRANCH   1  17
ATOM     16  C   LIG    1       24.307 -28.453   5.975  0.00  0.00    +0.231 C 
ATOM     17  N   LIG    1       24.688 -29.494   6.793  0.00  0.00    -0.306 N 
ATOM     18  H   LIG    1       25.511 -29.328   7.365  0.00  0.00    +0.149 HD
ATOM     19  O   LIG    1       23.614 -28.638   4.966  0.00  0.00    -0.274 OA
BRANCH  16  24
ATOM     20  C   LIG    1       25.132 -24.798   5.497  0.00  0.00    +0.005 C 
ATOM     21  C   LIG    1       26.342 -25.309   6.279  0.00  0.00    +0.088 C 
ATOM     22  N   LIG    1       26.251 -26.786   6.250  0.00  0.00    -0.294 NA
ATOM     23  C   LIG    1       26.790 -27.293   4.984  0.00  0.00    +0.105 C 
ATOM     24  C   LIG    1       24.786 -27.045   6.420  0.00  0.00    +0.143 C 
ATOM     25  C   LIG    1       24.076 -25.891   5.696  0.00  0.00    +0.033 C 
BRANCH  20  26
ATOM     26  C   LIG    1       24.649 -23.406   5.925  0.00  0.00    +0.004 C 
BRANCH  26  28
ATOM     27  C   LIG    1       23.027 -22.118   7.375  0.00  0.00    +0.004 C 
ATOM     28  C   LIG    1       23.342 -23.455   6.722  0.00  0.00    -0.003 C 
ENDBRANCH  26  28
ENDBRANCH  20  26
ENDBRANCH  16  24
ENDBRANCH   1  17
BRANCH   1  29
ATOM     29  C   LIG    1       25.198 -31.447   5.361  0.00  0.00    +0.134 C 
ATOM     30  C   LIG    1       25.022 -32.907   4.954  0.00  0.00    +0.039 C 
BRANCH  29  31
ATOM     31  O   LIG    1       26.582 -31.227   5.657  0.00  0.00    -0.390 OA
ATOM     32  H   LIG    1       26.791 -30.316   5.380  0.00  0.00    +0.210 HD
ENDBRANCH  29  31
ENDBRANCH   1  29
TORSDOF 11
ENDMDL
MODEL 5
REMARK VINA RESULT:      -6.0      5.001      8.259
REMARK  Name = *****
REMARK                            x       y       z     vdW  Elec       q    Type
REMARK                         _______ _______ _______ _____ _____    ______ ____
ROOT
ATOM      1  C   LIG    1       25.695 -30.675   9.507  0.00  0.00    +0.132 C 
ENDROOT
BRANCH   1   2
ATOM      2  C   LIG    1       25.711 -30.097  10.965  0.00  0.00    +0.173 C 
ATOM      3  C   LIG    1       26.496 -28.788  11.158  0.00  0.00    +0.176 C 
ATOM      4  C   LIG    1       26.594 -28.374  12.631  0.00  0.00    +0.177 C 
ATOM      5  C   LIG    1       27.092 -29.531  13.492  0.00  0.00    +0.184 C 
ATOM      6  C   LIG    1       26.253 -30.802  13.238  0.00  0.00    +0.207 C 
ATOM      7  O   LIG    1       26.282 -31.118  11.831  0.00  0.00    -0.356 OA
BRANCH   3   8
ATOM      8  O   LIG    1       27.833 -28.885  10.636  0.00  0.00    -0.387 OA
ATOM      9  H   LIG    1       27.808 -28.630   9.693  0.00  0.00    +0.210 HD
ENDBRANCH   3   8
BRANCH   4  10
ATOM     10  O   LIG    1       27.513 -27.272  12.768  0.00  0.00    -0.387 OA
ATOM     11  H   LIG    1       28.395 -27.629  12.530  0.00  0.00    +0.210 HD
ENDBRANCH   4  10
BRANCH   5  12
ATOM     12  O   LIG    1       27.153 -29.135  14.865  0.00  0.00    -0.386 OA
ATOM     13  H   LIG    1       26.979 -28.171  14.863  0.00  0.00    +0.210 HD
ENDBRANCH   5  12
BRANCH   6  14
ATOM     14  S   LIG    1       24.538 -30.742  13.903  0.00  0.00    -0.131 S 
ATOM     15  C   LIG    1       23.947 -32.372  13.374  0.00  0.00    +0.087 C 
ENDBRANCH   6  14
ENDBRANCH   1   2
BRANCH   1  17
ATOM     16  C   LIG    1       25.039 -29.000   7.699  0.00  0.00    +0.231 C 
ATOM     17  N   LIG    1       25.970 -29.547   8.555  0.00  0.00    -0.306 N 
ATOM     18  H   LIG    1       26.942 -29.430   8.285  0.00  0.00    +0.149 HD
ATOM     19  O   LIG    1       23.868 -29.398   7.670  0.00  0.00    -0.274 OA
BRANCH  16  24
ATOM     20  C   LIG    1       24.702 -26.081   5.326  0.00  0.00    +0.005 C 
ATOM     21  C   LIG    1       25.818 -26.902   4.680  0.00  0.00    +0.088 C 
ATOM     22  N   LIG    1       25.812 -28.211   5.372  0.00  0.00    -0.294 NA
ATOM     23  C   LIG    1       24.773 -29.073   4.799  0.00  0.00    +0.105 C 
ATOM     24  C   LIG    1       25.558 -27.844   6.802  0.00  0.00    +0.143 C 
ATOM     25  C   LIG    1       24.622 -26.627   6.756  0.00  0.00    +0.033 C 
BRANCH  20  26
ATOM     26  C   LIG    1       24.926 -24.564   5.270  0.00  0.00    +0.004 C 
BRANCH  26  28
ATOM     27  C   LIG    1       23.417 -23.172   6.745  0.00  0.00    +0.004 C 
ATOM     28  C   LIG    1       24.752 -23.892   6.635  0.00  0.00    -0.003 C 
ENDBRANCH  26  28
ENDBRANCH  20  26
ENDBRANCH  16  24
ENDBRANCH   1  17
BRANCH   1  29
ATOM     29  C   LIG    1       26.728 -31.804   9.232  0.00  0.00    +0.134 C 
ATOM     30  C   LIG    1       27.011 -32.148   7.773  0.00  0.00    +0.039 C 
BRANCH  29  31
ATOM     31  O   LIG    1       26.293 -32.996   9.899  0.00  0.00    -0.390 OA
ATOM     32  H   LIG    1       26.439 -32.857  10.852  0.00  0.00    +0.210 HD
ENDBRANCH  29  31
ENDBRANCH   1  29
TORSDOF 11
ENDMDL
MODEL 6
REMARK VINA RESULT:      -5.9      4.673      7.681
REMARK  Name = *****
REMARK                            x       y       z     vdW  Elec       q    Type
REMARK                         _______ _______ _______ _____ _____    ______ ____
ROOT
ATOM      1  C   LIG    1       24.532 -30.812   7.573  0.00  0.00    +0.132 C 
ENDROOT
BRANCH   1   2
ATOM      2  C   LIG    1       24.378 -31.217   9.080  0.00  0.00    +0.173 C 
ATOM      3  C   LIG    1       23.572 -32.500   9.349  0.00  0.00    +0.176 C 
ATOM      4  C   LIG    1       23.335 -32.741  10.844  0.00  0.00    +0.177 C 
ATOM      5  C   LIG    1       22.765 -31.495  11.516  0.00  0.00    +0.184 C 
ATOM      6  C   LIG    1       23.632 -30.257  11.195  0.00  0.00    +0.207 C 
ATOM      7  O   LIG    1       23.735 -30.106   9.765  0.00  0.00    -0.356 OA
BRANCH   3   8
ATOM      8  O   LIG    1       22.289 -32.471   8.697  0.00  0.00    -0.387 OA
ATOM      9  H   LIG    1       21.601 -32.407   9.387  0.00  0.00    +0.210 HD
ENDBRANCH   3   8
BRANCH   4  10
ATOM     10  O   LIG    1       22.401 -33.825  11.022  0.00  0.00    -0.387 OA
ATOM     11  H   LIG    1       22.556 -34.164  11.928  0.00  0.00    +0.210 HD
ENDBRANCH   4  10
BRANCH   5  12
ATOM     12  O   LIG    1       22.575 -31.730  12.913  0.00  0.00    -0.386 OA
ATOM     13  H   LIG    1       22.227 -30.887  13.271  0.00  0.00    +0.210 HD
ENDBRANCH   5  12
BRANCH   6  14
ATOM     14  S   LIG    1       25.277 -30.231  12.019  0.00  0.00    -0.131 S 
ATOM     15  C   LIG    1       25.905 -28.648  11.399  0.00  0.00    +0.087 C 
ENDBRANCH   6  14
ENDBRANCH   1   2
BRANCH   1  17
ATOM     16  C   LIG    1       24.399 -28.479   6.550  0.00  0.00    +0.231 C 
ATOM     17  N   LIG    1       24.860 -29.348   7.514  0.00  0.00    -0.306 N 
ATOM     18  H   LIG    1       25.718 -29.073   7.984  0.00  0.00    +0.149 HD
ATOM     19  O   LIG    1       23.639 -28.852   5.647  0.00  0.00    -0.274 OA
BRANCH  16  24
ATOM     20  C   LIG    1       24.976 -24.929   5.395  0.00  0.00    +0.005 C 
ATOM     21  C   LIG    1       26.314 -25.286   6.040  0.00  0.00    +0.088 C 
ATOM     22  N   LIG    1       26.286 -26.751   6.251  0.00  0.00    -0.294 NA
ATOM     23  C   LIG    1       26.641 -27.440   5.006  0.00  0.00    +0.105 C 
ATOM     24  C   LIG    1       24.878 -27.009   6.693  0.00  0.00    +0.143 C 
ATOM     25  C   LIG    1       24.014 -25.998   5.926  0.00  0.00    +0.033 C 
BRANCH  20  26
ATOM     26  C   LIG    1       24.504 -23.496   5.680  0.00  0.00    +0.004 C 
BRANCH  26  28
ATOM     27  C   LIG    1       23.255 -21.988   7.278  0.00  0.00    +0.004 C 
ATOM     28  C   LIG    1       23.513 -23.423   6.845  0.00  0.00    -0.003 C 
ENDBRANCH  26  28
ENDBRANCH  20  26
ENDBRANCH  16  24
ENDBRANCH   1  17
BRANCH   1  29
ATOM     29  C   LIG    1       25.628 -31.586   6.787  0.00  0.00    +0.134 C 
ATOM     30  C   LIG    1       26.818 -32.110   7.586  0.00  0.00    +0.039 C 
BRANCH  29  31
ATOM     31  O   LIG    1       26.125 -30.741   5.742  0.00  0.00    -0.390 OA
ATOM     32  H   LIG    1       26.072 -31.252   4.914  0.00  0.00    +0.210 HD
ENDBRANCH  29  31
ENDBRANCH   1  29
TORSDOF 11
ENDMDL
MODEL 7
REMARK VINA RESULT:      -5.9      3.355      7.852
REMARK  Name = *****
REMARK                            x       y       z     vdW  Elec       q    Type
REMARK                         _______ _______ _______ _____ _____    ______ ____
ROOT
ATOM      1  C   LIG    1       24.657 -22.267   7.326  0.00  0.00    +0.132 C 
ENDROOT
BRANCH   1   2
ATOM      2  C   LIG    1       24.505 -21.084   6.307  0.00  0.00    +0.173 C 
ATOM      3  C   LIG    1       23.061 -20.674   5.968  0.00  0.00    +0.176 C 
ATOM      4  C   LIG    1       22.996 -19.623   4.854  0.00  0.00    +0.177 C 
ATOM      5  C   LIG    1       23.821 -20.056   3.645  0.00  0.00    +0.184 C 
ATOM      6  C   LIG    1       25.252 -20.450   4.072  0.00  0.00    +0.207 C 
ATOM      7  O   LIG    1       25.181 -21.479   5.080  0.00  0.00    -0.356 OA
BRANCH   3   8
ATOM      8  O   LIG    1       22.267 -21.802   5.559  0.00  0.00    -0.387 OA
ATOM      9  H   LIG    1       21.567 -21.477   4.961  0.00  0.00    +0.210 HD
ENDBRANCH   3   8
BRANCH   4  10
ATOM     10  O   LIG    1       21.629 -19.440   4.434  0.00  0.00    -0.387 OA
ATOM     11  H   LIG    1       21.081 -19.901   5.105  0.00  0.00    +0.210 HD
ENDBRANCH   4  10
BRANCH   5  12
ATOM     12  O   LIG    1       23.769 -19.054   2.627  0.00  0.00    -0.386 OA
ATOM     13  H   LIG    1       24.704 -18.819   2.448  0.00  0.00    +0.210 HD
ENDBRANCH   5  12
BRANCH   6  14
ATOM     14  S   LIG    1       26.320 -19.043   4.587  0.00  0.00    -0.131 S 
ATOM     15  C   LIG    1       27.622 -19.951   5.462  0.00  0.00    +0.087 C 
ENDBRANCH   6  14
ENDBRANCH   1   2
BRANCH   1  17
ATOM     16  C   LIG    1       23.968 -24.525   6.359  0.00  0.00    +0.231 C 
ATOM     17  N   LIG    1       24.899 -23.527   6.546  0.00  0.00    -0.306 N 
ATOM     18  H   LIG    1       25.872 -23.808   6.461  0.00  0.00    +0.149 HD
ATOM     19  O   LIG    1       22.821 -24.439   6.818  0.00  0.00    -0.274 OA
BRANCH  16  24
ATOM     20  C   LIG    1       25.223 -28.047   5.826  0.00  0.00    +0.005 C 
ATOM     21  C   LIG    1       26.147 -27.229   4.925  0.00  0.00    +0.088 C 
ATOM     22  N   LIG    1       25.929 -25.813   5.297  0.00  0.00    -0.294 NA
ATOM     23  C   LIG    1       26.715 -25.485   6.491  0.00  0.00    +0.105 C 
ATOM     24  C   LIG    1       24.450 -25.739   5.520  0.00  0.00    +0.143 C 
ATOM     25  C   LIG    1       24.053 -27.099   6.113  0.00  0.00    +0.033 C 
BRANCH  20  26
ATOM     26  C   LIG    1       24.781 -29.386   5.221  0.00  0.00    +0.004 C 
BRANCH  26  28
ATOM     27  C   LIG    1       25.939 -31.633   5.262  0.00  0.00    +0.004 C 
ATOM     28  C   LIG    1       25.197 -30.586   6.078  0.00  0.00    -0.003 C 
ENDBRANCH  26  28
ENDBRANCH  20  26
ENDBRANCH  16  24
ENDBRANCH   1  17
BRANCH   1  29
ATOM     29  C   LIG    1       25.808 -22.108   8.359  0.00  0.00    +0.134 C 
ATOM     30  C   LIG    1       25.959 -20.745   9.029  0.00  0.00    +0.039 C 
BRANCH  29  31
ATOM     31  O   LIG    1       27.048 -22.433   7.717  0.00  0.00    -0.390 OA
ATOM     32  H   LIG    1       27.671 -22.696   8.419  0.00  0.00    +0.210 HD
ENDBRANCH  29  31
ENDBRANCH   1  29
TORSDOF 11
ENDMDL
MODEL 8
REMARK VINA RESULT:      -5.8      4.525      8.123
REMARK  Name = *****
REMARK                            x       y       z     vdW  Elec       q    Type
REMARK                         _______ _______ _______ _____ _____    ______ ____
ROOT
ATOM      1  C   LIG    1       25.675 -31.008   9.044  0.00  0.00    +0.132 C 
ENDROOT
BRANCH   1   2
ATOM      2  C   LIG    1       25.399 -30.580  10.527  0.00  0.00    +0.173 C 
ATOM      3  C   LIG    1       23.942 -30.715  11.003  0.00  0.00    +0.176 C 
ATOM      4  C   LIG    1       23.726 -30.133  12.404  0.00  0.00    +0.177 C 
ATOM      5  C   LIG    1       24.284 -28.716  12.501  0.00  0.00    +0.184 C 
ATOM      6  C   LIG    1       25.746 -28.669  12.005  0.00  0.00    +0.207 C 
ATOM      7  O   LIG    1       25.810 -29.191  10.661  0.00  0.00    -0.356 OA
BRANCH   3   8
ATOM      8  O   LIG    1       23.025 -30.062  10.107  0.00  0.00    -0.387 OA
ATOM      9  H   LIG    1       22.859 -30.661   9.354  0.00  0.00    +0.210 HD
ENDBRANCH   3   8
BRANCH   4  10
ATOM     10  O   LIG    1       22.317 -30.092  12.705  0.00  0.00    -0.387 OA
ATOM     11  H   LIG    1       22.015 -29.195  12.445  0.00  0.00    +0.210 HD
ENDBRANCH   4  10
BRANCH   5  12
ATOM     12  O   LIG    1       24.097 -28.199  13.820  0.00  0.00    -0.386 OA
ATOM     13  H   LIG    1       23.647 -27.337  13.698  0.00  0.00    +0.210 HD
ENDBRANCH   5  12
BRANCH   6  14
ATOM     14  S   LIG    1       26.967 -29.474  13.122  0.00  0.00    -0.131 S 
ATOM     15  C   LIG    1       27.608 -28.010  13.979  0.00  0.00    +0.087 C 
ENDBRANCH   6  14
ENDBRANCH   1   2
BRANCH   1  17
ATOM     16  C   LIG    1       24.988 -29.090   7.509  0.00  0.00    +0.231 C 
ATOM     17  N   LIG    1       25.938 -29.767   8.241  0.00  0.00    -0.306 N 
ATOM     18  H   LIG    1       26.901 -29.634   7.946  0.00  0.00    +0.149 HD
ATOM     19  O   LIG    1       23.806 -29.457   7.479  0.00  0.00    -0.274 OA
BRANCH  16  24
ATOM     20  C   LIG    1       24.668 -26.071   5.262  0.00  0.00    +0.005 C 
ATOM     21  C   LIG    1       25.942 -26.736   4.741  0.00  0.00    +0.088 C 
ATOM     22  N   LIG    1       25.980 -28.081   5.358  0.00  0.00    -0.294 NA
ATOM     23  C   LIG    1       25.126 -29.001   4.600  0.00  0.00    +0.105 C 
ATOM     24  C   LIG    1       25.498 -27.833   6.754  0.00  0.00    +0.143 C 
ATOM     25  C   LIG    1       24.454 -26.714   6.637  0.00  0.00    +0.033 C 
BRANCH  20  26
ATOM     26  C   LIG    1       24.737 -24.539   5.315  0.00  0.00    +0.004 C 
BRANCH  26  28
ATOM     27  C   LIG    1       26.005 -23.357   7.155  0.00  0.00    +0.004 C 
ATOM     28  C   LIG    1       24.687 -23.996   6.746  0.00  0.00    -0.003 C 
ENDBRANCH  26  28
ENDBRANCH  20  26
ENDBRANCH  16  24
ENDBRANCH   1  17
BRANCH   1  29
ATOM     29  C   LIG    1       26.874 -31.977   8.846  0.00  0.00    +0.134 C 
ATOM     30  C   LIG    1       27.075 -32.563   7.452  0.00  0.00    +0.039 C 
BRANCH  29  31
ATOM     31  O   LIG    1       26.746 -33.061   9.775  0.00  0.00    -0.390 OA
ATOM     32  H   LIG    1       27.644 -33.283  10.079  0.00  0.00    +0.210 HD
ENDBRANCH  29  31
ENDBRANCH   1  29
TORSDOF 11
ENDMDL
MODEL 9
REMARK VINA RESULT:      -5.8      6.683      9.618
REMARK  Name = *****
REMARK                            x       y       z     vdW  Elec       q    Type
REMARK                         _______ _______ _______ _____ _____    ______ ____
ROOT
ATOM      1  C   LIG    1       25.379 -30.445  12.009  0.00  0.00    +0.132 C 
ENDROOT
BRANCH   1   2
ATOM      2  C   LIG    1       23.923 -30.288  12.570  0.00  0.00    +0.173 C 
ATOM      3  C   LIG    1       23.064 -31.565  12.565  0.00  0.00    +0.176 C 
ATOM      4  C   LIG    1       21.613 -31.296  12.980  0.00  0.00    +0.177 C 
ATOM      5  C   LIG    1       21.018 -30.142  12.177  0.00  0.00    +0.184 C 
ATOM      6  C   LIG    1       21.941 -28.905  12.234  0.00  0.00    +0.207 C 
ATOM      7  O   LIG    1       23.257 -29.271  11.770  0.00  0.00    -0.356 OA
BRANCH   3   8
ATOM      8  O   LIG    1       23.044 -32.191  11.270  0.00  0.00    -0.387 OA
ATOM      9  H   LIG    1       23.820 -32.781  11.208  0.00  0.00    +0.210 HD
ENDBRANCH   3   8
BRANCH   4  10
ATOM     10  O   LIG    1       20.813 -32.473  12.750  0.00  0.00    -0.387 OA
ATOM     11  H   LIG    1       21.393 -33.100  12.269  0.00  0.00    +0.210 HD
ENDBRANCH   4  10
BRANCH   5  12
ATOM     12  O   LIG    1       19.675 -29.889  12.594  0.00  0.00    -0.386 OA
ATOM     13  H   LIG    1       19.138 -29.932  11.776  0.00  0.00    +0.210 HD
ENDBRANCH   5  12
BRANCH   6  14
ATOM     14  S   LIG    1       21.989 -28.051  13.863  0.00  0.00    -0.131 S 
ATOM     15  C   LIG    1       22.759 -26.486  13.367  0.00  0.00    +0.087 C 
ENDBRANCH   6  14
ENDBRANCH   1   2
BRANCH   1  17
ATOM     16  C   LIG    1       26.115 -30.862   9.602  0.00  0.00    +0.231 C 
ATOM     17  N   LIG    1       25.338 -30.201  10.528  0.00  0.00    -0.306 N 
ATOM     18  H   LIG    1       24.993 -29.288  10.245  0.00  0.00    +0.149 HD
ATOM     19  O   LIG    1       26.912 -31.749   9.936  0.00  0.00    -0.274 OA
BRANCH  16  24
ATOM     20  C   LIG    1       24.235 -29.316   6.714  0.00  0.00    +0.005 C 
ATOM     21  C   LIG    1       24.720 -30.638   6.121  0.00  0.00    +0.088 C 
ATOM     22  N   LIG    1       25.205 -31.443   7.264  0.00  0.00    -0.294 NA
ATOM     23  C   LIG    1       24.073 -32.097   7.929  0.00  0.00    +0.105 C 
ATOM     24  C   LIG    1       25.901 -30.435   8.125  0.00  0.00    +0.143 C 
ATOM     25  C   LIG    1       25.101 -29.134   7.965  0.00  0.00    +0.033 C 
BRANCH  20  26
ATOM     26  C   LIG    1       24.313 -28.127   5.747  0.00  0.00    +0.004 C 
BRANCH  26  28
ATOM     27  C   LIG    1       24.169 -25.625   6.077  0.00  0.00    +0.004 C 
ATOM     28  C   LIG    1       24.955 -26.891   6.383  0.00  0.00    -0.003 C 
ENDBRANCH  26  28
ENDBRANCH  20  26
ENDBRANCH  16  24
ENDBRANCH   1  17
BRANCH   1  29
ATOM     29  C   LIG    1       26.434 -29.485  12.629  0.00  0.00    +0.134 C 
ATOM     30  C   LIG    1       26.565 -28.099  12.006  0.00  0.00    +0.039 C 
BRANCH  29  31
ATOM     31  O   LIG    1       27.717 -30.123  12.582  0.00  0.00    -0.390 OA
ATOM     32  H   LIG    1       28.374 -29.459  12.859  0.00  0.00    +0.210 HD
ENDBRANCH  29  31
ENDBRANCH   1  29
TORSDOF 11
ENDMDL
