MODEL 1
REMARK VINA RESULT:      -6.9      0.000      0.000
REMARK  Name = *****
REMARK                            x       y       z     vdW  Elec       q    Type
REMARK                         _______ _______ _______ _____ _____    ______ ____
ROOT
ATOM      1  CA  PHE A  1       29.708 -18.930   6.751  0.00  0.00    +0.165 C 
ENDROOT
BRANCH   1   2
ATOM      2  N   PHE A  1       29.875 -18.155   5.481  0.00  0.00    -0.318 NA
ATOM      3  H1  PHE A  1       28.957 -18.105   5.025  0.00  0.00    +0.119 HD
ATOM      4  H2  PHE A  1       30.061 -17.182   5.745  0.00  0.00    +0.119 HD
ENDBRANCH   1   2
BRANCH   1   5
ATOM      5  C   PHE A  1       31.095 -19.042   7.413  0.00  0.00    +0.322 C 
ATOM      6  O   PHE A  1       31.781 -18.116   7.803  0.00  0.00    -0.249 OA
BRANCH   5   7
ATOM      7  OXT PHE A  1       31.490 -20.345   7.473  0.00  0.00    -0.479 OA
ATOM      8  HXT PHE A  1       31.139 -20.775   6.653  0.00  0.00    +0.295 HD
ENDBRANCH   5   7
ENDBRANCH   1   5
BRANCH   1   9
ATOM      9  CB  PHE A  1       29.094 -20.324   6.545  0.00  0.00    +0.065 C 
BRANCH   9  10
ATOM     10  CG  PHE A  1       27.625 -20.421   6.897  0.00  0.00    -0.045 A 
ATOM     11  CD2 PHE A  1       27.206 -20.523   8.232  0.00  0.00    +0.003 A 
ATOM     12  CE2 PHE A  1       25.851 -20.677   8.542  0.00  0.00    +0.000 A 
ATOM     13  CZ  PHE A  1       24.902 -20.730   7.523  0.00  0.00    +0.000 A 
ATOM     14  CE1 PHE A  1       25.305 -20.620   6.195  0.00  0.00    +0.000 A 
ATOM     15  CD1 PHE A  1       26.657 -20.468   5.882  0.00  0.00    +0.003 A 
ENDBRANCH   9  10
ENDBRANCH   1   9
TORSDOF 5
ENDMDL
MODEL 2
REMARK VINA RESULT:      -6.7      2.144      2.602
REMARK  Name = *****
REMARK                            x       y       z     vdW  Elec       q    Type
REMARK                         _______ _______ _______ _____ _____    ______ ____
ROOT
ATOM      1  CA  PHE A  1       30.844 -20.225   8.840  0.00  0.00    +0.165 C 
ENDROOT
BRANCH   1   2
ATOM      2  N   PHE A  1       32.021 -19.361   9.167  0.00  0.00    -0.318 NA
ATOM      3  H1  PHE A  1       31.795 -18.835  10.018  0.00  0.00    +0.119 HD
ATOM      4  H2  PHE A  1       32.777 -19.984   9.469  0.00  0.00    +0.119 HD
ENDBRANCH   1   2
BRANCH   1   5
ATOM      5  C   PHE A  1       31.207 -21.672   9.226  0.00  0.00    +0.322 C 
ATOM      6  O   PHE A  1       30.729 -22.311  10.143  0.00  0.00    -0.249 OA
BRANCH   5   7
ATOM      7  OXT PHE A  1       32.192 -22.148   8.413  0.00  0.00    -0.479 OA
ATOM      8  HXT PHE A  1       32.996 -21.608   8.613  0.00  0.00    +0.295 HD
ENDBRANCH   5   7
ENDBRANCH   1   5
BRANCH   1   9
ATOM      9  CB  PHE A  1       30.416 -20.150   7.365  0.00  0.00    +0.065 C 
BRANCH   9  10
ATOM     10  CG  PHE A  1       28.922 -20.237   7.140  0.00  0.00    -0.045 A 
ATOM     11  CD2 PHE A  1       28.060 -20.674   8.157  0.00  0.00    +0.003 A 
ATOM     12  CE2 PHE A  1       26.690 -20.812   7.917  0.00  0.00    +0.000 A 
ATOM     13  CZ  PHE A  1       26.166 -20.513   6.662  0.00  0.00    +0.000 A 
ATOM     14  CE1 PHE A  1       27.009 -20.068   5.647  0.00  0.00    +0.000 A 
ATOM     15  CD1 PHE A  1       28.379 -19.932   5.883  0.00  0.00    +0.003 A 
ENDBRANCH   9  10
ENDBRANCH   1   9
TORSDOF 5
ENDMDL
MODEL 3
REMARK VINA RESULT:      -6.6      3.624      4.870
REMARK  Name = *****
REMARK                            x       y       z     vdW  Elec       q    Type
REMARK                         _______ _______ _______ _____ _____    ______ ____
ROOT
ATOM      1  CA  PHE A  1       25.844 -22.084   7.164  0.00  0.00    +0.165 C 
ENDROOT
BRANCH   1   2
ATOM      2  N   PHE A  1       25.880 -23.573   7.305  0.00  0.00    -0.318 NA
ATOM      3  H1  PHE A  1       26.001 -23.789   8.301  0.00  0.00    +0.119 HD
ATOM      4  H2  PHE A  1       24.936 -23.917   7.102  0.00  0.00    +0.119 HD
ENDBRANCH   1   2
BRANCH   1   5
ATOM      5  C   PHE A  1       26.678 -21.487   8.314  0.00  0.00    +0.322 C 
ATOM      6  O   PHE A  1       27.893 -21.452   8.376  0.00  0.00    -0.249 OA
BRANCH   5   7
ATOM      7  OXT PHE A  1       25.863 -21.026   9.304  0.00  0.00    -0.479 OA
ATOM      8  HXT PHE A  1       26.166 -21.469  10.135  0.00  0.00    +0.295 HD
ENDBRANCH   5   7
ENDBRANCH   1   5
BRANCH   1   9
ATOM      9  CB  PHE A  1       24.422 -21.499   7.168  0.00  0.00    +0.065 C 
BRANCH   9  10
ATOM     10  CG  PHE A  1       24.085 -20.660   5.955  0.00  0.00    -0.045 A 
ATOM     11  CD2 PHE A  1       25.030 -20.436   4.944  0.00  0.00    +0.003 A 
ATOM     12  CE2 PHE A  1       24.729 -19.606   3.860  0.00  0.00    +0.000 A 
ATOM     13  CZ  PHE A  1       23.481 -18.994   3.774  0.00  0.00    +0.000 A 
ATOM     14  CE1 PHE A  1       22.529 -19.216   4.766  0.00  0.00    +0.000 A 
ATOM     15  CD1 PHE A  1       22.829 -20.043   5.851  0.00  0.00    +0.003 A 
ENDBRANCH   9  10
ENDBRANCH   1   9
TORSDOF 5
ENDMDL
MODEL 4
REMARK VINA RESULT:      -6.6      2.769      3.784
REMARK  Name = *****
REMARK                            x       y       z     vdW  Elec       q    Type
REMARK                         _______ _______ _______ _____ _____    ______ ____
ROOT
ATOM      1  CA  PHE A  1       31.229 -17.301   8.987  0.00  0.00    +0.165 C 
ENDROOT
BRANCH   1   2
ATOM      2  N   PHE A  1       32.435 -16.415   8.934  0.00  0.00    -0.318 NA
ATOM      3  H1  PHE A  1       32.380 -15.867   8.068  0.00  0.00    +0.119 HD
ATOM      4  H2  PHE A  1       32.320 -15.708   9.668  0.00  0.00    +0.119 HD
ENDBRANCH   1   2
BRANCH   1   5
ATOM      5  C   PHE A  1       30.724 -17.314  10.442  0.00  0.00    +0.322 C 
ATOM      6  O   PHE A  1       30.313 -16.355  11.067  0.00  0.00    -0.249 OA
BRANCH   5   7
ATOM      7  OXT PHE A  1       30.837 -18.563  10.975  0.00  0.00    -0.479 OA
ATOM      8  HXT PHE A  1       31.739 -18.606  11.381  0.00  0.00    +0.295 HD
ENDBRANCH   5   7
ENDBRANCH   1   5
BRANCH   1   9
ATOM      9  CB  PHE A  1       31.497 -18.733   8.495  0.00  0.00    +0.065 C 
BRANCH   9  10
ATOM     10  CG  PHE A  1       30.409 -19.308   7.613  0.00  0.00    -0.045 A 
ATOM     11  CD2 PHE A  1       29.894 -18.578   6.531  0.00  0.00    +0.003 A 
ATOM     12  CE2 PHE A  1       28.845 -19.091   5.763  0.00  0.00    +0.000 A 
ATOM     13  CZ  PHE A  1       28.302 -20.338   6.064  0.00  0.00    +0.000 A 
ATOM     14  CE1 PHE A  1       28.812 -21.077   7.129  0.00  0.00    +0.000 A 
ATOM     15  CD1 PHE A  1       29.858 -20.565   7.900  0.00  0.00    +0.003 A 
ENDBRANCH   9  10
ENDBRANCH   1   9
TORSDOF 5
ENDMDL
MODEL 5
REMARK VINA RESULT:      -6.6      5.114      6.035
REMARK  Name = *****
REMARK                            x       y       z     vdW  Elec       q    Type
REMARK                         _______ _______ _______ _____ _____    ______ ____
ROOT
ATOM      1  CA  PHE A  1       24.263 -23.408   6.274  0.00  0.00    +0.165 C 
ENDROOT
BRANCH   1   2
ATOM      2  N   PHE A  1       23.168 -24.383   6.575  0.00  0.00    -0.318 NA
ATOM      3  H1  PHE A  1       22.773 -24.135   7.488  0.00  0.00    +0.119 HD
ATOM      4  H2  PHE A  1       22.401 -24.183   5.924  0.00  0.00    +0.119 HD
ENDBRANCH   1   2
BRANCH   1   5
ATOM      5  C   PHE A  1       25.573 -23.991   6.835  0.00  0.00    +0.322 C 
ATOM      6  O   PHE A  1       25.845 -25.172   6.942  0.00  0.00    -0.249 OA
BRANCH   5   7
ATOM      7  OXT PHE A  1       26.401 -22.991   7.251  0.00  0.00    -0.479 OA
ATOM      8  HXT PHE A  1       26.967 -22.764   6.472  0.00  0.00    +0.295 HD
ENDBRANCH   5   7
ENDBRANCH   1   5
BRANCH   1   9
ATOM      9  CB  PHE A  1       24.009 -22.002   6.844  0.00  0.00    +0.065 C 
BRANCH   9  10
ATOM     10  CG  PHE A  1       23.871 -20.916   5.799  0.00  0.00    -0.045 A 
ATOM     11  CD2 PHE A  1       22.723 -20.113   5.737  0.00  0.00    +0.003 A 
ATOM     12  CE2 PHE A  1       22.579 -19.156   4.728  0.00  0.00    +0.000 A 
ATOM     13  CZ  PHE A  1       23.579 -18.990   3.773  0.00  0.00    +0.000 A 
ATOM     14  CE1 PHE A  1       24.728 -19.775   3.830  0.00  0.00    +0.000 A 
ATOM     15  CD1 PHE A  1       24.874 -20.733   4.835  0.00  0.00    +0.003 A 
ENDBRANCH   9  10
ENDBRANCH   1   9
TORSDOF 5
ENDMDL
MODEL 6
REMARK VINA RESULT:      -6.5      1.575      2.162
REMARK  Name = *****
REMARK                            x       y       z     vdW  Elec       q    Type
REMARK                         _______ _______ _______ _____ _____    ______ ____
ROOT
ATOM      1  CA  PHE A  1       29.609 -20.484   7.222  0.00  0.00    +0.165 C 
ENDROOT
BRANCH   1   2
ATOM      2  N   PHE A  1       30.455 -21.397   8.054  0.00  0.00    -0.318 NA
ATOM      3  H1  PHE A  1       30.064 -21.404   9.002  0.00  0.00    +0.119 HD
ATOM      4  H2  PHE A  1       30.284 -22.351   7.721  0.00  0.00    +0.119 HD
ENDBRANCH   1   2
BRANCH   1   5
ATOM      5  C   PHE A  1       30.512 -19.341   6.720  0.00  0.00    +0.322 C 
ATOM      6  O   PHE A  1       30.165 -18.405   6.025  0.00  0.00    -0.249 OA
BRANCH   5   7
ATOM      7  OXT PHE A  1       31.798 -19.536   7.128  0.00  0.00    -0.479 OA
ATOM      8  HXT PHE A  1       31.849 -19.179   8.050  0.00  0.00    +0.295 HD
ENDBRANCH   5   7
ENDBRANCH   1   5
BRANCH   1   9
ATOM      9  CB  PHE A  1       28.391 -19.920   7.971  0.00  0.00    +0.065 C 
BRANCH   9  10
ATOM     10  CG  PHE A  1       27.054 -20.300   7.372  0.00  0.00    -0.045 A 
ATOM     11  CD2 PHE A  1       26.850 -20.277   5.985  0.00  0.00    +0.003 A 
ATOM     12  CE2 PHE A  1       25.593 -20.567   5.446  0.00  0.00    +0.000 A 
ATOM     13  CZ  PHE A  1       24.528 -20.885   6.287  0.00  0.00    +0.000 A 
ATOM     14  CE1 PHE A  1       24.721 -20.921   7.666  0.00  0.00    +0.000 A 
ATOM     15  CD1 PHE A  1       25.975 -20.630   8.206  0.00  0.00    +0.003 A 
ENDBRANCH   9  10
ENDBRANCH   1   9
TORSDOF 5
ENDMDL
MODEL 7
REMARK VINA RESULT:      -6.4      5.697      6.544
REMARK  Name = *****
REMARK                            x       y       z     vdW  Elec       q    Type
REMARK                         _______ _______ _______ _____ _____    ______ ____
ROOT
ATOM      1  CA  PHE A  1       24.657 -23.350   6.160  0.00  0.00    +0.165 C 
ENDROOT
BRANCH   1   2
ATOM      2  N   PHE A  1       24.766 -23.353   4.667  0.00  0.00    -0.318 NA
ATOM      3  H1  PHE A  1       24.347 -24.226   4.327  0.00  0.00    +0.119 HD
ATOM      4  H2  PHE A  1       24.126 -22.632   4.318  0.00  0.00    +0.119 HD
ENDBRANCH   1   2
BRANCH   1   5
ATOM      5  C   PHE A  1       23.421 -24.188   6.539  0.00  0.00    +0.322 C 
ATOM      6  O   PHE A  1       22.334 -23.754   6.868  0.00  0.00    -0.249 OA
BRANCH   5   7
ATOM      7  OXT PHE A  1       23.717 -25.518   6.499  0.00  0.00    -0.479 OA
ATOM      8  HXT PHE A  1       24.444 -25.655   7.157  0.00  0.00    +0.295 HD
ENDBRANCH   5   7
ENDBRANCH   1   5
BRANCH   1   9
ATOM      9  CB  PHE A  1       24.560 -21.940   6.767  0.00  0.00    +0.065 C 
BRANCH   9  10
ATOM     10  CG  PHE A  1       24.150 -20.862   5.787  0.00  0.00    -0.045 A 
ATOM     11  CD2 PHE A  1       22.833 -20.381   5.748  0.00  0.00    +0.003 A 
ATOM     12  CE2 PHE A  1       22.449 -19.432   4.796  0.00  0.00    +0.000 A 
ATOM     13  CZ  PHE A  1       23.377 -18.952   3.875  0.00  0.00    +0.000 A 
ATOM     14  CE1 PHE A  1       24.691 -19.413   3.909  0.00  0.00    +0.000 A 
ATOM     15  CD1 PHE A  1       25.076 -20.363   4.858  0.00  0.00    +0.003 A 
ENDBRANCH   9  10
ENDBRANCH   1   9
TORSDOF 5
ENDMDL
MODEL 8
REMARK VINA RESULT:      -6.3      2.700      3.859
REMARK  Name = *****
REMARK                            x       y       z     vdW  Elec       q    Type
REMARK                         _______ _______ _______ _____ _____    ______ ____
ROOT
ATOM      1  CA  PHE A  1       27.055 -20.533   6.763  0.00  0.00    +0.165 C 
ENDROOT
BRANCH   1   2
ATOM      2  N   PHE A  1       28.218 -20.404   5.830  0.00  0.00    -0.318 NA
ATOM      3  H1  PHE A  1       29.075 -20.499   6.386  0.00  0.00    +0.119 HD
ATOM      4  H2  PHE A  1       28.225 -21.243   5.240  0.00  0.00    +0.119 HD
ENDBRANCH   1   2
BRANCH   1   5
ATOM      5  C   PHE A  1       27.570 -21.185   8.061  0.00  0.00    +0.322 C 
ATOM      6  O   PHE A  1       28.731 -21.431   8.328  0.00  0.00    -0.249 OA
BRANCH   5   7
ATOM      7  OXT PHE A  1       26.528 -21.501   8.881  0.00  0.00    -0.479 OA
ATOM      8  HXT PHE A  1       26.439 -22.486   8.841  0.00  0.00    +0.295 HD
ENDBRANCH   5   7
ENDBRANCH   1   5
BRANCH   1   9
ATOM      9  CB  PHE A  1       25.885 -21.341   6.180  0.00  0.00    +0.065 C 
BRANCH   9  10
ATOM     10  CG  PHE A  1       24.812 -20.504   5.517  0.00  0.00    -0.045 A 
ATOM     11  CD2 PHE A  1       23.527 -20.404   6.070  0.00  0.00    +0.003 A 
ATOM     12  CE2 PHE A  1       22.526 -19.681   5.416  0.00  0.00    +0.000 A 
ATOM     13  CZ  PHE A  1       22.798 -19.049   4.204  0.00  0.00    +0.000 A 
ATOM     14  CE1 PHE A  1       24.072 -19.132   3.650  0.00  0.00    +0.000 A 
ATOM     15  CD1 PHE A  1       25.074 -19.856   4.301  0.00  0.00    +0.003 A 
ENDBRANCH   9  10
ENDBRANCH   1   9
TORSDOF 5
ENDMDL
MODEL 9
REMARK VINA RESULT:      -6.3      2.449      3.109
REMARK  Name = *****
REMARK                            x       y       z     vdW  Elec       q    Type
REMARK                         _______ _______ _______ _____ _____    ______ ____
ROOT
ATOM      1  CA  PHE A  1       28.157 -20.988   7.302  0.00  0.00    +0.165 C 
ENDROOT
BRANCH   1   2
ATOM      2  N   PHE A  1       29.278 -21.086   8.289  0.00  0.00    -0.318 NA
ATOM      3  H1  PHE A  1       30.158 -21.065   7.763  0.00  0.00    +0.119 HD
ATOM      4  H2  PHE A  1       29.295 -20.204   8.813  0.00  0.00    +0.119 HD
ENDBRANCH   1   2
BRANCH   1   5
ATOM      5  C   PHE A  1       28.583 -19.986   6.212  0.00  0.00    +0.322 C 
ATOM      6  O   PHE A  1       29.452 -19.141   6.315  0.00  0.00    -0.249 OA
BRANCH   5   7
ATOM      7  OXT PHE A  1       27.812 -20.137   5.098  0.00  0.00    -0.479 OA
ATOM      8  HXT PHE A  1       28.437 -20.131   4.331  0.00  0.00    +0.295 HD
ENDBRANCH   5   7
ENDBRANCH   1   5
BRANCH   1   9
ATOM      9  CB  PHE A  1       26.818 -20.567   7.930  0.00  0.00    +0.065 C 
BRANCH   9  10
ATOM     10  CG  PHE A  1       25.652 -21.468   7.585  0.00  0.00    -0.045 A 
ATOM     11  CD2 PHE A  1       25.847 -22.824   7.289  0.00  0.00    +0.003 A 
ATOM     12  CE2 PHE A  1       24.772 -23.632   6.909  0.00  0.00    +0.000 A 
ATOM     13  CZ  PHE A  1       23.490 -23.093   6.823  0.00  0.00    +0.000 A 
ATOM     14  CE1 PHE A  1       23.280 -21.750   7.124  0.00  0.00    +0.000 A 
ATOM     15  CD1 PHE A  1       24.354 -20.941   7.501  0.00  0.00    +0.003 A 
ENDBRANCH   9  10
ENDBRANCH   1   9
TORSDOF 5
ENDMDL
