MODEL 1
REMARK VINA RESULT:      -6.8      0.000      0.000
REMARK  Name = *****
REMARK                            x       y       z     vdW  Elec       q    Type
REMARK                         _______ _______ _______ _____ _____    ______ ____
ROOT
ATOM      1  C1* LIG    1       25.488 -20.459   6.266  0.00  0.00    +0.256 C 
ATOM      2  C2* LIG    1       25.171 -21.182   4.949  0.00  0.00    +0.195 C 
ATOM      3  C3* LIG    1       23.661 -21.344   5.060  0.00  0.00    +0.178 C 
ATOM      4  C4* LIG    1       23.456 -21.589   6.552  0.00  0.00    +0.177 C 
ATOM      5  O4* LIG    1       24.524 -20.896   7.243  0.00  0.00    -0.346 OA
ENDROOT
BRANCH   1  10
ATOM      6  C   LIG    1       29.253 -21.128   7.738  0.00  0.00    +0.218 C 
ATOM      7  N   LIG    1       29.154 -20.394   6.686  0.00  0.00    -0.159 NA
ATOM      8  C   LIG    1       27.923 -20.105   6.186  0.00  0.00    +0.354 C 
ATOM      9  O   LIG    1       27.817 -19.364   5.209  0.00  0.00    -0.244 OA
ATOM     10  N   LIG    1       26.825 -20.651   6.796  0.00  0.00    -0.254 N 
ATOM     11  C   LIG    1       27.028 -21.373   7.923  0.00  0.00    +0.209 C 
ATOM     12  N   LIG    1       28.188 -21.614   8.418  0.00  0.00    -0.205 NA
BRANCH   6  13
ATOM     13  N   LIG    1       30.483 -21.424   8.220  0.00  0.00    -0.327 N 
ATOM     14  H   LIG    1       30.451 -21.866   9.129  0.00  0.00    +0.145 HD
ATOM     15  H   LIG    1       31.082 -21.878   7.543  0.00  0.00    +0.145 HD
ENDBRANCH   6  13
ENDBRANCH   1  10
BRANCH   2  16
ATOM     16  O2* LIG    1       25.528 -20.412   3.799  0.00  0.00    -0.385 OA
ATOM     17  H2* LIG    1       25.729 -21.069   3.097  0.00  0.00    +0.210 HD
ENDBRANCH   2  16
BRANCH   3  18
ATOM     18  O3* LIG    1       23.065 -20.095   4.657  0.00  0.00    -0.386 OA
ATOM     19  H3* LIG    1       23.587 -19.750   3.909  0.00  0.00    +0.210 HD
ENDBRANCH   3  18
BRANCH   4  20
ATOM     20  C5* LIG    1       23.489 -23.077   6.914  0.00  0.00    +0.190 C 
BRANCH  20  21
ATOM     21  O5* LIG    1       22.240 -23.680   6.588  0.00  0.00    -0.392 OA
ATOM     22  H5* LIG    1       21.562 -23.005   6.791  0.00  0.00    +0.209 HD
ENDBRANCH  20  21
ENDBRANCH   4  20
TORSDOF 6
ENDMDL
MODEL 2
REMARK VINA RESULT:      -6.7      1.549      3.090
REMARK  Name = *****
REMARK                            x       y       z     vdW  Elec       q    Type
REMARK                         _______ _______ _______ _____ _____    ______ ____
ROOT
ATOM      1  C1* LIG    1       25.126 -21.432   6.177  0.00  0.00    +0.256 C 
ATOM      2  C2* LIG    1       23.892 -20.662   6.671  0.00  0.00    +0.195 C 
ATOM      3  C3* LIG    1       22.926 -20.884   5.515  0.00  0.00    +0.178 C 
ATOM      4  C4* LIG    1       23.846 -20.867   4.297  0.00  0.00    +0.177 C 
ATOM      5  O4* LIG    1       25.137 -21.355   4.739  0.00  0.00    -0.346 OA
ENDROOT
BRANCH   1  10
ATOM      6  C   LIG    1       28.703 -20.044   7.615  0.00  0.00    +0.218 C 
ATOM      7  N   LIG    1       27.994 -20.774   8.404  0.00  0.00    -0.159 NA
ATOM      8  C   LIG    1       26.821 -21.296   7.957  0.00  0.00    +0.354 C 
ATOM      9  O   LIG    1       26.162 -22.035   8.688  0.00  0.00    -0.244 OA
ATOM     10  N   LIG    1       26.407 -20.984   6.690  0.00  0.00    -0.254 N 
ATOM     11  C   LIG    1       27.242 -20.246   5.921  0.00  0.00    +0.209 C 
ATOM     12  N   LIG    1       28.368 -19.785   6.329  0.00  0.00    -0.205 NA
BRANCH   6  13
ATOM     13  N   LIG    1       29.861 -19.515   8.073  0.00  0.00    -0.327 N 
ATOM     14  H   LIG    1       29.963 -18.536   7.840  0.00  0.00    +0.145 HD
ATOM     15  H   LIG    1       30.059 -19.750   9.037  0.00  0.00    +0.145 HD
ENDBRANCH   6  13
ENDBRANCH   1  10
BRANCH   2  16
ATOM     16  O2* LIG    1       23.369 -21.186   7.893  0.00  0.00    -0.385 OA
ATOM     17  H2* LIG    1       22.886 -20.441   8.312  0.00  0.00    +0.210 HD
ENDBRANCH   2  16
BRANCH   3  18
ATOM     18  O3* LIG    1       22.334 -22.186   5.695  0.00  0.00    -0.386 OA
ATOM     19  H3* LIG    1       21.546 -22.230   5.121  0.00  0.00    +0.210 HD
ENDBRANCH   3  18
BRANCH   4  20
ATOM     20  C5* LIG    1       24.004 -19.467   3.697  0.00  0.00    +0.190 C 
BRANCH  20  21
ATOM     21  O5* LIG    1       25.362 -19.256   3.320  0.00  0.00    -0.392 OA
ATOM     22  H5* LIG    1       25.459 -19.679   2.444  0.00  0.00    +0.209 HD
ENDBRANCH  20  21
ENDBRANCH   4  20
TORSDOF 6
ENDMDL
MODEL 3
REMARK VINA RESULT:      -6.3      2.937      6.009
REMARK  Name = *****
REMARK                            x       y       z     vdW  Elec       q    Type
REMARK                         _______ _______ _______ _____ _____    ______ ____
ROOT
ATOM      1  C1* LIG    1       28.390 -19.992   8.166  0.00  0.00    +0.256 C 
ATOM      2  C2* LIG    1       29.487 -21.055   8.002  0.00  0.00    +0.195 C 
ATOM      3  C3* LIG    1       30.740 -20.193   8.061  0.00  0.00    +0.178 C 
ATOM      4  C4* LIG    1       30.304 -18.911   7.356  0.00  0.00    +0.177 C 
ATOM      5  O4* LIG    1       28.880 -18.770   7.585  0.00  0.00    -0.346 OA
ENDROOT
BRANCH   1  10
ATOM      6  C   LIG    1       24.792 -21.004   6.486  0.00  0.00    +0.218 C 
ATOM      7  N   LIG    1       24.842 -20.927   7.769  0.00  0.00    -0.159 NA
ATOM      8  C   LIG    1       26.001 -20.551   8.373  0.00  0.00    +0.354 C 
ATOM      9  O   LIG    1       26.042 -20.427   9.596  0.00  0.00    -0.244 OA
ATOM     10  N   LIG    1       27.097 -20.312   7.588  0.00  0.00    -0.254 N 
ATOM     11  C   LIG    1       26.935 -20.374   6.246  0.00  0.00    +0.209 C 
ATOM     12  N   LIG    1       25.830 -20.692   5.674  0.00  0.00    -0.205 NA
BRANCH   6  13
ATOM     13  N   LIG    1       23.639 -21.395   5.894  0.00  0.00    -0.327 N 
ATOM     14  H   LIG    1       23.770 -21.679   4.932  0.00  0.00    +0.145 HD
ATOM     15  H   LIG    1       23.093 -22.032   6.459  0.00  0.00    +0.145 HD
ENDBRANCH   6  13
ENDBRANCH   1  10
BRANCH   2  16
ATOM     16  O2* LIG    1       29.473 -22.026   9.050  0.00  0.00    -0.385 OA
ATOM     17  H2* LIG    1       29.549 -21.512   9.883  0.00  0.00    +0.210 HD
ENDBRANCH   2  16
BRANCH   3  18
ATOM     18  O3* LIG    1       31.024 -19.943   9.453  0.00  0.00    -0.386 OA
ATOM     19  H3* LIG    1       31.947 -20.211   9.616  0.00  0.00    +0.210 HD
ENDBRANCH   3  18
BRANCH   4  20
ATOM     20  C5* LIG    1       30.582 -18.943   5.851  0.00  0.00    +0.190 C 
BRANCH  20  21
ATOM     21  O5* LIG    1       29.709 -18.038   5.181  0.00  0.00    -0.392 OA
ATOM     22  H5* LIG    1       28.857 -18.511   5.094  0.00  0.00    +0.209 HD
ENDBRANCH  20  21
ENDBRANCH   4  20
TORSDOF 6
ENDMDL
MODEL 4
REMARK VINA RESULT:      -6.3      3.358      5.335
REMARK  Name = *****
REMARK                            x       y       z     vdW  Elec       q    Type
REMARK                         _______ _______ _______ _____ _____    ______ ____
ROOT
ATOM      1  C1* LIG    1       24.903 -22.740   7.151  0.00  0.00    +0.256 C 
ATOM      2  C2* LIG    1       26.274 -22.147   7.511  0.00  0.00    +0.195 C 
ATOM      3  C3* LIG    1       25.990 -20.656   7.385  0.00  0.00    +0.178 C 
ATOM      4  C4* LIG    1       25.014 -20.595   6.213  0.00  0.00    +0.177 C 
ATOM      5  O4* LIG    1       24.275 -21.842   6.217  0.00  0.00    -0.346 OA
ENDROOT
BRANCH   1  10
ATOM      6  C   LIG    1       25.000 -26.563   5.680  0.00  0.00    +0.218 C 
ATOM      7  N   LIG    1       23.851 -26.090   6.017  0.00  0.00    -0.159 NA
ATOM      8  C   LIG    1       23.761 -24.810   6.467  0.00  0.00    +0.354 C 
ATOM      9  O   LIG    1       22.660 -24.335   6.745  0.00  0.00    -0.244 OA
ATOM     10  N   LIG    1       24.912 -24.080   6.595  0.00  0.00    -0.254 N 
ATOM     11  C   LIG    1       26.066 -24.647   6.172  0.00  0.00    +0.209 C 
ATOM     12  N   LIG    1       26.146 -25.843   5.711  0.00  0.00    -0.205 NA
BRANCH   6  13
ATOM     13  N   LIG    1       25.083 -27.843   5.248  0.00  0.00    -0.327 N 
ATOM     14  H   LIG    1       25.014 -28.514   6.001  0.00  0.00    +0.145 HD
ATOM     15  H   LIG    1       24.500 -28.036   4.445  0.00  0.00    +0.145 HD
ENDBRANCH   6  13
ENDBRANCH   1  10
BRANCH   2  16
ATOM     16  O2* LIG    1       26.689 -22.486   8.835  0.00  0.00    -0.385 OA
ATOM     17  H2* LIG    1       26.156 -21.915   9.431  0.00  0.00    +0.210 HD
ENDBRANCH   2  16
BRANCH   3  18
ATOM     18  O3* LIG    1       25.354 -20.235   8.608  0.00  0.00    -0.386 OA
ATOM     19  H3* LIG    1       26.060 -20.024   9.247  0.00  0.00    +0.210 HD
ENDBRANCH   3  18
BRANCH   4  20
ATOM     20  C5* LIG    1       25.720 -20.421   4.866  0.00  0.00    +0.190 C 
BRANCH  20  21
ATOM     21  O5* LIG    1       27.069 -20.015   5.079  0.00  0.00    -0.392 OA
ATOM     22  H5* LIG    1       27.446 -20.672   5.696  0.00  0.00    +0.209 HD
ENDBRANCH  20  21
ENDBRANCH   4  20
TORSDOF 6
ENDMDL
MODEL 5
REMARK VINA RESULT:      -6.3      2.953      4.955
REMARK  Name = *****
REMARK                            x       y       z     vdW  Elec       q    Type
REMARK                         _______ _______ _______ _____ _____    ______ ____
ROOT
ATOM      1  C1* LIG    1       29.010 -20.422   7.548  0.00  0.00    +0.256 C 
ATOM      2  C2* LIG    1       27.524 -20.136   7.814  0.00  0.00    +0.195 C 
ATOM      3  C3* LIG    1       26.898 -20.602   6.506  0.00  0.00    +0.178 C 
ATOM      4  C4* LIG    1       27.948 -20.211   5.470  0.00  0.00    +0.177 C 
ATOM      5  O4* LIG    1       29.235 -20.265   6.134  0.00  0.00    -0.346 OA
ENDROOT
BRANCH   1  10
ATOM      6  C   LIG    1       31.603 -18.089   9.698  0.00  0.00    +0.218 C 
ATOM      7  N   LIG    1       31.933 -19.318   9.512  0.00  0.00    -0.159 NA
ATOM      8  C   LIG    1       31.128 -20.121   8.766  0.00  0.00    +0.354 C 
ATOM      9  O   LIG    1       31.461 -21.284   8.542  0.00  0.00    -0.244 OA
ATOM     10  N   LIG    1       29.960 -19.602   8.277  0.00  0.00    -0.254 N 
ATOM     11  C   LIG    1       29.721 -18.286   8.487  0.00  0.00    +0.209 C 
ATOM     12  N   LIG    1       30.500 -17.518   9.159  0.00  0.00    -0.205 NA
BRANCH   6  13
ATOM     13  N   LIG    1       32.401 -17.301  10.456  0.00  0.00    -0.327 N 
ATOM     14  H   LIG    1       31.932 -16.465  10.778  0.00  0.00    +0.145 HD
ATOM     15  H   LIG    1       32.911 -17.809  11.167  0.00  0.00    +0.145 HD
ENDBRANCH   6  13
ENDBRANCH   1  10
BRANCH   2  16
ATOM     16  O2* LIG    1       27.013 -20.873   8.927  0.00  0.00    -0.385 OA
ATOM     17  H2* LIG    1       26.038 -20.767   8.884  0.00  0.00    +0.210 HD
ENDBRANCH   2  16
BRANCH   3  18
ATOM     18  O3* LIG    1       26.760 -22.035   6.584  0.00  0.00    -0.386 OA
ATOM     19  H3* LIG    1       26.090 -22.300   5.926  0.00  0.00    +0.210 HD
ENDBRANCH   3  18
BRANCH   4  20
ATOM     20  C5* LIG    1       27.721 -18.807   4.902  0.00  0.00    +0.190 C 
BRANCH  20  21
ATOM     21  O5* LIG    1       28.965 -18.120   4.806  0.00  0.00    -0.392 OA
ATOM     22  H5* LIG    1       28.917 -17.399   5.464  0.00  0.00    +0.209 HD
ENDBRANCH  20  21
ENDBRANCH   4  20
TORSDOF 6
ENDMDL
MODEL 6
REMARK VINA RESULT:      -6.3      1.156      1.679
REMARK  Name = *****
REMARK                            x       y       z     vdW  Elec       q    Type
REMARK                         _______ _______ _______ _____ _____    ______ ____
ROOT
ATOM      1  C1* LIG    1       25.116 -20.380   6.677  0.00  0.00    +0.256 C 
ATOM      2  C2* LIG    1       24.666 -20.816   5.274  0.00  0.00    +0.195 C 
ATOM      3  C3* LIG    1       23.256 -21.314   5.561  0.00  0.00    +0.178 C 
ATOM      4  C4* LIG    1       23.395 -21.948   6.942  0.00  0.00    +0.177 C 
ATOM      5  O4* LIG    1       24.451 -21.231   7.629  0.00  0.00    -0.346 OA
ENDROOT
BRANCH   1  10
ATOM      6  C   LIG    1       29.161 -20.338   7.328  0.00  0.00    +0.218 C 
ATOM      7  N   LIG    1       28.397 -20.334   8.364  0.00  0.00    -0.159 NA
ATOM      8  C   LIG    1       27.049 -20.393   8.202  0.00  0.00    +0.354 C 
ATOM      9  O   LIG    1       26.314 -20.439   9.188  0.00  0.00    -0.244 OA
ATOM     10  N   LIG    1       26.545 -20.406   6.929  0.00  0.00    -0.254 N 
ATOM     11  C   LIG    1       27.428 -20.454   5.904  0.00  0.00    +0.209 C 
ATOM     12  N   LIG    1       28.702 -20.436   6.058  0.00  0.00    -0.205 NA
BRANCH   6  13
ATOM     13  N   LIG    1       30.501 -20.262   7.499  0.00  0.00    -0.327 N 
ATOM     14  H   LIG    1       30.897 -19.416   7.111  0.00  0.00    +0.145 HD
ATOM     15  H   LIG    1       30.801 -20.484   8.439  0.00  0.00    +0.145 HD
ENDBRANCH   6  13
ENDBRANCH   1  10
BRANCH   2  16
ATOM     16  O2* LIG    1       24.656 -19.735   4.340  0.00  0.00    -0.385 OA
ATOM     17  H2* LIG    1       24.626 -20.157   3.453  0.00  0.00    +0.210 HD
ENDBRANCH   2  16
BRANCH   3  18
ATOM     18  O3* LIG    1       22.395 -20.160   5.608  0.00  0.00    -0.386 OA
ATOM     19  H3* LIG    1       22.902 -19.433   6.016  0.00  0.00    +0.210 HD
ENDBRANCH   3  18
BRANCH   4  20
ATOM     20  C5* LIG    1       23.745 -23.437   6.875  0.00  0.00    +0.190 C 
BRANCH  20  21
ATOM     21  O5* LIG    1       22.576 -24.193   6.569  0.00  0.00    -0.392 OA
ATOM     22  H5* LIG    1       22.029 -24.167   7.379  0.00  0.00    +0.209 HD
ENDBRANCH  20  21
ENDBRANCH   4  20
TORSDOF 6
ENDMDL
MODEL 7
REMARK VINA RESULT:      -6.2      3.436      5.022
REMARK  Name = *****
REMARK                            x       y       z     vdW  Elec       q    Type
REMARK                         _______ _______ _______ _____ _____    ______ ____
ROOT
ATOM      1  C1* LIG    1       25.031 -22.953   7.467  0.00  0.00    +0.256 C 
ATOM      2  C2* LIG    1       26.004 -21.890   6.933  0.00  0.00    +0.195 C 
ATOM      3  C3* LIG    1       25.323 -20.610   7.399  0.00  0.00    +0.178 C 
ATOM      4  C4* LIG    1       23.841 -20.945   7.260  0.00  0.00    +0.177 C 
ATOM      5  O4* LIG    1       23.712 -22.375   7.461  0.00  0.00    -0.346 OA
ENDROOT
BRANCH   1  10
ATOM      6  C   LIG    1       25.018 -26.569   5.540  0.00  0.00    +0.218 C 
ATOM      7  N   LIG    1       23.877 -26.066   5.856  0.00  0.00    -0.159 NA
ATOM      8  C   LIG    1       23.826 -24.846   6.456  0.00  0.00    +0.354 C 
ATOM      9  O   LIG    1       22.737 -24.337   6.717  0.00  0.00    -0.244 OA
ATOM     10  N   LIG    1       25.005 -24.214   6.749  0.00  0.00    -0.254 N 
ATOM     11  C   LIG    1       26.153 -24.801   6.337  0.00  0.00    +0.209 C 
ATOM     12  N   LIG    1       26.199 -25.934   5.736  0.00  0.00    -0.205 NA
BRANCH   6  13
ATOM     13  N   LIG    1       25.061 -27.790   4.958  0.00  0.00    -0.327 N 
ATOM     14  H   LIG    1       25.716 -27.835   4.190  0.00  0.00    +0.145 HD
ATOM     15  H   LIG    1       25.124 -28.550   5.622  0.00  0.00    +0.145 HD
ENDBRANCH   6  13
ENDBRANCH   1  10
BRANCH   2  16
ATOM     16  O2* LIG    1       27.314 -22.014   7.491  0.00  0.00    -0.385 OA
ATOM     17  H2* LIG    1       27.794 -22.629   6.894  0.00  0.00    +0.210 HD
ENDBRANCH   2  16
BRANCH   3  18
ATOM     18  O3* LIG    1       25.679 -20.413   8.782  0.00  0.00    -0.386 OA
ATOM     19  H3* LIG    1       24.852 -20.412   9.299  0.00  0.00    +0.210 HD
ENDBRANCH   3  18
BRANCH   4  20
ATOM     20  C5* LIG    1       23.276 -20.566   5.888  0.00  0.00    +0.190 C 
BRANCH  20  21
ATOM     21  O5* LIG    1       22.531 -21.658   5.355  0.00  0.00    -0.392 OA
ATOM     22  H5* LIG    1       22.755 -22.426   5.917  0.00  0.00    +0.209 HD
ENDBRANCH  20  21
ENDBRANCH   4  20
TORSDOF 6
ENDMDL
MODEL 8
REMARK VINA RESULT:      -6.1      1.588      2.117
REMARK  Name = *****
REMARK                            x       y       z     vdW  Elec       q    Type
REMARK                         _______ _______ _______ _____ _____    ______ ____
ROOT
ATOM      1  C1* LIG    1       25.291 -20.949   6.545  0.00  0.00    +0.256 C 
ATOM      2  C2* LIG    1       24.968 -21.019   5.045  0.00  0.00    +0.195 C 
ATOM      3  C3* LIG    1       23.870 -22.074   5.031  0.00  0.00    +0.178 C 
ATOM      4  C4* LIG    1       24.312 -23.037   6.130  0.00  0.00    +0.177 C 
ATOM      5  O4* LIG    1       25.051 -22.255   7.101  0.00  0.00    -0.346 OA
ENDROOT
BRANCH   1  10
ATOM      6  C   LIG    1       29.062 -19.632   7.460  0.00  0.00    +0.218 C 
ATOM      7  N   LIG    1       28.260 -19.852   8.442  0.00  0.00    -0.159 NA
ATOM      8  C   LIG    1       27.013 -20.334   8.193  0.00  0.00    +0.354 C 
ATOM      9  O   LIG    1       26.259 -20.594   9.130  0.00  0.00    -0.244 OA
ATOM     10  N   LIG    1       26.634 -20.522   6.891  0.00  0.00    -0.254 N 
ATOM     11  C   LIG    1       27.562 -20.305   5.929  0.00  0.00    +0.209 C 
ATOM     12  N   LIG    1       28.752 -19.887   6.167  0.00  0.00    -0.205 NA
BRANCH   6  13
ATOM     13  N   LIG    1       30.295 -19.136   7.716  0.00  0.00    -0.327 N 
ATOM     14  H   LIG    1       30.803 -18.899   6.875  0.00  0.00    +0.145 HD
ATOM     15  H   LIG    1       30.303 -18.427   8.437  0.00  0.00    +0.145 HD
ENDBRANCH   6  13
ENDBRANCH   1  10
BRANCH   2  16
ATOM     16  O2* LIG    1       24.499 -19.773   4.525  0.00  0.00    -0.385 OA
ATOM     17  H2* LIG    1       25.292 -19.197   4.472  0.00  0.00    +0.210 HD
ENDBRANCH   2  16
BRANCH   3  18
ATOM     18  O3* LIG    1       22.638 -21.416   5.388  0.00  0.00    -0.386 OA
ATOM     19  H3* LIG    1       22.798 -20.926   6.216  0.00  0.00    +0.210 HD
ENDBRANCH   3  18
BRANCH   4  20
ATOM     20  C5* LIG    1       25.197 -24.169   5.600  0.00  0.00    +0.190 C 
BRANCH  20  21
ATOM     21  O5* LIG    1       24.403 -25.097   4.865  0.00  0.00    -0.392 OA
ATOM     22  H5* LIG    1       24.764 -25.087   3.957  0.00  0.00    +0.209 HD
ENDBRANCH  20  21
ENDBRANCH   4  20
TORSDOF 6
ENDMDL
MODEL 9
REMARK VINA RESULT:      -6.0      2.992      6.075
REMARK  Name = *****
REMARK                            x       y       z     vdW  Elec       q    Type
REMARK                         _______ _______ _______ _____ _____    ______ ____
ROOT
ATOM      1  C1* LIG    1       29.293 -19.540   7.607  0.00  0.00    +0.256 C 
ATOM      2  C2* LIG    1       29.827 -18.870   8.882  0.00  0.00    +0.195 C 
ATOM      3  C3* LIG    1       31.316 -19.166   8.767  0.00  0.00    +0.178 C 
ATOM      4  C4* LIG    1       31.337 -20.556   8.137  0.00  0.00    +0.177 C 
ATOM      5  O4* LIG    1       30.145 -20.666   7.321  0.00  0.00    -0.346 OA
ENDROOT
BRANCH   1  10
ATOM      6  C   LIG    1       25.363 -20.686   7.786  0.00  0.00    +0.218 C 
ATOM      7  N   LIG    1       25.860 -20.466   6.619  0.00  0.00    -0.159 NA
ATOM      8  C   LIG    1       27.172 -20.129   6.504  0.00  0.00    +0.354 C 
ATOM      9  O   LIG    1       27.667 -19.965   5.389  0.00  0.00    -0.244 OA
ATOM     10  N   LIG    1       27.912 -19.984   7.647  0.00  0.00    -0.254 N 
ATOM     11  C   LIG    1       27.314 -20.281   8.825  0.00  0.00    +0.209 C 
ATOM     12  N   LIG    1       26.085 -20.637   8.931  0.00  0.00    -0.205 NA
BRANCH   6  13
ATOM     13  N   LIG    1       24.052 -21.006   7.893  0.00  0.00    -0.327 N 
ATOM     14  H   LIG    1       23.850 -21.557   8.716  0.00  0.00    +0.145 HD
ATOM     15  H   LIG    1       23.433 -20.222   7.738  0.00  0.00    +0.145 HD
ENDBRANCH   6  13
ENDBRANCH   1  10
BRANCH   2  16
ATOM     16  O2* LIG    1       29.577 -17.463   8.909  0.00  0.00    -0.385 OA
ATOM     17  H2* LIG    1       28.607 -17.368   8.787  0.00  0.00    +0.210 HD
ENDBRANCH   2  16
BRANCH   3  18
ATOM     18  O3* LIG    1       31.880 -18.186   7.872  0.00  0.00    -0.386 OA
ATOM     19  H3* LIG    1       31.326 -17.385   7.929  0.00  0.00    +0.210 HD
ENDBRANCH   3  18
BRANCH   4  20
ATOM     20  C5* LIG    1       31.350 -21.676   9.182  0.00  0.00    +0.190 C 
BRANCH  20  21
ATOM     21  O5* LIG    1       32.103 -22.782   8.692  0.00  0.00    -0.392 OA
ATOM     22  H5* LIG    1       32.731 -23.008   9.407  0.00  0.00    +0.209 HD
ENDBRANCH  20  21
ENDBRANCH   4  20
TORSDOF 6
ENDMDL
