MODEL 1
REMARK VINA RESULT:      34.5      0.000      0.000
REMARK  Name = *****
REMARK                            x       y       z     vdW  Elec       q    Type
REMARK                         _______ _______ _______ _____ _____    ______ ____
ROOT
ATOM      1  C   LIG    1       25.121 -15.996   4.482  0.00  0.00    -0.041 C 
ATOM      2  C   LIG    1       24.399 -16.910   4.765  0.00  0.00    -0.059 C 
ENDROOT
BRANCH   2   3
ATOM      3  C   LIG    1       23.554 -18.021   5.059  0.00  0.00    +0.026 A 
ATOM      4  C   LIG    1       22.520 -18.345   4.180  0.00  0.00    +0.022 A 
ATOM      5  C   LIG    1       21.654 -19.437   4.415  0.00  0.00    -0.027 A 
ATOM      6  C   LIG    1       20.538 -19.723   3.402  0.00  0.00    -0.008 C 
ATOM      7  C   LIG    1       19.839 -21.086   3.629  0.00  0.00    +0.022 C 
ATOM      8  C   LIG    1       19.391 -21.313   5.058  0.00  0.00    +0.075 C 
ATOM      9  S   LIG    1       20.835 -21.552   6.117  0.00  0.00    -0.125 S 
ATOM     10  C   LIG    1       19.496 -18.583   3.480  0.00  0.00    +0.016 C 
ATOM     11  C   LIG    1       21.098 -19.766   1.956  0.00  0.00    +0.016 C 
ATOM     12  C   LIG    1       21.848 -20.178   5.596  0.00  0.00    +0.012 A 
ATOM     13  C   LIG    1       22.904 -19.852   6.467  0.00  0.00    +0.016 A 
ATOM     14  C   LIG    1       23.757 -18.782   6.202  0.00  0.00    +0.018 A 
ENDBRANCH   2   3
BRANCH   1  18
ATOM     15  C   LIG    1       27.806 -12.951   3.611  0.00  0.00    +0.077 A 
ATOM     16  C   LIG    1       28.189 -14.188   4.113  0.00  0.00    +0.127 A 
ATOM     17  N   LIG    1       27.319 -15.193   4.386  0.00  0.00    -0.246 NA
ATOM     18  C   LIG    1       26.014 -14.942   4.141  0.00  0.00    +0.114 A 
ATOM     19  C   LIG    1       25.532 -13.747   3.635  0.00  0.00    +0.038 A 
ATOM     20  C   LIG    1       26.446 -12.732   3.369  0.00  0.00    +0.019 A 
BRANCH  15  21
ATOM     21  C   LIG    1       28.847 -11.937   3.344  0.00  0.00    +0.341 C 
ATOM     22  O   LIG    1       29.110 -11.511   2.232  0.00  0.00    -0.245 OA
BRANCH  21  23
ATOM     23  O   LIG    1       29.430 -11.567   4.510  0.00  0.00    -0.461 OA
BRANCH  23  25
ATOM     24  C   LIG    1       27.382 -12.527   5.381  0.00  0.00    +0.048 C 
ATOM     25  C   LIG    1       28.637 -11.732   5.692  0.00  0.00    +0.229 C 
ENDBRANCH  23  25
ENDBRANCH  21  23
ENDBRANCH  15  21
ENDBRANCH   1  18
TORSDOF 5
ENDMDL
