MODEL 1
REMARK VINA RESULT:      -6.0      0.000      0.000
REMARK  Name = *****
REMARK                            x       y       z     vdW  Elec       q    Type
REMARK                         _______ _______ _______ _____ _____    ______ ____
ROOT
ATOM      1  C   LIG    1       22.801 -30.990  12.992  0.00  0.00    +0.265 C 
ATOM      2  C   LIG    1       23.907 -31.918  12.412  0.00  0.00    +0.265 C 
ATOM      3  C   LIG    1       24.343 -31.303  11.080  0.00  0.00    +0.265 C 
ATOM      4  C   LIG    1       24.936 -29.887  11.121  0.00  0.00    +0.265 C 
ATOM      5  C   LIG    1       24.255 -28.916  12.124  0.00  0.00    +0.265 C 
ATOM      6  C   LIG    1       23.209 -29.493  13.113  0.00  0.00    +0.265 C 
ENDROOT
BRANCH   2   7
ATOM      7  O   LIG    1       24.991 -32.356  13.256  0.00  0.00    -0.450 OA
BRANCH   7   8
ATOM      8  C   LIG    1       25.186 -31.799  14.464  0.00  0.00    +0.341 C 
ATOM      9  O   LIG    1       24.597 -32.097  15.499  0.00  0.00    -0.245 OA
BRANCH   8  10
ATOM     10  C   LIG    1       26.272 -30.862  14.519  0.00  0.00    +0.077 A 
ATOM     11  C   LIG    1       27.175 -30.903  13.459  0.00  0.00    +0.125 A 
ATOM     12  N   LIG    1       28.212 -30.062  13.328  0.00  0.00    -0.262 NA
ATOM     13  C   LIG    1       28.326 -29.118  14.285  0.00  0.00    +0.111 A 
ATOM     14  C   LIG    1       27.452 -28.979  15.359  0.00  0.00    +0.020 A 
ATOM     15  C   LIG    1       26.395 -29.868  15.482  0.00  0.00    +0.018 A 
ENDBRANCH   8  10
ENDBRANCH   7   8
ENDBRANCH   2   7
BRANCH   3  16
ATOM     16  O   LIG    1       24.979 -32.188  10.131  0.00  0.00    -0.450 OA
BRANCH  16  17
ATOM     17  C   LIG    1       24.481 -32.384   8.899  0.00  0.00    +0.341 C 
ATOM     18  O   LIG    1       23.311 -32.288   8.563  0.00  0.00    -0.245 OA
BRANCH  17  19
ATOM     19  C   LIG    1       25.633 -32.592   7.996  0.00  0.00    +0.077 A 
ATOM     20  C   LIG    1       26.825 -33.085   8.507  0.00  0.00    +0.125 A 
ATOM     21  N   LIG    1       27.896 -33.410   7.737  0.00  0.00    -0.262 NA
ATOM     22  C   LIG    1       27.773 -33.218   6.403  0.00  0.00    +0.111 A 
ATOM     23  C   LIG    1       26.631 -32.716   5.801  0.00  0.00    +0.020 A 
ATOM     24  C   LIG    1       25.544 -32.403   6.611  0.00  0.00    +0.018 A 
ENDBRANCH  17  19
ENDBRANCH  16  17
ENDBRANCH   3  16
BRANCH   4  25
ATOM     25  O   LIG    1       24.832 -29.237   9.782  0.00  0.00    -0.450 OA
BRANCH  25  26
ATOM     26  C   LIG    1       25.945 -29.057   8.998  0.00  0.00    +0.341 C 
ATOM     27  O   LIG    1       27.016 -29.523   9.127  0.00  0.00    -0.245 OA
BRANCH  26  28
ATOM     28  C   LIG    1       25.620 -28.395   7.748  0.00  0.00    +0.077 A 
ATOM     29  C   LIG    1       24.724 -28.927   6.825  0.00  0.00    +0.125 A 
ATOM     30  N   LIG    1       24.431 -28.320   5.658  0.00  0.00    -0.262 NA
ATOM     31  C   LIG    1       25.053 -27.146   5.394  0.00  0.00    +0.111 A 
ATOM     32  C   LIG    1       25.949 -26.529   6.257  0.00  0.00    +0.020 A 
ATOM     33  C   LIG    1       26.226 -27.163   7.452  0.00  0.00    +0.018 A 
ENDBRANCH  26  28
ENDBRANCH  25  26
ENDBRANCH   4  25
BRANCH   5  34
ATOM     34  O   LIG    1       25.131 -28.074  12.957  0.00  0.00    -0.450 OA
BRANCH  34  35
ATOM     35  C   LIG    1       26.008 -27.154  12.501  0.00  0.00    +0.341 C 
ATOM     36  O   LIG    1       26.726 -27.269  11.530  0.00  0.00    -0.245 OA
BRANCH  35  37
ATOM     37  C   LIG    1       25.987 -25.966  13.397  0.00  0.00    +0.077 A 
ATOM     38  C   LIG    1       27.126 -25.202  13.630  0.00  0.00    +0.125 A 
ATOM     39  N   LIG    1       27.163 -24.090  14.404  0.00  0.00    -0.262 NA
ATOM     40  C   LIG    1       26.010 -23.728  14.994  0.00  0.00    +0.111 A 
ATOM     41  C   LIG    1       24.817 -24.412  14.823  0.00  0.00    +0.020 A 
ATOM     42  C   LIG    1       24.802 -25.544  14.002  0.00  0.00    +0.018 A 
ENDBRANCH  35  37
ENDBRANCH  34  35
ENDBRANCH   5  34
BRANCH   1  43
ATOM     43  O   LIG    1       22.347 -31.430  14.303  0.00  0.00    -0.450 OA
BRANCH  43  45
ATOM     44  O   LIG    1       21.743 -33.625  14.488  0.00  0.00    -0.245 OA
ATOM     45  C   LIG    1       21.459 -32.451  14.364  0.00  0.00    +0.341 C 
BRANCH  45  46
ATOM     46  C   LIG    1       20.090 -31.924  14.145  0.00  0.00    +0.077 A 
ATOM     47  C   LIG    1       19.171 -31.850  15.172  0.00  0.00    +0.125 A 
ATOM     48  N   LIG    1       17.870 -31.478  15.004  0.00  0.00    -0.262 NA
ATOM     49  C   LIG    1       17.467 -31.182  13.749  0.00  0.00    +0.111 A 
ATOM     50  C   LIG    1       18.310 -31.220  12.664  0.00  0.00    +0.020 A 
ATOM     51  C   LIG    1       19.634 -31.578  12.879  0.00  0.00    +0.018 A 
ENDBRANCH  45  46
ENDBRANCH  43  45
ENDBRANCH   1  43
BRANCH   6  52
ATOM     52  O   LIG    1       22.017 -28.645  13.028  0.00  0.00    -0.450 OA
BRANCH  52  53
ATOM     53  C   LIG    1       21.705 -27.951  14.162  0.00  0.00    +0.341 C 
ATOM     54  O   LIG    1       22.409 -27.759  15.135  0.00  0.00    -0.245 OA
BRANCH  53  55
ATOM     55  C   LIG    1       20.313 -27.517  14.142  0.00  0.00    +0.077 A 
ATOM     56  C   LIG    1       19.387 -28.210  14.909  0.00  0.00    +0.125 A 
ATOM     57  N   LIG    1       18.091 -27.857  15.022  0.00  0.00    -0.262 NA
ATOM     58  C   LIG    1       17.731 -26.721  14.391  0.00  0.00    +0.111 A 
ATOM     59  C   LIG    1       18.599 -25.950  13.625  0.00  0.00    +0.020 A 
ATOM     60  C   LIG    1       19.914 -26.369  13.479  0.00  0.00    +0.018 A 
ENDBRANCH  53  55
ENDBRANCH  52  53
ENDBRANCH   6  52
TORSDOF 18
ENDMDL
MODEL 2
REMARK VINA RESULT:      -5.7      2.336      7.810
REMARK  Name = *****
REMARK                            x       y       z     vdW  Elec       q    Type
REMARK                         _______ _______ _______ _____ _____    ______ ____
ROOT
ATOM      1  C   LIG    1       24.761 -29.776  11.523  0.00  0.00    +0.265 C 
ATOM      2  C   LIG    1       25.219 -30.892  12.504  0.00  0.00    +0.265 C 
ATOM      3  C   LIG    1       24.614 -32.202  11.995  0.00  0.00    +0.265 C 
ATOM      4  C   LIG    1       25.021 -32.662  10.588  0.00  0.00    +0.265 C 
ATOM      5  C   LIG    1       25.159 -31.526   9.537  0.00  0.00    +0.265 C 
ATOM      6  C   LIG    1       25.082 -30.057  10.027  0.00  0.00    +0.265 C 
ENDROOT
BRANCH   2   7
ATOM      7  O   LIG    1       26.604 -30.980  12.894  0.00  0.00    -0.450 OA
BRANCH   7   8
ATOM      8  C   LIG    1       27.071 -30.260  13.929  0.00  0.00    +0.341 C 
ATOM      9  O   LIG    1       26.441 -29.954  14.937  0.00  0.00    -0.245 OA
BRANCH   8  10
ATOM     10  C   LIG    1       28.470 -29.949  13.854  0.00  0.00    +0.077 A 
ATOM     11  C   LIG    1       29.209 -30.147  15.019  0.00  0.00    +0.125 A 
ATOM     12  N   LIG    1       30.534 -29.959  15.105  0.00  0.00    -0.262 NA
ATOM     13  C   LIG    1       31.149 -29.587  13.963  0.00  0.00    +0.111 A 
ATOM     14  C   LIG    1       30.499 -29.400  12.746  0.00  0.00    +0.020 A 
ATOM     15  C   LIG    1       29.126 -29.588  12.684  0.00  0.00    +0.018 A 
ENDBRANCH   8  10
ENDBRANCH   7   8
ENDBRANCH   2   7
BRANCH   3  16
ATOM     16  O   LIG    1       24.476 -33.273  12.955  0.00  0.00    -0.450 OA
BRANCH  16  17
ATOM     17  C   LIG    1       24.107 -33.043  14.227  0.00  0.00    +0.341 C 
ATOM     18  O   LIG    1       24.848 -32.823  15.171  0.00  0.00    -0.245 OA
BRANCH  17  19
ATOM     19  C   LIG    1       22.630 -32.962  14.240  0.00  0.00    +0.077 A 
ATOM     20  C   LIG    1       22.007 -31.940  14.942  0.00  0.00    +0.125 A 
ATOM     21  N   LIG    1       20.666 -31.723  14.921  0.00  0.00    -0.262 NA
ATOM     22  C   LIG    1       19.919 -32.574  14.179  0.00  0.00    +0.111 A 
ATOM     23  C   LIG    1       20.447 -33.632  13.458  0.00  0.00    +0.020 A 
ATOM     24  C   LIG    1       21.825 -33.825  13.486  0.00  0.00    +0.018 A 
ENDBRANCH  17  19
ENDBRANCH  16  17
ENDBRANCH   3  16
BRANCH   4  25
ATOM     25  O   LIG    1       24.013 -33.614  10.036  0.00  0.00    -0.450 OA
BRANCH  25  26
ATOM     26  C   LIG    1       23.186 -33.246   9.003  0.00  0.00    +0.341 C 
ATOM     27  O   LIG    1       23.354 -33.379   7.847  0.00  0.00    -0.245 OA
BRANCH  26  28
ATOM     28  C   LIG    1       21.866 -32.877   9.476  0.00  0.00    +0.077 A 
ATOM     29  C   LIG    1       21.580 -31.621  10.007  0.00  0.00    +0.125 A 
ATOM     30  N   LIG    1       20.358 -31.281  10.459  0.00  0.00    -0.262 NA
ATOM     31  C   LIG    1       19.384 -32.220  10.389  0.00  0.00    +0.111 A 
ATOM     32  C   LIG    1       19.568 -33.493   9.864  0.00  0.00    +0.020 A 
ATOM     33  C   LIG    1       20.825 -33.816   9.396  0.00  0.00    +0.018 A 
ENDBRANCH  26  28
ENDBRANCH  25  26
ENDBRANCH   4  25
BRANCH   5  34
ATOM     34  O   LIG    1       26.333 -31.562   8.648  0.00  0.00    -0.450 OA
BRANCH  34  35
ATOM     35  C   LIG    1       27.080 -32.653   8.369  0.00  0.00    +0.341 C 
ATOM     36  O   LIG    1       27.644 -33.360   9.177  0.00  0.00    -0.245 OA
BRANCH  35  37
ATOM     37  C   LIG    1       27.135 -32.848   6.895  0.00  0.00    +0.077 A 
ATOM     38  C   LIG    1       28.180 -33.534   6.284  0.00  0.00    +0.125 A 
ATOM     39  N   LIG    1       28.269 -33.777   4.954  0.00  0.00    -0.262 NA
ATOM     40  C   LIG    1       27.274 -33.298   4.186  0.00  0.00    +0.111 A 
ATOM     41  C   LIG    1       26.182 -32.610   4.692  0.00  0.00    +0.020 A 
ATOM     42  C   LIG    1       26.105 -32.391   6.071  0.00  0.00    +0.018 A 
ENDBRANCH  35  37
ENDBRANCH  34  35
ENDBRANCH   5  34
BRANCH   1  43
ATOM     43  O   LIG    1       25.331 -28.480  11.860  0.00  0.00    -0.450 OA
BRANCH  43  45
ATOM     44  O   LIG    1       23.480 -27.654  12.912  0.00  0.00    -0.245 OA
ATOM     45  C   LIG    1       24.684 -27.712  12.769  0.00  0.00    +0.341 C 
BRANCH  45  46
ATOM     46  C   LIG    1       25.670 -26.868  13.488  0.00  0.00    +0.077 A 
ATOM     47  C   LIG    1       25.512 -26.548  14.821  0.00  0.00    +0.125 A 
ATOM     48  N   LIG    1       26.326 -25.691  15.500  0.00  0.00    -0.262 NA
ATOM     49  C   LIG    1       27.333 -25.115  14.809  0.00  0.00    +0.111 A 
ATOM     50  C   LIG    1       27.575 -25.375  13.481  0.00  0.00    +0.020 A 
ATOM     51  C   LIG    1       26.740 -26.273  12.830  0.00  0.00    +0.018 A 
ENDBRANCH  45  46
ENDBRANCH  43  45
ENDBRANCH   1  43
BRANCH   6  52
ATOM     52  O   LIG    1       24.113 -29.365   9.172  0.00  0.00    -0.450 OA
BRANCH  52  53
ATOM     53  C   LIG    1       24.161 -29.689   7.845  0.00  0.00    +0.341 C 
ATOM     54  O   LIG    1       23.694 -30.672   7.302  0.00  0.00    -0.245 OA
BRANCH  53  55
ATOM     55  C   LIG    1       24.969 -28.730   7.103  0.00  0.00    +0.077 A 
ATOM     56  C   LIG    1       24.965 -28.785   5.716  0.00  0.00    +0.125 A 
ATOM     57  N   LIG    1       25.616 -27.907   4.927  0.00  0.00    -0.262 NA
ATOM     58  C   LIG    1       26.240 -26.894   5.562  0.00  0.00    +0.111 A 
ATOM     59  C   LIG    1       26.273 -26.745   6.944  0.00  0.00    +0.020 A 
ATOM     60  C   LIG    1       25.641 -27.696   7.734  0.00  0.00    +0.018 A 
ENDBRANCH  53  55
ENDBRANCH  52  53
ENDBRANCH   6  52
TORSDOF 18
ENDMDL
MODEL 3
REMARK VINA RESULT:      -5.2      1.767      8.698
REMARK  Name = *****
REMARK                            x       y       z     vdW  Elec       q    Type
REMARK                         _______ _______ _______ _____ _____    ______ ____
ROOT
ATOM      1  C   LIG    1       24.058 -29.660  10.272  0.00  0.00    +0.265 C 
ATOM      2  C   LIG    1       23.857 -29.258  11.761  0.00  0.00    +0.265 C 
ATOM      3  C   LIG    1       22.418 -29.628  12.128  0.00  0.00    +0.265 C 
ATOM      4  C   LIG    1       22.025 -31.108  12.016  0.00  0.00    +0.265 C 
ATOM      5  C   LIG    1       22.629 -31.862  10.800  0.00  0.00    +0.265 C 
ATOM      6  C   LIG    1       23.706 -31.141   9.948  0.00  0.00    +0.265 C 
ENDROOT
BRANCH   2   7
ATOM      7  O   LIG    1       24.843 -29.631  12.744  0.00  0.00    -0.450 OA
BRANCH   7   8
ATOM      8  C   LIG    1       24.889 -29.012  13.937  0.00  0.00    +0.341 C 
ATOM      9  O   LIG    1       24.518 -29.482  15.009  0.00  0.00    -0.245 OA
BRANCH   8  10
ATOM     10  C   LIG    1       25.549 -27.738  13.921  0.00  0.00    +0.077 A 
ATOM     11  C   LIG    1       25.865 -27.192  15.164  0.00  0.00    +0.125 A 
ATOM     12  N   LIG    1       26.531 -26.038  15.326  0.00  0.00    -0.262 NA
ATOM     13  C   LIG    1       26.924 -25.424  14.191  0.00  0.00    +0.111 A 
ATOM     14  C   LIG    1       26.686 -25.913  12.910  0.00  0.00    +0.020 A 
ATOM     15  C   LIG    1       25.984 -27.100  12.766  0.00  0.00    +0.018 A 
ENDBRANCH   8  10
ENDBRANCH   7   8
ENDBRANCH   2   7
BRANCH   3  16
ATOM     16  O   LIG    1       21.835 -28.939  13.256  0.00  0.00    -0.450 OA
BRANCH  16  17
ATOM     17  C   LIG    1       21.614 -27.614  13.242  0.00  0.00    +0.341 C 
ATOM     18  O   LIG    1       22.400 -26.749  12.887  0.00  0.00    -0.245 OA
BRANCH  17  19
ATOM     19  C   LIG    1       20.194 -27.409  13.597  0.00  0.00    +0.077 A 
ATOM     20  C   LIG    1       19.490 -28.427  14.223  0.00  0.00    +0.125 A 
ATOM     21  N   LIG    1       18.219 -28.289  14.683  0.00  0.00    -0.262 NA
ATOM     22  C   LIG    1       17.624 -27.089  14.493  0.00  0.00    +0.111 A 
ATOM     23  C   LIG    1       18.239 -26.018  13.865  0.00  0.00    +0.020 A 
ATOM     24  C   LIG    1       19.545 -26.180  13.415  0.00  0.00    +0.018 A 
ENDBRANCH  17  19
ENDBRANCH  16  17
ENDBRANCH   3  16
BRANCH   4  25
ATOM     25  O   LIG    1       20.544 -31.249  11.894  0.00  0.00    -0.450 OA
BRANCH  25  26
ATOM     26  C   LIG    1       19.871 -32.235  12.574  0.00  0.00    +0.341 C 
ATOM     27  O   LIG    1       20.290 -33.245  13.005  0.00  0.00    -0.245 OA
BRANCH  26  28
ATOM     28  C   LIG    1       18.548 -31.800  12.981  0.00  0.00    +0.077 A 
ATOM     29  C   LIG    1       17.658 -31.180  12.107  0.00  0.00    +0.125 A 
ATOM     30  N   LIG    1       16.434 -30.764  12.487  0.00  0.00    -0.262 NA
ATOM     31  C   LIG    1       16.082 -30.964  13.780  0.00  0.00    +0.111 A 
ATOM     32  C   LIG    1       16.893 -31.586  14.720  0.00  0.00    +0.020 A 
ATOM     33  C   LIG    1       18.138 -32.014  14.306  0.00  0.00    +0.018 A 
ENDBRANCH  26  28
ENDBRANCH  25  26
ENDBRANCH   4  25
BRANCH   5  34
ATOM     34  O   LIG    1       23.183 -33.206  11.040  0.00  0.00    -0.450 OA
BRANCH  34  35
ATOM     35  C   LIG    1       24.471 -33.490  11.331  0.00  0.00    +0.341 C 
ATOM     36  O   LIG    1       25.327 -33.824  10.539  0.00  0.00    -0.245 OA
BRANCH  35  37
ATOM     37  C   LIG    1       24.685 -33.359  12.798  0.00  0.00    +0.077 A 
ATOM     38  C   LIG    1       25.849 -32.807  13.323  0.00  0.00    +0.125 A 
ATOM     39  N   LIG    1       26.087 -32.626  14.645  0.00  0.00    -0.262 NA
ATOM     40  C   LIG    1       25.124 -33.032  15.493  0.00  0.00    +0.111 A 
ATOM     41  C   LIG    1       23.924 -33.586  15.075  0.00  0.00    +0.020 A 
ATOM     42  C   LIG    1       23.695 -33.742  13.705  0.00  0.00    +0.018 A 
ENDBRANCH  35  37
ENDBRANCH  34  35
ENDBRANCH   5  34
BRANCH   1  43
ATOM     43  O   LIG    1       25.420 -29.421   9.818  0.00  0.00    -0.450 OA
BRANCH  43  45
ATOM     44  O   LIG    1       26.320 -30.813   8.247  0.00  0.00    -0.245 OA
ATOM     45  C   LIG    1       25.749 -29.787   8.556  0.00  0.00    +0.341 C 
BRANCH  45  46
ATOM     46  C   LIG    1       25.402 -28.689   7.620  0.00  0.00    +0.077 A 
ATOM     47  C   LIG    1       24.506 -28.875   6.587  0.00  0.00    +0.125 A 
ATOM     48  N   LIG    1       24.235 -27.937   5.636  0.00  0.00    -0.262 NA
ATOM     49  C   LIG    1       24.902 -26.765   5.714  0.00  0.00    +0.111 A 
ATOM     50  C   LIG    1       25.808 -26.484   6.709  0.00  0.00    +0.020 A 
ATOM     51  C   LIG    1       26.039 -27.455   7.674  0.00  0.00    +0.018 A 
ENDBRANCH  45  46
ENDBRANCH  43  45
ENDBRANCH   1  43
BRANCH   6  52
ATOM     52  O   LIG    1       23.300 -31.259   8.545  0.00  0.00    -0.450 OA
BRANCH  52  53
ATOM     53  C   LIG    1       23.134 -32.535   8.085  0.00  0.00    +0.341 C 
ATOM     54  O   LIG    1       22.336 -33.368   8.471  0.00  0.00    -0.245 OA
BRANCH  53  55
ATOM     55  C   LIG    1       24.144 -32.864   7.086  0.00  0.00    +0.077 A 
ATOM     56  C   LIG    1       24.078 -32.250   5.844  0.00  0.00    +0.125 A 
ATOM     57  N   LIG    1       24.995 -32.423   4.871  0.00  0.00    -0.262 NA
ATOM     58  C   LIG    1       26.055 -33.194   5.189  0.00  0.00    +0.111 A 
ATOM     59  C   LIG    1       26.216 -33.824   6.418  0.00  0.00    +0.020 A 
ATOM     60  C   LIG    1       25.228 -33.674   7.381  0.00  0.00    +0.018 A 
ENDBRANCH  53  55
ENDBRANCH  52  53
ENDBRANCH   6  52
TORSDOF 18
ENDMDL
MODEL 4
REMARK VINA RESULT:      -5.1      2.167      7.393
REMARK  Name = *****
REMARK                            x       y       z     vdW  Elec       q    Type
REMARK                         _______ _______ _______ _____ _____    ______ ____
ROOT
ATOM      1  C   LIG    1       24.809 -29.790  11.605  0.00  0.00    +0.265 C 
ATOM      2  C   LIG    1       25.259 -30.859  12.641  0.00  0.00    +0.265 C 
ATOM      3  C   LIG    1       24.596 -32.176  12.233  0.00  0.00    +0.265 C 
ATOM      4  C   LIG    1       24.943 -32.736  10.846  0.00  0.00    +0.265 C 
ATOM      5  C   LIG    1       25.088 -31.674   9.723  0.00  0.00    +0.265 C 
ATOM      6  C   LIG    1       25.075 -30.175  10.121  0.00  0.00    +0.265 C 
ENDROOT
BRANCH   2   7
ATOM      7  O   LIG    1       26.652 -30.971  12.996  0.00  0.00    -0.450 OA
BRANCH   7   8
ATOM      8  C   LIG    1       27.128 -30.371  14.101  0.00  0.00    +0.341 C 
ATOM      9  O   LIG    1       26.480 -30.094  15.107  0.00  0.00    -0.245 OA
BRANCH   8  10
ATOM     10  C   LIG    1       28.547 -30.163  14.102  0.00  0.00    +0.077 A 
ATOM     11  C   LIG    1       29.107 -29.726  12.902  0.00  0.00    +0.125 A 
ATOM     12  N   LIG    1       30.406 -29.431  12.747  0.00  0.00    -0.262 NA
ATOM     13  C   LIG    1       31.170 -29.548  13.853  0.00  0.00    +0.111 A 
ATOM     14  C   LIG    1       30.692 -29.943  15.100  0.00  0.00    +0.020 A 
ATOM     15  C   LIG    1       29.348 -30.256  15.233  0.00  0.00    +0.018 A 
ENDBRANCH   8  10
ENDBRANCH   7   8
ENDBRANCH   2   7
BRANCH   3  16
ATOM     16  O   LIG    1       24.451 -33.179  13.263  0.00  0.00    -0.450 OA
BRANCH  16  17
ATOM     17  C   LIG    1       24.037 -32.870  14.503  0.00  0.00    +0.341 C 
ATOM     18  O   LIG    1       24.745 -32.652  15.474  0.00  0.00    -0.245 OA
BRANCH  17  19
ATOM     19  C   LIG    1       22.569 -32.697  14.438  0.00  0.00    +0.077 A 
ATOM     20  C   LIG    1       21.836 -33.416  13.506  0.00  0.00    +0.125 A 
ATOM     21  N   LIG    1       20.478 -33.404  13.447  0.00  0.00    -0.262 NA
ATOM     22  C   LIG    1       19.832 -32.628  14.348  0.00  0.00    +0.111 A 
ATOM     23  C   LIG    1       20.477 -31.863  15.305  0.00  0.00    +0.020 A 
ATOM     24  C   LIG    1       21.867 -31.902  15.353  0.00  0.00    +0.018 A 
ENDBRANCH  17  19
ENDBRANCH  16  17
ENDBRANCH   3  16
BRANCH   4  25
ATOM     25  O   LIG    1       23.888 -33.684  10.385  0.00  0.00    -0.450 OA
BRANCH  25  26
ATOM     26  C   LIG    1       23.104 -33.392   9.296  0.00  0.00    +0.341 C 
ATOM     27  O   LIG    1       23.308 -33.622   8.162  0.00  0.00    -0.245 OA
BRANCH  26  28
ATOM     28  C   LIG    1       21.774 -32.965   9.691  0.00  0.00    +0.077 A 
ATOM     29  C   LIG    1       20.673 -33.818   9.668  0.00  0.00    +0.125 A 
ATOM     30  N   LIG    1       19.435 -33.420  10.022  0.00  0.00    -0.262 NA
ATOM     31  C   LIG    1       19.282 -32.130  10.406  0.00  0.00    +0.111 A 
ATOM     32  C   LIG    1       20.320 -31.210  10.476  0.00  0.00    +0.020 A 
ATOM     33  C   LIG    1       21.582 -31.642  10.120  0.00  0.00    +0.018 A 
ENDBRANCH  26  28
ENDBRANCH  25  26
ENDBRANCH   4  25
BRANCH   5  34
ATOM     34  O   LIG    1       26.232 -31.806   8.805  0.00  0.00    -0.450 OA
BRANCH  34  35
ATOM     35  C   LIG    1       26.993 -32.911   8.646  0.00  0.00    +0.341 C 
ATOM     36  O   LIG    1       27.462 -33.591   9.534  0.00  0.00    -0.245 OA
BRANCH  35  37
ATOM     37  C   LIG    1       27.203 -33.160   7.194  0.00  0.00    +0.077 A 
ATOM     38  C   LIG    1       28.454 -33.484   6.678  0.00  0.00    +0.125 A 
ATOM     39  N   LIG    1       28.702 -33.758   5.374  0.00  0.00    -0.262 NA
ATOM     40  C   LIG    1       27.654 -33.690   4.534  0.00  0.00    +0.111 A 
ATOM     41  C   LIG    1       26.365 -33.385   4.943  0.00  0.00    +0.020 A 
ATOM     42  C   LIG    1       26.133 -33.126   6.297  0.00  0.00    +0.018 A 
ENDBRANCH  35  37
ENDBRANCH  34  35
ENDBRANCH   5  34
BRANCH   1  43
ATOM     43  O   LIG    1       25.432 -28.497  11.843  0.00  0.00    -0.450 OA
BRANCH  43  45
ATOM     44  O   LIG    1       25.748 -27.378  13.809  0.00  0.00    -0.245 OA
ATOM     45  C   LIG    1       25.027 -27.778  12.917  0.00  0.00    +0.341 C 
BRANCH  45  46
ATOM     46  C   LIG    1       23.549 -27.651  12.894  0.00  0.00    +0.077 A 
ATOM     47  C   LIG    1       22.920 -26.468  13.224  0.00  0.00    +0.125 A 
ATOM     48  N   LIG    1       21.568 -26.327  13.324  0.00  0.00    -0.262 NA
ATOM     49  C   LIG    1       20.812 -27.423  13.100  0.00  0.00    +0.111 A 
ATOM     50  C   LIG    1       21.346 -28.644  12.759  0.00  0.00    +0.020 A 
ATOM     51  C   LIG    1       22.726 -28.742  12.642  0.00  0.00    +0.018 A 
ENDBRANCH  45  46
ENDBRANCH  43  45
ENDBRANCH   1  43
BRANCH   6  52
ATOM     52  O   LIG    1       24.104 -29.504   9.252  0.00  0.00    -0.450 OA
BRANCH  52  53
ATOM     53  C   LIG    1       24.197 -29.804   7.922  0.00  0.00    +0.341 C 
ATOM     54  O   LIG    1       23.854 -30.828   7.365  0.00  0.00    -0.245 OA
BRANCH  53  55
ATOM     55  C   LIG    1       24.890 -28.746   7.196  0.00  0.00    +0.077 A 
ATOM     56  C   LIG    1       24.500 -28.465   5.894  0.00  0.00    +0.125 A 
ATOM     57  N   LIG    1       25.020 -27.465   5.154  0.00  0.00    -0.262 NA
ATOM     58  C   LIG    1       25.919 -26.676   5.776  0.00  0.00    +0.111 A 
ATOM     59  C   LIG    1       26.345 -26.867   7.085  0.00  0.00    +0.020 A 
ATOM     60  C   LIG    1       25.836 -27.939   7.805  0.00  0.00    +0.018 A 
ENDBRANCH  53  55
ENDBRANCH  52  53
ENDBRANCH   6  52
TORSDOF 18
ENDMDL
MODEL 5
REMARK VINA RESULT:      -5.0      2.672      7.292
REMARK  Name = *****
REMARK                            x       y       z     vdW  Elec       q    Type
REMARK                         _______ _______ _______ _____ _____    ______ ____
ROOT
ATOM      1  C   LIG    1       25.212 -29.636   8.551  0.00  0.00    +0.265 C 
ATOM      2  C   LIG    1       24.793 -30.595   9.701  0.00  0.00    +0.265 C 
ATOM      3  C   LIG    1       26.032 -30.803  10.575  0.00  0.00    +0.265 C 
ATOM      4  C   LIG    1       26.638 -29.559  11.240  0.00  0.00    +0.265 C 
ATOM      5  C   LIG    1       26.634 -28.275  10.365  0.00  0.00    +0.265 C 
ATOM      6  C   LIG    1       25.858 -28.302   9.023  0.00  0.00    +0.265 C 
ENDROOT
BRANCH   2   7
ATOM      7  O   LIG    1       23.575 -30.348  10.433  0.00  0.00    -0.450 OA
BRANCH   7   8
ATOM      8  C   LIG    1       22.440 -30.994  10.111  0.00  0.00    +0.341 C 
ATOM      9  O   LIG    1       22.292 -31.762   9.165  0.00  0.00    -0.245 OA
BRANCH   8  10
ATOM     10  C   LIG    1       21.373 -30.828  11.055  0.00  0.00    +0.077 A 
ATOM     11  C   LIG    1       20.247 -31.625  10.858  0.00  0.00    +0.125 A 
ATOM     12  N   LIG    1       19.185 -31.635  11.679  0.00  0.00    -0.262 NA
ATOM     13  C   LIG    1       19.274 -30.836  12.762  0.00  0.00    +0.111 A 
ATOM     14  C   LIG    1       20.373 -30.034  13.059  0.00  0.00    +0.020 A 
ATOM     15  C   LIG    1       21.453 -30.029  12.189  0.00  0.00    +0.018 A 
ENDBRANCH   8  10
ENDBRANCH   7   8
ENDBRANCH   2   7
BRANCH   3  16
ATOM     16  O   LIG    1       26.058 -31.991  11.396  0.00  0.00    -0.450 OA
BRANCH  16  17
ATOM     17  C   LIG    1       25.192 -33.001  11.212  0.00  0.00    +0.341 C 
ATOM     18  O   LIG    1       25.216 -33.825  10.310  0.00  0.00    -0.245 OA
BRANCH  17  19
ATOM     19  C   LIG    1       24.292 -33.019  12.385  0.00  0.00    +0.077 A 
ATOM     20  C   LIG    1       24.587 -32.230  13.486  0.00  0.00    +0.125 A 
ATOM     21  N   LIG    1       23.763 -32.099  14.559  0.00  0.00    -0.262 NA
ATOM     22  C   LIG    1       22.606 -32.801  14.533  0.00  0.00    +0.111 A 
ATOM     23  C   LIG    1       22.232 -33.628  13.487  0.00  0.00    +0.020 A 
ATOM     24  C   LIG    1       23.087 -33.734  12.394  0.00  0.00    +0.018 A 
ENDBRANCH  17  19
ENDBRANCH  16  17
ENDBRANCH   3  16
BRANCH   4  25
ATOM     25  O   LIG    1       28.064 -29.803  11.607  0.00  0.00    -0.450 OA
BRANCH  25  26
ATOM     26  C   LIG    1       28.439 -29.952  12.919  0.00  0.00    +0.341 C 
ATOM     27  O   LIG    1       27.861 -30.491  13.790  0.00  0.00    -0.245 OA
BRANCH  26  28
ATOM     28  C   LIG    1       29.828 -29.590  13.126  0.00  0.00    +0.077 A 
ATOM     29  C   LIG    1       30.757 -29.546  12.089  0.00  0.00    +0.125 A 
ATOM     30  N   LIG    1       32.051 -29.223  12.282  0.00  0.00    -0.262 NA
ATOM     31  C   LIG    1       32.439 -28.939  13.548  0.00  0.00    +0.111 A 
ATOM     32  C   LIG    1       31.586 -28.942  14.643  0.00  0.00    +0.020 A 
ATOM     33  C   LIG    1       30.262 -29.265  14.421  0.00  0.00    +0.018 A 
ENDBRANCH  26  28
ENDBRANCH  25  26
ENDBRANCH   4  25
BRANCH   5  34
ATOM     34  O   LIG    1       26.221 -27.015  11.009  0.00  0.00    -0.450 OA
BRANCH  34  35
ATOM     35  C   LIG    1       26.420 -26.689  12.305  0.00  0.00    +0.341 C 
ATOM     36  O   LIG    1       27.439 -26.235  12.781  0.00  0.00    -0.245 OA
BRANCH  35  37
ATOM     37  C   LIG    1       25.192 -27.002  13.085  0.00  0.00    +0.077 A 
ATOM     38  C   LIG    1       25.004 -28.239  13.693  0.00  0.00    +0.125 A 
ATOM     39  N   LIG    1       23.928 -28.573  14.446  0.00  0.00    -0.262 NA
ATOM     40  C   LIG    1       22.978 -27.631  14.590  0.00  0.00    +0.111 A 
ATOM     41  C   LIG    1       23.069 -26.363  14.035  0.00  0.00    +0.020 A 
ATOM     42  C   LIG    1       24.200 -26.039  13.280  0.00  0.00    +0.018 A 
ENDBRANCH  35  37
ENDBRANCH  34  35
ENDBRANCH   5  34
BRANCH   1  43
ATOM     43  O   LIG    1       24.094 -29.301   7.681  0.00  0.00    -0.450 OA
BRANCH  43  45
ATOM     44  O   LIG    1       23.368 -29.521   5.527  0.00  0.00    -0.245 OA
ATOM     45  C   LIG    1       24.009 -29.918   6.479  0.00  0.00    +0.341 C 
BRANCH  45  46
ATOM     46  C   LIG    1       24.732 -31.212   6.539  0.00  0.00    +0.077 A 
ATOM     47  C   LIG    1       24.071 -32.399   6.780  0.00  0.00    +0.125 A 
ATOM     48  N   LIG    1       24.697 -33.598   6.954  0.00  0.00    -0.262 NA
ATOM     49  C   LIG    1       26.046 -33.606   6.900  0.00  0.00    +0.111 A 
ATOM     50  C   LIG    1       26.793 -32.477   6.658  0.00  0.00    +0.020 A 
ATOM     51  C   LIG    1       26.118 -31.279   6.461  0.00  0.00    +0.018 A 
ENDBRANCH  45  46
ENDBRANCH  43  45
ENDBRANCH   1  43
BRANCH   6  52
ATOM     52  O   LIG    1       26.765 -27.795   7.988  0.00  0.00    -0.450 OA
BRANCH  52  53
ATOM     53  C   LIG    1       26.183 -27.496   6.789  0.00  0.00    +0.341 C 
ATOM     54  O   LIG    1       26.256 -28.123   5.750  0.00  0.00    -0.245 OA
BRANCH  53  55
ATOM     55  C   LIG    1       25.500 -26.210   6.847  0.00  0.00    +0.077 A 
ATOM     56  C   LIG    1       26.236 -25.078   7.170  0.00  0.00    +0.125 A 
ATOM     57  N   LIG    1       25.726 -23.830   7.184  0.00  0.00    -0.262 NA
ATOM     58  C   LIG    1       24.442 -23.712   6.790  0.00  0.00    +0.111 A 
ATOM     59  C   LIG    1       23.641 -24.787   6.423  0.00  0.00    +0.020 A 
ATOM     60  C   LIG    1       24.174 -26.067   6.473  0.00  0.00    +0.018 A 
ENDBRANCH  53  55
ENDBRANCH  52  53
ENDBRANCH   6  52
TORSDOF 18
ENDMDL
MODEL 6
REMARK VINA RESULT:      -4.7      1.786      7.181
REMARK  Name = *****
REMARK                            x       y       z     vdW  Elec       q    Type
REMARK                         _______ _______ _______ _____ _____    ______ ____
ROOT
ATOM      1  C   LIG    1       23.312 -32.485  11.147  0.00  0.00    +0.265 C 
ATOM      2  C   LIG    1       23.262 -31.628  12.444  0.00  0.00    +0.265 C 
ATOM      3  C   LIG    1       24.703 -31.218  12.755  0.00  0.00    +0.265 C 
ATOM      4  C   LIG    1       25.437 -30.377  11.701  0.00  0.00    +0.265 C 
ATOM      5  C   LIG    1       25.149 -30.770  10.226  0.00  0.00    +0.265 C 
ATOM      6  C   LIG    1       24.026 -31.803   9.946  0.00  0.00    +0.265 C 
ENDROOT
BRANCH   2   7
ATOM      7  O   LIG    1       22.295 -30.566  12.565  0.00  0.00    -0.450 OA
BRANCH   7   8
ATOM      8  C   LIG    1       21.548 -30.445  13.676  0.00  0.00    +0.341 C 
ATOM      9  O   LIG    1       21.459 -31.271  14.579  0.00  0.00    -0.245 OA
BRANCH   8  10
ATOM     10  C   LIG    1       20.910 -29.168  13.829  0.00  0.00    +0.077 A 
ATOM     11  C   LIG    1       20.117 -29.007  14.964  0.00  0.00    +0.125 A 
ATOM     12  N   LIG    1       19.498 -27.861  15.285  0.00  0.00    -0.262 NA
ATOM     13  C   LIG    1       19.711 -26.824  14.449  0.00  0.00    +0.111 A 
ATOM     14  C   LIG    1       20.515 -26.883  13.314  0.00  0.00    +0.020 A 
ATOM     15  C   LIG    1       21.134 -28.081  12.993  0.00  0.00    +0.018 A 
ENDBRANCH   8  10
ENDBRANCH   7   8
ENDBRANCH   2   7
BRANCH   3  16
ATOM     16  O   LIG    1       24.995 -30.848  14.121  0.00  0.00    -0.450 OA
BRANCH  16  17
ATOM     17  C   LIG    1       25.790 -31.595  14.905  0.00  0.00    +0.341 C 
ATOM     18  O   LIG    1       25.602 -32.754  15.239  0.00  0.00    -0.245 OA
BRANCH  17  19
ATOM     19  C   LIG    1       27.009 -30.799  15.168  0.00  0.00    +0.077 A 
ATOM     20  C   LIG    1       28.250 -31.417  15.134  0.00  0.00    +0.125 A 
ATOM     21  N   LIG    1       29.426 -30.747  15.255  0.00  0.00    -0.262 NA
ATOM     22  C   LIG    1       29.353 -29.407  15.433  0.00  0.00    +0.111 A 
ATOM     23  C   LIG    1       28.162 -28.704  15.498  0.00  0.00    +0.020 A 
ATOM     24  C   LIG    1       26.972 -29.412  15.358  0.00  0.00    +0.018 A 
ENDBRANCH  17  19
ENDBRANCH  16  17
ENDBRANCH   3  16
BRANCH   4  25
ATOM     25  O   LIG    1       26.915 -30.488  11.876  0.00  0.00    -0.450 OA
BRANCH  25  26
ATOM     26  C   LIG    1       27.710 -29.369  11.889  0.00  0.00    +0.341 C 
ATOM     27  O   LIG    1       28.783 -29.227  11.430  0.00  0.00    -0.245 OA
BRANCH  26  28
ATOM     28  C   LIG    1       26.978 -28.195  12.325  0.00  0.00    +0.077 A 
ATOM     29  C   LIG    1       25.600 -28.198  12.524  0.00  0.00    +0.125 A 
ATOM     30  N   LIG    1       24.917 -27.104  12.916  0.00  0.00    -0.262 NA
ATOM     31  C   LIG    1       25.624 -25.966  13.112  0.00  0.00    +0.111 A 
ATOM     32  C   LIG    1       27.001 -25.868  12.953  0.00  0.00    +0.020 A 
ATOM     33  C   LIG    1       27.682 -27.003  12.562  0.00  0.00    +0.018 A 
ENDBRANCH  26  28
ENDBRANCH  25  26
ENDBRANCH   4  25
BRANCH   5  34
ATOM     34  O   LIG    1       24.899 -29.679   9.268  0.00  0.00    -0.450 OA
BRANCH  34  35
ATOM     35  C   LIG    1       25.844 -28.910   8.683  0.00  0.00    +0.341 C 
ATOM     36  O   LIG    1       26.918 -28.609   9.160  0.00  0.00    -0.245 OA
BRANCH  35  37
ATOM     37  C   LIG    1       25.353 -28.451   7.356  0.00  0.00    +0.077 A 
ATOM     38  C   LIG    1       24.404 -29.169   6.636  0.00  0.00    +0.125 A 
ATOM     39  N   LIG    1       23.890 -28.785   5.442  0.00  0.00    -0.262 NA
ATOM     40  C   LIG    1       24.357 -27.634   4.926  0.00  0.00    +0.111 A 
ATOM     41  C   LIG    1       25.296 -26.837   5.564  0.00  0.00    +0.020 A 
ATOM     42  C   LIG    1       25.794 -27.246   6.805  0.00  0.00    +0.018 A 
ENDBRANCH  35  37
ENDBRANCH  34  35
ENDBRANCH   5  34
BRANCH   1  43
ATOM     43  O   LIG    1       21.985 -32.884  10.702  0.00  0.00    -0.450 OA
BRANCH  43  45
ATOM     44  O   LIG    1       21.423 -30.932   9.657  0.00  0.00    -0.245 OA
ATOM     45  C   LIG    1       21.125 -31.917  10.302  0.00  0.00    +0.341 C 
BRANCH  45  46
ATOM     46  C   LIG    1       19.781 -32.189  10.870  0.00  0.00    +0.077 A 
ATOM     47  C   LIG    1       18.681 -31.436  10.517  0.00  0.00    +0.125 A 
ATOM     48  N   LIG    1       17.450 -31.571  11.088  0.00  0.00    -0.262 NA
ATOM     49  C   LIG    1       17.319 -32.492  12.067  0.00  0.00    +0.111 A 
ATOM     50  C   LIG    1       18.355 -33.294  12.484  0.00  0.00    +0.020 A 
ATOM     51  C   LIG    1       19.587 -33.144  11.861  0.00  0.00    +0.018 A 
ENDBRANCH  45  46
ENDBRANCH  43  45
ENDBRANCH   1  43
BRANCH   6  52
ATOM     52  O   LIG    1       24.589 -32.823   9.057  0.00  0.00    -0.450 OA
BRANCH  52  53
ATOM     53  C   LIG    1       24.068 -32.858   7.794  0.00  0.00    +0.341 C 
ATOM     54  O   LIG    1       22.897 -32.898   7.473  0.00  0.00    -0.245 OA
BRANCH  53  55
ATOM     55  C   LIG    1       25.127 -32.953   6.796  0.00  0.00    +0.077 A 
ATOM     56  C   LIG    1       24.837 -32.617   5.481  0.00  0.00    +0.125 A 
ATOM     57  N   LIG    1       25.751 -32.599   4.491  0.00  0.00    -0.262 NA
ATOM     58  C   LIG    1       27.022 -32.864   4.857  0.00  0.00    +0.111 A 
ATOM     59  C   LIG    1       27.407 -33.182   6.154  0.00  0.00    +0.020 A 
ATOM     60  C   LIG    1       26.435 -33.250   7.143  0.00  0.00    +0.018 A 
ENDBRANCH  53  55
ENDBRANCH  52  53
ENDBRANCH   6  52
TORSDOF 18
ENDMDL
MODEL 7
REMARK VINA RESULT:      -4.3      2.326      7.651
REMARK  Name = *****
REMARK                            x       y       z     vdW  Elec       q    Type
REMARK                         _______ _______ _______ _____ _____    ______ ____
ROOT
ATOM      1  C   LIG    1       25.730 -28.902  11.386  0.00  0.00    +0.265 C 
ATOM      2  C   LIG    1       25.905 -29.990  12.484  0.00  0.00    +0.265 C 
ATOM      3  C   LIG    1       24.952 -31.133  12.127  0.00  0.00    +0.265 C 
ATOM      4  C   LIG    1       25.170 -31.832  10.778  0.00  0.00    +0.265 C 
ATOM      5  C   LIG    1       25.572 -30.895   9.606  0.00  0.00    +0.265 C 
ATOM      6  C   LIG    1       25.911 -29.417   9.929  0.00  0.00    +0.265 C 
ENDROOT
BRANCH   2   7
ATOM      7  O   LIG    1       27.228 -30.409  12.874  0.00  0.00    -0.450 OA
BRANCH   7   8
ATOM      8  C   LIG    1       27.828 -29.870  13.950  0.00  0.00    +0.341 C 
ATOM      9  O   LIG    1       27.269 -29.511  14.982  0.00  0.00    -0.245 OA
BRANCH   8  10
ATOM     10  C   LIG    1       29.260 -29.842  13.881  0.00  0.00    +0.077 A 
ATOM     11  C   LIG    1       29.940 -30.250  15.027  0.00  0.00    +0.125 A 
ATOM     12  N   LIG    1       31.277 -30.337  15.112  0.00  0.00    -0.262 NA
ATOM     13  C   LIG    1       31.957 -30.034  13.988  0.00  0.00    +0.111 A 
ATOM     14  C   LIG    1       31.362 -29.652  12.788  0.00  0.00    +0.020 A 
ATOM     15  C   LIG    1       29.980 -29.556  12.727  0.00  0.00    +0.018 A 
ENDBRANCH   8  10
ENDBRANCH   7   8
ENDBRANCH   2   7
BRANCH   3  16
ATOM     16  O   LIG    1       24.564 -32.017  13.202  0.00  0.00    -0.450 OA
BRANCH  16  17
ATOM     17  C   LIG    1       23.974 -31.561  14.319  0.00  0.00    +0.341 C 
ATOM     18  O   LIG    1       24.415 -30.715  15.081  0.00  0.00    -0.245 OA
BRANCH  17  19
ATOM     19  C   LIG    1       22.627 -32.167  14.375  0.00  0.00    +0.077 A 
ATOM     20  C   LIG    1       21.600 -31.496  15.024  0.00  0.00    +0.125 A 
ATOM     21  N   LIG    1       20.310 -31.923  15.032  0.00  0.00    -0.262 NA
ATOM     22  C   LIG    1       20.042 -33.077  14.377  0.00  0.00    +0.111 A 
ATOM     23  C   LIG    1       21.001 -33.825  13.714  0.00  0.00    +0.020 A 
ATOM     24  C   LIG    1       22.312 -33.359  13.711  0.00  0.00    +0.018 A 
ENDBRANCH  17  19
ENDBRANCH  16  17
ENDBRANCH   3  16
BRANCH   4  25
ATOM     25  O   LIG    1       23.923 -32.528  10.341  0.00  0.00    -0.450 OA
BRANCH  25  26
ATOM     26  C   LIG    1       23.007 -31.895   9.538  0.00  0.00    +0.341 C 
ATOM     27  O   LIG    1       23.032 -31.747   8.371  0.00  0.00    -0.245 OA
BRANCH  26  28
ATOM     28  C   LIG    1       21.774 -31.613  10.248  0.00  0.00    +0.077 A 
ATOM     29  C   LIG    1       21.610 -30.489  11.054  0.00  0.00    +0.125 A 
ATOM     30  N   LIG    1       20.470 -30.232  11.725  0.00  0.00    -0.262 NA
ATOM     31  C   LIG    1       19.458 -31.124  11.596  0.00  0.00    +0.111 A 
ATOM     32  C   LIG    1       19.521 -32.263  10.805  0.00  0.00    +0.020 A 
ATOM     33  C   LIG    1       20.694 -32.501  10.118  0.00  0.00    +0.018 A 
ENDBRANCH  26  28
ENDBRANCH  25  26
ENDBRANCH   4  25
BRANCH   5  34
ATOM     34  O   LIG    1       26.661 -31.343   8.721  0.00  0.00    -0.450 OA
BRANCH  34  35
ATOM     35  C   LIG    1       27.028 -32.625   8.506  0.00  0.00    +0.341 C 
ATOM     36  O   LIG    1       27.636 -33.335   9.279  0.00  0.00    -0.245 OA
BRANCH  35  37
ATOM     37  C   LIG    1       26.595 -33.039   7.144  0.00  0.00    +0.077 A 
ATOM     38  C   LIG    1       25.297 -33.471   6.885  0.00  0.00    +0.125 A 
ATOM     39  N   LIG    1       24.832 -33.825   5.663  0.00  0.00    -0.262 NA
ATOM     40  C   LIG    1       25.708 -33.764   4.644  0.00  0.00    +0.111 A 
ATOM     41  C   LIG    1       27.020 -33.341   4.789  0.00  0.00    +0.020 A 
ATOM     42  C   LIG    1       27.468 -32.961   6.058  0.00  0.00    +0.018 A 
ENDBRANCH  35  37
ENDBRANCH  34  35
ENDBRANCH   5  34
BRANCH   1  43
ATOM     43  O   LIG    1       26.640 -27.782  11.574  0.00  0.00    -0.450 OA
BRANCH  43  45
ATOM     44  O   LIG    1       26.712 -25.617  12.299  0.00  0.00    -0.245 OA
ATOM     45  C   LIG    1       26.212 -26.724  12.303  0.00  0.00    +0.341 C 
BRANCH  45  46
ATOM     46  C   LIG    1       25.106 -27.156  13.194  0.00  0.00    +0.077 A 
ATOM     47  C   LIG    1       23.920 -27.646  12.688  0.00  0.00    +0.125 A 
ATOM     48  N   LIG    1       22.835 -27.953  13.454  0.00  0.00    -0.262 NA
ATOM     49  C   LIG    1       22.937 -27.746  14.785  0.00  0.00    +0.111 A 
ATOM     50  C   LIG    1       24.079 -27.268  15.383  0.00  0.00    +0.020 A 
ATOM     51  C   LIG    1       25.172 -26.990  14.573  0.00  0.00    +0.018 A 
ENDBRANCH  45  46
ENDBRANCH  43  45
ENDBRANCH   1  43
BRANCH   6  52
ATOM     52  O   LIG    1       25.135 -28.583   9.007  0.00  0.00    -0.450 OA
BRANCH  52  53
ATOM     53  C   LIG    1       25.234 -28.915   7.685  0.00  0.00    +0.341 C 
ATOM     54  O   LIG    1       25.347 -30.026   7.204  0.00  0.00    -0.245 OA
BRANCH  53  55
ATOM     55  C   LIG    1       25.300 -27.721   6.851  0.00  0.00    +0.077 A 
ATOM     56  C   LIG    1       24.333 -27.537   5.873  0.00  0.00    +0.125 A 
ATOM     57  N   LIG    1       24.254 -26.440   5.093  0.00  0.00    -0.262 NA
ATOM     58  C   LIG    1       25.144 -25.462   5.358  0.00  0.00    +0.111 A 
ATOM     59  C   LIG    1       26.128 -25.551   6.336  0.00  0.00    +0.020 A 
ATOM     60  C   LIG    1       26.222 -26.715   7.086  0.00  0.00    +0.018 A 
ENDBRANCH  53  55
ENDBRANCH  52  53
ENDBRANCH   6  52
TORSDOF 18
ENDMDL
MODEL 8
REMARK VINA RESULT:      -3.9      2.309      8.820
REMARK  Name = *****
REMARK                            x       y       z     vdW  Elec       q    Type
REMARK                         _______ _______ _______ _____ _____    ______ ____
ROOT
ATOM      1  C   LIG    1       24.954 -29.486   9.241  0.00  0.00    +0.265 C 
ATOM      2  C   LIG    1       25.268 -29.366  10.760  0.00  0.00    +0.265 C 
ATOM      3  C   LIG    1       24.070 -29.960  11.505  0.00  0.00    +0.265 C 
ATOM      4  C   LIG    1       23.740 -31.436  11.239  0.00  0.00    +0.265 C 
ATOM      5  C   LIG    1       23.918 -31.897   9.767  0.00  0.00    +0.265 C 
ATOM      6  C   LIG    1       24.588 -30.921   8.766  0.00  0.00    +0.265 C 
ENDROOT
BRANCH   2   7
ATOM      7  O   LIG    1       26.554 -29.782  11.261  0.00  0.00    -0.450 OA
BRANCH   7   8
ATOM      8  C   LIG    1       27.224 -29.018  12.141  0.00  0.00    +0.341 C 
ATOM      9  O   LIG    1       27.450 -27.817  12.029  0.00  0.00    -0.245 OA
BRANCH   8  10
ATOM     10  C   LIG    1       27.583 -29.688  13.358  0.00  0.00    +0.077 A 
ATOM     11  C   LIG    1       27.037 -30.957  13.547  0.00  0.00    +0.125 A 
ATOM     12  N   LIG    1       27.313 -31.740  14.601  0.00  0.00    -0.262 NA
ATOM     13  C   LIG    1       28.201 -31.241  15.485  0.00  0.00    +0.111 A 
ATOM     14  C   LIG    1       28.823 -30.001  15.360  0.00  0.00    +0.020 A 
ATOM     15  C   LIG    1       28.512 -29.203  14.270  0.00  0.00    +0.018 A 
ENDBRANCH   8  10
ENDBRANCH   7   8
ENDBRANCH   2   7
BRANCH   3  16
ATOM     16  O   LIG    1       23.885 -29.545  12.876  0.00  0.00    -0.450 OA
BRANCH  16  17
ATOM     17  C   LIG    1       23.683 -28.259  13.208  0.00  0.00    +0.341 C 
ATOM     18  O   LIG    1       24.503 -27.355  13.150  0.00  0.00    -0.245 OA
BRANCH  17  19
ATOM     19  C   LIG    1       22.244 -28.112  13.515  0.00  0.00    +0.077 A 
ATOM     20  C   LIG    1       21.678 -28.878  14.523  0.00  0.00    +0.125 A 
ATOM     21  N   LIG    1       20.395 -28.733  14.946  0.00  0.00    -0.262 NA
ATOM     22  C   LIG    1       19.646 -27.792  14.324  0.00  0.00    +0.111 A 
ATOM     23  C   LIG    1       20.118 -26.990  13.298  0.00  0.00    +0.020 A 
ATOM     24  C   LIG    1       21.439 -27.151  12.891  0.00  0.00    +0.018 A 
ENDBRANCH  17  19
ENDBRANCH  16  17
ENDBRANCH   3  16
BRANCH   4  25
ATOM     25  O   LIG    1       22.320 -31.728  11.594  0.00  0.00    -0.450 OA
BRANCH  25  26
ATOM     26  C   LIG    1       21.286 -31.148  10.901  0.00  0.00    +0.341 C 
ATOM     27  O   LIG    1       21.331 -30.513   9.913  0.00  0.00    -0.245 OA
BRANCH  26  28
ATOM     28  C   LIG    1       19.996 -31.619  11.368  0.00  0.00    +0.077 A 
ATOM     29  C   LIG    1       19.079 -32.253  10.532  0.00  0.00    +0.125 A 
ATOM     30  N   LIG    1       17.875 -32.679  10.961  0.00  0.00    -0.262 NA
ATOM     31  C   LIG    1       17.566 -32.464  12.262  0.00  0.00    +0.111 A 
ATOM     32  C   LIG    1       18.418 -31.856  13.175  0.00  0.00    +0.020 A 
ATOM     33  C   LIG    1       19.651 -31.437  12.716  0.00  0.00    +0.018 A 
ENDBRANCH  26  28
ENDBRANCH  25  26
ENDBRANCH   4  25
BRANCH   5  34
ATOM     34  O   LIG    1       24.589 -33.188   9.535  0.00  0.00    -0.450 OA
BRANCH  34  35
ATOM     35  C   LIG    1       25.826 -33.523   9.962  0.00  0.00    +0.341 C 
ATOM     36  O   LIG    1       26.168 -33.675  11.116  0.00  0.00    -0.245 OA
BRANCH  35  37
ATOM     37  C   LIG    1       26.734 -33.651   8.791  0.00  0.00    +0.077 A 
ATOM     38  C   LIG    1       26.252 -33.656   7.485  0.00  0.00    +0.125 A 
ATOM     39  N   LIG    1       27.029 -33.731   6.377  0.00  0.00    -0.262 NA
ATOM     40  C   LIG    1       28.356 -33.824   6.577  0.00  0.00    +0.111 A 
ATOM     41  C   LIG    1       28.942 -33.820   7.833  0.00  0.00    +0.020 A 
ATOM     42  C   LIG    1       28.119 -33.720   8.959  0.00  0.00    +0.018 A 
ENDBRANCH  35  37
ENDBRANCH  34  35
ENDBRANCH   5  34
BRANCH   1  43
ATOM     43  O   LIG    1       26.055 -29.015   8.414  0.00  0.00    -0.450 OA
BRANCH  43  45
ATOM     44  O   LIG    1       26.677 -27.018   9.333  0.00  0.00    -0.245 OA
ATOM     45  C   LIG    1       26.313 -27.686   8.386  0.00  0.00    +0.341 C 
BRANCH  45  46
ATOM     46  C   LIG    1       25.974 -27.148   7.045  0.00  0.00    +0.077 A 
ATOM     47  C   LIG    1       25.989 -25.794   6.783  0.00  0.00    +0.125 A 
ATOM     48  N   LIG    1       25.583 -25.241   5.605  0.00  0.00    -0.262 NA
ATOM     49  C   LIG    1       25.127 -26.081   4.652  0.00  0.00    +0.111 A 
ATOM     50  C   LIG    1       25.080 -27.445   4.815  0.00  0.00    +0.020 A 
ATOM     51  C   LIG    1       25.526 -27.973   6.019  0.00  0.00    +0.018 A 
ENDBRANCH  45  46
ENDBRANCH  43  45
ENDBRANCH   1  43
BRANCH   6  52
ATOM     52  O   LIG    1       23.722 -30.848   7.585  0.00  0.00    -0.450 OA
BRANCH  52  53
ATOM     53  C   LIG    1       23.378 -32.049   7.031  0.00  0.00    +0.341 C 
ATOM     54  O   LIG    1       22.646 -32.901   7.496  0.00  0.00    -0.245 OA
BRANCH  53  55
ATOM     55  C   LIG    1       24.104 -32.276   5.787  0.00  0.00    +0.077 A 
ATOM     56  C   LIG    1       23.718 -33.332   4.973  0.00  0.00    +0.125 A 
ATOM     57  N   LIG    1       24.269 -33.592   3.770  0.00  0.00    -0.262 NA
ATOM     58  C   LIG    1       25.198 -32.713   3.343  0.00  0.00    +0.111 A 
ATOM     59  C   LIG    1       25.624 -31.614   4.081  0.00  0.00    +0.020 A 
ATOM     60  C   LIG    1       25.081 -31.402   5.340  0.00  0.00    +0.018 A 
ENDBRANCH  53  55
ENDBRANCH  52  53
ENDBRANCH   6  52
TORSDOF 18
ENDMDL
MODEL 9
REMARK VINA RESULT:      -3.7      2.436      8.043
REMARK  Name = *****
REMARK                            x       y       z     vdW  Elec       q    Type
REMARK                         _______ _______ _______ _____ _____    ______ ____
ROOT
ATOM      1  C   LIG    1       26.296 -30.480  10.524  0.00  0.00    +0.265 C 
ATOM      2  C   LIG    1       25.791 -29.280  11.375  0.00  0.00    +0.265 C 
ATOM      3  C   LIG    1       26.237 -28.007  10.652  0.00  0.00    +0.265 C 
ATOM      4  C   LIG    1       25.709 -27.788   9.228  0.00  0.00    +0.265 C 
ATOM      5  C   LIG    1       25.619 -29.068   8.352  0.00  0.00    +0.265 C 
ATOM      6  C   LIG    1       25.864 -30.441   9.030  0.00  0.00    +0.265 C 
ENDROOT
BRANCH   2   7
ATOM      7  O   LIG    1       24.428 -29.258  11.845  0.00  0.00    -0.450 OA
BRANCH   7   8
ATOM      8  C   LIG    1       24.149 -28.939  13.122  0.00  0.00    +0.341 C 
ATOM      9  O   LIG    1       24.968 -28.806  14.027  0.00  0.00    -0.245 OA
BRANCH   8  10
ATOM     10  C   LIG    1       22.773 -28.620  13.369  0.00  0.00    +0.077 A 
ATOM     11  C   LIG    1       21.832 -29.330  12.623  0.00  0.00    +0.125 A 
ATOM     12  N   LIG    1       20.506 -29.194  12.771  0.00  0.00    -0.262 NA
ATOM     13  C   LIG    1       20.107 -28.334  13.730  0.00  0.00    +0.111 A 
ATOM     14  C   LIG    1       20.973 -27.610  14.545  0.00  0.00    +0.020 A 
ATOM     15  C   LIG    1       22.340 -27.756  14.367  0.00  0.00    +0.018 A 
ENDBRANCH   8  10
ENDBRANCH   7   8
ENDBRANCH   2   7
BRANCH   3  16
ATOM     16  O   LIG    1       26.328 -26.804  11.447  0.00  0.00    -0.450 OA
BRANCH  16  17
ATOM     17  C   LIG    1       27.093 -26.737  12.549  0.00  0.00    +0.341 C 
ATOM     18  O   LIG    1       28.123 -27.359  12.759  0.00  0.00    -0.245 OA
BRANCH  17  19
ATOM     19  C   LIG    1       26.537 -25.661  13.397  0.00  0.00    +0.077 A 
ATOM     20  C   LIG    1       27.391 -24.883  14.165  0.00  0.00    +0.125 A 
ATOM     21  N   LIG    1       26.982 -23.807  14.887  0.00  0.00    -0.262 NA
ATOM     22  C   LIG    1       25.663 -23.508  14.849  0.00  0.00    +0.111 A 
ATOM     23  C   LIG    1       24.731 -24.234  14.125  0.00  0.00    +0.020 A 
ATOM     24  C   LIG    1       25.177 -25.324  13.385  0.00  0.00    +0.018 A 
ENDBRANCH  17  19
ENDBRANCH  16  17
ENDBRANCH   3  16
BRANCH   4  25
ATOM     25  O   LIG    1       26.588 -26.839   8.483  0.00  0.00    -0.450 OA
BRANCH  25  26
ATOM     26  C   LIG    1       26.356 -26.555   7.160  0.00  0.00    +0.341 C 
ATOM     27  O   LIG    1       26.660 -27.180   6.211  0.00  0.00    -0.245 OA
BRANCH  26  28
ATOM     28  C   LIG    1       25.412 -25.465   7.001  0.00  0.00    +0.077 A 
ATOM     29  C   LIG    1       24.116 -25.655   6.528  0.00  0.00    +0.125 A 
ATOM     30  N   LIG    1       23.242 -24.642   6.368  0.00  0.00    -0.262 NA
ATOM     31  C   LIG    1       23.670 -23.395   6.682  0.00  0.00    +0.111 A 
ATOM     32  C   LIG    1       24.936 -23.108   7.175  0.00  0.00    +0.020 A 
ATOM     33  C   LIG    1       25.811 -24.163   7.342  0.00  0.00    +0.018 A 
ENDBRANCH  26  28
ENDBRANCH  25  26
ENDBRANCH   4  25
BRANCH   5  34
ATOM     34  O   LIG    1       24.398 -29.260   7.551  0.00  0.00    -0.450 OA
BRANCH  34  35
ATOM     35  C   LIG    1       24.310 -29.965   6.402  0.00  0.00    +0.341 C 
ATOM     36  O   LIG    1       24.650 -29.585   5.302  0.00  0.00    -0.245 OA
BRANCH  35  37
ATOM     37  C   LIG    1       23.694 -31.290   6.683  0.00  0.00    +0.077 A 
ATOM     38  C   LIG    1       23.152 -31.598   7.927  0.00  0.00    +0.125 A 
ATOM     39  N   LIG    1       22.545 -32.771   8.234  0.00  0.00    -0.262 NA
ATOM     40  C   LIG    1       22.489 -33.694   7.257  0.00  0.00    +0.111 A 
ATOM     41  C   LIG    1       22.989 -33.487   5.981  0.00  0.00    +0.020 A 
ATOM     42  C   LIG    1       23.592 -32.261   5.685  0.00  0.00    +0.018 A 
ENDBRANCH  35  37
ENDBRANCH  34  35
ENDBRANCH   5  34
BRANCH   1  43
ATOM     43  O   LIG    1       25.873 -31.759  11.073  0.00  0.00    -0.450 OA
BRANCH  43  45
ATOM     44  O   LIG    1       26.623 -31.608  13.225  0.00  0.00    -0.245 OA
ATOM     45  C   LIG    1       25.756 -31.873  12.417  0.00  0.00    +0.341 C 
BRANCH  45  46
ATOM     46  C   LIG    1       24.441 -32.478  12.746  0.00  0.00    +0.077 A 
ATOM     47  C   LIG    1       24.182 -33.011  13.992  0.00  0.00    +0.125 A 
ATOM     48  N   LIG    1       23.035 -33.675  14.312  0.00  0.00    -0.262 NA
ATOM     49  C   LIG    1       22.113 -33.825  13.337  0.00  0.00    +0.111 A 
ATOM     50  C   LIG    1       22.277 -33.324  12.068  0.00  0.00    +0.020 A 
ATOM     51  C   LIG    1       23.447 -32.632  11.786  0.00  0.00    +0.018 A 
ENDBRANCH  45  46
ENDBRANCH  43  45
ENDBRANCH   1  43
BRANCH   6  52
ATOM     52  O   LIG    1       26.844 -31.160   8.211  0.00  0.00    -0.450 OA
BRANCH  52  53
ATOM     53  C   LIG    1       26.638 -32.506   8.091  0.00  0.00    +0.341 C 
ATOM     54  O   LIG    1       26.010 -33.232   8.837  0.00  0.00    -0.245 OA
BRANCH  53  55
ATOM     55  C   LIG    1       27.381 -33.048   6.960  0.00  0.00    +0.077 A 
ATOM     56  C   LIG    1       26.768 -33.088   5.716  0.00  0.00    +0.125 A 
ATOM     57  N   LIG    1       27.381 -33.501   4.589  0.00  0.00    -0.262 NA
ATOM     58  C   LIG    1       28.686 -33.822   4.711  0.00  0.00    +0.111 A 
ATOM     59  C   LIG    1       29.386 -33.784   5.911  0.00  0.00    +0.020 A 
ATOM     60  C   LIG    1       28.714 -33.410   7.066  0.00  0.00    +0.018 A 
ENDBRANCH  53  55
ENDBRANCH  52  53
ENDBRANCH   6  52
TORSDOF 18
ENDMDL
