MODEL 1
REMARK VINA RESULT:      -6.4      0.000      0.000
REMARK  Name = *****
REMARK                            x       y       z     vdW  Elec       q    Type
REMARK                         _______ _______ _______ _____ _____    ______ ____
ROOT
ATOM      1  C   LIG    1       25.406 -30.637   7.226  0.00  0.00    +0.169 C 
ATOM      2  C   LIG    1       26.324 -31.141   8.392  0.00  0.00    +0.175 C 
ATOM      3  C   LIG    1       25.556 -31.744   9.618  0.00  0.00    +0.169 C 
ATOM      4  C   LIG    1       24.709 -32.923   9.067  0.00  0.00    +0.084 C 
ATOM      5  C   LIG    1       23.669 -32.384   8.084  0.00  0.00    +0.042 C 
ATOM      6  C   LIG    1       24.370 -31.758   6.866  0.00  0.00    +0.084 C 
ENDROOT
BRANCH   4   7
ATOM      7  N   LIG    1       24.082 -33.824  10.033  0.00  0.00    -0.325 NA
ATOM      8  H   LIG    1       23.442 -34.481   9.588  0.00  0.00    +0.118 HD
ATOM      9  H   LIG    1       24.745 -34.345  10.599  0.00  0.00    +0.118 HD
ENDBRANCH   4   7
BRANCH   6  10
ATOM     10  N   LIG    1       23.346 -31.420   5.868  0.00  0.00    -0.325 NA
ATOM     11  H   LIG    1       22.447 -31.302   6.340  0.00  0.00    +0.118 HD
ATOM     12  H   LIG    1       23.541 -30.495   5.483  0.00  0.00    +0.118 HD
ENDBRANCH   6  10
BRANCH   2  13
ATOM     13  O   LIG    1       27.192 -30.085   8.831  0.00  0.00    -0.387 OA
ATOM     14  H   LIG    1       26.818 -29.277   8.426  0.00  0.00    +0.210 HD
ENDBRANCH   2  13
BRANCH   1  15
ATOM     15  O   LIG    1       24.919 -29.352   7.638  0.00  0.00    -0.342 OA
BRANCH  15  18
ATOM     16  C   LIG    1       25.371 -25.864   6.523  0.00  0.00    +0.138 C 
ATOM     17  O   LIG    1       24.685 -26.976   7.155  0.00  0.00    -0.345 OA
ATOM     18  C   LIG    1       25.387 -28.208   6.917  0.00  0.00    +0.268 C 
ATOM     19  C   LIG    1       25.318 -28.566   5.400  0.00  0.00    +0.107 C 
ATOM     20  C   LIG    1       26.036 -27.461   4.637  0.00  0.00    +0.026 C 
ATOM     21  C   LIG    1       25.474 -26.089   4.996  0.00  0.00    +0.035 C 
BRANCH  19  22
ATOM     22  N   LIG    1       23.941 -28.700   4.879  0.00  0.00    -0.323 NA
ATOM     23  H   LIG    1       23.277 -28.615   5.644  0.00  0.00    +0.119 HD
ATOM     24  H   LIG    1       23.767 -27.926   4.239  0.00  0.00    +0.119 HD
ENDBRANCH  19  22
BRANCH  16  25
ATOM     25  C   LIG    1       24.669 -24.488   6.834  0.00  0.00    +0.079 C 
ATOM     26  C   LIG    1       25.402 -23.336   6.134  0.00  0.00    +0.026 C 
BRANCH  25  28
ATOM     27  C   LIG    1       22.483 -23.325   6.721  0.00  0.00    +0.101 C 
ATOM     28  N   LIG    1       23.235 -24.541   6.442  0.00  0.00    -0.314 NA
ATOM     29  H   LIG    1       22.788 -25.295   6.963  0.00  0.00    +0.122 HD
ENDBRANCH  25  28
ENDBRANCH  16  25
ENDBRANCH  15  18
ENDBRANCH   1  15
BRANCH   3  30
ATOM     30  O   LIG    1       24.820 -30.692  10.278  0.00  0.00    -0.341 OA
BRANCH  30  31
ATOM     31  C   LIG    1       24.462 -30.873  11.647  0.00  0.00    +0.281 C 
ATOM     32  C   LIG    1       25.613 -31.148  12.657  0.00  0.00    +0.190 C 
ATOM     33  C   LIG    1       26.486 -29.883  12.895  0.00  0.00    +0.121 C 
ATOM     34  C   LIG    1       25.577 -28.658  13.253  0.00  0.00    +0.104 C 
ATOM     35  C   LIG    1       24.985 -28.771  14.671  0.00  0.00    +0.045 C 
ATOM     36  C   LIG    1       24.455 -28.547  12.205  0.00  0.00    +0.199 C 
ATOM     37  O   LIG    1       23.687 -29.747  12.109  0.00  0.00    -0.346 OA
BRANCH  33  38
ATOM     38  N   LIG    1       27.356 -29.749  11.696  0.00  0.00    -0.311 NA
ATOM     39  H   LIG    1       27.032 -28.986  11.096  0.00  0.00    +0.122 HD
ATOM     40  C   LIG    1       28.766 -29.544  11.973  0.00  0.00    +0.101 C 
ENDBRANCH  33  38
BRANCH  32  41
ATOM     41  O   LIG    1       25.093 -31.663  13.897  0.00  0.00    -0.385 OA
ATOM     42  H   LIG    1       25.158 -30.959  14.568  0.00  0.00    +0.210 HD
ENDBRANCH  32  41
BRANCH  34  43
ATOM     43  O   LIG    1       26.343 -27.438  13.272  0.00  0.00    -0.385 OA
ATOM     44  H   LIG    1       25.982 -26.837  12.615  0.00  0.00    +0.210 HD
ENDBRANCH  34  43
ENDBRANCH  30  31
ENDBRANCH   3  30
TORSDOF 13
ENDMDL
MODEL 2
REMARK VINA RESULT:      -6.1      1.505      2.381
REMARK  Name = *****
REMARK                            x       y       z     vdW  Elec       q    Type
REMARK                         _______ _______ _______ _____ _____    ______ ____
ROOT
ATOM      1  C   LIG    1       25.396 -30.242   7.465  0.00  0.00    +0.169 C 
ATOM      2  C   LIG    1       26.223 -30.585   8.750  0.00  0.00    +0.175 C 
ATOM      3  C   LIG    1       25.363 -31.021   9.986  0.00  0.00    +0.169 C 
ATOM      4  C   LIG    1       24.548 -32.264   9.536  0.00  0.00    +0.084 C 
ATOM      5  C   LIG    1       23.586 -31.861   8.417  0.00  0.00    +0.042 C 
ATOM      6  C   LIG    1       24.379 -31.401   7.181  0.00  0.00    +0.084 C 
ENDROOT
BRANCH   4   7
ATOM      7  N   LIG    1       23.845 -33.030  10.564  0.00  0.00    -0.325 NA
ATOM      8  H   LIG    1       23.123 -33.632  10.170  0.00  0.00    +0.118 HD
ATOM      9  H   LIG    1       24.457 -33.591  11.148  0.00  0.00    +0.118 HD
ENDBRANCH   4   7
BRANCH   6  10
ATOM     10  N   LIG    1       23.432 -31.200   6.076  0.00  0.00    -0.325 NA
ATOM     11  H   LIG    1       22.592 -30.744   6.435  0.00  0.00    +0.118 HD
ATOM     12  H   LIG    1       23.817 -30.519   5.420  0.00  0.00    +0.118 HD
ENDBRANCH   6  10
BRANCH   2  13
ATOM     13  O   LIG    1       27.065 -29.479   9.108  0.00  0.00    -0.387 OA
ATOM     14  H   LIG    1       26.723 -28.731   8.579  0.00  0.00    +0.210 HD
ENDBRANCH   2  13
BRANCH   1  15
ATOM     15  O   LIG    1       24.890 -28.913   7.666  0.00  0.00    -0.342 OA
BRANCH  15  18
ATOM     16  C   LIG    1       25.497 -25.592   6.178  0.00  0.00    +0.138 C 
ATOM     17  O   LIG    1       24.770 -26.592   6.937  0.00  0.00    -0.345 OA
ATOM     18  C   LIG    1       25.401 -27.879   6.819  0.00  0.00    +0.268 C 
ATOM     19  C   LIG    1       25.277 -28.390   5.351  0.00  0.00    +0.107 C 
ATOM     20  C   LIG    1       26.035 -27.412   4.461  0.00  0.00    +0.026 C 
ATOM     21  C   LIG    1       25.553 -25.982   4.682  0.00  0.00    +0.035 C 
BRANCH  19  22
ATOM     22  N   LIG    1       23.883 -28.504   4.871  0.00  0.00    -0.323 NA
ATOM     23  H   LIG    1       23.289 -28.835   5.626  0.00  0.00    +0.119 HD
ATOM     24  H   LIG    1       23.559 -27.572   4.615  0.00  0.00    +0.119 HD
ENDBRANCH  19  22
BRANCH  16  25
ATOM     25  C   LIG    1       24.876 -24.155   6.353  0.00  0.00    +0.079 C 
ATOM     26  C   LIG    1       25.708 -23.321   7.337  0.00  0.00    +0.026 C 
BRANCH  25  28
ATOM     27  C   LIG    1       24.672 -22.028   5.096  0.00  0.00    +0.101 C 
ATOM     28  N   LIG    1       24.757 -23.481   5.033  0.00  0.00    -0.314 NA
ATOM     29  H   LIG    1       23.905 -23.810   4.580  0.00  0.00    +0.122 HD
ENDBRANCH  25  28
ENDBRANCH  16  25
ENDBRANCH  15  18
ENDBRANCH   1  15
BRANCH   3  30
ATOM     30  O   LIG    1       24.590 -29.892  10.446  0.00  0.00    -0.341 OA
BRANCH  30  31
ATOM     31  C   LIG    1       25.068 -29.159  11.573  0.00  0.00    +0.281 C 
ATOM     32  C   LIG    1       24.024 -28.743  12.649  0.00  0.00    +0.190 C 
ATOM     33  C   LIG    1       23.520 -29.967  13.467  0.00  0.00    +0.121 C 
ATOM     34  C   LIG    1       24.735 -30.791  14.013  0.00  0.00    +0.104 C 
ATOM     35  C   LIG    1       25.461 -30.061  15.160  0.00  0.00    +0.045 C 
ATOM     36  C   LIG    1       25.706 -31.076  12.854  0.00  0.00    +0.199 C 
ATOM     37  O   LIG    1       26.144 -29.879  12.211  0.00  0.00    -0.346 OA
BRANCH  33  38
ATOM     38  N   LIG    1       22.560 -30.685  12.586  0.00  0.00    -0.311 NA
ATOM     39  H   LIG    1       22.194 -31.519  13.052  0.00  0.00    +0.122 HD
ATOM     40  C   LIG    1       21.437 -29.894  12.117  0.00  0.00    +0.101 C 
ENDBRANCH  33  38
BRANCH  32  41
ATOM     41  O   LIG    1       24.562 -27.724  13.515  0.00  0.00    -0.385 OA
ATOM     42  H   LIG    1       25.138 -28.157  14.170  0.00  0.00    +0.210 HD
ENDBRANCH  32  41
BRANCH  34  43
ATOM     43  O   LIG    1       24.294 -32.034  14.592  0.00  0.00    -0.385 OA
ATOM     44  H   LIG    1       24.778 -32.755  14.179  0.00  0.00    +0.210 HD
ENDBRANCH  34  43
ENDBRANCH  30  31
ENDBRANCH   3  30
TORSDOF 13
ENDMDL
MODEL 3
REMARK VINA RESULT:      -6.0      4.156      7.750
REMARK  Name = *****
REMARK                            x       y       z     vdW  Elec       q    Type
REMARK                         _______ _______ _______ _____ _____    ______ ____
ROOT
ATOM      1  C   LIG    1       21.895 -30.929  12.010  0.00  0.00    +0.169 C 
ATOM      2  C   LIG    1       23.386 -31.412  12.009  0.00  0.00    +0.175 C 
ATOM      3  C   LIG    1       24.427 -30.328  11.563  0.00  0.00    +0.169 C 
ATOM      4  C   LIG    1       24.261 -29.134  12.541  0.00  0.00    +0.084 C 
ATOM      5  C   LIG    1       22.863 -28.535  12.378  0.00  0.00    +0.042 C 
ATOM      6  C   LIG    1       21.796 -29.567  12.781  0.00  0.00    +0.084 C 
ENDROOT
BRANCH   4   7
ATOM      7  N   LIG    1       25.275 -28.081  12.513  0.00  0.00    -0.325 NA
ATOM      8  H   LIG    1       24.873 -27.163  12.330  0.00  0.00    +0.118 HD
ATOM      9  H   LIG    1       25.837 -28.031  13.357  0.00  0.00    +0.118 HD
ENDBRANCH   4   7
BRANCH   6  10
ATOM     10  N   LIG    1       20.487 -28.899  12.786  0.00  0.00    -0.325 NA
ATOM     11  H   LIG    1       20.627 -27.891  12.708  0.00  0.00    +0.118 HD
ATOM     12  H   LIG    1       19.981 -29.142  11.934  0.00  0.00    +0.118 HD
ENDBRANCH   6  10
BRANCH   2  13
ATOM     13  O   LIG    1       23.525 -32.587  11.194  0.00  0.00    -0.387 OA
ATOM     14  H   LIG    1       23.214 -33.318  11.765  0.00  0.00    +0.210 HD
ENDBRANCH   2  13
BRANCH   1  15
ATOM     15  O   LIG    1       21.464 -30.981  10.642  0.00  0.00    -0.342 OA
BRANCH  15  18
ATOM     16  C   LIG    1       17.828 -31.479  11.022  0.00  0.00    +0.138 C 
ATOM     17  O   LIG    1       19.181 -31.197  11.463  0.00  0.00    -0.345 OA
ATOM     18  C   LIG    1       20.119 -31.401  10.392  0.00  0.00    +0.268 C 
ATOM     19  C   LIG    1       20.174 -32.916  10.026  0.00  0.00    +0.107 C 
ATOM     20  C   LIG    1       18.793 -33.315   9.524  0.00  0.00    +0.026 C 
ATOM     21  C   LIG    1       17.712 -32.942  10.532  0.00  0.00    +0.035 C 
BRANCH  19  22
ATOM     22  N   LIG    1       20.552 -33.792  11.156  0.00  0.00    -0.323 NA
ATOM     23  H   LIG    1       20.619 -34.754  10.834  0.00  0.00    +0.119 HD
ATOM     24  H   LIG    1       21.479 -33.514  11.477  0.00  0.00    +0.119 HD
ENDBRANCH  19  22
BRANCH  16  25
ATOM     25  C   LIG    1       16.769 -31.186  12.150  0.00  0.00    +0.079 C 
ATOM     26  C   LIG    1       16.317 -32.490  12.822  0.00  0.00    +0.026 C 
BRANCH  25  28
ATOM     27  C   LIG    1       16.326 -29.418  13.831  0.00  0.00    +0.101 C 
ATOM     28  N   LIG    1       17.323 -30.225  13.141  0.00  0.00    -0.314 NA
ATOM     29  H   LIG    1       17.942 -29.580  12.651  0.00  0.00    +0.122 HD
ENDBRANCH  25  28
ENDBRANCH  16  25
ENDBRANCH  15  18
ENDBRANCH   1  15
BRANCH   3  30
ATOM     30  O   LIG    1       24.228 -30.031  10.164  0.00  0.00    -0.341 OA
BRANCH  30  31
ATOM     31  C   LIG    1       25.349 -30.130   9.287  0.00  0.00    +0.281 C 
ATOM     32  C   LIG    1       25.558 -31.481   8.544  0.00  0.00    +0.190 C 
ATOM     33  C   LIG    1       24.483 -31.706   7.442  0.00  0.00    +0.121 C 
ATOM     34  C   LIG    1       24.393 -30.450   6.510  0.00  0.00    +0.104 C 
ATOM     35  C   LIG    1       25.617 -30.329   5.582  0.00  0.00    +0.045 C 
ATOM     36  C   LIG    1       24.248 -29.191   7.382  0.00  0.00    +0.199 C 
ATOM     37  O   LIG    1       25.316 -29.059   8.320  0.00  0.00    -0.346 OA
BRANCH  33  38
ATOM     38  N   LIG    1       23.240 -32.107   8.154  0.00  0.00    -0.311 NA
ATOM     39  H   LIG    1       22.479 -31.453   7.953  0.00  0.00    +0.122 HD
ATOM     40  C   LIG    1       22.771 -33.452   7.873  0.00  0.00    +0.101 C 
ENDBRANCH  33  38
BRANCH  32  41
ATOM     41  O   LIG    1       26.888 -31.563   7.997  0.00  0.00    -0.385 OA
ATOM     42  H   LIG    1       27.198 -30.657   7.818  0.00  0.00    +0.210 HD
ENDBRANCH  32  41
BRANCH  34  43
ATOM     43  O   LIG    1       23.266 -30.553   5.618  0.00  0.00    -0.385 OA
ATOM     44  H   LIG    1       22.925 -29.670   5.449  0.00  0.00    +0.210 HD
ENDBRANCH  34  43
ENDBRANCH  30  31
ENDBRANCH   3  30
TORSDOF 13
ENDMDL
MODEL 4
REMARK VINA RESULT:      -5.4      3.406      7.270
REMARK  Name = *****
REMARK                            x       y       z     vdW  Elec       q    Type
REMARK                         _______ _______ _______ _____ _____    ______ ____
ROOT
ATOM      1  C   LIG    1       23.902 -30.268  12.420  0.00  0.00    +0.169 C 
ATOM      2  C   LIG    1       24.956 -31.384  12.111  0.00  0.00    +0.175 C 
ATOM      3  C   LIG    1       26.019 -31.000  11.023  0.00  0.00    +0.169 C 
ATOM      4  C   LIG    1       26.737 -29.726  11.544  0.00  0.00    +0.084 C 
ATOM      5  C   LIG    1       25.730 -28.579  11.639  0.00  0.00    +0.042 C 
ATOM      6  C   LIG    1       24.648 -28.912  12.679  0.00  0.00    +0.084 C 
ENDROOT
BRANCH   4   7
ATOM      7  N   LIG    1       27.946 -29.290  10.846  0.00  0.00    -0.325 NA
ATOM      8  H   LIG    1       27.909 -29.492   9.848  0.00  0.00    +0.118 HD
ATOM      9  H   LIG    1       28.161 -28.306  10.974  0.00  0.00    +0.118 HD
ENDBRANCH   4   7
BRANCH   6  10
ATOM     10  N   LIG    1       23.811 -27.720  12.873  0.00  0.00    -0.325 NA
ATOM     11  H   LIG    1       22.830 -28.000  12.889  0.00  0.00    +0.118 HD
ATOM     12  H   LIG    1       23.972 -27.342  13.807  0.00  0.00    +0.118 HD
ENDBRANCH   6  10
BRANCH   2  13
ATOM     13  O   LIG    1       24.294 -32.602  11.737  0.00  0.00    -0.387 OA
ATOM     14  H   LIG    1       23.581 -32.705  12.399  0.00  0.00    +0.210 HD
ENDBRANCH   2  13
BRANCH   1  15
ATOM     15  O   LIG    1       22.937 -30.333  11.359  0.00  0.00    -0.342 OA
BRANCH  15  18
ATOM     16  C   LIG    1       19.846 -29.181  13.011  0.00  0.00    +0.138 C 
ATOM     17  O   LIG    1       21.275 -29.394  12.871  0.00  0.00    -0.345 OA
ATOM     18  C   LIG    1       21.557 -30.202  11.715  0.00  0.00    +0.268 C 
ATOM     19  C   LIG    1       21.004 -31.643  11.936  0.00  0.00    +0.107 C 
ATOM     20  C   LIG    1       19.491 -31.536  12.075  0.00  0.00    +0.026 C 
ATOM     21  C   LIG    1       19.109 -30.533  13.158  0.00  0.00    +0.035 C 
BRANCH  19  22
ATOM     22  N   LIG    1       21.555 -32.321  13.130  0.00  0.00    -0.323 NA
ATOM     23  H   LIG    1       22.240 -33.015  12.842  0.00  0.00    +0.119 HD
ATOM     24  H   LIG    1       22.045 -31.625  13.691  0.00  0.00    +0.119 HD
ENDBRANCH  19  22
BRANCH  16  25
ATOM     25  C   LIG    1       19.510 -28.232  14.222  0.00  0.00    +0.079 C 
ATOM     26  C   LIG    1       20.445 -27.015  14.234  0.00  0.00    +0.026 C 
BRANCH  25  28
ATOM     27  C   LIG    1       17.859 -26.382  14.210  0.00  0.00    +0.101 C 
ATOM     28  N   LIG    1       18.081 -27.822  14.174  0.00  0.00    -0.314 NA
ATOM     29  H   LIG    1       17.605 -28.217  14.984  0.00  0.00    +0.122 HD
ENDBRANCH  25  28
ENDBRANCH  16  25
ENDBRANCH  15  18
ENDBRANCH   1  15
BRANCH   3  30
ATOM     30  O   LIG    1       25.360 -30.876   9.744  0.00  0.00    -0.341 OA
BRANCH  30  31
ATOM     31  C   LIG    1       26.168 -30.840   8.569  0.00  0.00    +0.281 C 
ATOM     32  C   LIG    1       25.838 -31.862   7.443  0.00  0.00    +0.190 C 
ATOM     33  C   LIG    1       24.504 -31.514   6.721  0.00  0.00    +0.121 C 
ATOM     34  C   LIG    1       24.511 -30.014   6.267  0.00  0.00    +0.104 C 
ATOM     35  C   LIG    1       25.459 -29.774   5.077  0.00  0.00    +0.045 C 
ATOM     36  C   LIG    1       24.910 -29.132   7.463  0.00  0.00    +0.199 C 
ATOM     37  O   LIG    1       26.173 -29.509   8.012  0.00  0.00    -0.346 OA
BRANCH  33  38
ATOM     38  N   LIG    1       23.414 -31.934   7.641  0.00  0.00    -0.311 NA
ATOM     39  H   LIG    1       22.512 -31.567   7.327  0.00  0.00    +0.122 HD
ATOM     40  C   LIG    1       23.282 -33.367   7.832  0.00  0.00    +0.101 C 
ENDBRANCH  33  38
BRANCH  32  41
ATOM     41  O   LIG    1       26.927 -31.960   6.506  0.00  0.00    -0.385 OA
ATOM     42  H   LIG    1       27.742 -31.676   6.959  0.00  0.00    +0.210 HD
ENDBRANCH  32  41
BRANCH  34  43
ATOM     43  O   LIG    1       23.212 -29.618   5.786  0.00  0.00    -0.385 OA
ATOM     44  H   LIG    1       23.312 -29.225   4.914  0.00  0.00    +0.210 HD
ENDBRANCH  34  43
ENDBRANCH  30  31
ENDBRANCH   3  30
TORSDOF 13
ENDMDL
MODEL 5
REMARK VINA RESULT:      -5.1      3.437      7.469
REMARK  Name = *****
REMARK                            x       y       z     vdW  Elec       q    Type
REMARK                         _______ _______ _______ _____ _____    ______ ____
ROOT
ATOM      1  C   LIG    1       24.205 -29.257  13.483  0.00  0.00    +0.169 C 
ATOM      2  C   LIG    1       25.207 -30.456  13.367  0.00  0.00    +0.175 C 
ATOM      3  C   LIG    1       26.169 -30.390  12.131  0.00  0.00    +0.169 C 
ATOM      4  C   LIG    1       26.954 -29.057  12.259  0.00  0.00    +0.084 C 
ATOM      5  C   LIG    1       25.980 -27.882  12.156  0.00  0.00    +0.042 C 
ATOM      6  C   LIG    1       24.995 -27.910  13.336  0.00  0.00    +0.084 C 
ENDROOT
BRANCH   4   7
ATOM      7  N   LIG    1       28.100 -28.851  11.373  0.00  0.00    -0.325 NA
ATOM      8  H   LIG    1       28.304 -29.675  10.809  0.00  0.00    +0.118 HD
ATOM      9  H   LIG    1       28.005 -28.048  10.759  0.00  0.00    +0.118 HD
ENDBRANCH   4   7
BRANCH   6  10
ATOM     10  N   LIG    1       24.200 -26.674  13.303  0.00  0.00    -0.325 NA
ATOM     11  H   LIG    1       23.843 -26.533  12.357  0.00  0.00    +0.118 HD
ATOM     12  H   LIG    1       23.358 -26.798  13.866  0.00  0.00    +0.118 HD
ENDBRANCH   6  10
BRANCH   2  13
ATOM     13  O   LIG    1       24.491 -31.701  13.363  0.00  0.00    -0.387 OA
ATOM     14  H   LIG    1       23.563 -31.448  13.187  0.00  0.00    +0.210 HD
ENDBRANCH   2  13
BRANCH   1  15
ATOM     15  O   LIG    1       23.144 -29.540  12.559  0.00  0.00    -0.342 OA
BRANCH  15  18
ATOM     16  C   LIG    1       19.706 -30.847  12.856  0.00  0.00    +0.138 C 
ATOM     17  O   LIG    1       20.875 -30.332  12.166  0.00  0.00    -0.345 OA
ATOM     18  C   LIG    1       21.871 -29.898  13.107  0.00  0.00    +0.268 C 
ATOM     19  C   LIG    1       21.347 -28.656  13.890  0.00  0.00    +0.107 C 
ATOM     20  C   LIG    1       20.119 -29.097  14.677  0.00  0.00    +0.026 C 
ATOM     21  C   LIG    1       19.090 -29.757  13.765  0.00  0.00    +0.035 C 
BRANCH  19  22
ATOM     22  N   LIG    1       20.986 -27.511  13.027  0.00  0.00    -0.323 NA
ATOM     23  H   LIG    1       20.285 -26.941  13.492  0.00  0.00    +0.119 HD
ATOM     24  H   LIG    1       21.816 -26.932  12.904  0.00  0.00    +0.119 HD
ENDBRANCH  19  22
BRANCH  16  25
ATOM     25  C   LIG    1       18.629 -31.405  11.852  0.00  0.00    +0.079 C 
ATOM     26  C   LIG    1       17.212 -31.165  12.388  0.00  0.00    +0.026 C 
BRANCH  25  28
ATOM     27  C   LIG    1       17.777 -31.130   9.539  0.00  0.00    +0.101 C 
ATOM     28  N   LIG    1       18.813 -30.795  10.507  0.00  0.00    -0.314 NA
ATOM     29  H   LIG    1       19.698 -31.125  10.123  0.00  0.00    +0.122 HD
ENDBRANCH  25  28
ENDBRANCH  16  25
ENDBRANCH  15  18
ENDBRANCH   1  15
BRANCH   3  30
ATOM     30  O   LIG    1       25.396 -30.554  10.923  0.00  0.00    -0.341 OA
BRANCH  30  31
ATOM     31  C   LIG    1       25.998 -31.234   9.822  0.00  0.00    +0.281 C 
ATOM     32  C   LIG    1       25.104 -32.219   9.016  0.00  0.00    +0.190 C 
ATOM     33  C   LIG    1       24.039 -31.469   8.166  0.00  0.00    +0.121 C 
ATOM     34  C   LIG    1       24.722 -30.349   7.309  0.00  0.00    +0.104 C 
ATOM     35  C   LIG    1       25.544 -30.932   6.143  0.00  0.00    +0.045 C 
ATOM     36  C   LIG    1       25.615 -29.494   8.225  0.00  0.00    +0.199 C 
ATOM     37  O   LIG    1       26.588 -30.280   8.914  0.00  0.00    -0.346 OA
BRANCH  33  38
ATOM     38  N   LIG    1       22.980 -31.038   9.117  0.00  0.00    -0.311 NA
ATOM     39  H   LIG    1       22.294 -30.440   8.650  0.00  0.00    +0.122 HD
ATOM     40  C   LIG    1       22.269 -32.114   9.783  0.00  0.00    +0.101 C 
ENDBRANCH  33  38
BRANCH  32  41
ATOM     41  O   LIG    1       25.911 -33.085   8.194  0.00  0.00    -0.385 OA
ATOM     42  H   LIG    1       26.712 -33.320   8.697  0.00  0.00    +0.210 HD
ENDBRANCH  32  41
BRANCH  34  43
ATOM     43  O   LIG    1       23.735 -29.511   6.678  0.00  0.00    -0.385 OA
ATOM     44  H   LIG    1       22.866 -29.894   6.825  0.00  0.00    +0.210 HD
ENDBRANCH  34  43
ENDBRANCH  30  31
ENDBRANCH   3  30
TORSDOF 13
ENDMDL
MODEL 6
REMARK VINA RESULT:      -5.0      2.767      4.823
REMARK  Name = *****
REMARK                            x       y       z     vdW  Elec       q    Type
REMARK                         _______ _______ _______ _____ _____    ______ ____
ROOT
ATOM      1  C   LIG    1       25.614 -31.066   9.854  0.00  0.00    +0.169 C 
ATOM      2  C   LIG    1       25.937 -30.360  11.214  0.00  0.00    +0.175 C 
ATOM      3  C   LIG    1       25.040 -30.813  12.418  0.00  0.00    +0.169 C 
ATOM      4  C   LIG    1       25.239 -32.346  12.559  0.00  0.00    +0.084 C 
ATOM      5  C   LIG    1       24.718 -33.043  11.300  0.00  0.00    +0.042 C 
ATOM      6  C   LIG    1       25.551 -32.617  10.080  0.00  0.00    +0.084 C 
ENDROOT
BRANCH   4   7
ATOM      7  N   LIG    1       24.712 -32.996  13.759  0.00  0.00    -0.325 NA
ATOM      8  H   LIG    1       24.421 -32.322  14.465  0.00  0.00    +0.118 HD
ATOM      9  H   LIG    1       23.943 -33.633  13.576  0.00  0.00    +0.118 HD
ENDBRANCH   4   7
BRANCH   6  10
ATOM     10  N   LIG    1       25.142 -33.440   8.933  0.00  0.00    -0.325 NA
ATOM     11  H   LIG    1       25.559 -34.368   9.024  0.00  0.00    +0.118 HD
ATOM     12  H   LIG    1       24.138 -33.617   8.985  0.00  0.00    +0.118 HD
ENDBRANCH   6  10
BRANCH   2  13
ATOM     13  O   LIG    1       25.867 -28.934  11.062  0.00  0.00    -0.387 OA
ATOM     14  H   LIG    1       26.325 -28.756  10.217  0.00  0.00    +0.210 HD
ENDBRANCH   2  13
BRANCH   1  15
ATOM     15  O   LIG    1       24.457 -30.397   9.329  0.00  0.00    -0.342 OA
BRANCH  15  18
ATOM     16  C   LIG    1       25.047 -30.758   5.705  0.00  0.00    +0.138 C 
ATOM     17  O   LIG    1       25.319 -30.945   7.118  0.00  0.00    -0.345 OA
ATOM     18  C   LIG    1       24.416 -30.161   7.918  0.00  0.00    +0.268 C 
ATOM     19  C   LIG    1       24.705 -28.645   7.701  0.00  0.00    +0.107 C 
ATOM     20  C   LIG    1       24.426 -28.333   6.236  0.00  0.00    +0.026 C 
ATOM     21  C   LIG    1       25.203 -29.268   5.316  0.00  0.00    +0.035 C 
BRANCH  19  22
ATOM     22  N   LIG    1       26.090 -28.245   8.027  0.00  0.00    -0.323 NA
ATOM     23  H   LIG    1       26.441 -27.614   7.310  0.00  0.00    +0.119 HD
ATOM     24  H   LIG    1       26.073 -27.727   8.905  0.00  0.00    +0.119 HD
ENDBRANCH  19  22
BRANCH  16  25
ATOM     25  C   LIG    1       25.967 -31.665   4.805  0.00  0.00    +0.079 C 
ATOM     26  C   LIG    1       26.735 -32.680   5.662  0.00  0.00    +0.026 C 
BRANCH  25  28
ATOM     27  C   LIG    1       25.934 -32.978   2.701  0.00  0.00    +0.101 C 
ATOM     28  N   LIG    1       25.156 -32.340   3.756  0.00  0.00    -0.314 NA
ATOM     29  H   LIG    1       24.563 -31.642   3.308  0.00  0.00    +0.122 HD
ENDBRANCH  25  28
ENDBRANCH  16  25
ENDBRANCH  15  18
ENDBRANCH   1  15
BRANCH   3  30
ATOM     30  O   LIG    1       23.686 -30.370  12.189  0.00  0.00    -0.341 OA
BRANCH  30  31
ATOM     31  C   LIG    1       22.722 -30.582  13.220  0.00  0.00    +0.281 C 
ATOM     32  C   LIG    1       22.673 -29.543  14.377  0.00  0.00    +0.190 C 
ATOM     33  C   LIG    1       22.093 -28.179  13.905  0.00  0.00    +0.121 C 
ATOM     34  C   LIG    1       20.731 -28.399  13.162  0.00  0.00    +0.104 C 
ATOM     35  C   LIG    1       19.597 -28.782  14.132  0.00  0.00    +0.045 C 
ATOM     36  C   LIG    1       20.917 -29.488  12.091  0.00  0.00    +0.199 C 
ATOM     37  O   LIG    1       21.404 -30.711  12.646  0.00  0.00    -0.346 OA
BRANCH  33  38
ATOM     38  N   LIG    1       23.178 -27.511  13.139  0.00  0.00    -0.311 NA
ATOM     39  H   LIG    1       22.938 -27.450  12.146  0.00  0.00    +0.122 HD
ATOM     40  C   LIG    1       23.538 -26.183  13.603  0.00  0.00    +0.101 C 
ENDBRANCH  33  38
BRANCH  32  41
ATOM     41  O   LIG    1       21.935 -30.063  15.499  0.00  0.00    -0.385 OA
ATOM     42  H   LIG    1       22.072 -29.464  16.255  0.00  0.00    +0.210 HD
ENDBRANCH  32  41
BRANCH  34  43
ATOM     43  O   LIG    1       20.284 -27.180  12.538  0.00  0.00    -0.385 OA
ATOM     44  H   LIG    1       20.909 -26.939  11.849  0.00  0.00    +0.210 HD
ENDBRANCH  34  43
ENDBRANCH  30  31
ENDBRANCH   3  30
TORSDOF 13
ENDMDL
MODEL 7
REMARK VINA RESULT:      -4.9      2.417      3.203
REMARK  Name = *****
REMARK                            x       y       z     vdW  Elec       q    Type
REMARK                         _______ _______ _______ _____ _____    ______ ____
ROOT
ATOM      1  C   LIG    1       26.315 -30.191   8.995  0.00  0.00    +0.169 C 
ATOM      2  C   LIG    1       25.949 -30.136  10.517  0.00  0.00    +0.175 C 
ATOM      3  C   LIG    1       24.959 -31.254  10.995  0.00  0.00    +0.169 C 
ATOM      4  C   LIG    1       25.640 -32.610  10.665  0.00  0.00    +0.084 C 
ATOM      5  C   LIG    1       25.798 -32.743   9.149  0.00  0.00    +0.042 C 
ATOM      6  C   LIG    1       26.745 -31.652   8.621  0.00  0.00    +0.084 C 
ENDROOT
BRANCH   4   7
ATOM      7  N   LIG    1       25.050 -33.825  11.227  0.00  0.00    -0.325 NA
ATOM      8  H   LIG    1       25.728 -34.583  11.302  0.00  0.00    +0.118 HD
ATOM      9  H   LIG    1       24.611 -33.688  12.131  0.00  0.00    +0.118 HD
ENDBRANCH   4   7
BRANCH   6  10
ATOM     10  N   LIG    1       27.014 -31.924   7.202  0.00  0.00    -0.325 NA
ATOM     11  H   LIG    1       26.145 -32.202   6.745  0.00  0.00    +0.118 HD
ATOM     12  H   LIG    1       27.268 -31.053   6.733  0.00  0.00    +0.118 HD
ENDBRANCH   6  10
BRANCH   2  13
ATOM     13  O   LIG    1       25.423 -28.843  10.854  0.00  0.00    -0.387 OA
ATOM     14  H   LIG    1       25.034 -28.512  10.019  0.00  0.00    +0.210 HD
ENDBRANCH   2  13
BRANCH   1  15
ATOM     15  O   LIG    1       25.206 -29.599   8.302  0.00  0.00    -0.342 OA
BRANCH  15  18
ATOM     16  C   LIG    1       25.575 -26.700   6.049  0.00  0.00    +0.138 C 
ATOM     17  O   LIG    1       25.052 -27.441   7.182  0.00  0.00    -0.345 OA
ATOM     18  C   LIG    1       25.499 -28.808   7.146  0.00  0.00    +0.268 C 
ATOM     19  C   LIG    1       24.862 -29.535   5.922  0.00  0.00    +0.107 C 
ATOM     20  C   LIG    1       25.368 -28.842   4.664  0.00  0.00    +0.026 C 
ATOM     21  C   LIG    1       25.108 -27.340   4.721  0.00  0.00    +0.035 C 
BRANCH  19  22
ATOM     22  N   LIG    1       23.383 -29.524   5.922  0.00  0.00    -0.323 NA
ATOM     23  H   LIG    1       23.035 -30.472   6.033  0.00  0.00    +0.119 HD
ATOM     24  H   LIG    1       23.070 -28.988   6.730  0.00  0.00    +0.119 HD
ENDBRANCH  19  22
BRANCH  16  25
ATOM     25  C   LIG    1       25.169 -25.179   6.104  0.00  0.00    +0.079 C 
ATOM     26  C   LIG    1       23.672 -25.028   6.410  0.00  0.00    +0.026 C 
BRANCH  25  28
ATOM     27  C   LIG    1       25.841 -23.011   7.102  0.00  0.00    +0.101 C 
ATOM     28  N   LIG    1       26.005 -24.459   7.102  0.00  0.00    -0.314 NA
ATOM     29  H   LIG    1       26.985 -24.648   6.896  0.00  0.00    +0.122 HD
ENDBRANCH  25  28
ENDBRANCH  16  25
ENDBRANCH  15  18
ENDBRANCH   1  15
BRANCH   3  30
ATOM     30  O   LIG    1       23.668 -31.031  10.389  0.00  0.00    -0.341 OA
BRANCH  30  31
ATOM     31  C   LIG    1       22.564 -31.813  10.844  0.00  0.00    +0.281 C 
ATOM     32  C   LIG    1       22.336 -31.899  12.381  0.00  0.00    +0.190 C 
ATOM     33  C   LIG    1       21.819 -30.552  12.964  0.00  0.00    +0.121 C 
ATOM     34  C   LIG    1       20.584 -30.045  12.143  0.00  0.00    +0.104 C 
ATOM     35  C   LIG    1       19.323 -30.886  12.417  0.00  0.00    +0.045 C 
ATOM     36  C   LIG    1       20.937 -30.070  10.646  0.00  0.00    +0.199 C 
ATOM     37  O   LIG    1       21.347 -31.366  10.210  0.00  0.00    -0.346 OA
BRANCH  33  38
ATOM     38  N   LIG    1       23.000 -29.650  13.030  0.00  0.00    -0.311 NA
ATOM     39  H   LIG    1       22.712 -28.670  12.983  0.00  0.00    +0.122 HD
ATOM     40  C   LIG    1       23.846 -29.821  14.198  0.00  0.00    +0.101 C 
ENDBRANCH  33  38
BRANCH  32  41
ATOM     41  O   LIG    1       21.443 -32.983  12.705  0.00  0.00    -0.385 OA
ATOM     42  H   LIG    1       21.941 -33.817  12.628  0.00  0.00    +0.210 HD
ENDBRANCH  32  41
BRANCH  34  43
ATOM     43  O   LIG    1       20.224 -28.706  12.533  0.00  0.00    -0.385 OA
ATOM     44  H   LIG    1       20.365 -28.611  13.479  0.00  0.00    +0.210 HD
ENDBRANCH  34  43
ENDBRANCH  30  31
ENDBRANCH   3  30
TORSDOF 13
ENDMDL
MODEL 8
REMARK VINA RESULT:      -4.9      4.268      8.012
REMARK  Name = *****
REMARK                            x       y       z     vdW  Elec       q    Type
REMARK                         _______ _______ _______ _____ _____    ______ ____
ROOT
ATOM      1  C   LIG    1       23.257 -28.468  14.476  0.00  0.00    +0.169 C 
ATOM      2  C   LIG    1       24.059 -29.797  14.686  0.00  0.00    +0.175 C 
ATOM      3  C   LIG    1       24.930 -30.239  13.460  0.00  0.00    +0.169 C 
ATOM      4  C   LIG    1       25.912 -29.071  13.177  0.00  0.00    +0.084 C 
ATOM      5  C   LIG    1       25.119 -27.830  12.764  0.00  0.00    +0.042 C 
ATOM      6  C   LIG    1       24.226 -27.364  13.926  0.00  0.00    +0.084 C 
ENDROOT
BRANCH   4   7
ATOM      7  N   LIG    1       27.010 -29.312  12.241  0.00  0.00    -0.325 NA
ATOM      8  H   LIG    1       27.471 -30.205  12.410  0.00  0.00    +0.118 HD
ATOM      9  H   LIG    1       26.735 -29.264  11.265  0.00  0.00    +0.118 HD
ENDBRANCH   4   7
BRANCH   6  10
ATOM     10  N   LIG    1       23.624 -26.075  13.557  0.00  0.00    -0.325 NA
ATOM     11  H   LIG    1       24.320 -25.337  13.674  0.00  0.00    +0.118 HD
ATOM     12  H   LIG    1       23.427 -26.068  12.555  0.00  0.00    +0.118 HD
ENDBRANCH   6  10
BRANCH   2  13
ATOM     13  O   LIG    1       23.168 -30.860  15.060  0.00  0.00    -0.387 OA
ATOM     14  H   LIG    1       22.811 -30.584  15.928  0.00  0.00    +0.210 HD
ENDBRANCH   2  13
BRANCH   1  15
ATOM     15  O   LIG    1       22.103 -28.823  13.700  0.00  0.00    -0.342 OA
BRANCH  15  18
ATOM     16  C   LIG    1       18.522 -29.131  14.533  0.00  0.00    +0.138 C 
ATOM     17  O   LIG    1       19.722 -29.332  13.741  0.00  0.00    -0.345 OA
ATOM     18  C   LIG    1       20.819 -28.572  14.278  0.00  0.00    +0.268 C 
ATOM     19  C   LIG    1       20.533 -27.048  14.109  0.00  0.00    +0.107 C 
ATOM     20  C   LIG    1       19.291 -26.723  14.928  0.00  0.00    +0.026 C 
ATOM     21  C   LIG    1       18.129 -27.635  14.551  0.00  0.00    +0.035 C 
BRANCH  19  22
ATOM     22  N   LIG    1       20.314 -26.631  12.707  0.00  0.00    -0.323 NA
ATOM     23  H   LIG    1       20.552 -27.397  12.083  0.00  0.00    +0.119 HD
ATOM     24  H   LIG    1       19.320 -26.438  12.586  0.00  0.00    +0.119 HD
ENDBRANCH  19  22
BRANCH  16  25
ATOM     25  C   LIG    1       17.324 -30.013  14.017  0.00  0.00    +0.079 C 
ATOM     26  C   LIG    1       16.033 -29.187  13.947  0.00  0.00    +0.026 C 
BRANCH  25  28
ATOM     27  C   LIG    1       16.563 -31.338  12.064  0.00  0.00    +0.101 C 
ATOM     28  N   LIG    1       17.658 -30.616  12.699  0.00  0.00    -0.314 NA
ATOM     29  H   LIG    1       18.417 -31.283  12.833  0.00  0.00    +0.122 HD
ENDBRANCH  25  28
ENDBRANCH  16  25
ENDBRANCH  15  18
ENDBRANCH   1  15
BRANCH   3  30
ATOM     30  O   LIG    1       24.058 -30.609  12.370  0.00  0.00    -0.341 OA
BRANCH  30  31
ATOM     31  C   LIG    1       24.361 -31.792  11.632  0.00  0.00    +0.281 C 
ATOM     32  C   LIG    1       23.194 -32.472  10.860  0.00  0.00    +0.190 C 
ATOM     33  C   LIG    1       22.752 -31.633   9.627  0.00  0.00    +0.121 C 
ATOM     34  C   LIG    1       23.997 -31.267   8.748  0.00  0.00    +0.104 C 
ATOM     35  C   LIG    1       24.545 -32.487   7.983  0.00  0.00    +0.045 C 
ATOM     36  C   LIG    1       25.085 -30.662   9.652  0.00  0.00    +0.199 C 
ATOM     37  O   LIG    1       25.449 -31.539  10.718  0.00  0.00    -0.346 OA
BRANCH  33  38
ATOM     38  N   LIG    1       21.950 -30.501  10.163  0.00  0.00    -0.311 NA
ATOM     39  H   LIG    1       21.836 -29.769   9.456  0.00  0.00    +0.122 HD
ATOM     40  C   LIG    1       20.635 -30.857  10.666  0.00  0.00    +0.101 C 
ENDBRANCH  33  38
BRANCH  32  41
ATOM     41  O   LIG    1       23.549 -33.814  10.477  0.00  0.00    -0.385 OA
ATOM     42  H   LIG    1       23.805 -34.300  11.281  0.00  0.00    +0.210 HD
ENDBRANCH  32  41
BRANCH  34  43
ATOM     43  O   LIG    1       23.640 -30.321   7.722  0.00  0.00    -0.385 OA
ATOM     44  H   LIG    1       23.420 -29.483   8.138  0.00  0.00    +0.210 HD
ENDBRANCH  34  43
ENDBRANCH  30  31
ENDBRANCH   3  30
TORSDOF 13
ENDMDL
MODEL 9
REMARK VINA RESULT:      -4.8      3.847      6.492
REMARK  Name = *****
REMARK                            x       y       z     vdW  Elec       q    Type
REMARK                         _______ _______ _______ _____ _____    ______ ____
ROOT
ATOM      1  C   LIG    1       26.107 -29.873  11.367  0.00  0.00    +0.169 C 
ATOM      2  C   LIG    1       25.615 -31.237  11.959  0.00  0.00    +0.175 C 
ATOM      3  C   LIG    1       24.652 -32.049  11.025  0.00  0.00    +0.169 C 
ATOM      4  C   LIG    1       25.430 -32.297   9.705  0.00  0.00    +0.084 C 
ATOM      5  C   LIG    1       25.719 -30.957   9.026  0.00  0.00    +0.042 C 
ATOM      6  C   LIG    1       26.645 -30.107   9.912  0.00  0.00    +0.084 C 
ENDROOT
BRANCH   4   7
ATOM      7  N   LIG    1       24.864 -33.245   8.746  0.00  0.00    -0.325 NA
ATOM      8  H   LIG    1       24.771 -32.842   7.814  0.00  0.00    +0.118 HD
ATOM      9  H   LIG    1       25.380 -34.117   8.676  0.00  0.00    +0.118 HD
ENDBRANCH   4   7
BRANCH   6  10
ATOM     10  N   LIG    1       27.044 -28.915   9.151  0.00  0.00    -0.325 NA
ATOM     11  H   LIG    1       26.207 -28.453   8.792  0.00  0.00    +0.118 HD
ATOM     12  H   LIG    1       27.448 -28.227   9.787  0.00  0.00    +0.118 HD
ENDBRANCH   6  10
BRANCH   2  13
ATOM     13  O   LIG    1       24.994 -31.027  13.237  0.00  0.00    -0.387 OA
ATOM     14  H   LIG    1       25.740 -30.853  13.845  0.00  0.00    +0.210 HD
ENDBRANCH   2  13
BRANCH   1  15
ATOM     15  O   LIG    1       25.028 -28.947  11.563  0.00  0.00    -0.342 OA
BRANCH  15  18
ATOM     16  C   LIG    1       26.568 -26.777  14.119  0.00  0.00    +0.138 C 
ATOM     17  O   LIG    1       26.301 -28.022  13.422  0.00  0.00    -0.345 OA
ATOM     18  C   LIG    1       25.260 -27.844  12.446  0.00  0.00    +0.268 C 
ATOM     19  C   LIG    1       23.910 -27.546  13.167  0.00  0.00    +0.107 C 
ATOM     20  C   LIG    1       24.075 -26.233  13.921  0.00  0.00    +0.026 C 
ATOM     21  C   LIG    1       25.293 -26.274  14.837  0.00  0.00    +0.035 C 
BRANCH  19  22
ATOM     22  N   LIG    1       23.491 -28.601  14.115  0.00  0.00    -0.323 NA
ATOM     23  H   LIG    1       22.518 -28.459  14.375  0.00  0.00    +0.119 HD
ATOM     24  H   LIG    1       23.550 -29.499  13.637  0.00  0.00    +0.119 HD
ENDBRANCH  19  22
BRANCH  16  25
ATOM     25  C   LIG    1       27.759 -26.919  15.139  0.00  0.00    +0.079 C 
ATOM     26  C   LIG    1       28.348 -28.335  15.092  0.00  0.00    +0.026 C 
BRANCH  25  28
ATOM     27  C   LIG    1       28.394 -24.522  15.179  0.00  0.00    +0.101 C 
ATOM     28  N   LIG    1       28.796 -25.888  14.867  0.00  0.00    -0.314 NA
ATOM     29  H   LIG    1       29.021 -25.912  13.873  0.00  0.00    +0.122 HD
ENDBRANCH  25  28
ENDBRANCH  16  25
ENDBRANCH  15  18
ENDBRANCH   1  15
BRANCH   3  30
ATOM     30  O   LIG    1       23.405 -31.334  10.899  0.00  0.00    -0.341 OA
BRANCH  30  31
ATOM     31  C   LIG    1       22.228 -32.077  10.586  0.00  0.00    +0.281 C 
ATOM     32  C   LIG    1       21.539 -32.847  11.749  0.00  0.00    +0.190 C 
ATOM     33  C   LIG    1       20.844 -31.879  12.750  0.00  0.00    +0.121 C 
ATOM     34  C   LIG    1       19.914 -30.881  11.979  0.00  0.00    +0.104 C 
ATOM     35  C   LIG    1       18.644 -31.569  11.443  0.00  0.00    +0.045 C 
ATOM     36  C   LIG    1       20.711 -30.243  10.828  0.00  0.00    +0.199 C 
ATOM     37  O   LIG    1       21.258 -31.223   9.945  0.00  0.00    -0.346 OA
BRANCH  33  38
ATOM     38  N   LIG    1       21.932 -31.287  13.574  0.00  0.00    -0.311 NA
ATOM     39  H   LIG    1       21.870 -30.265  13.577  0.00  0.00    +0.122 HD
ATOM     40  C   LIG    1       21.986 -31.745  14.951  0.00  0.00    +0.101 C 
ENDBRANCH  33  38
BRANCH  32  41
ATOM     41  O   LIG    1       20.609 -33.821  11.237  0.00  0.00    -0.385 OA
ATOM     42  H   LIG    1       19.712 -33.448  11.306  0.00  0.00    +0.210 HD
ENDBRANCH  32  41
BRANCH  34  43
ATOM     43  O   LIG    1       19.427 -29.849  12.859  0.00  0.00    -0.385 OA
ATOM     44  H   LIG    1       19.665 -28.993  12.493  0.00  0.00    +0.210 HD
ENDBRANCH  34  43
ENDBRANCH  30  31
ENDBRANCH   3  30
TORSDOF 13
ENDMDL
