MODEL 1
REMARK VINA RESULT:      -7.0      0.000      0.000
REMARK  Name = *****
REMARK                            x       y       z     vdW  Elec       q    Type
REMARK                         _______ _______ _______ _____ _____    ______ ____
ROOT
ATOM      1  C   LIG    1       24.315 -20.813   3.612  0.00  0.00    +0.041 C 
ATOM      2  C   LIG    1       24.470 -21.097   5.102  0.00  0.00    +0.068 C 
ATOM      3  O   LIG    1       24.622 -22.523   5.256  0.00  0.00    -0.367 OA
ATOM      4  C   LIG    1       24.525 -22.970   6.626  0.00  0.00    +0.068 C 
ATOM      5  C   LIG    1       23.185 -23.721   6.732  0.00  0.00    +0.041 C 
ATOM      6  C   LIG    1       25.633 -23.999   6.905  0.00  0.00    +0.041 C 
ATOM      7  C   LIG    1       24.648 -21.738   7.570  0.00  0.00    +0.021 C 
ATOM      8  C   LIG    1       23.418 -20.839   7.377  0.00  0.00    +0.009 C 
ATOM      9  C   LIG    1       25.879 -20.891   7.156  0.00  0.00    +0.009 C 
ATOM     10  C   LIG    1       23.238 -20.575   5.877  0.00  0.00    +0.035 C 
ATOM     11  C   LIG    1       25.733 -20.448   5.691  0.00  0.00    +0.035 C 
ENDROOT
TORSDOF 0
ENDMDL
MODEL 2
REMARK VINA RESULT:      -6.8      0.938      3.295
REMARK  Name = *****
REMARK                            x       y       z     vdW  Elec       q    Type
REMARK                         _______ _______ _______ _____ _____    ______ ____
ROOT
ATOM      1  C   LIG    1       25.160 -24.672   5.335  0.00  0.00    +0.041 C 
ATOM      2  C   LIG    1       24.814 -23.404   6.108  0.00  0.00    +0.068 C 
ATOM      3  O   LIG    1       24.792 -22.314   5.163  0.00  0.00    -0.367 OA
ATOM      4  C   LIG    1       24.730 -21.011   5.785  0.00  0.00    +0.068 C 
ATOM      5  C   LIG    1       26.111 -20.369   5.560  0.00  0.00    +0.041 C 
ATOM      6  C   LIG    1       23.708 -20.139   5.037  0.00  0.00    +0.041 C 
ATOM      7  C   LIG    1       24.337 -21.184   7.281  0.00  0.00    +0.021 C 
ATOM      8  C   LIG    1       25.480 -21.899   8.017  0.00  0.00    +0.009 C 
ATOM      9  C   LIG    1       23.099 -22.111   7.388  0.00  0.00    +0.009 C 
ATOM     10  C   LIG    1       25.853 -23.159   7.226  0.00  0.00    +0.035 C 
ATOM     11  C   LIG    1       23.415 -23.470   6.743  0.00  0.00    +0.035 C 
ENDROOT
TORSDOF 0
ENDMDL
MODEL 3
REMARK VINA RESULT:      -6.4      1.210      2.523
REMARK  Name = *****
REMARK                            x       y       z     vdW  Elec       q    Type
REMARK                         _______ _______ _______ _____ _____    ______ ____
ROOT
ATOM      1  C   LIG    1       25.064 -19.971   4.030  0.00  0.00    +0.041 C 
ATOM      2  C   LIG    1       24.736 -20.764   5.291  0.00  0.00    +0.068 C 
ATOM      3  O   LIG    1       25.776 -20.493   6.254  0.00  0.00    -0.367 OA
ATOM      4  C   LIG    1       25.741 -21.367   7.404  0.00  0.00    +0.068 C 
ATOM      5  C   LIG    1       26.960 -22.297   7.265  0.00  0.00    +0.041 C 
ATOM      6  C   LIG    1       25.958 -20.538   8.680  0.00  0.00    +0.041 C 
ATOM      7  C   LIG    1       24.370 -22.105   7.436  0.00  0.00    +0.021 C 
ATOM      8  C   LIG    1       24.289 -23.058   6.234  0.00  0.00    +0.009 C 
ATOM      9  C   LIG    1       23.225 -21.076   7.258  0.00  0.00    +0.009 C 
ATOM     10  C   LIG    1       24.649 -22.273   4.966  0.00  0.00    +0.035 C 
ATOM     11  C   LIG    1       23.410 -20.321   5.931  0.00  0.00    +0.035 C 
ENDROOT
TORSDOF 0
ENDMDL
MODEL 4
REMARK VINA RESULT:      -6.4      1.230      2.699
REMARK  Name = *****
REMARK                            x       y       z     vdW  Elec       q    Type
REMARK                         _______ _______ _______ _____ _____    ______ ____
ROOT
ATOM      1  C   LIG    1       25.078 -24.468   5.371  0.00  0.00    +0.041 C 
ATOM      2  C   LIG    1       24.796 -23.053   5.865  0.00  0.00    +0.068 C 
ATOM      3  O   LIG    1       25.993 -22.577   6.515  0.00  0.00    -0.367 OA
ATOM      4  C   LIG    1       25.800 -21.351   7.256  0.00  0.00    +0.068 C 
ATOM      5  C   LIG    1       25.884 -21.740   8.744  0.00  0.00    +0.041 C 
ATOM      6  C   LIG    1       26.975 -20.399   6.979  0.00  0.00    +0.041 C 
ATOM      7  C   LIG    1       24.444 -20.714   6.834  0.00  0.00    +0.021 C 
ATOM      8  C   LIG    1       23.299 -21.624   7.302  0.00  0.00    +0.009 C 
ATOM      9  C   LIG    1       24.357 -20.661   5.287  0.00  0.00    +0.009 C 
ATOM     10  C   LIG    1       23.592 -23.055   6.835  0.00  0.00    +0.035 C 
ATOM     11  C   LIG    1       24.498 -22.080   4.713  0.00  0.00    +0.035 C 
ENDROOT
TORSDOF 0
ENDMDL
MODEL 5
REMARK VINA RESULT:      -6.3      1.063      2.851
REMARK  Name = *****
REMARK                            x       y       z     vdW  Elec       q    Type
REMARK                         _______ _______ _______ _____ _____    ______ ____
ROOT
ATOM      1  C   LIG    1       25.898 -20.704   8.658  0.00  0.00    +0.041 C 
ATOM      2  C   LIG    1       25.076 -21.094   7.435  0.00  0.00    +0.068 C 
ATOM      3  O   LIG    1       24.771 -22.500   7.550  0.00  0.00    -0.367 OA
ATOM      4  C   LIG    1       24.215 -23.071   6.344  0.00  0.00    +0.068 C 
ATOM      5  C   LIG    1       25.312 -23.984   5.765  0.00  0.00    +0.041 C 
ATOM      6  C   LIG    1       23.030 -23.979   6.711  0.00  0.00    +0.041 C 
ATOM      7  C   LIG    1       23.772 -21.918   5.397  0.00  0.00    +0.021 C 
ATOM      8  C   LIG    1       25.019 -21.160   4.917  0.00  0.00    +0.009 C 
ATOM      9  C   LIG    1       22.917 -20.897   6.190  0.00  0.00    +0.009 C 
ATOM     10  C   LIG    1       25.866 -20.793   6.141  0.00  0.00    +0.035 C 
ATOM     11  C   LIG    1       23.731 -20.351   7.374  0.00  0.00    +0.035 C 
ENDROOT
TORSDOF 0
ENDMDL
MODEL 6
REMARK VINA RESULT:      -6.0      1.367      3.130
REMARK  Name = *****
REMARK                            x       y       z     vdW  Elec       q    Type
REMARK                         _______ _______ _______ _____ _____    ______ ____
ROOT
ATOM      1  C   LIG    1       26.060 -20.689   8.750  0.00  0.00    +0.041 C 
ATOM      2  C   LIG    1       25.558 -21.185   7.399  0.00  0.00    +0.068 C 
ATOM      3  O   LIG    1       24.153 -20.864   7.316  0.00  0.00    -0.367 OA
ATOM      4  C   LIG    1       23.481 -21.495   6.204  0.00  0.00    +0.068 C 
ATOM      5  C   LIG    1       22.570 -22.573   6.818  0.00  0.00    +0.041 C 
ATOM      6  C   LIG    1       22.559 -20.472   5.520  0.00  0.00    +0.041 C 
ATOM      7  C   LIG    1       24.549 -22.044   5.213  0.00  0.00    +0.021 C 
ATOM      8  C   LIG    1       25.315 -23.189   5.891  0.00  0.00    +0.009 C 
ATOM      9  C   LIG    1       25.592 -20.937   4.911  0.00  0.00    +0.009 C 
ATOM     10  C   LIG    1       25.796 -22.706   7.264  0.00  0.00    +0.035 C 
ATOM     11  C   LIG    1       26.247 -20.474   6.223  0.00  0.00    +0.035 C 
ENDROOT
TORSDOF 0
ENDMDL
MODEL 7
REMARK VINA RESULT:      -6.0      1.184      3.009
REMARK  Name = *****
REMARK                            x       y       z     vdW  Elec       q    Type
REMARK                         _______ _______ _______ _____ _____    ______ ____
ROOT
ATOM      1  C   LIG    1       26.815 -20.348   7.517  0.00  0.00    +0.041 C 
ATOM      2  C   LIG    1       25.612 -21.122   6.990  0.00  0.00    +0.068 C 
ATOM      3  O   LIG    1       25.237 -20.531   5.728  0.00  0.00    -0.367 OA
ATOM      4  C   LIG    1       23.961 -20.992   5.230  0.00  0.00    +0.068 C 
ATOM      5  C   LIG    1       22.996 -19.801   5.375  0.00  0.00    +0.041 C 
ATOM      6  C   LIG    1       24.079 -21.288   3.726  0.00  0.00    +0.041 C 
ATOM      7  C   LIG    1       23.538 -22.263   6.024  0.00  0.00    +0.021 C 
ATOM      8  C   LIG    1       23.256 -21.869   7.481  0.00  0.00    +0.009 C 
ATOM      9  C   LIG    1       24.720 -23.266   6.062  0.00  0.00    +0.009 C 
ATOM     10  C   LIG    1       24.449 -21.062   8.007  0.00  0.00    +0.035 C 
ATOM     11  C   LIG    1       25.944 -22.597   6.710  0.00  0.00    +0.035 C 
ENDROOT
TORSDOF 0
ENDMDL
MODEL 8
REMARK VINA RESULT:      -5.8      1.334      2.876
REMARK  Name = *****
REMARK                            x       y       z     vdW  Elec       q    Type
REMARK                         _______ _______ _______ _____ _____    ______ ____
ROOT
ATOM      1  C   LIG    1       22.626 -19.685   5.376  0.00  0.00    +0.041 C 
ATOM      2  C   LIG    1       23.505 -20.850   5.818  0.00  0.00    +0.068 C 
ATOM      3  O   LIG    1       24.478 -20.328   6.747  0.00  0.00    -0.367 OA
ATOM      4  C   LIG    1       25.538 -21.261   7.058  0.00  0.00    +0.068 C 
ATOM      5  C   LIG    1       26.801 -20.706   6.374  0.00  0.00    +0.041 C 
ATOM      6  C   LIG    1       25.807 -21.239   8.571  0.00  0.00    +0.041 C 
ATOM      7  C   LIG    1       25.118 -22.681   6.579  0.00  0.00    +0.021 C 
ATOM      8  C   LIG    1       25.045 -22.688   5.044  0.00  0.00    +0.009 C 
ATOM      9  C   LIG    1       23.687 -22.996   7.086  0.00  0.00    +0.009 C 
ATOM     10  C   LIG    1       24.188 -21.499   4.593  0.00  0.00    +0.035 C 
ATOM     11  C   LIG    1       22.709 -21.930   6.567  0.00  0.00    +0.035 C 
ENDROOT
TORSDOF 0
ENDMDL
MODEL 9
REMARK VINA RESULT:      -5.2      1.989      3.741
REMARK  Name = *****
REMARK                            x       y       z     vdW  Elec       q    Type
REMARK                         _______ _______ _______ _____ _____    ______ ____
ROOT
ATOM      1  C   LIG    1       25.893 -24.258   6.927  0.00  0.00    +0.041 C 
ATOM      2  C   LIG    1       26.032 -22.750   7.105  0.00  0.00    +0.068 C 
ATOM      3  O   LIG    1       27.394 -22.401   6.777  0.00  0.00    -0.367 OA
ATOM      4  C   LIG    1       27.747 -21.048   7.142  0.00  0.00    +0.068 C 
ATOM      5  C   LIG    1       28.714 -21.170   8.334  0.00  0.00    +0.041 C 
ATOM      6  C   LIG    1       28.538 -20.402   5.993  0.00  0.00    +0.041 C 
ATOM      7  C   LIG    1       26.445 -20.251   7.449  0.00  0.00    +0.021 C 
ATOM      8  C   LIG    1       25.796 -20.827   8.716  0.00  0.00    +0.009 C 
ATOM      9  C   LIG    1       25.426 -20.462   6.300  0.00  0.00    +0.009 C 
ATOM     10  C   LIG    1       25.682 -22.348   8.556  0.00  0.00    +0.035 C 
ATOM     11  C   LIG    1       25.127 -21.962   6.144  0.00  0.00    +0.035 C 
ENDROOT
TORSDOF 0
ENDMDL
