MODEL 1
REMARK VINA RESULT:      -9.1      0.000      0.000
REMARK  Name = *****
REMARK                            x       y       z     vdW  Elec       q    Type
REMARK                         _______ _______ _______ _____ _____    ______ ____
ROOT
ATOM      1  C   LIG    1       22.507 -20.521   5.382  0.00  0.00    +0.105 C 
ATOM      2  N   LIG    1       23.779 -20.564   6.110  0.00  0.00    -0.297 NA
ENDROOT
BRANCH   2   3
ATOM      3  C   LIG    1       24.854 -20.949   5.176  0.00  0.00    +0.120 C 
BRANCH   3   4
ATOM      4  C   LIG    1       25.808 -19.856   4.717  0.00  0.00    -0.026 A 
ATOM      5  C   LIG    1       27.100 -19.668   5.284  0.00  0.00    -0.013 A 
ATOM      6  C   LIG    1       27.865 -18.542   4.884  0.00  0.00    -0.018 A 
ATOM      7  C   LIG    1       29.134 -18.320   5.442  0.00  0.00    +0.008 A 
ATOM      8  C   LIG    1       29.680 -19.206   6.373  0.00  0.00    +0.001 A 
ATOM      9  C   LIG    1       28.956 -20.327   6.752  0.00  0.00    +0.001 A 
ATOM     10  C   LIG    1       27.354 -17.646   3.931  0.00  0.00    +0.008 A 
ATOM     11  C   LIG    1       26.105 -17.851   3.359  0.00  0.00    +0.001 A 
ATOM     12  C   LIG    1       27.684 -20.542   6.225  0.00  0.00    +0.009 A 
ATOM     13  C   LIG    1       25.336 -18.946   3.750  0.00  0.00    +0.005 A 
ENDBRANCH   3   4
ENDBRANCH   2   3
BRANCH   2  14
ATOM     14  C   LIG    1       23.675 -21.467   7.268  0.00  0.00    +0.119 C 
BRANCH  14  15
ATOM     15  C   LIG    1       24.148 -22.872   6.967  0.00  0.00    -0.033 A 
ATOM     16  C   LIG    1       25.501 -23.214   7.075  0.00  0.00    +0.005 A 
ATOM     17  C   LIG    1       25.933 -24.524   6.838  0.00  0.00    +0.004 A 
ATOM     18  C   LIG    1       25.029 -25.548   6.505  0.00  0.00    -0.042 A 
ATOM     19  C   LIG    1       23.683 -25.176   6.345  0.00  0.00    +0.004 A 
ATOM     20  C   LIG    1       23.246 -23.868   6.588  0.00  0.00    +0.005 A 
BRANCH  18  21
ATOM     21  C   LIG    1       25.490 -27.004   6.312  0.00  0.00    -0.013 C 
ATOM     22  C   LIG    1       24.322 -27.931   5.897  0.00  0.00    +0.015 C 
ATOM     23  C   LIG    1       26.076 -27.608   7.610  0.00  0.00    +0.015 C 
ATOM     24  C   LIG    1       26.571 -27.061   5.216  0.00  0.00    +0.015 C 
ENDBRANCH  18  21
ENDBRANCH  14  15
ENDBRANCH   2  14
TORSDOF 5
ENDMDL
MODEL 2
REMARK VINA RESULT:      -9.0      3.159      9.163
REMARK  Name = *****
REMARK                            x       y       z     vdW  Elec       q    Type
REMARK                         _______ _______ _______ _____ _____    ______ ____
ROOT
ATOM      1  C   LIG    1       26.138 -27.926   5.006  0.00  0.00    +0.105 C 
ATOM      2  N   LIG    1       25.505 -27.694   6.307  0.00  0.00    -0.297 NA
ENDROOT
BRANCH   2   3
ATOM      3  C   LIG    1       25.250 -28.993   6.957  0.00  0.00    +0.120 C 
BRANCH   3   4
ATOM      4  C   LIG    1       25.477 -29.081   8.459  0.00  0.00    -0.026 A 
ATOM      5  C   LIG    1       24.643 -29.843   9.325  0.00  0.00    -0.013 A 
ATOM      6  C   LIG    1       24.852 -29.759  10.725  0.00  0.00    -0.018 A 
ATOM      7  C   LIG    1       24.031 -30.483  11.604  0.00  0.00    +0.008 A 
ATOM      8  C   LIG    1       23.017 -31.315  11.125  0.00  0.00    +0.001 A 
ATOM      9  C   LIG    1       22.818 -31.430   9.757  0.00  0.00    +0.001 A 
ATOM     10  C   LIG    1       25.881 -28.951  11.236  0.00  0.00    +0.008 A 
ATOM     11  C   LIG    1       26.712 -28.233  10.385  0.00  0.00    +0.001 A 
ATOM     12  C   LIG    1       23.610 -30.695   8.878  0.00  0.00    +0.009 A 
ATOM     13  C   LIG    1       26.511 -28.296   9.007  0.00  0.00    +0.005 A 
ENDBRANCH   3   4
ENDBRANCH   2   3
BRANCH   2  14
ATOM     14  C   LIG    1       24.285 -26.885   6.145  0.00  0.00    +0.119 C 
BRANCH  14  15
ATOM     15  C   LIG    1       24.491 -25.428   6.495  0.00  0.00    -0.033 A 
ATOM     16  C   LIG    1       25.768 -24.929   6.775  0.00  0.00    +0.005 A 
ATOM     17  C   LIG    1       25.964 -23.572   7.057  0.00  0.00    +0.004 A 
ATOM     18  C   LIG    1       24.897 -22.657   7.047  0.00  0.00    -0.042 A 
ATOM     19  C   LIG    1       23.613 -23.184   6.820  0.00  0.00    +0.004 A 
ATOM     20  C   LIG    1       23.414 -24.539   6.532  0.00  0.00    +0.005 A 
BRANCH  18  21
ATOM     21  C   LIG    1       25.118 -21.153   7.288  0.00  0.00    -0.013 C 
ATOM     22  C   LIG    1       26.020 -20.519   6.200  0.00  0.00    +0.015 C 
ATOM     23  C   LIG    1       25.817 -20.874   8.640  0.00  0.00    +0.015 C 
ATOM     24  C   LIG    1       23.762 -20.423   7.280  0.00  0.00    +0.015 C 
ENDBRANCH  18  21
ENDBRANCH  14  15
ENDBRANCH   2  14
TORSDOF 5
ENDMDL
MODEL 3
REMARK VINA RESULT:      -8.7      1.056      2.088
REMARK  Name = *****
REMARK                            x       y       z     vdW  Elec       q    Type
REMARK                         _______ _______ _______ _____ _____    ______ ____
ROOT
ATOM      1  C   LIG    1       24.319 -20.240   5.175  0.00  0.00    +0.105 C 
ATOM      2  N   LIG    1       25.122 -20.524   6.367  0.00  0.00    -0.297 NA
ENDROOT
BRANCH   2   3
ATOM      3  C   LIG    1       26.404 -21.125   5.952  0.00  0.00    +0.120 C 
BRANCH   3   4
ATOM      4  C   LIG    1       27.625 -20.217   5.923  0.00  0.00    -0.026 A 
ATOM      5  C   LIG    1       28.728 -20.374   6.809  0.00  0.00    -0.013 A 
ATOM      6  C   LIG    1       29.760 -19.401   6.796  0.00  0.00    -0.018 A 
ATOM      7  C   LIG    1       30.850 -19.520   7.673  0.00  0.00    +0.008 A 
ATOM      8  C   LIG    1       30.957 -20.601   8.551  0.00  0.00    +0.001 A 
ATOM      9  C   LIG    1       29.970 -21.576   8.555  0.00  0.00    +0.001 A 
ATOM     10  C   LIG    1       29.694 -18.316   5.907  0.00  0.00    +0.008 A 
ATOM     11  C   LIG    1       28.629 -18.183   5.023  0.00  0.00    +0.001 A 
ATOM     12  C   LIG    1       28.871 -21.453   7.707  0.00  0.00    +0.009 A 
ATOM     13  C   LIG    1       27.602 -19.125   5.032  0.00  0.00    +0.005 A 
ENDBRANCH   3   4
ENDBRANCH   2   3
BRANCH   2  14
ATOM     14  C   LIG    1       24.366 -21.377   7.301  0.00  0.00    +0.119 C 
BRANCH  14  15
ATOM     15  C   LIG    1       24.599 -22.854   7.073  0.00  0.00    -0.033 A 
ATOM     16  C   LIG    1       23.576 -23.677   6.590  0.00  0.00    +0.005 A 
ATOM     17  C   LIG    1       23.804 -25.035   6.340  0.00  0.00    +0.004 A 
ATOM     18  C   LIG    1       25.068 -25.619   6.539  0.00  0.00    -0.042 A 
ATOM     19  C   LIG    1       26.069 -24.791   7.078  0.00  0.00    +0.004 A 
ATOM     20  C   LIG    1       25.846 -23.431   7.324  0.00  0.00    +0.005 A 
BRANCH  18  21
ATOM     21  C   LIG    1       25.341 -27.095   6.198  0.00  0.00    -0.013 C 
ATOM     22  C   LIG    1       24.051 -27.840   5.779  0.00  0.00    +0.015 C 
ATOM     23  C   LIG    1       25.914 -27.876   7.404  0.00  0.00    +0.015 C 
ATOM     24  C   LIG    1       26.351 -27.178   5.039  0.00  0.00    +0.015 C 
ENDBRANCH  18  21
ENDBRANCH  14  15
ENDBRANCH   2  14
TORSDOF 5
ENDMDL
MODEL 4
REMARK VINA RESULT:      -8.6      1.566      2.729
REMARK  Name = *****
REMARK                            x       y       z     vdW  Elec       q    Type
REMARK                         _______ _______ _______ _____ _____    ______ ____
ROOT
ATOM      1  C   LIG    1       22.704 -23.496   6.585  0.00  0.00    +0.105 C 
ATOM      2  N   LIG    1       24.076 -23.463   7.098  0.00  0.00    -0.297 NA
ENDROOT
BRANCH   2   3
ATOM      3  C   LIG    1       24.425 -22.073   7.450  0.00  0.00    +0.120 C 
BRANCH   3   4
ATOM      4  C   LIG    1       25.177 -21.255   6.410  0.00  0.00    -0.026 A 
ATOM      5  C   LIG    1       26.556 -20.926   6.533  0.00  0.00    -0.013 A 
ATOM      6  C   LIG    1       27.138 -20.049   5.581  0.00  0.00    -0.018 A 
ATOM      7  C   LIG    1       28.491 -19.691   5.690  0.00  0.00    +0.008 A 
ATOM      8  C   LIG    1       29.295 -20.204   6.710  0.00  0.00    +0.001 A 
ATOM      9  C   LIG    1       28.747 -21.084   7.631  0.00  0.00    +0.001 A 
ATOM     10  C   LIG    1       26.362 -19.537   4.528  0.00  0.00    +0.008 A 
ATOM     11  C   LIG    1       25.023 -19.886   4.396  0.00  0.00    +0.001 A 
ATOM     12  C   LIG    1       27.399 -21.425   7.548  0.00  0.00    +0.009 A 
ATOM     13  C   LIG    1       24.434 -20.737   5.330  0.00  0.00    +0.005 A 
ENDBRANCH   3   4
ENDBRANCH   2   3
BRANCH   2  14
ATOM     14  C   LIG    1       25.003 -24.055   6.118  0.00  0.00    +0.119 C 
BRANCH  14  15
ATOM     15  C   LIG    1       25.064 -25.565   6.201  0.00  0.00    -0.033 A 
ATOM     16  C   LIG    1       25.860 -26.200   7.159  0.00  0.00    +0.005 A 
ATOM     17  C   LIG    1       25.884 -27.596   7.263  0.00  0.00    +0.004 A 
ATOM     18  C   LIG    1       25.096 -28.410   6.429  0.00  0.00    -0.042 A 
ATOM     19  C   LIG    1       24.346 -27.758   5.435  0.00  0.00    +0.004 A 
ATOM     20  C   LIG    1       24.315 -26.362   5.333  0.00  0.00    +0.005 A 
BRANCH  18  21
ATOM     21  C   LIG    1       25.066 -29.941   6.587  0.00  0.00    -0.013 C 
ATOM     22  C   LIG    1       25.791 -30.657   5.422  0.00  0.00    +0.015 C 
ATOM     23  C   LIG    1       23.622 -30.498   6.599  0.00  0.00    +0.015 C 
ATOM     24  C   LIG    1       25.753 -30.338   7.906  0.00  0.00    +0.015 C 
ENDBRANCH  18  21
ENDBRANCH  14  15
ENDBRANCH   2  14
TORSDOF 5
ENDMDL
MODEL 5
REMARK VINA RESULT:      -8.6      3.220      9.373
REMARK  Name = *****
REMARK                            x       y       z     vdW  Elec       q    Type
REMARK                         _______ _______ _______ _____ _____    ______ ____
ROOT
ATOM      1  C   LIG    1       25.704 -28.472   5.065  0.00  0.00    +0.105 C 
ATOM      2  N   LIG    1       25.133 -27.779   6.224  0.00  0.00    -0.297 NA
ENDROOT
BRANCH   2   3
ATOM      3  C   LIG    1       24.614 -28.781   7.175  0.00  0.00    +0.120 C 
BRANCH   3   4
ATOM      4  C   LIG    1       25.613 -29.433   8.119  0.00  0.00    -0.026 A 
ATOM      5  C   LIG    1       25.925 -30.822   8.078  0.00  0.00    -0.013 A 
ATOM      6  C   LIG    1       26.768 -31.364   9.082  0.00  0.00    -0.018 A 
ATOM      7  C   LIG    1       27.075 -32.733   9.078  0.00  0.00    +0.008 A 
ATOM      8  C   LIG    1       26.586 -33.581   8.082  0.00  0.00    +0.001 A 
ATOM      9  C   LIG    1       25.784 -33.061   7.077  0.00  0.00    +0.001 A 
ATOM     10  C   LIG    1       27.296 -30.532  10.083  0.00  0.00    +0.008 A 
ATOM     11  C   LIG    1       27.013 -29.171  10.101  0.00  0.00    +0.001 A 
ATOM     12  C   LIG    1       25.451 -31.708   7.087  0.00  0.00    +0.009 A 
ATOM     13  C   LIG    1       26.177 -28.626   9.128  0.00  0.00    +0.005 A 
ENDBRANCH   3   4
ENDBRANCH   2   3
BRANCH   2  14
ATOM     14  C   LIG    1       24.107 -26.816   5.789  0.00  0.00    +0.119 C 
BRANCH  14  15
ATOM     15  C   LIG    1       24.388 -25.404   6.253  0.00  0.00    -0.033 A 
ATOM     16  C   LIG    1       25.700 -24.962   6.456  0.00  0.00    +0.005 A 
ATOM     17  C   LIG    1       25.962 -23.642   6.844  0.00  0.00    +0.004 A 
ATOM     18  C   LIG    1       24.926 -22.708   7.021  0.00  0.00    -0.042 A 
ATOM     19  C   LIG    1       23.612 -23.184   6.869  0.00  0.00    +0.004 A 
ATOM     20  C   LIG    1       23.346 -24.501   6.475  0.00  0.00    +0.005 A 
BRANCH  18  21
ATOM     21  C   LIG    1       25.214 -21.239   7.380  0.00  0.00    -0.013 C 
ATOM     22  C   LIG    1       26.156 -20.566   6.352  0.00  0.00    +0.015 C 
ATOM     23  C   LIG    1       25.910 -21.099   8.754  0.00  0.00    +0.015 C 
ATOM     24  C   LIG    1       23.892 -20.449   7.419  0.00  0.00    +0.015 C 
ENDBRANCH  18  21
ENDBRANCH  14  15
ENDBRANCH   2  14
TORSDOF 5
ENDMDL
MODEL 6
REMARK VINA RESULT:      -8.6      2.978      5.682
REMARK  Name = *****
REMARK                            x       y       z     vdW  Elec       q    Type
REMARK                         _______ _______ _______ _____ _____    ______ ____
ROOT
ATOM      1  C   LIG    1       26.616 -27.093   5.045  0.00  0.00    +0.105 C 
ATOM      2  N   LIG    1       25.400 -26.374   5.435  0.00  0.00    -0.297 NA
ENDROOT
BRANCH   2   3
ATOM      3  C   LIG    1       25.704 -25.505   6.588  0.00  0.00    +0.120 C 
BRANCH   3   4
ATOM      4  C   LIG    1       24.869 -24.244   6.753  0.00  0.00    -0.026 A 
ATOM      5  C   LIG    1       25.422 -22.998   7.164  0.00  0.00    -0.013 A 
ATOM      6  C   LIG    1       24.546 -21.911   7.418  0.00  0.00    -0.018 A 
ATOM      7  C   LIG    1       25.061 -20.677   7.844  0.00  0.00    +0.008 A 
ATOM      8  C   LIG    1       26.435 -20.483   8.001  0.00  0.00    +0.001 A 
ATOM      9  C   LIG    1       27.306 -21.527   7.730  0.00  0.00    +0.001 A 
ATOM     10  C   LIG    1       23.161 -22.067   7.244  0.00  0.00    +0.008 A 
ATOM     11  C   LIG    1       22.629 -23.277   6.813  0.00  0.00    +0.001 A 
ATOM     12  C   LIG    1       26.803 -22.764   7.332  0.00  0.00    +0.009 A 
ATOM     13  C   LIG    1       23.476 -24.357   6.571  0.00  0.00    +0.005 A 
ENDBRANCH   3   4
ENDBRANCH   2   3
BRANCH   2  14
ATOM     14  C   LIG    1       24.308 -27.324   5.705  0.00  0.00    +0.119 C 
BRANCH  14  15
ATOM     15  C   LIG    1       24.804 -28.681   6.156  0.00  0.00    -0.033 A 
ATOM     16  C   LIG    1       25.081 -29.690   5.228  0.00  0.00    +0.005 A 
ATOM     17  C   LIG    1       25.580 -30.931   5.641  0.00  0.00    +0.004 A 
ATOM     18  C   LIG    1       25.843 -31.203   6.996  0.00  0.00    -0.042 A 
ATOM     19  C   LIG    1       25.505 -30.199   7.920  0.00  0.00    +0.004 A 
ATOM     20  C   LIG    1       25.012 -28.955   7.509  0.00  0.00    +0.005 A 
BRANCH  18  21
ATOM     21  C   LIG    1       26.457 -32.541   7.448  0.00  0.00    -0.013 C 
ATOM     22  C   LIG    1       25.421 -33.691   7.422  0.00  0.00    +0.015 C 
ATOM     23  C   LIG    1       26.991 -32.477   8.898  0.00  0.00    +0.015 C 
ATOM     24  C   LIG    1       27.623 -32.915   6.514  0.00  0.00    +0.015 C 
ENDBRANCH  18  21
ENDBRANCH  14  15
ENDBRANCH   2  14
TORSDOF 5
ENDMDL
MODEL 7
REMARK VINA RESULT:      -8.5      2.351      5.374
REMARK  Name = *****
REMARK                            x       y       z     vdW  Elec       q    Type
REMARK                         _______ _______ _______ _____ _____    ______ ____
ROOT
ATOM      1  C   LIG    1       22.847 -23.620   6.895  0.00  0.00    +0.105 C 
ATOM      2  N   LIG    1       23.827 -22.532   6.958  0.00  0.00    -0.297 NA
ENDROOT
BRANCH   2   3
ATOM      3  C   LIG    1       24.256 -22.191   5.588  0.00  0.00    +0.120 C 
BRANCH   3   4
ATOM      4  C   LIG    1       23.672 -20.932   4.965  0.00  0.00    -0.026 A 
ATOM      5  C   LIG    1       24.478 -19.868   4.469  0.00  0.00    -0.013 A 
ATOM      6  C   LIG    1       23.844 -18.678   4.027  0.00  0.00    -0.018 A 
ATOM      7  C   LIG    1       24.616 -17.605   3.553  0.00  0.00    +0.008 A 
ATOM      8  C   LIG    1       26.007 -17.692   3.480  0.00  0.00    +0.001 A 
ATOM      9  C   LIG    1       26.639 -18.859   3.882  0.00  0.00    +0.001 A 
ATOM     10  C   LIG    1       22.445 -18.570   4.064  0.00  0.00    +0.008 A 
ATOM     11  C   LIG    1       21.661 -19.623   4.521  0.00  0.00    +0.001 A 
ATOM     12  C   LIG    1       25.886 -19.920   4.380  0.00  0.00    +0.009 A 
ATOM     13  C   LIG    1       22.270 -20.794   4.970  0.00  0.00    +0.005 A 
ENDBRANCH   3   4
ENDBRANCH   2   3
BRANCH   2  14
ATOM     14  C   LIG    1       24.950 -22.906   7.834  0.00  0.00    +0.119 C 
BRANCH  14  15
ATOM     15  C   LIG    1       26.125 -21.958   7.726  0.00  0.00    -0.033 A 
ATOM     16  C   LIG    1       26.122 -20.731   8.399  0.00  0.00    +0.005 A 
ATOM     17  C   LIG    1       27.226 -19.873   8.334  0.00  0.00    +0.004 A 
ATOM     18  C   LIG    1       28.384 -20.217   7.614  0.00  0.00    -0.042 A 
ATOM     19  C   LIG    1       28.348 -21.427   6.899  0.00  0.00    +0.004 A 
ATOM     20  C   LIG    1       27.248 -22.290   6.967  0.00  0.00    +0.005 A 
BRANCH  18  21
ATOM     21  C   LIG    1       29.627 -19.309   7.598  0.00  0.00    -0.013 C 
ATOM     22  C   LIG    1       30.938 -20.118   7.743  0.00  0.00    +0.015 C 
ATOM     23  C   LIG    1       29.621 -18.290   8.763  0.00  0.00    +0.015 C 
ATOM     24  C   LIG    1       29.679 -18.531   6.270  0.00  0.00    +0.015 C 
ENDBRANCH  18  21
ENDBRANCH  14  15
ENDBRANCH   2  14
TORSDOF 5
ENDMDL
MODEL 8
REMARK VINA RESULT:      -8.5      2.743      8.782
REMARK  Name = *****
REMARK                            x       y       z     vdW  Elec       q    Type
REMARK                         _______ _______ _______ _____ _____    ______ ____
ROOT
ATOM      1  C   LIG    1       26.216 -27.226   4.653  0.00  0.00    +0.105 C 
ATOM      2  N   LIG    1       25.627 -27.632   5.932  0.00  0.00    -0.297 NA
ENDROOT
BRANCH   2   3
ATOM      3  C   LIG    1       25.503 -29.102   5.959  0.00  0.00    +0.120 C 
BRANCH   3   4
ATOM      4  C   LIG    1       24.943 -29.734   7.225  0.00  0.00    -0.026 A 
ATOM      5  C   LIG    1       25.416 -29.408   8.528  0.00  0.00    -0.013 A 
ATOM      6  C   LIG    1       24.927 -30.144   9.637  0.00  0.00    -0.018 A 
ATOM      7  C   LIG    1       25.392 -29.858  10.931  0.00  0.00    +0.008 A 
ATOM      8  C   LIG    1       26.316 -28.836  11.158  0.00  0.00    +0.001 A 
ATOM      9  C   LIG    1       26.782 -28.089  10.086  0.00  0.00    +0.001 A 
ATOM     10  C   LIG    1       23.977 -31.160   9.445  0.00  0.00    +0.008 A 
ATOM     11  C   LIG    1       23.496 -31.454   8.174  0.00  0.00    +0.001 A 
ATOM     12  C   LIG    1       26.348 -28.382   8.795  0.00  0.00    +0.009 A 
ATOM     13  C   LIG    1       23.976 -30.748   7.073  0.00  0.00    +0.005 A 
ENDBRANCH   3   4
ENDBRANCH   2   3
BRANCH   2  14
ATOM     14  C   LIG    1       24.342 -26.945   6.144  0.00  0.00    +0.119 C 
BRANCH  14  15
ATOM     15  C   LIG    1       24.504 -25.479   6.484  0.00  0.00    -0.033 A 
ATOM     16  C   LIG    1       25.761 -24.949   6.795  0.00  0.00    +0.005 A 
ATOM     17  C   LIG    1       25.918 -23.585   7.068  0.00  0.00    +0.004 A 
ATOM     18  C   LIG    1       24.831 -22.694   7.018  0.00  0.00    -0.042 A 
ATOM     19  C   LIG    1       23.567 -23.253   6.759  0.00  0.00    +0.004 A 
ATOM     20  C   LIG    1       23.407 -24.616   6.480  0.00  0.00    +0.005 A 
BRANCH  18  21
ATOM     21  C   LIG    1       25.011 -21.183   7.248  0.00  0.00    -0.013 C 
ATOM     22  C   LIG    1       25.764 -20.885   8.567  0.00  0.00    +0.015 C 
ATOM     23  C   LIG    1       23.656 -20.443   7.351  0.00  0.00    +0.015 C 
ATOM     24  C   LIG    1       25.812 -20.576   6.082  0.00  0.00    +0.015 C 
ENDBRANCH  18  21
ENDBRANCH  14  15
ENDBRANCH   2  14
TORSDOF 5
ENDMDL
MODEL 9
REMARK VINA RESULT:      -8.5      2.992      5.679
REMARK  Name = *****
REMARK                            x       y       z     vdW  Elec       q    Type
REMARK                         _______ _______ _______ _____ _____    ______ ____
ROOT
ATOM      1  C   LIG    1       25.239 -26.207   4.471  0.00  0.00    +0.105 C 
ATOM      2  N   LIG    1       25.205 -26.576   5.889  0.00  0.00    -0.297 NA
ENDROOT
BRANCH   2   3
ATOM      3  C   LIG    1       25.758 -25.466   6.688  0.00  0.00    +0.120 C 
BRANCH   3   4
ATOM      4  C   LIG    1       24.908 -24.210   6.822  0.00  0.00    -0.026 A 
ATOM      5  C   LIG    1       25.442 -22.955   7.232  0.00  0.00    -0.013 A 
ATOM      6  C   LIG    1       24.551 -21.874   7.456  0.00  0.00    -0.018 A 
ATOM      7  C   LIG    1       25.046 -20.631   7.880  0.00  0.00    +0.008 A 
ATOM      8  C   LIG    1       26.415 -20.422   8.064  0.00  0.00    +0.001 A 
ATOM      9  C   LIG    1       27.301 -21.462   7.821  0.00  0.00    +0.001 A 
ATOM     10  C   LIG    1       23.171 -22.044   7.254  0.00  0.00    +0.008 A 
ATOM     11  C   LIG    1       22.659 -23.263   6.826  0.00  0.00    +0.001 A 
ATOM     12  C   LIG    1       26.817 -22.708   7.426  0.00  0.00    +0.009 A 
ATOM     13  C   LIG    1       23.521 -24.338   6.613  0.00  0.00    +0.005 A 
ENDBRANCH   3   4
ENDBRANCH   2   3
BRANCH   2  14
ATOM     14  C   LIG    1       25.918 -27.847   6.104  0.00  0.00    +0.119 C 
BRANCH  14  15
ATOM     15  C   LIG    1       25.507 -28.547   7.381  0.00  0.00    -0.033 A 
ATOM     16  C   LIG    1       26.244 -28.384   8.559  0.00  0.00    +0.005 A 
ATOM     17  C   LIG    1       25.840 -28.997   9.751  0.00  0.00    +0.004 A 
ATOM     18  C   LIG    1       24.671 -29.777   9.817  0.00  0.00    -0.042 A 
ATOM     19  C   LIG    1       23.974 -29.976   8.613  0.00  0.00    +0.004 A 
ATOM     20  C   LIG    1       24.373 -29.359   7.420  0.00  0.00    +0.005 A 
BRANCH  18  21
ATOM     21  C   LIG    1       24.185 -30.395  11.140  0.00  0.00    -0.013 C 
ATOM     22  C   LIG    1       24.448 -29.461  12.347  0.00  0.00    +0.015 C 
ATOM     23  C   LIG    1       24.907 -31.725  11.463  0.00  0.00    +0.015 C 
ATOM     24  C   LIG    1       22.672 -30.669  11.057  0.00  0.00    +0.015 C 
ENDBRANCH  18  21
ENDBRANCH  14  15
ENDBRANCH   2  14
TORSDOF 5
ENDMDL
