MODEL 1
REMARK VINA RESULT:      -8.7      0.000      0.000
REMARK  Name = *****
REMARK                            x       y       z     vdW  Elec       q    Type
REMARK                         _______ _______ _______ _____ _____    ______ ____
ROOT
ATOM      1  C   LIG    1       24.033 -29.847   6.461  0.00  0.00    +0.007 C 
ENDROOT
BRANCH   1   2
ATOM      2  C   LIG    1       23.964 -31.521   6.422  0.00  0.00    +0.041 C 
BRANCH   2   3
ATOM      3  C   LIG    1       24.588 -32.550   7.557  0.00  0.00    +0.232 C 
BRANCH   3   4
ATOM      4  O   LIG    1       24.509 -32.268   9.025  0.00  0.00    -0.465 OA
BRANCH   4   5
ATOM      5  C   LIG    1       23.567 -32.337   9.975  0.00  0.00    +0.312 C 
ATOM      6  O   LIG    1       23.346 -33.375  10.565  0.00  0.00    -0.251 OA
BRANCH   5   7
ATOM      7  C   LIG    1       22.680 -31.075  10.134  0.00  0.00    +0.171 C 
BRANCH   7   8
ATOM      8  C   LIG    1       22.957 -30.021  11.180  0.00  0.00    +0.145 C 
BRANCH   8   9
ATOM      9  N   LIG    1       22.672 -30.480  12.626  0.00  0.00    +0.247 N 
ATOM     10  C   LIG    1       21.390 -31.356  12.766  0.00  0.00    +0.193 C 
ATOM     11  C   LIG    1       22.754 -29.315  13.598  0.00  0.00    +0.102 C 
ATOM     12  C   LIG    1       24.141 -28.590  13.484  0.00  0.00    +0.008 A 
ATOM     13  C   LIG    1       25.284 -29.280  14.027  0.00  0.00    -0.030 A 
ATOM     14  C   LIG    1       26.672 -28.610  15.082  0.00  0.00    +0.053 A 
ATOM     15  C   LIG    1       27.141 -27.060  14.964  0.00  0.00    +0.162 A 
ATOM     16  C   LIG    1       25.946 -26.204  13.913  0.00  0.00    +0.162 A 
ATOM     17  C   LIG    1       25.096 -30.528  13.241  0.00  0.00    +0.086 C 
ATOM     18  C   LIG    1       24.566 -27.159  13.196  0.00  0.00    +0.059 A 
ATOM     19  C   LIG    1       23.727 -31.148  13.216  0.00  0.00    +0.138 C 
BRANCH  15  20
ATOM     20  O   LIG    1       28.557 -27.126  14.960  0.00  0.00    -0.491 OA
ATOM     21  C   LIG    1       29.089 -28.398  14.754  0.00  0.00    +0.277 C 
ENDBRANCH  15  20
BRANCH  16  22
ATOM     22  O   LIG    1       26.120 -24.782  13.692  0.00  0.00    -0.491 OA
ATOM     23  C   LIG    1       25.297 -24.343  14.634  0.00  0.00    +0.277 C 
ENDBRANCH  16  22
BRANCH  11  24
ATOM     24  C   LIG    1       21.820 -29.274  14.868  0.00  0.00    +0.095 C 
BRANCH  24  25
ATOM     25  C   LIG    1       20.578 -28.453  14.938  0.00  0.00    -0.038 A 
ATOM     26  C   LIG    1       19.401 -29.111  14.997  0.00  0.00    +0.053 A 
ATOM     27  C   LIG    1       18.167 -28.623  14.514  0.00  0.00    +0.162 A 
ATOM     28  C   LIG    1       18.048 -27.225  14.392  0.00  0.00    +0.162 A 
ATOM     29  C   LIG    1       19.163 -26.495  14.813  0.00  0.00    +0.050 A 
ATOM     30  C   LIG    1       20.361 -27.143  15.141  0.00  0.00    +0.007 A 
BRANCH  28  31
ATOM     31  O   LIG    1       17.041 -26.364  14.049  0.00  0.00    -0.491 OA
ATOM     32  C   LIG    1       15.955 -26.154  14.935  0.00  0.00    +0.277 C 
ENDBRANCH  28  31
BRANCH  27  33
ATOM     33  O   LIG    1       17.221 -29.589  14.195  0.00  0.00    -0.491 OA
ATOM     34  C   LIG    1       17.791 -30.898  13.876  0.00  0.00    +0.277 C 
ENDBRANCH  27  33
ENDBRANCH  24  25
ENDBRANCH  11  24
ENDBRANCH   8   9
ENDBRANCH   7   8
ENDBRANCH   5   7
ENDBRANCH   4   5
ENDBRANCH   3   4
ENDBRANCH   2   3
ENDBRANCH   1   2
BRANCH   1  35
ATOM     35  C   LIG    1       25.567 -28.874   6.979  0.00  0.00    +0.041 C 
BRANCH  35  36
ATOM     36  C   LIG    1       26.699 -27.615   5.789  0.00  0.00    +0.232 C 
BRANCH  36  37
ATOM     37  O   LIG    1       26.000 -26.467   4.690  0.00  0.00    -0.465 OA
BRANCH  37  38
ATOM     38  C   LIG    1       24.439 -25.898   5.001  0.00  0.00    +0.312 C 
ATOM     39  O   LIG    1       23.603 -26.136   5.914  0.00  0.00    -0.251 OA
BRANCH  38  40
ATOM     40  C   LIG    1       24.956 -24.722   4.413  0.00  0.00    +0.171 C 
BRANCH  40  41
ATOM     41  C   LIG    1       24.306 -23.780   5.344  0.00  0.00    +0.145 C 
BRANCH  41  43
ATOM     42  C   LIG    1       25.935 -21.450   6.101  0.00  0.00    +0.102 C 
ATOM     43  N   LIG    1       25.192 -23.101   6.564  0.00  0.00    +0.247 N 
ATOM     44  C   LIG    1       26.112 -24.437   7.566  0.00  0.00    +0.193 C 
ATOM     45  C   LIG    1       24.271 -22.796   7.612  0.00  0.00    +0.138 C 
ATOM     46  C   LIG    1       23.272 -21.781   7.121  0.00  0.00    +0.086 C 
ATOM     47  C   LIG    1       23.723 -20.703   6.156  0.00  0.00    -0.030 A 
ATOM     48  C   LIG    1       22.880 -19.741   5.734  0.00  0.00    +0.053 A 
ATOM     49  C   LIG    1       23.199 -18.860   4.679  0.00  0.00    +0.162 A 
ATOM     50  C   LIG    1       24.430 -18.944   4.001  0.00  0.00    +0.162 A 
ATOM     51  C   LIG    1       25.314 -19.874   4.440  0.00  0.00    +0.059 A 
ATOM     52  C   LIG    1       24.924 -20.659   5.517  0.00  0.00    +0.008 A 
BRANCH  50  53
ATOM     53  O   LIG    1       24.780 -18.132   2.966  0.00  0.00    -0.491 OA
ATOM     54  C   LIG    1       26.006 -17.396   3.142  0.00  0.00    +0.277 C 
ENDBRANCH  50  53
BRANCH  49  55
ATOM     55  O   LIG    1       22.252 -17.948   4.300  0.00  0.00    -0.491 OA
ATOM     56  C   LIG    1       21.069 -18.551   3.748  0.00  0.00    +0.277 C 
ENDBRANCH  49  55
BRANCH  42  57
ATOM     57  C   LIG    1       26.771 -20.597   7.183  0.00  0.00    +0.095 C 
BRANCH  57  61
ATOM     58  C   LIG    1       30.681 -18.957   7.577  0.00  0.00    +0.162 A 
ATOM     59  C   LIG    1       30.319 -20.002   8.375  0.00  0.00    +0.162 A 
ATOM     60  C   LIG    1       29.078 -20.541   8.208  0.00  0.00    +0.053 A 
ATOM     61  C   LIG    1       28.181 -20.189   7.247  0.00  0.00    -0.038 A 
ATOM     62  C   LIG    1       28.669 -19.365   6.258  0.00  0.00    +0.007 A 
ATOM     63  C   LIG    1       29.868 -18.703   6.466  0.00  0.00    +0.050 A 
BRANCH  58  65
ATOM     64  C   LIG    1       32.048 -17.472   8.966  0.00  0.00    +0.277 C 
ATOM     65  O   LIG    1       31.783 -18.174   7.729  0.00  0.00    -0.491 OA
ENDBRANCH  58  65
BRANCH  59  66
ATOM     66  O   LIG    1       30.958 -20.576   9.432  0.00  0.00    -0.491 OA
ATOM     67  C   LIG    1       31.339 -21.901   9.162  0.00  0.00    +0.277 C 
ENDBRANCH  59  66
ENDBRANCH  57  61
ENDBRANCH  42  57
ENDBRANCH  41  43
ENDBRANCH  40  41
ENDBRANCH  38  40
ENDBRANCH  37  38
ENDBRANCH  36  37
ENDBRANCH  35  36
ENDBRANCH   1  35
TORSDOF 26
ENDMDL
MODEL 2
REMARK VINA RESULT:      -6.3      1.324      4.864
REMARK  Name = *****
REMARK                            x       y       z     vdW  Elec       q    Type
REMARK                         _______ _______ _______ _____ _____    ______ ____
ROOT
ATOM      1  C   LIG    1       25.868 -29.665   7.773  0.00  0.00    +0.007 C 
ENDROOT
BRANCH   1   2
ATOM      2  C   LIG    1       25.017 -30.064   9.160  0.00  0.00    +0.041 C 
BRANCH   2   3
ATOM      3  C   LIG    1       23.372 -30.170   9.299  0.00  0.00    +0.232 C 
BRANCH   3   4
ATOM      4  O   LIG    1       22.620 -31.430   8.997  0.00  0.00    -0.465 OA
BRANCH   4   5
ATOM      5  C   LIG    1       22.759 -32.732   9.280  0.00  0.00    +0.312 C 
ATOM      6  O   LIG    1       22.950 -33.547   8.402  0.00  0.00    -0.251 OA
BRANCH   5   7
ATOM      7  C   LIG    1       22.484 -33.132  10.752  0.00  0.00    +0.171 C 
BRANCH   7   8
ATOM      8  C   LIG    1       21.629 -32.291  11.670  0.00  0.00    +0.145 C 
BRANCH   8   9
ATOM      9  N   LIG    1       22.434 -31.363  12.604  0.00  0.00    +0.247 N 
ATOM     10  C   LIG    1       23.957 -31.696  12.661  0.00  0.00    +0.193 C 
ATOM     11  C   LIG    1       21.762 -31.229  13.960  0.00  0.00    +0.102 C 
ATOM     12  C   LIG    1       20.278 -30.744  13.802  0.00  0.00    +0.008 A 
ATOM     13  C   LIG    1       20.078 -29.366  13.434  0.00  0.00    -0.030 A 
ATOM     14  C   LIG    1       18.866 -28.125  14.126  0.00  0.00    +0.053 A 
ATOM     15  C   LIG    1       17.441 -28.600  14.741  0.00  0.00    +0.162 A 
ATOM     16  C   LIG    1       17.459 -30.404  14.837  0.00  0.00    +0.162 A 
ATOM     17  C   LIG    1       20.919 -29.412  12.208  0.00  0.00    +0.086 C 
ATOM     18  C   LIG    1       18.932 -31.299  14.237  0.00  0.00    +0.059 A 
ATOM     19  C   LIG    1       22.290 -30.020  12.314  0.00  0.00    +0.138 C 
BRANCH  15  20
ATOM     20  O   LIG    1       16.509 -27.670  14.214  0.00  0.00    -0.491 OA
ATOM     21  C   LIG    1       16.731 -26.343  14.575  0.00  0.00    +0.277 C 
ENDBRANCH  15  20
BRANCH  16  22
ATOM     22  O   LIG    1       16.305 -31.074  15.404  0.00  0.00    -0.491 OA
ATOM     23  C   LIG    1       16.332 -32.165  14.651  0.00  0.00    +0.277 C 
ENDBRANCH  16  22
BRANCH  11  24
ATOM     24  C   LIG    1       22.632 -31.050  15.263  0.00  0.00    +0.095 C 
BRANCH  24  25
ATOM     25  C   LIG    1       23.780 -30.102  15.351  0.00  0.00    -0.038 A 
ATOM     26  C   LIG    1       23.492 -28.792  15.499  0.00  0.00    +0.053 A 
ATOM     27  C   LIG    1       24.299 -27.723  15.052  0.00  0.00    +0.162 A 
ATOM     28  C   LIG    1       25.666 -28.002  14.866  0.00  0.00    +0.162 A 
ATOM     29  C   LIG    1       26.057 -29.303  15.195  0.00  0.00    +0.050 A 
ATOM     30  C   LIG    1       25.102 -30.282  15.498  0.00  0.00    +0.007 A 
BRANCH  28  31
ATOM     31  O   LIG    1       26.769 -27.264  14.527  0.00  0.00    -0.491 OA
ATOM     32  C   LIG    1       28.067 -27.763  14.802  0.00  0.00    +0.277 C 
ENDBRANCH  28  31
BRANCH  27  33
ATOM     33  O   LIG    1       23.637 -26.522  14.828  0.00  0.00    -0.491 OA
ATOM     34  C   LIG    1       22.305 -26.676  14.242  0.00  0.00    +0.277 C 
ENDBRANCH  27  33
ENDBRANCH  24  25
ENDBRANCH  11  24
ENDBRANCH   8   9
ENDBRANCH   7   8
ENDBRANCH   5   7
ENDBRANCH   4   5
ENDBRANCH   3   4
ENDBRANCH   2   3
ENDBRANCH   1   2
BRANCH   1  35
ATOM     35  C   LIG    1       25.248 -30.020   6.025  0.00  0.00    +0.041 C 
BRANCH  35  36
ATOM     36  C   LIG    1       24.592 -28.634   4.634  0.00  0.00    +0.232 C 
BRANCH  36  37
ATOM     37  O   LIG    1       25.147 -26.990   4.601  0.00  0.00    -0.465 OA
BRANCH  37  38
ATOM     38  C   LIG    1       24.199 -25.802   5.341  0.00  0.00    +0.312 C 
ATOM     39  O   LIG    1       23.258 -25.851   6.180  0.00  0.00    -0.251 OA
BRANCH  38  40
ATOM     40  C   LIG    1       25.392 -25.053   5.235  0.00  0.00    +0.171 C 
BRANCH  40  41
ATOM     41  C   LIG    1       24.834 -23.791   5.757  0.00  0.00    +0.145 C 
BRANCH  41  43
ATOM     42  C   LIG    1       26.262 -21.276   6.295  0.00  0.00    +0.102 C 
ATOM     43  N   LIG    1       25.674 -22.943   6.902  0.00  0.00    +0.247 N 
ATOM     44  C   LIG    1       26.722 -24.109   7.985  0.00  0.00    +0.193 C 
ATOM     45  C   LIG    1       24.745 -22.636   7.942  0.00  0.00    +0.138 C 
ATOM     46  C   LIG    1       23.653 -21.753   7.394  0.00  0.00    +0.086 C 
ATOM     47  C   LIG    1       23.994 -20.721   6.339  0.00  0.00    -0.030 A 
ATOM     48  C   LIG    1       23.064 -19.872   5.860  0.00  0.00    +0.053 A 
ATOM     49  C   LIG    1       23.288 -19.054   4.734  0.00  0.00    +0.162 A 
ATOM     50  C   LIG    1       24.513 -19.085   4.038  0.00  0.00    +0.162 A 
ATOM     51  C   LIG    1       25.481 -19.897   4.530  0.00  0.00    +0.059 A 
ATOM     52  C   LIG    1       25.177 -20.624   5.673  0.00  0.00    +0.008 A 
BRANCH  50  53
ATOM     53  O   LIG    1       24.775 -18.331   2.935  0.00  0.00    -0.491 OA
ATOM     54  C   LIG    1       25.757 -17.292   3.113  0.00  0.00    +0.277 C 
ENDBRANCH  50  53
BRANCH  49  55
ATOM     55  O   LIG    1       22.260 -18.260   4.304  0.00  0.00    -0.491 OA
ATOM     56  C   LIG    1       21.262 -18.976   3.557  0.00  0.00    +0.277 C 
ENDBRANCH  49  55
BRANCH  42  57
ATOM     57  C   LIG    1       27.035 -20.269   7.289  0.00  0.00    +0.095 C 
BRANCH  57  61
ATOM     58  C   LIG    1       30.960 -18.728   7.880  0.00  0.00    +0.162 A 
ATOM     59  C   LIG    1       30.562 -19.816   8.599  0.00  0.00    +0.162 A 
ATOM     60  C   LIG    1       29.318 -20.321   8.368  0.00  0.00    +0.053 A 
ATOM     61  C   LIG    1       28.449 -19.892   7.412  0.00  0.00    -0.038 A 
ATOM     62  C   LIG    1       28.974 -19.013   6.491  0.00  0.00    +0.007 A 
ATOM     63  C   LIG    1       30.178 -18.387   6.770  0.00  0.00    +0.050 A 
BRANCH  58  65
ATOM     64  C   LIG    1       32.058 -16.874   9.046  0.00  0.00    +0.277 C 
ATOM     65  O   LIG    1       32.071 -17.976   8.109  0.00  0.00    -0.491 OA
ENDBRANCH  58  65
BRANCH  59  66
ATOM     66  O   LIG    1       31.166 -20.469   9.630  0.00  0.00    -0.491 OA
ATOM     67  C   LIG    1       31.534 -21.780   9.281  0.00  0.00    +0.277 C 
ENDBRANCH  59  66
ENDBRANCH  57  61
ENDBRANCH  42  57
ENDBRANCH  41  43
ENDBRANCH  40  41
ENDBRANCH  38  40
ENDBRANCH  37  38
ENDBRANCH  36  37
ENDBRANCH  35  36
ENDBRANCH   1  35
TORSDOF 26
ENDMDL
