MODEL 1
REMARK VINA RESULT:      -6.9      0.000      0.000
REMARK  Name = *****
REMARK                            x       y       z     vdW  Elec       q    Type
REMARK                         _______ _______ _______ _____ _____    ______ ____
ROOT
ATOM      1  C   LIG    1       30.959 -19.619   7.771  0.00  0.00    +0.061 C 
ATOM      2  C   LIG    1       29.420 -19.461   7.611  0.00  0.00    -0.019 C 
ATOM      3  C   LIG    1       28.956 -18.075   8.094  0.00  0.00    +0.012 C 
ATOM      4  C   LIG    1       28.870 -20.637   8.458  0.00  0.00    -0.001 C 
ATOM      5  C   LIG    1       27.429 -21.109   8.147  0.00  0.00    +0.000 C 
ATOM      6  C   LIG    1       27.135 -21.241   6.629  0.00  0.00    +0.003 C 
ATOM      7  C   LIG    1       27.544 -19.943   5.904  0.00  0.00    +0.005 C 
ATOM      8  C   LIG    1       25.657 -21.755   6.361  0.00  0.00    -0.008 C 
ATOM      9  C   LIG    1       25.655 -23.292   6.590  0.00  0.00    +0.016 C 
ATOM     10  C   LIG    1       24.631 -21.145   7.317  0.00  0.00    -0.065 C 
ATOM     11  C   LIG    1       23.162 -21.389   7.009  0.00  0.00    +0.062 C 
ATOM     12  C   LIG    1       22.804 -21.115   5.545  0.00  0.00    +0.119 C 
ATOM     13  C   LIG    1       23.764 -21.810   4.582  0.00  0.00    +0.032 C 
ATOM     14  C   LIG    1       24.982 -20.450   8.411  0.00  0.00    -0.027 C 
ATOM     15  C   LIG    1       25.225 -21.467   4.895  0.00  0.00    +0.013 C 
ATOM     16  C   LIG    1       26.391 -20.219   8.856  0.00  0.00    +0.031 C 
ATOM     17  C   LIG    1       29.894 -21.773   8.248  0.00  0.00    +0.005 C 
ATOM     18  C   LIG    1       29.027 -19.622   6.124  0.00  0.00    +0.008 C 
ATOM     19  C   LIG    1       31.206 -21.128   7.803  0.00  0.00    +0.012 C 
ENDROOT
BRANCH   1  21
ATOM     20  C   LIG    1       32.231 -17.653   8.869  0.00  0.00    +0.086 C 
ATOM     21  C   LIG    1       31.540 -18.983   9.037  0.00  0.00    +0.134 C 
ATOM     22  O   LIG    1       31.466 -19.521  10.141  0.00  0.00    -0.297 OA
ENDBRANCH   1  21
BRANCH  12  23
ATOM     23  O   LIG    1       22.796 -19.708   5.291  0.00  0.00    -0.392 OA
ATOM     24  H   LIG    1       22.509 -19.577   4.370  0.00  0.00    +0.210 HD
ENDBRANCH  12  23
TORSDOF 2
ENDMDL
MODEL 2
REMARK VINA RESULT:      -5.8      8.821     11.436
REMARK  Name = *****
REMARK                            x       y       z     vdW  Elec       q    Type
REMARK                         _______ _______ _______ _____ _____    ______ ____
ROOT
ATOM      1  C   LIG    1       25.358 -30.534   8.031  0.00  0.00    +0.061 C 
ATOM      2  C   LIG    1       26.098 -30.183   9.353  0.00  0.00    -0.019 C 
ATOM      3  C   LIG    1       27.336 -31.078   9.545  0.00  0.00    +0.012 C 
ATOM      4  C   LIG    1       24.998 -30.395  10.423  0.00  0.00    -0.001 C 
ATOM      5  C   LIG    1       25.196 -29.679  11.781  0.00  0.00    +0.000 C 
ATOM      6  C   LIG    1       25.655 -28.203  11.640  0.00  0.00    +0.003 C 
ATOM      7  C   LIG    1       26.876 -28.125  10.702  0.00  0.00    +0.005 C 
ATOM      8  C   LIG    1       25.815 -27.502  13.056  0.00  0.00    -0.008 C 
ATOM      9  C   LIG    1       24.391 -27.111  13.541  0.00  0.00    +0.016 C 
ATOM     10  C   LIG    1       26.424 -28.425  14.113  0.00  0.00    -0.065 C 
ATOM     11  C   LIG    1       26.831 -27.796  15.435  0.00  0.00    +0.062 C 
ATOM     12  C   LIG    1       27.655 -26.516  15.260  0.00  0.00    +0.119 C 
ATOM     13  C   LIG    1       26.996 -25.542  14.285  0.00  0.00    +0.032 C 
ATOM     14  C   LIG    1       26.572 -29.747  13.923  0.00  0.00    -0.027 C 
ATOM     15  C   LIG    1       26.678 -26.213  12.945  0.00  0.00    +0.013 C 
ATOM     16  C   LIG    1       26.132 -30.485  12.700  0.00  0.00    +0.031 C 
ATOM     17  C   LIG    1       23.696 -29.942   9.729  0.00  0.00    +0.005 C 
ATOM     18  C   LIG    1       26.558 -28.707   9.321  0.00  0.00    +0.008 C 
ATOM     19  C   LIG    1       23.930 -30.019   8.222  0.00  0.00    +0.012 C 
ENDROOT
BRANCH   1  21
ATOM     20  C   LIG    1       26.190 -32.491   6.558  0.00  0.00    +0.086 C 
ATOM     21  C   LIG    1       25.318 -32.029   7.698  0.00  0.00    +0.134 C 
ATOM     22  O   LIG    1       24.606 -32.824   8.310  0.00  0.00    -0.297 OA
ENDBRANCH   1  21
BRANCH  12  23
ATOM     23  O   LIG    1       28.975 -26.832  14.813  0.00  0.00    -0.392 OA
ATOM     24  H   LIG    1       29.084 -26.452  13.923  0.00  0.00    +0.210 HD
ENDBRANCH  12  23
TORSDOF 2
ENDMDL
MODEL 3
REMARK VINA RESULT:      -5.5      8.903     11.429
REMARK  Name = *****
REMARK                            x       y       z     vdW  Elec       q    Type
REMARK                         _______ _______ _______ _____ _____    ______ ____
ROOT
ATOM      1  C   LIG    1       25.092 -31.950   7.198  0.00  0.00    +0.061 C 
ATOM      2  C   LIG    1       25.058 -30.700   8.122  0.00  0.00    -0.019 C 
ATOM      3  C   LIG    1       24.954 -29.406   7.293  0.00  0.00    +0.012 C 
ATOM      4  C   LIG    1       26.381 -30.831   8.917  0.00  0.00    -0.001 C 
ATOM      5  C   LIG    1       26.468 -30.068  10.261  0.00  0.00    +0.000 C 
ATOM      6  C   LIG    1       25.195 -30.212  11.137  0.00  0.00    +0.003 C 
ATOM      7  C   LIG    1       23.945 -29.874  10.299  0.00  0.00    +0.005 C 
ATOM      8  C   LIG    1       25.342 -29.438  12.516  0.00  0.00    -0.008 C 
ATOM      9  C   LIG    1       26.202 -30.329  13.455  0.00  0.00    +0.016 C 
ATOM     10  C   LIG    1       26.059 -28.094  12.372  0.00  0.00    -0.065 C 
ATOM     11  C   LIG    1       26.054 -27.171  13.580  0.00  0.00    +0.062 C 
ATOM     12  C   LIG    1       24.665 -27.007  14.203  0.00  0.00    +0.119 C 
ATOM     13  C   LIG    1       23.986 -28.353  14.448  0.00  0.00    +0.032 C 
ATOM     14  C   LIG    1       26.704 -27.733  11.251  0.00  0.00    -0.027 C 
ATOM     15  C   LIG    1       23.953 -29.208  13.177  0.00  0.00    +0.013 C 
ATOM     16  C   LIG    1       26.845 -28.592  10.036  0.00  0.00    +0.031 C 
ATOM     17  C   LIG    1       26.559 -32.351   9.118  0.00  0.00    +0.005 C 
ATOM     18  C   LIG    1       23.836 -30.778   9.067  0.00  0.00    +0.008 C 
ATOM     19  C   LIG    1       25.735 -33.053   8.040  0.00  0.00    +0.012 C 
ENDROOT
BRANCH   1  21
ATOM     20  C   LIG    1       27.108 -32.642   5.733  0.00  0.00    +0.086 C 
ATOM     21  C   LIG    1       25.891 -31.769   5.904  0.00  0.00    +0.134 C 
ATOM     22  O   LIG    1       25.577 -30.947   5.044  0.00  0.00    -0.297 OA
ENDBRANCH   1  21
BRANCH  12  23
ATOM     23  O   LIG    1       23.839 -26.192  13.367  0.00  0.00    -0.392 OA
ATOM     24  H   LIG    1       24.252 -26.159  12.487  0.00  0.00    +0.210 HD
ENDBRANCH  12  23
TORSDOF 2
ENDMDL
MODEL 4
REMARK VINA RESULT:      -5.4      9.171     12.387
REMARK  Name = *****
REMARK                            x       y       z     vdW  Elec       q    Type
REMARK                         _______ _______ _______ _____ _____    ______ ____
ROOT
ATOM      1  C   LIG    1       25.306 -32.030   5.978  0.00  0.00    +0.061 C 
ATOM      2  C   LIG    1       25.434 -32.025   7.528  0.00  0.00    -0.019 C 
ATOM      3  C   LIG    1       24.839 -33.309   8.133  0.00  0.00    +0.012 C 
ATOM      4  C   LIG    1       24.674 -30.734   7.925  0.00  0.00    -0.001 C 
ATOM      5  C   LIG    1       25.003 -30.128   9.311  0.00  0.00    +0.000 C 
ATOM      6  C   LIG    1       26.523 -30.079   9.619  0.00  0.00    +0.003 C 
ATOM      7  C   LIG    1       27.150 -31.466   9.373  0.00  0.00    +0.005 C 
ATOM      8  C   LIG    1       26.812 -29.423  11.036  0.00  0.00    -0.008 C 
ATOM      9  C   LIG    1       26.704 -27.882  10.862  0.00  0.00    +0.016 C 
ATOM     10  C   LIG    1       25.800 -29.839  12.104  0.00  0.00    -0.065 C 
ATOM     11  C   LIG    1       26.107 -29.455  13.543  0.00  0.00    +0.062 C 
ATOM     12  C   LIG    1       27.541 -29.797  13.960  0.00  0.00    +0.119 C 
ATOM     13  C   LIG    1       28.567 -29.290  12.948  0.00  0.00    +0.032 C 
ATOM     14  C   LIG    1       24.659 -30.485  11.809  0.00  0.00    -0.027 C 
ATOM     15  C   LIG    1       28.246 -29.772  11.529  0.00  0.00    +0.013 C 
ATOM     16  C   LIG    1       24.215 -30.838  10.427  0.00  0.00    +0.031 C 
ATOM     17  C   LIG    1       24.984 -29.740   6.785  0.00  0.00    +0.005 C 
ATOM     18  C   LIG    1       26.924 -31.934   7.932  0.00  0.00    +0.008 C 
ATOM     19  C   LIG    1       25.394 -30.560   5.564  0.00  0.00    +0.012 C 
ENDROOT
BRANCH   1  21
ATOM     20  C   LIG    1       24.131 -33.799   4.501  0.00  0.00    +0.086 C 
ATOM     21  C   LIG    1       24.001 -32.630   5.445  0.00  0.00    +0.134 C 
ATOM     22  O   LIG    1       22.896 -32.185   5.752  0.00  0.00    -0.297 OA
ENDBRANCH   1  21
BRANCH  12  23
ATOM     23  O   LIG    1       27.685 -31.209  14.129  0.00  0.00    -0.392 OA
ATOM     24  H   LIG    1       27.967 -31.582  13.276  0.00  0.00    +0.210 HD
ENDBRANCH  12  23
TORSDOF 2
ENDMDL
MODEL 5
REMARK VINA RESULT:      -5.4      9.604     12.539
REMARK  Name = *****
REMARK                            x       y       z     vdW  Elec       q    Type
REMARK                         _______ _______ _______ _____ _____    ______ ____
ROOT
ATOM      1  C   LIG    1       20.260 -28.171  13.406  0.00  0.00    +0.061 C 
ATOM      2  C   LIG    1       21.679 -28.664  13.808  0.00  0.00    -0.019 C 
ATOM      3  C   LIG    1       21.599 -29.710  14.934  0.00  0.00    +0.012 C 
ATOM      4  C   LIG    1       22.388 -27.350  14.222  0.00  0.00    -0.001 C 
ATOM      5  C   LIG    1       23.936 -27.355  14.206  0.00  0.00    +0.000 C 
ATOM      6  C   LIG    1       24.538 -28.018  12.940  0.00  0.00    +0.003 C 
ATOM      7  C   LIG    1       23.900 -29.405  12.724  0.00  0.00    +0.005 C 
ATOM      8  C   LIG    1       26.125 -27.973  12.954  0.00  0.00    -0.008 C 
ATOM      9  C   LIG    1       26.551 -26.542  12.521  0.00  0.00    +0.016 C 
ATOM     10  C   LIG    1       26.717 -28.230  14.341  0.00  0.00    -0.065 C 
ATOM     11  C   LIG    1       28.221 -28.435  14.430  0.00  0.00    +0.062 C 
ATOM     12  C   LIG    1       28.750 -29.433  13.396  0.00  0.00    +0.119 C 
ATOM     13  C   LIG    1       28.248 -29.119  11.989  0.00  0.00    +0.032 C 
ATOM     14  C   LIG    1       25.969 -28.242  15.457  0.00  0.00    -0.027 C 
ATOM     15  C   LIG    1       26.721 -28.999  11.947  0.00  0.00    +0.013 C 
ATOM     16  C   LIG    1       24.500 -27.972  15.500  0.00  0.00    +0.031 C 
ATOM     17  C   LIG    1       21.816 -26.286  13.261  0.00  0.00    +0.005 C 
ATOM     18  C   LIG    1       22.378 -29.306  12.587  0.00  0.00    +0.008 C 
ATOM     19  C   LIG    1       20.481 -26.813  12.739  0.00  0.00    +0.012 C 
ENDROOT
BRANCH   1  21
ATOM     20  C   LIG    1       18.300 -29.131  14.794  0.00  0.00    +0.086 C 
ATOM     21  C   LIG    1       19.283 -28.009  14.575  0.00  0.00    +0.134 C 
ATOM     22  O   LIG    1       19.279 -27.015  15.300  0.00  0.00    -0.297 OA
ENDBRANCH   1  21
BRANCH  12  23
ATOM     23  O   LIG    1       28.379 -30.765  13.757  0.00  0.00    -0.392 OA
ATOM     24  H   LIG    1       29.178 -31.216  14.083  0.00  0.00    +0.210 HD
ENDBRANCH  12  23
TORSDOF 2
ENDMDL
MODEL 6
REMARK VINA RESULT:      -5.4     10.259     11.943
REMARK  Name = *****
REMARK                            x       y       z     vdW  Elec       q    Type
REMARK                         _______ _______ _______ _____ _____    ______ ____
ROOT
ATOM      1  C   LIG    1       25.120 -32.114   9.871  0.00  0.00    +0.061 C 
ATOM      2  C   LIG    1       24.360 -30.836  10.327  0.00  0.00    -0.019 C 
ATOM      3  C   LIG    1       24.632 -29.662   9.369  0.00  0.00    +0.012 C 
ATOM      4  C   LIG    1       24.905 -30.613  11.761  0.00  0.00    -0.001 C 
ATOM      5  C   LIG    1       24.039 -29.751  12.712  0.00  0.00    +0.000 C 
ATOM      6  C   LIG    1       22.529 -30.105  12.664  0.00  0.00    +0.003 C 
ATOM      7  C   LIG    1       22.042 -30.114  11.201  0.00  0.00    +0.005 C 
ATOM      8  C   LIG    1       21.687 -29.217  13.676  0.00  0.00    -0.008 C 
ATOM      9  C   LIG    1       21.880 -29.825  15.093  0.00  0.00    +0.016 C 
ATOM     10  C   LIG    1       22.159 -27.763  13.729  0.00  0.00    -0.065 C 
ATOM     11  C   LIG    1       21.288 -26.775  14.488  0.00  0.00    +0.062 C 
ATOM     12  C   LIG    1       19.806 -26.875  14.114  0.00  0.00    +0.119 C 
ATOM     13  C   LIG    1       19.300 -28.315  14.163  0.00  0.00    +0.032 C 
ATOM     14  C   LIG    1       23.310 -27.354  13.170  0.00  0.00    -0.027 C 
ATOM     15  C   LIG    1       20.173 -29.249  13.319  0.00  0.00    +0.013 C 
ATOM     16  C   LIG    1       24.283 -28.250  12.474  0.00  0.00    +0.031 C 
ATOM     17  C   LIG    1       25.109 -32.038  12.319  0.00  0.00    +0.005 C 
ATOM     18  C   LIG    1       22.839 -31.109  10.352  0.00  0.00    +0.008 C 
ATOM     19  C   LIG    1       25.232 -32.982  11.125  0.00  0.00    +0.012 C 
ENDROOT
BRANCH   1  21
ATOM     20  C   LIG    1       26.723 -32.170   7.843  0.00  0.00    +0.086 C 
ATOM     21  C   LIG    1       26.519 -31.858   9.304  0.00  0.00    +0.134 C 
ATOM     22  O   LIG    1       27.445 -31.433   9.994  0.00  0.00    -0.297 OA
ENDBRANCH   1  21
BRANCH  12  23
ATOM     23  O   LIG    1       19.585 -26.326  12.813  0.00  0.00    -0.392 OA
ATOM     24  H   LIG    1       18.871 -25.669  12.887  0.00  0.00    +0.210 HD
ENDBRANCH  12  23
TORSDOF 2
ENDMDL
MODEL 7
REMARK VINA RESULT:      -5.2      1.485      6.709
REMARK  Name = *****
REMARK                            x       y       z     vdW  Elec       q    Type
REMARK                         _______ _______ _______ _____ _____    ______ ____
ROOT
ATOM      1  C   LIG    1       24.512 -22.305   7.260  0.00  0.00    +0.061 C 
ATOM      2  C   LIG    1       25.580 -21.177   7.201  0.00  0.00    -0.019 C 
ATOM      3  C   LIG    1       25.060 -19.968   6.402  0.00  0.00    +0.012 C 
ATOM      4  C   LIG    1       26.788 -21.890   6.543  0.00  0.00    -0.001 C 
ATOM      5  C   LIG    1       28.182 -21.255   6.766  0.00  0.00    +0.000 C 
ATOM      6  C   LIG    1       28.436 -20.821   8.234  0.00  0.00    +0.003 C 
ATOM      7  C   LIG    1       27.261 -19.955   8.732  0.00  0.00    +0.005 C 
ATOM      8  C   LIG    1       29.887 -20.203   8.420  0.00  0.00    -0.008 C 
ATOM      9  C   LIG    1       30.886 -21.391   8.501  0.00  0.00    +0.016 C 
ATOM     10  C   LIG    1       30.314 -19.320   7.247  0.00  0.00    -0.065 C 
ATOM     11  C   LIG    1       31.582 -18.499   7.419  0.00  0.00    +0.062 C 
ATOM     12  C   LIG    1       31.625 -17.736   8.746  0.00  0.00    +0.119 C 
ATOM     13  C   LIG    1       31.304 -18.639   9.935  0.00  0.00    +0.032 C 
ATOM     14  C   LIG    1       29.637 -19.278   6.087  0.00  0.00    -0.027 C 
ATOM     15  C   LIG    1       29.978 -19.382   9.738  0.00  0.00    +0.013 C 
ATOM     16  C   LIG    1       28.429 -20.101   5.777  0.00  0.00    +0.031 C 
ATOM     17  C   LIG    1       26.729 -23.331   7.094  0.00  0.00    +0.005 C 
ATOM     18  C   LIG    1       25.930 -20.708   8.632  0.00  0.00    +0.008 C 
ATOM     19  C   LIG    1       25.296 -23.584   7.556  0.00  0.00    +0.012 C 
ENDROOT
BRANCH   1  21
ATOM     20  C   LIG    1       22.204 -22.543   6.116  0.00  0.00    +0.086 C 
ATOM     21  C   LIG    1       23.704 -22.491   5.972  0.00  0.00    +0.134 C 
ATOM     22  O   LIG    1       24.237 -22.607   4.869  0.00  0.00    -0.297 OA
ENDBRANCH   1  21
BRANCH  12  23
ATOM     23  O   LIG    1       30.717 -16.633   8.715  0.00  0.00    -0.392 OA
ATOM     24  H   LIG    1       31.229 -15.835   8.498  0.00  0.00    +0.210 HD
ENDBRANCH  12  23
TORSDOF 2
ENDMDL
MODEL 8
REMARK VINA RESULT:      -5.2      9.329     10.930
REMARK  Name = *****
REMARK                            x       y       z     vdW  Elec       q    Type
REMARK                         _______ _______ _______ _____ _____    ______ ____
ROOT
ATOM      1  C   LIG    1       27.243 -29.136  13.722  0.00  0.00    +0.061 C 
ATOM      2  C   LIG    1       26.755 -29.106  12.245  0.00  0.00    -0.019 C 
ATOM      3  C   LIG    1       26.414 -27.670  11.808  0.00  0.00    +0.012 C 
ATOM      4  C   LIG    1       25.534 -30.060  12.274  0.00  0.00    -0.001 C 
ATOM      5  C   LIG    1       25.092 -30.671  10.922  0.00  0.00    +0.000 C 
ATOM      6  C   LIG    1       26.275 -31.195  10.065  0.00  0.00    +0.003 C 
ATOM      7  C   LIG    1       27.352 -30.100   9.939  0.00  0.00    +0.005 C 
ATOM      8  C   LIG    1       25.770 -31.839   8.704  0.00  0.00    -0.008 C 
ATOM      9  C   LIG    1       25.255 -33.267   9.032  0.00  0.00    +0.016 C 
ATOM     10  C   LIG    1       24.613 -31.065   8.070  0.00  0.00    -0.065 C 
ATOM     11  C   LIG    1       24.203 -31.456   6.660  0.00  0.00    +0.062 C 
ATOM     12  C   LIG    1       25.393 -31.577   5.702  0.00  0.00    +0.119 C 
ATOM     13  C   LIG    1       26.510 -32.439   6.287  0.00  0.00    +0.032 C 
ATOM     14  C   LIG    1       23.944 -30.100   8.722  0.00  0.00    -0.027 C 
ATOM     15  C   LIG    1       26.933 -31.950   7.676  0.00  0.00    +0.013 C 
ATOM     16  C   LIG    1       24.204 -29.689  10.136  0.00  0.00    +0.031 C 
ATOM     17  C   LIG    1       25.927 -31.155  13.288  0.00  0.00    +0.005 C 
ATOM     18  C   LIG    1       27.861 -29.655  11.315  0.00  0.00    +0.008 C 
ATOM     19  C   LIG    1       27.013 -30.574  14.191  0.00  0.00    +0.012 C 
ENDROOT
BRANCH   1  21
ATOM     20  C   LIG    1       27.299 -26.994  15.170  0.00  0.00    +0.086 C 
ATOM     21  C   LIG    1       26.509 -28.173  14.658  0.00  0.00    +0.134 C 
ATOM     22  O   LIG    1       25.339 -28.344  14.997  0.00  0.00    -0.297 OA
ENDBRANCH   1  21
BRANCH  12  23
ATOM     23  O   LIG    1       25.900 -30.282   5.375  0.00  0.00    -0.392 OA
ATOM     24  H   LIG    1       26.576 -30.396   4.684  0.00  0.00    +0.210 HD
ENDBRANCH  12  23
TORSDOF 2
ENDMDL
MODEL 9
REMARK VINA RESULT:      -5.0      8.983     11.862
REMARK  Name = *****
REMARK                            x       y       z     vdW  Elec       q    Type
REMARK                         _______ _______ _______ _____ _____    ______ ____
ROOT
ATOM      1  C   LIG    1       23.479 -32.126  10.315  0.00  0.00    +0.061 C 
ATOM      2  C   LIG    1       23.957 -30.666  10.556  0.00  0.00    -0.019 C 
ATOM      3  C   LIG    1       23.941 -29.858   9.246  0.00  0.00    +0.012 C 
ATOM      4  C   LIG    1       25.374 -30.869  11.151  0.00  0.00    -0.001 C 
ATOM      5  C   LIG    1       25.962 -29.695  11.971  0.00  0.00    +0.000 C 
ATOM      6  C   LIG    1       24.950 -29.067  12.966  0.00  0.00    +0.003 C 
ATOM      7  C   LIG    1       23.639 -28.727  12.230  0.00  0.00    +0.005 C 
ATOM      8  C   LIG    1       25.607 -27.889  13.804  0.00  0.00    -0.008 C 
ATOM      9  C   LIG    1       26.454 -28.542  14.932  0.00  0.00    +0.016 C 
ATOM     10  C   LIG    1       26.546 -27.015  12.970  0.00  0.00    -0.065 C 
ATOM     11  C   LIG    1       27.051 -25.731  13.607  0.00  0.00    +0.062 C 
ATOM     12  C   LIG    1       25.934 -24.904  14.253  0.00  0.00    +0.119 C 
ATOM     13  C   LIG    1       25.056 -25.751  15.172  0.00  0.00    +0.032 C 
ATOM     14  C   LIG    1       26.955 -27.361  11.738  0.00  0.00    -0.027 C 
ATOM     15  C   LIG    1       24.515 -26.991  14.452  0.00  0.00    +0.013 C 
ATOM     16  C   LIG    1       26.590 -28.636  11.047  0.00  0.00    +0.031 C 
ATOM     17  C   LIG    1       25.252 -32.149  12.005  0.00  0.00    +0.005 C 
ATOM     18  C   LIG    1       23.026 -29.970  11.576  0.00  0.00    +0.008 C 
ATOM     19  C   LIG    1       24.049 -32.933  11.483  0.00  0.00    +0.012 C 
ENDROOT
BRANCH   1  21
ATOM     20  C   LIG    1       22.876 -33.095   7.994  0.00  0.00    +0.086 C 
ATOM     21  C   LIG    1       23.948 -32.743   8.995  0.00  0.00    +0.134 C 
ATOM     22  O   LIG    1       25.135 -32.961   8.751  0.00  0.00    -0.297 OA
ENDBRANCH   1  21
BRANCH  12  23
ATOM     23  O   LIG    1       25.129 -24.286  13.247  0.00  0.00    -0.392 OA
ATOM     24  H   LIG    1       24.444 -23.762  13.698  0.00  0.00    +0.210 HD
ENDBRANCH  12  23
TORSDOF 2
ENDMDL
