MODEL 1
REMARK VINA RESULT:      -4.4      0.000      0.000
REMARK  Name = *****
REMARK                            x       y       z     vdW  Elec       q    Type
REMARK                         _______ _______ _______ _____ _____    ______ ____
ROOT
ATOM      1  C   LIG    1       25.683 -15.282   3.148  0.00  0.00    +0.069 C 
ENDROOT
BRANCH   1   2
ATOM      2  C   LIG    1       24.817 -16.479   3.565  0.00  0.00    -0.038 A 
ATOM      3  C   LIG    1       23.529 -16.263   4.091  0.00  0.00    +0.006 A 
ATOM      4  C   LIG    1       22.709 -17.340   4.446  0.00  0.00    +0.020 A 
ATOM      5  C   LIG    1       23.168 -18.644   4.278  0.00  0.00    +0.041 A 
ATOM      6 CL   LIG    1       22.167 -19.968   4.735  0.00  0.00    -0.084 Cl
ATOM      7  C   LIG    1       24.430 -18.880   3.741  0.00  0.00    +0.020 A 
ATOM      8  C   LIG    1       25.248 -17.804   3.378  0.00  0.00    +0.006 A 
ENDBRANCH   1   2
BRANCH   1   9
ATOM      9  C   LIG    1       24.948 -13.936   3.196  0.00  0.00    +0.049 A 
ATOM     10  N   LIG    1       24.463 -13.518   4.394  0.00  0.00    -0.259 NA
ATOM     11  C   LIG    1       23.899 -12.295   4.475  0.00  0.00    +0.111 A 
ATOM     12  C   LIG    1       23.768 -11.447   3.396  0.00  0.00    +0.020 A 
ATOM     13  C   LIG    1       24.235 -11.887   2.168  0.00  0.00    +0.003 A 
ATOM     14  C   LIG    1       24.840 -13.140   2.057  0.00  0.00    +0.024 A 
ENDBRANCH   1   9
BRANCH   1  15
ATOM     15  C   LIG    1       26.982 -15.303   3.993  0.00  0.00    +0.029 C 
BRANCH  15  16
ATOM     16  C   LIG    1       27.959 -14.151   3.679  0.00  0.00    +0.085 C 
BRANCH  16  18
ATOM     17  C   LIG    1       27.446 -13.440   5.926  0.00  0.00    +0.104 C 
ATOM     18  N   LIG    1       27.789 -12.985   4.575  0.00  0.00    -0.308 NA
ATOM     19  C   LIG    1       28.999 -12.161   4.634  0.00  0.00    +0.104 C 
ENDBRANCH  16  18
ENDBRANCH  15  16
ENDBRANCH   1  15
TORSDOF 5
ENDMDL
MODEL 2
REMARK VINA RESULT:      -3.9      2.598      3.791
REMARK  Name = *****
REMARK                            x       y       z     vdW  Elec       q    Type
REMARK                         _______ _______ _______ _____ _____    ______ ____
ROOT
ATOM      1  C   LIG    1       26.121 -17.455   3.277  0.00  0.00    +0.069 C 
ENDROOT
BRANCH   1   2
ATOM      2  C   LIG    1       24.949 -18.380   3.638  0.00  0.00    -0.038 A 
ATOM      3  C   LIG    1       25.102 -19.776   3.538  0.00  0.00    +0.006 A 
ATOM      4  C   LIG    1       24.059 -20.638   3.893  0.00  0.00    +0.020 A 
ATOM      5  C   LIG    1       22.854 -20.115   4.353  0.00  0.00    +0.041 A 
ATOM      6 CL   LIG    1       21.564 -21.177   4.770  0.00  0.00    -0.084 Cl
ATOM      7  C   LIG    1       22.689 -18.739   4.478  0.00  0.00    +0.020 A 
ATOM      8  C   LIG    1       23.734 -17.875   4.131  0.00  0.00    +0.006 A 
ENDBRANCH   1   2
BRANCH   1   9
ATOM      9  C   LIG    1       25.764 -15.963   3.300  0.00  0.00    +0.049 A 
ATOM     10  N   LIG    1       26.564 -15.106   2.614  0.00  0.00    -0.259 NA
ATOM     11  C   LIG    1       26.211 -13.805   2.544  0.00  0.00    +0.111 A 
ATOM     12  C   LIG    1       25.087 -13.289   3.152  0.00  0.00    +0.020 A 
ATOM     13  C   LIG    1       24.289 -14.158   3.878  0.00  0.00    +0.003 A 
ATOM     14  C   LIG    1       24.617 -15.512   3.954  0.00  0.00    +0.024 A 
ENDBRANCH   1   9
BRANCH   1  15
ATOM     15  C   LIG    1       27.322 -17.814   4.186  0.00  0.00    +0.029 C 
BRANCH  15  16
ATOM     16  C   LIG    1       27.190 -19.175   4.900  0.00  0.00    +0.085 C 
BRANCH  16  18
ATOM     17  C   LIG    1       29.352 -18.456   5.692  0.00  0.00    +0.104 C 
ATOM     18  N   LIG    1       28.433 -19.593   5.588  0.00  0.00    -0.308 NA
ATOM     19  C   LIG    1       28.162 -20.122   6.928  0.00  0.00    +0.104 C 
ENDBRANCH  16  18
ENDBRANCH  15  16
ENDBRANCH   1  15
TORSDOF 5
ENDMDL
MODEL 3
REMARK VINA RESULT:      -3.7      3.741      7.001
REMARK  Name = *****
REMARK                            x       y       z     vdW  Elec       q    Type
REMARK                         _______ _______ _______ _____ _____    ______ ____
ROOT
ATOM      1  C   LIG    1       25.672 -19.013   3.633  0.00  0.00    +0.069 C 
ENDROOT
BRANCH   1   2
ATOM      2  C   LIG    1       25.460 -17.492   3.642  0.00  0.00    -0.038 A 
ATOM      3  C   LIG    1       24.212 -16.960   4.017  0.00  0.00    +0.006 A 
ATOM      4  C   LIG    1       24.007 -15.577   4.065  0.00  0.00    +0.020 A 
ATOM      5  C   LIG    1       25.047 -14.712   3.739  0.00  0.00    +0.041 A 
ATOM      6 CL   LIG    1       24.787 -13.010   3.778  0.00  0.00    -0.084 Cl
ATOM      7  C   LIG    1       26.295 -15.216   3.384  0.00  0.00    +0.020 A 
ATOM      8  C   LIG    1       26.504 -16.599   3.345  0.00  0.00    +0.006 A 
ENDBRANCH   1   2
BRANCH   1   9
ATOM      9  C   LIG    1       26.458 -19.538   4.841  0.00  0.00    +0.049 A 
ATOM     10  N   LIG    1       27.805 -19.362   4.850  0.00  0.00    -0.259 NA
ATOM     11  C   LIG    1       28.500 -19.729   5.946  0.00  0.00    +0.111 A 
ATOM     12  C   LIG    1       27.919 -20.298   7.059  0.00  0.00    +0.020 A 
ATOM     13  C   LIG    1       26.549 -20.507   7.036  0.00  0.00    +0.003 A 
ATOM     14  C   LIG    1       25.800 -20.120   5.924  0.00  0.00    +0.024 A 
ENDBRANCH   1   9
BRANCH   1  15
ATOM     15  C   LIG    1       24.293 -19.696   3.453  0.00  0.00    +0.029 C 
BRANCH  15  16
ATOM     16  C   LIG    1       24.168 -21.064   4.156  0.00  0.00    +0.085 C 
BRANCH  16  18
ATOM     17  C   LIG    1       23.123 -21.571   6.270  0.00  0.00    +0.104 C 
ATOM     18  N   LIG    1       22.879 -21.237   4.863  0.00  0.00    -0.308 NA
ATOM     19  C   LIG    1       22.049 -20.031   4.789  0.00  0.00    +0.104 C 
ENDBRANCH  16  18
ENDBRANCH  15  16
ENDBRANCH   1  15
TORSDOF 5
ENDMDL
MODEL 4
REMARK VINA RESULT:      -3.7      3.891      7.088
REMARK  Name = *****
REMARK                            x       y       z     vdW  Elec       q    Type
REMARK                         _______ _______ _______ _____ _____    ______ ____
ROOT
ATOM      1  C   LIG    1       25.969 -19.004   3.689  0.00  0.00    +0.069 C 
ENDROOT
BRANCH   1   2
ATOM      2  C   LIG    1       26.008 -17.469   3.659  0.00  0.00    -0.038 A 
ATOM      3  C   LIG    1       24.806 -16.737   3.679  0.00  0.00    +0.006 A 
ATOM      4  C   LIG    1       24.819 -15.338   3.686  0.00  0.00    +0.020 A 
ATOM      5  C   LIG    1       26.033 -14.657   3.674  0.00  0.00    +0.041 A 
ATOM      6 CL   LIG    1       26.047 -12.935   3.662  0.00  0.00    -0.084 Cl
ATOM      7  C   LIG    1       27.233 -15.361   3.675  0.00  0.00    +0.020 A 
ATOM      8  C   LIG    1       27.222 -16.760   3.677  0.00  0.00    +0.006 A 
ENDBRANCH   1   2
BRANCH   1   9
ATOM      9  C   LIG    1       26.643 -19.618   4.923  0.00  0.00    +0.049 A 
ATOM     10  N   LIG    1       25.898 -20.431   5.717  0.00  0.00    -0.259 NA
ATOM     11  C   LIG    1       26.499 -21.056   6.751  0.00  0.00    +0.111 A 
ATOM     12  C   LIG    1       27.833 -20.899   7.062  0.00  0.00    +0.020 A 
ATOM     13  C   LIG    1       28.584 -20.045   6.271  0.00  0.00    +0.003 A 
ATOM     14  C   LIG    1       27.995 -19.399   5.183  0.00  0.00    +0.024 A 
ENDBRANCH   1   9
BRANCH   1  15
ATOM     15  C   LIG    1       24.500 -19.458   3.501  0.00  0.00    +0.029 C 
BRANCH  15  16
ATOM     16  C   LIG    1       24.151 -20.781   4.214  0.00  0.00    +0.085 C 
BRANCH  16  18
ATOM     17  C   LIG    1       22.815 -21.572   6.060  0.00  0.00    +0.104 C 
ATOM     18  N   LIG    1       22.806 -20.770   4.832  0.00  0.00    -0.308 NA
ATOM     19  C   LIG    1       22.361 -19.409   5.145  0.00  0.00    +0.104 C 
ENDBRANCH  16  18
ENDBRANCH  15  16
ENDBRANCH   1  15
TORSDOF 5
ENDMDL
MODEL 5
REMARK VINA RESULT:      -3.4      1.376      3.413
REMARK  Name = *****
REMARK                            x       y       z     vdW  Elec       q    Type
REMARK                         _______ _______ _______ _____ _____    ______ ____
ROOT
ATOM      1  C   LIG    1       24.408 -14.936   4.419  0.00  0.00    +0.069 C 
ENDROOT
BRANCH   1   2
ATOM      2  C   LIG    1       24.239 -16.429   4.100  0.00  0.00    -0.038 A 
ATOM      3  C   LIG    1       25.328 -17.167   3.600  0.00  0.00    +0.006 A 
ATOM      4  C   LIG    1       25.206 -18.535   3.334  0.00  0.00    +0.020 A 
ATOM      5  C   LIG    1       23.994 -19.180   3.567  0.00  0.00    +0.041 A 
ATOM      6 CL   LIG    1       23.839 -20.860   3.220  0.00  0.00    -0.084 Cl
ATOM      7  C   LIG    1       22.911 -18.474   4.081  0.00  0.00    +0.020 A 
ATOM      8  C   LIG    1       23.034 -17.107   4.355  0.00  0.00    +0.006 A 
ENDBRANCH   1   2
BRANCH   1   9
ATOM      9  C   LIG    1       25.829 -14.409   4.186  0.00  0.00    +0.049 A 
ATOM     10  N   LIG    1       26.392 -14.613   2.966  0.00  0.00    -0.259 NA
ATOM     11  C   LIG    1       27.602 -14.073   2.712  0.00  0.00    +0.111 A 
ATOM     12  C   LIG    1       28.314 -13.336   3.633  0.00  0.00    +0.020 A 
ATOM     13  C   LIG    1       27.753 -13.155   4.887  0.00  0.00    +0.003 A 
ATOM     14  C   LIG    1       26.495 -13.686   5.175  0.00  0.00    +0.024 A 
ENDBRANCH   1   9
BRANCH   1  15
ATOM     15  C   LIG    1       23.324 -14.147   3.644  0.00  0.00    +0.029 C 
BRANCH  15  16
ATOM     16  C   LIG    1       23.831 -13.484   2.347  0.00  0.00    +0.085 C 
BRANCH  16  18
ATOM     17  C   LIG    1       23.765 -11.574   3.821  0.00  0.00    +0.104 C 
ATOM     18  N   LIG    1       23.854 -12.005   2.422  0.00  0.00    -0.308 NA
ATOM     19  C   LIG    1       25.068 -11.447   1.820  0.00  0.00    +0.104 C 
ENDBRANCH  16  18
ENDBRANCH  15  16
ENDBRANCH   1  15
TORSDOF 5
ENDMDL
MODEL 6
REMARK VINA RESULT:      -3.2      1.389      3.260
REMARK  Name = *****
REMARK                            x       y       z     vdW  Elec       q    Type
REMARK                         _______ _______ _______ _____ _____    ______ ____
ROOT
ATOM      1  C   LIG    1       24.509 -14.969   4.415  0.00  0.00    +0.069 C 
ENDROOT
BRANCH   1   2
ATOM      2  C   LIG    1       24.358 -16.472   4.132  0.00  0.00    -0.038 A 
ATOM      3  C   LIG    1       23.114 -17.100   4.327  0.00  0.00    +0.006 A 
ATOM      4  C   LIG    1       22.945 -18.460   4.043  0.00  0.00    +0.020 A 
ATOM      5  C   LIG    1       24.018 -19.205   3.562  0.00  0.00    +0.041 A 
ATOM      6 CL   LIG    1       23.815 -20.883   3.233  0.00  0.00    -0.084 Cl
ATOM      7  C   LIG    1       25.252 -18.598   3.343  0.00  0.00    +0.020 A 
ATOM      8  C   LIG    1       25.419 -17.237   3.618  0.00  0.00    +0.006 A 
ENDBRANCH   1   2
BRANCH   1   9
ATOM      9  C   LIG    1       25.912 -14.421   4.126  0.00  0.00    +0.049 A 
ATOM     10  N   LIG    1       26.428 -14.617   2.885  0.00  0.00    -0.259 NA
ATOM     11  C   LIG    1       27.619 -14.058   2.582  0.00  0.00    +0.111 A 
ATOM     12  C   LIG    1       28.356 -13.311   3.475  0.00  0.00    +0.020 A 
ATOM     13  C   LIG    1       27.843 -13.138   4.751  0.00  0.00    +0.003 A 
ATOM     14  C   LIG    1       26.606 -13.688   5.088  0.00  0.00    +0.024 A 
ENDBRANCH   1   9
BRANCH   1  15
ATOM     15  C   LIG    1       23.386 -14.216   3.659  0.00  0.00    +0.029 C 
BRANCH  15  16
ATOM     16  C   LIG    1       23.853 -13.519   2.365  0.00  0.00    +0.085 C 
BRANCH  16  18
ATOM     17  C   LIG    1       23.795 -11.639   3.877  0.00  0.00    +0.104 C 
ATOM     18  N   LIG    1       23.848 -12.042   2.468  0.00  0.00    -0.308 NA
ATOM     19  C   LIG    1       25.031 -11.447   1.839  0.00  0.00    +0.104 C 
ENDBRANCH  16  18
ENDBRANCH  15  16
ENDBRANCH   1  15
TORSDOF 5
ENDMDL
MODEL 7
REMARK VINA RESULT:      -2.1      3.353      5.612
REMARK  Name = *****
REMARK                            x       y       z     vdW  Elec       q    Type
REMARK                         _______ _______ _______ _____ _____    ______ ____
ROOT
ATOM      1  C   LIG    1       25.824 -16.931   4.193  0.00  0.00    +0.069 C 
ENDROOT
BRANCH   1   2
ATOM      2  C   LIG    1       25.496 -15.554   3.596  0.00  0.00    -0.038 A 
ATOM      3  C   LIG    1       24.325 -14.880   3.991  0.00  0.00    +0.006 A 
ATOM      4  C   LIG    1       24.024 -13.610   3.486  0.00  0.00    +0.020 A 
ATOM      5  C   LIG    1       24.891 -13.001   2.583  0.00  0.00    +0.041 A 
ATOM      6 CL   LIG    1       24.510 -11.447   1.947  0.00  0.00    -0.084 Cl
ATOM      7  C   LIG    1       26.065 -13.641   2.196  0.00  0.00    +0.020 A 
ATOM      8  C   LIG    1       26.371 -14.907   2.706  0.00  0.00    +0.006 A 
ENDBRANCH   1   2
BRANCH   1   9
ATOM      9  C   LIG    1       24.743 -17.990   3.940  0.00  0.00    +0.049 A 
ATOM     10  N   LIG    1       25.136 -19.202   3.469  0.00  0.00    -0.259 NA
ATOM     11  C   LIG    1       24.212 -20.176   3.333  0.00  0.00    +0.111 A 
ATOM     12  C   LIG    1       22.877 -20.003   3.628  0.00  0.00    +0.020 A 
ATOM     13  C   LIG    1       22.471 -18.757   4.078  0.00  0.00    +0.003 A 
ATOM     14  C   LIG    1       23.407 -17.735   4.247  0.00  0.00    +0.024 A 
ENDBRANCH   1   9
BRANCH   1  15
ATOM     15  C   LIG    1       27.228 -17.356   3.695  0.00  0.00    +0.029 C 
BRANCH  15  16
ATOM     16  C   LIG    1       28.321 -17.322   4.783  0.00  0.00    +0.085 C 
BRANCH  16  18
ATOM     17  C   LIG    1       29.475 -18.581   6.487  0.00  0.00    +0.104 C 
ATOM     18  N   LIG    1       28.753 -18.671   5.214  0.00  0.00    -0.308 NA
ATOM     19  C   LIG    1       27.617 -19.585   5.365  0.00  0.00    +0.104 C 
ENDBRANCH  16  18
ENDBRANCH  15  16
ENDBRANCH   1  15
TORSDOF 5
ENDMDL
MODEL 8
REMARK VINA RESULT:      -1.9      3.218      5.813
REMARK  Name = *****
REMARK                            x       y       z     vdW  Elec       q    Type
REMARK                         _______ _______ _______ _____ _____    ______ ____
ROOT
ATOM      1  C   LIG    1       25.897 -18.641   4.815  0.00  0.00    +0.069 C 
ENDROOT
BRANCH   1   2
ATOM      2  C   LIG    1       24.548 -19.368   4.705  0.00  0.00    -0.038 A 
ATOM      3  C   LIG    1       24.488 -20.764   4.880  0.00  0.00    +0.006 A 
ATOM      4  C   LIG    1       23.266 -21.442   4.818  0.00  0.00    +0.020 A 
ATOM      5  C   LIG    1       22.091 -20.732   4.581  0.00  0.00    +0.041 A 
ATOM      6 CL   LIG    1       20.590 -21.571   4.484  0.00  0.00    -0.084 Cl
ATOM      7  C   LIG    1       22.126 -19.350   4.426  0.00  0.00    +0.020 A 
ATOM      8  C   LIG    1       23.347 -18.669   4.497  0.00  0.00    +0.006 A 
ENDBRANCH   1   2
BRANCH   1   9
ATOM      9  C   LIG    1       27.004 -19.482   5.463  0.00  0.00    +0.049 A 
ATOM     10  N   LIG    1       28.293 -19.187   5.150  0.00  0.00    -0.259 NA
ATOM     11  C   LIG    1       29.282 -19.851   5.784  0.00  0.00    +0.111 A 
ATOM     12  C   LIG    1       29.057 -20.834   6.723  0.00  0.00    +0.020 A 
ATOM     13  C   LIG    1       27.743 -21.156   7.018  0.00  0.00    +0.003 A 
ATOM     14  C   LIG    1       26.697 -20.474   6.393  0.00  0.00    +0.024 A 
ENDBRANCH   1   9
BRANCH   1  15
ATOM     15  C   LIG    1       26.275 -18.102   3.413  0.00  0.00    +0.029 C 
BRANCH  15  16
ATOM     16  C   LIG    1       26.947 -16.714   3.430  0.00  0.00    +0.085 C 
BRANCH  16  18
ATOM     17  C   LIG    1       25.043 -15.312   3.912  0.00  0.00    +0.104 C 
ATOM     18  N   LIG    1       26.069 -15.638   2.916  0.00  0.00    -0.308 NA
ATOM     19  C   LIG    1       26.826 -14.427   2.587  0.00  0.00    +0.104 C 
ENDBRANCH  16  18
ENDBRANCH  15  16
ENDBRANCH   1  15
TORSDOF 5
ENDMDL
MODEL 9
REMARK VINA RESULT:      -1.5      3.505      6.044
REMARK  Name = *****
REMARK                            x       y       z     vdW  Elec       q    Type
REMARK                         _______ _______ _______ _____ _____    ______ ____
ROOT
ATOM      1  C   LIG    1       24.521 -18.245   4.320  0.00  0.00    +0.069 C 
ENDROOT
BRANCH   1   2
ATOM      2  C   LIG    1       24.535 -16.746   3.982  0.00  0.00    -0.038 A 
ATOM      3  C   LIG    1       23.473 -15.923   4.401  0.00  0.00    +0.006 A 
ATOM      4  C   LIG    1       23.481 -14.550   4.133  0.00  0.00    +0.020 A 
ATOM      5  C   LIG    1       24.552 -13.985   3.445  0.00  0.00    +0.041 A 
ATOM      6 CL   LIG    1       24.551 -12.298   3.099  0.00  0.00    -0.084 Cl
ATOM      7  C   LIG    1       25.622 -14.777   3.040  0.00  0.00    +0.020 A 
ATOM      8  C   LIG    1       25.619 -16.149   3.315  0.00  0.00    +0.006 A 
ENDBRANCH   1   2
BRANCH   1   9
ATOM      9  C   LIG    1       23.140 -18.898   4.187  0.00  0.00    +0.049 A 
ATOM     10  N   LIG    1       22.984 -20.160   4.665  0.00  0.00    -0.259 NA
ATOM     11  C   LIG    1       21.754 -20.714   4.644  0.00  0.00    +0.111 A 
ATOM     12  C   LIG    1       20.641 -20.075   4.141  0.00  0.00    +0.020 A 
ATOM     13  C   LIG    1       20.807 -18.800   3.624  0.00  0.00    +0.003 A 
ATOM     14  C   LIG    1       22.064 -18.193   3.649  0.00  0.00    +0.024 A 
ENDBRANCH   1   9
BRANCH   1  15
ATOM     15  C   LIG    1       25.617 -18.944   3.477  0.00  0.00    +0.029 C 
BRANCH  15  16
ATOM     16  C   LIG    1       26.234 -20.188   4.149  0.00  0.00    +0.085 C 
BRANCH  16  18
ATOM     17  C   LIG    1       26.073 -21.033   6.403  0.00  0.00    +0.104 C 
ATOM     18  N   LIG    1       26.609 -19.957   5.563  0.00  0.00    -0.308 NA
ATOM     19  C   LIG    1       28.063 -19.884   5.737  0.00  0.00    +0.104 C 
ENDBRANCH  16  18
ENDBRANCH  15  16
ENDBRANCH   1  15
TORSDOF 5
ENDMDL
