MODEL 1
REMARK VINA RESULT:      -3.3      0.000      0.000
REMARK  Name = *****
REMARK                            x       y       z     vdW  Elec       q    Type
REMARK                         _______ _______ _______ _____ _____    ______ ____
ROOT
ATOM      1  C   LIG    1       25.124 -14.992   3.815  0.00  0.00    +0.176 C 
ATOM      2  N   LIG    1       25.155 -13.652   4.383  0.00  0.00    -0.264 NA
ATOM      3  C   LIG    1       25.341 -12.685   3.309  0.00  0.00    +0.176 C 
ATOM      4  N   LIG    1       26.588 -12.948   2.605  0.00  0.00    -0.264 NA
ATOM      5  C   LIG    1       27.696 -12.855   3.546  0.00  0.00    +0.176 C 
ATOM      6  N   LIG    1       27.527 -13.823   4.620  0.00  0.00    -0.264 NA
ATOM      7  C   LIG    1       27.478 -15.162   4.052  0.00  0.00    +0.176 C 
ATOM      8  C   LIG    1       26.547 -14.293   2.050  0.00  0.00    +0.176 C 
ATOM      9  C   LIG    1       26.273 -13.553   5.310  0.00  0.00    +0.176 C 
ATOM     10  N   LIG    1       26.369 -15.272   3.114  0.00  0.00    -0.264 NA
ENDROOT
TORSDOF 0
ENDMDL
MODEL 2
REMARK VINA RESULT:      -3.3      0.024      2.256
REMARK  Name = *****
REMARK                            x       y       z     vdW  Elec       q    Type
REMARK                         _______ _______ _______ _____ _____    ______ ____
ROOT
ATOM      1  C   LIG    1       27.495 -15.175   4.055  0.00  0.00    +0.176 C 
ATOM      2  N   LIG    1       27.546 -13.839   4.630  0.00  0.00    -0.264 NA
ATOM      3  C   LIG    1       26.292 -13.572   5.324  0.00  0.00    +0.176 C 
ATOM      4  N   LIG    1       25.175 -13.664   4.396  0.00  0.00    -0.264 NA
ATOM      5  C   LIG    1       25.361 -12.691   3.328  0.00  0.00    +0.176 C 
ATOM      6  N   LIG    1       26.606 -12.951   2.621  0.00  0.00    -0.264 NA
ATOM      7  C   LIG    1       26.563 -14.294   2.059  0.00  0.00    +0.176 C 
ATOM      8  C   LIG    1       25.140 -15.001   3.821  0.00  0.00    +0.176 C 
ATOM      9  C   LIG    1       27.714 -12.865   3.561  0.00  0.00    +0.176 C 
ATOM     10  N   LIG    1       26.385 -15.278   3.117  0.00  0.00    -0.264 NA
ENDROOT
TORSDOF 0
ENDMDL
MODEL 3
REMARK VINA RESULT:      -3.3      0.025      2.259
REMARK  Name = *****
REMARK                            x       y       z     vdW  Elec       q    Type
REMARK                         _______ _______ _______ _____ _____    ______ ____
ROOT
ATOM      1  C   LIG    1       27.497 -15.174   4.063  0.00  0.00    +0.176 C 
ATOM      2  N   LIG    1       26.393 -15.288   3.122  0.00  0.00    -0.264 NA
ATOM      3  C   LIG    1       26.572 -14.310   2.057  0.00  0.00    +0.176 C 
ATOM      4  N   LIG    1       26.607 -12.964   2.611  0.00  0.00    -0.264 NA
ATOM      5  C   LIG    1       25.355 -12.704   3.310  0.00  0.00    +0.176 C 
ATOM      6  N   LIG    1       25.168 -13.670   4.383  0.00  0.00    -0.264 NA
ATOM      7  C   LIG    1       26.281 -13.568   5.316  0.00  0.00    +0.176 C 
ATOM      8  C   LIG    1       27.709 -12.866   3.557  0.00  0.00    +0.176 C 
ATOM      9  C   LIG    1       25.144 -15.012   3.816  0.00  0.00    +0.176 C 
ATOM     10  N   LIG    1       27.539 -13.834   4.632  0.00  0.00    -0.264 NA
ENDROOT
TORSDOF 0
ENDMDL
MODEL 4
REMARK VINA RESULT:      -3.3      0.014      2.605
REMARK  Name = *****
REMARK                            x       y       z     vdW  Elec       q    Type
REMARK                         _______ _______ _______ _____ _____    ______ ____
ROOT
ATOM      1  C   LIG    1       25.125 -14.984   3.813  0.00  0.00    +0.176 C 
ATOM      2  N   LIG    1       26.368 -15.273   3.113  0.00  0.00    -0.264 NA
ATOM      3  C   LIG    1       27.478 -15.172   4.051  0.00  0.00    +0.176 C 
ATOM      4  N   LIG    1       27.535 -13.834   4.620  0.00  0.00    -0.264 NA
ATOM      5  C   LIG    1       27.714 -12.867   3.546  0.00  0.00    +0.176 C 
ATOM      6  N   LIG    1       26.607 -12.951   2.604  0.00  0.00    -0.264 NA
ATOM      7  C   LIG    1       25.361 -12.678   3.308  0.00  0.00    +0.176 C 
ATOM      8  C   LIG    1       26.284 -13.554   5.310  0.00  0.00    +0.176 C 
ATOM      9  C   LIG    1       26.555 -14.297   2.049  0.00  0.00    +0.176 C 
ATOM     10  N   LIG    1       25.166 -13.643   4.380  0.00  0.00    -0.264 NA
ENDROOT
TORSDOF 0
ENDMDL
MODEL 5
REMARK VINA RESULT:      -3.3      0.059      2.264
REMARK  Name = *****
REMARK                            x       y       z     vdW  Elec       q    Type
REMARK                         _______ _______ _______ _____ _____    ______ ____
ROOT
ATOM      1  C   LIG    1       25.408 -12.694   3.318  0.00  0.00    +0.176 C 
ATOM      2  N   LIG    1       26.651 -12.982   2.617  0.00  0.00    -0.264 NA
ATOM      3  C   LIG    1       26.581 -14.324   2.057  0.00  0.00    +0.176 C 
ATOM      4  N   LIG    1       26.377 -15.302   3.116  0.00  0.00    -0.264 NA
ATOM      5  C   LIG    1       27.485 -15.222   4.058  0.00  0.00    +0.176 C 
ATOM      6  N   LIG    1       27.562 -13.886   4.632  0.00  0.00    -0.264 NA
ATOM      7  C   LIG    1       26.312 -13.591   5.319  0.00  0.00    +0.176 C 
ATOM      8  C   LIG    1       25.136 -14.998   3.813  0.00  0.00    +0.176 C 
ATOM      9  C   LIG    1       27.757 -12.918   3.562  0.00  0.00    +0.176 C 
ATOM     10  N   LIG    1       25.196 -13.660   4.387  0.00  0.00    -0.264 NA
ENDROOT
TORSDOF 0
ENDMDL
MODEL 6
REMARK VINA RESULT:      -3.3      0.062      2.270
REMARK  Name = *****
REMARK                            x       y       z     vdW  Elec       q    Type
REMARK                         _______ _______ _______ _____ _____    ______ ____
ROOT
ATOM      1  C   LIG    1       25.418 -12.681   3.312  0.00  0.00    +0.176 C 
ATOM      2  N   LIG    1       25.194 -13.649   4.375  0.00  0.00    -0.264 NA
ATOM      3  C   LIG    1       26.304 -13.588   5.317  0.00  0.00    +0.176 C 
ATOM      4  N   LIG    1       27.556 -13.887   4.638  0.00  0.00    -0.264 NA
ATOM      5  C   LIG    1       27.477 -15.221   4.059  0.00  0.00    +0.176 C 
ATOM      6  N   LIG    1       26.377 -15.294   3.109  0.00  0.00    -0.264 NA
ATOM      7  C   LIG    1       26.592 -14.314   2.054  0.00  0.00    +0.176 C 
ATOM      8  C   LIG    1       27.765 -12.917   3.572  0.00  0.00    +0.176 C 
ATOM      9  C   LIG    1       25.132 -14.985   3.799  0.00  0.00    +0.176 C 
ATOM     10  N   LIG    1       26.665 -12.973   2.618  0.00  0.00    -0.264 NA
ENDROOT
TORSDOF 0
ENDMDL
MODEL 7
REMARK VINA RESULT:      -3.3      0.018      2.262
REMARK  Name = *****
REMARK                            x       y       z     vdW  Elec       q    Type
REMARK                         _______ _______ _______ _____ _____    ______ ____
ROOT
ATOM      1  C   LIG    1       26.274 -13.558   5.314  0.00  0.00    +0.176 C 
ATOM      2  N   LIG    1       25.155 -13.671   4.391  0.00  0.00    -0.264 NA
ATOM      3  C   LIG    1       25.135 -15.015   3.828  0.00  0.00    +0.176 C 
ATOM      4  N   LIG    1       26.381 -15.284   3.125  0.00  0.00    -0.264 NA
ATOM      5  C   LIG    1       26.544 -14.308   2.056  0.00  0.00    +0.176 C 
ATOM      6  N   LIG    1       26.574 -12.960   2.604  0.00  0.00    -0.264 NA
ATOM      7  C   LIG    1       27.683 -12.851   3.542  0.00  0.00    +0.176 C 
ATOM      8  C   LIG    1       27.492 -15.159   4.057  0.00  0.00    +0.176 C 
ATOM      9  C   LIG    1       25.326 -12.707   3.313  0.00  0.00    +0.176 C 
ATOM     10  N   LIG    1       27.528 -13.816   4.621  0.00  0.00    -0.264 NA
ENDROOT
TORSDOF 0
ENDMDL
MODEL 8
REMARK VINA RESULT:      -3.3      0.020      2.259
REMARK  Name = *****
REMARK                            x       y       z     vdW  Elec       q    Type
REMARK                         _______ _______ _______ _____ _____    ______ ____
ROOT
ATOM      1  C   LIG    1       26.295 -13.565   5.319  0.00  0.00    +0.176 C 
ATOM      2  N   LIG    1       27.541 -13.834   4.618  0.00  0.00    -0.264 NA
ATOM      3  C   LIG    1       27.700 -12.866   3.541  0.00  0.00    +0.176 C 
ATOM      4  N   LIG    1       26.584 -12.960   2.611  0.00  0.00    -0.264 NA
ATOM      5  C   LIG    1       26.539 -14.306   2.056  0.00  0.00    +0.176 C 
ATOM      6  N   LIG    1       26.373 -15.285   3.122  0.00  0.00    -0.264 NA
ATOM      7  C   LIG    1       25.134 -15.006   3.835  0.00  0.00    +0.176 C 
ATOM      8  C   LIG    1       25.343 -12.698   3.326  0.00  0.00    +0.176 C 
ATOM      9  C   LIG    1       27.490 -15.173   4.048  0.00  0.00    +0.176 C 
ATOM     10  N   LIG    1       25.168 -13.666   4.402  0.00  0.00    -0.264 NA
ENDROOT
TORSDOF 0
ENDMDL
MODEL 9
REMARK VINA RESULT:      -3.3      0.066      2.605
REMARK  Name = *****
REMARK                            x       y       z     vdW  Elec       q    Type
REMARK                         _______ _______ _______ _____ _____    ______ ____
ROOT
ATOM      1  C   LIG    1       27.749 -12.919   3.529  0.00  0.00    +0.176 C 
ATOM      2  N   LIG    1       27.572 -13.889   4.600  0.00  0.00    -0.264 NA
ATOM      3  C   LIG    1       27.460 -15.221   4.021  0.00  0.00    +0.176 C 
ATOM      4  N   LIG    1       26.324 -15.281   3.113  0.00  0.00    -0.264 NA
ATOM      5  C   LIG    1       25.108 -14.963   3.849  0.00  0.00    +0.176 C 
ATOM      6  N   LIG    1       25.204 -13.630   4.426  0.00  0.00    -0.264 NA
ATOM      7  C   LIG    1       25.397 -12.661   3.357  0.00  0.00    +0.176 C 
ATOM      8  C   LIG    1       26.509 -14.301   2.052  0.00  0.00    +0.176 C 
ATOM      9  C   LIG    1       26.348 -13.581   5.325  0.00  0.00    +0.176 C 
ATOM     10  N   LIG    1       26.615 -12.962   2.617  0.00  0.00    -0.264 NA
ENDROOT
TORSDOF 0
ENDMDL
