MODEL 1
REMARK VINA RESULT:      -3.9      0.000      0.000
REMARK  Name = *****
REMARK                            x       y       z     vdW  Elec       q    Type
REMARK                         _______ _______ _______ _____ _____    ______ ____
ROOT
ATOM      1  C   LIG    1       23.337 -20.447   4.822  0.00  0.00    -0.044 A 
ATOM      2  C   LIG    1       22.881 -19.121   4.770  0.00  0.00    +0.019 A 
ATOM      3  C   LIG    1       23.718 -18.108   4.290  0.00  0.00    +0.065 A 
ATOM      4  C   LIG    1       25.009 -18.393   3.861  0.00  0.00    +0.141 A 
ATOM      5  O   LIG    1       25.882 -17.449   3.383  0.00  0.00    -0.436 OA
ATOM      6  C   LIG    1       25.459 -16.141   3.314  0.00  0.00    +0.233 A 
ATOM      7  C   LIG    1       24.196 -15.729   3.701  0.00  0.00    +0.085 A 
ATOM      8  C   LIG    1       23.858 -14.382   3.594  0.00  0.00    +0.035 A 
ATOM      9  C   LIG    1       24.813 -13.484   3.109  0.00  0.00    +0.099 A 
ATOM     10  C   LIG    1       26.060 -13.983   2.725  0.00  0.00    +0.134 A 
ATOM     11  N   LIG    1       26.393 -15.285   2.830  0.00  0.00    -0.197 NA
ATOM     12  C   LIG    1       25.472 -19.707   3.907  0.00  0.00    +0.047 A 
ATOM     13  C   LIG    1       23.253 -16.718   4.227  0.00  0.00    +0.202 C 
ATOM     14  O   LIG    1       22.133 -16.392   4.596  0.00  0.00    -0.286 OA
ATOM     15  C   LIG    1       24.641 -20.727   4.384  0.00  0.00    +0.007 A 
ENDROOT
BRANCH   1  17
ATOM     16  C   LIG    1       22.339 -21.552   6.860  0.00  0.00    +0.012 C 
ATOM     17  C   LIG    1       22.453 -21.572   5.333  0.00  0.00    +0.013 C 
ATOM     18  C   LIG    1       21.067 -21.531   4.682  0.00  0.00    +0.012 C 
ENDBRANCH   1  17
BRANCH  10  19
ATOM     19  N   LIG    1       27.075 -13.157   2.222  0.00  0.00    -0.342 N 
ATOM     20  H   LIG    1       26.996 -12.216   2.615  0.00  0.00    +0.144 HD
ATOM     21  H   LIG    1       26.915 -13.104   1.212  0.00  0.00    +0.144 HD
ENDBRANCH  10  19
BRANCH   9  22
ATOM     22  C   LIG    1       24.460 -12.048   3.043  0.00  0.00    +0.340 C 
ATOM     23  O   LIG    1       23.972 -11.452   3.987  0.00  0.00    -0.245 OA
BRANCH  22  24
ATOM     24  O   LIG    1       24.769 -11.449   1.873  0.00  0.00    -0.477 OA
ATOM     25  H   LIG    1       24.682 -12.038   1.088  0.00  0.00    +0.295 HD
ENDBRANCH  22  24
ENDBRANCH   9  22
TORSDOF 4
ENDMDL
