MODEL 1
REMARK VINA RESULT:      -7.4      0.000      0.000
REMARK  Name = *****
REMARK                            x       y       z     vdW  Elec       q    Type
REMARK                         _______ _______ _______ _____ _____    ______ ____
ROOT
ATOM      1  C   LIG    1       28.834 -20.202   6.401  0.00  0.00    -0.006 A 
ATOM      2  C   LIG    1       29.908 -19.247   6.222  0.00  0.00    +0.123 A 
ATOM      3  C   LIG    1       30.984 -19.202   7.143  0.00  0.00    +0.091 A 
ATOM      4  C   LIG    1       31.062 -20.126   8.174  0.00  0.00    +0.120 A 
ATOM      5  C   LIG    1       30.116 -21.149   8.285  0.00  0.00    +0.046 A 
ATOM      6  C   LIG    1       29.012 -21.181   7.398  0.00  0.00    +0.011 A 
ENDROOT
BRANCH   2   7
ATOM      7  O   LIG    1       29.662 -18.098   5.478  0.00  0.00    -0.506 OA
ATOM      8  H   LIG    1       29.206 -17.449   6.049  0.00  0.00    +0.292 HD
ENDBRANCH   2   7
BRANCH   4   9
ATOM      9  O   LIG    1       31.951 -19.892   9.201  0.00  0.00    -0.507 OA
ATOM     10  H   LIG    1       32.367 -20.724   9.454  0.00  0.00    +0.292 HD
ENDBRANCH   4   9
BRANCH   1  11
ATOM     11  C   LIG    1       27.372 -19.936   5.890  0.00  0.00    +0.039 C 
BRANCH  11  12
ATOM     12  C   LIG    1       26.182 -20.941   6.251  0.00  0.00    +0.005 C 
BRANCH  12  13
ATOM     13  C   LIG    1       25.156 -20.706   7.429  0.00  0.00    +0.000 C 
BRANCH  13  14
ATOM     14  C   LIG    1       23.622 -20.701   7.199  0.00  0.00    -0.000 C 
BRANCH  14  16
ATOM     15  C   LIG    1       22.618 -19.675   5.320  0.00  0.00    +0.004 C 
ATOM     16  C   LIG    1       23.113 -20.930   5.790  0.00  0.00    -0.003 C 
ENDBRANCH  14  16
ENDBRANCH  13  14
ENDBRANCH  12  13
ENDBRANCH  11  12
ENDBRANCH   1  11
TORSDOF 7
ENDMDL
MODEL 2
REMARK VINA RESULT:      -7.4      4.613      6.072
REMARK  Name = *****
REMARK                            x       y       z     vdW  Elec       q    Type
REMARK                         _______ _______ _______ _____ _____    ______ ____
ROOT
ATOM      1  C   LIG    1       23.947 -22.432   7.126  0.00  0.00    -0.006 A 
ATOM      2  C   LIG    1       23.346 -23.717   6.832  0.00  0.00    +0.123 A 
ATOM      3  C   LIG    1       24.156 -24.815   6.451  0.00  0.00    +0.091 A 
ATOM      4  C   LIG    1       25.538 -24.693   6.437  0.00  0.00    +0.120 A 
ATOM      5  C   LIG    1       26.151 -23.508   6.855  0.00  0.00    +0.046 A 
ATOM      6  C   LIG    1       25.353 -22.390   7.197  0.00  0.00    +0.011 A 
ENDROOT
BRANCH   2   7
ATOM      7  O   LIG    1       22.007 -23.756   6.455  0.00  0.00    -0.506 OA
ATOM      8  H   LIG    1       21.478 -23.298   7.136  0.00  0.00    +0.292 HD
ENDBRANCH   2   7
BRANCH   4   9
ATOM      9  O   LIG    1       26.278 -25.670   5.807  0.00  0.00    -0.507 OA
ATOM     10  H   LIG    1       26.965 -25.982   6.407  0.00  0.00    +0.292 HD
ENDBRANCH   4   9
BRANCH   1  11
ATOM     11  C   LIG    1       23.183 -21.075   6.920  0.00  0.00    +0.039 C 
BRANCH  11  12
ATOM     12  C   LIG    1       22.511 -20.718   5.513  0.00  0.00    +0.005 C 
BRANCH  12  13
ATOM     13  C   LIG    1       22.645 -19.314   4.802  0.00  0.00    +0.000 C 
BRANCH  13  14
ATOM     14  C   LIG    1       23.792 -18.998   3.806  0.00  0.00    -0.000 C 
BRANCH  14  16
ATOM     15  C   LIG    1       25.871 -19.864   4.528  0.00  0.00    +0.004 C 
ATOM     16  C   LIG    1       24.838 -20.069   3.563  0.00  0.00    -0.003 C 
ENDBRANCH  14  16
ENDBRANCH  13  14
ENDBRANCH  12  13
ENDBRANCH  11  12
ENDBRANCH   1  11
TORSDOF 7
ENDMDL
MODEL 3
REMARK VINA RESULT:      -7.2      3.136      5.046
REMARK  Name = *****
REMARK                            x       y       z     vdW  Elec       q    Type
REMARK                         _______ _______ _______ _____ _____    ______ ____
ROOT
ATOM      1  C   LIG    1       24.517 -20.917   7.180  0.00  0.00    -0.006 A 
ATOM      2  C   LIG    1       25.721 -20.700   7.956  0.00  0.00    +0.123 A 
ATOM      3  C   LIG    1       26.945 -20.406   7.307  0.00  0.00    +0.091 A 
ATOM      4  C   LIG    1       26.986 -20.241   5.931  0.00  0.00    +0.120 A 
ATOM      5  C   LIG    1       25.813 -20.302   5.173  0.00  0.00    +0.046 A 
ATOM      6  C   LIG    1       24.590 -20.637   5.802  0.00  0.00    +0.011 A 
ENDROOT
BRANCH   2   7
ATOM      7  O   LIG    1       25.795 -21.238   9.237  0.00  0.00    -0.506 OA
ATOM      8  H   LIG    1       25.185 -20.744   9.818  0.00  0.00    +0.292 HD
ENDBRANCH   2   7
BRANCH   4   9
ATOM      9  O   LIG    1       28.214 -20.232   5.305  0.00  0.00    -0.507 OA
ATOM     10  H   LIG    1       28.511 -19.320   5.206  0.00  0.00    +0.292 HD
ENDBRANCH   4   9
BRANCH   1  11
ATOM     11  C   LIG    1       23.343 -21.834   7.680  0.00  0.00    +0.039 C 
BRANCH  11  12
ATOM     12  C   LIG    1       22.847 -23.078   6.806  0.00  0.00    +0.005 C 
BRANCH  12  13
ATOM     13  C   LIG    1       23.701 -24.385   6.567  0.00  0.00    +0.000 C 
BRANCH  13  14
ATOM     14  C   LIG    1       25.248 -24.394   6.685  0.00  0.00    -0.000 C 
BRANCH  14  16
ATOM     15  C   LIG    1       25.693 -26.163   5.181  0.00  0.00    +0.004 C 
ATOM     16  C   LIG    1       25.968 -25.716   6.509  0.00  0.00    -0.003 C 
ENDBRANCH  14  16
ENDBRANCH  13  14
ENDBRANCH  12  13
ENDBRANCH  11  12
ENDBRANCH   1  11
TORSDOF 7
ENDMDL
MODEL 4
REMARK VINA RESULT:      -7.1      2.166      3.445
REMARK  Name = *****
REMARK                            x       y       z     vdW  Elec       q    Type
REMARK                         _______ _______ _______ _____ _____    ______ ____
ROOT
ATOM      1  C   LIG    1       25.945 -20.548   6.888  0.00  0.00    -0.006 A 
ATOM      2  C   LIG    1       26.655 -20.433   8.146  0.00  0.00    +0.123 A 
ATOM      3  C   LIG    1       28.060 -20.258   8.159  0.00  0.00    +0.091 A 
ATOM      4  C   LIG    1       28.759 -20.112   6.970  0.00  0.00    +0.120 A 
ATOM      5  C   LIG    1       28.081 -20.075   5.748  0.00  0.00    +0.046 A 
ATOM      6  C   LIG    1       26.682 -20.291   5.716  0.00  0.00    +0.011 A 
ENDROOT
BRANCH   2   7
ATOM      7  O   LIG    1       26.071 -20.962   9.292  0.00  0.00    -0.506 OA
ATOM      8  H   LIG    1       26.254 -20.361  10.041  0.00  0.00    +0.292 HD
ENDBRANCH   2   7
BRANCH   4   9
ATOM      9  O   LIG    1       30.132 -20.221   6.995  0.00  0.00    -0.507 OA
ATOM     10  H   LIG    1       30.422 -20.342   7.907  0.00  0.00    +0.292 HD
ENDBRANCH   4   9
BRANCH   1  11
ATOM     11  C   LIG    1       24.601 -21.350   6.747  0.00  0.00    +0.039 C 
BRANCH  11  12
ATOM     12  C   LIG    1       23.198 -20.587   6.658  0.00  0.00    +0.005 C 
BRANCH  12  13
ATOM     13  C   LIG    1       22.419 -20.329   5.307  0.00  0.00    +0.000 C 
BRANCH  13  14
ATOM     14  C   LIG    1       22.627 -19.042   4.467  0.00  0.00    -0.000 C 
BRANCH  14  16
ATOM     15  C   LIG    1       24.245 -20.188   3.178  0.00  0.00    +0.004 C 
ATOM     16  C   LIG    1       23.926 -18.896   3.698  0.00  0.00    -0.003 C 
ENDBRANCH  14  16
ENDBRANCH  13  14
ENDBRANCH  12  13
ENDBRANCH  11  12
ENDBRANCH   1  11
TORSDOF 7
ENDMDL
MODEL 5
REMARK VINA RESULT:      -7.1      1.631      2.116
REMARK  Name = *****
REMARK                            x       y       z     vdW  Elec       q    Type
REMARK                         _______ _______ _______ _____ _____    ______ ____
ROOT
ATOM      1  C   LIG    1       28.936 -20.226   6.432  0.00  0.00    -0.006 A 
ATOM      2  C   LIG    1       30.001 -19.261   6.251  0.00  0.00    +0.123 A 
ATOM      3  C   LIG    1       31.063 -19.185   7.186  0.00  0.00    +0.091 A 
ATOM      4  C   LIG    1       31.136 -20.088   8.236  0.00  0.00    +0.120 A 
ATOM      5  C   LIG    1       30.201 -21.121   8.352  0.00  0.00    +0.046 A 
ATOM      6  C   LIG    1       29.111 -21.183   7.451  0.00  0.00    +0.011 A 
ENDROOT
BRANCH   2   7
ATOM      7  O   LIG    1       29.752 -18.129   5.482  0.00  0.00    -0.506 OA
ATOM      8  H   LIG    1       28.785 -18.000   5.423  0.00  0.00    +0.292 HD
ENDBRANCH   2   7
BRANCH   4   9
ATOM      9  O   LIG    1       32.007 -19.824   9.271  0.00  0.00    -0.507 OA
ATOM     10  H   LIG    1       32.070 -20.602   9.837  0.00  0.00    +0.292 HD
ENDBRANCH   4   9
BRANCH   1  11
ATOM     11  C   LIG    1       27.479 -19.987   5.895  0.00  0.00    +0.039 C 
BRANCH  11  12
ATOM     12  C   LIG    1       26.211 -20.555   6.687  0.00  0.00    +0.005 C 
BRANCH  12  13
ATOM     13  C   LIG    1       25.548 -21.961   6.399  0.00  0.00    +0.000 C 
BRANCH  13  14
ATOM     14  C   LIG    1       25.849 -23.209   7.270  0.00  0.00    -0.000 C 
BRANCH  14  16
ATOM     15  C   LIG    1       24.131 -24.633   6.487  0.00  0.00    +0.004 C 
ATOM     16  C   LIG    1       25.544 -24.575   6.686  0.00  0.00    -0.003 C 
ENDBRANCH  14  16
ENDBRANCH  13  14
ENDBRANCH  12  13
ENDBRANCH  11  12
ENDBRANCH   1  11
TORSDOF 7
ENDMDL
MODEL 6
REMARK VINA RESULT:      -7.1      4.018      5.734
REMARK  Name = *****
REMARK                            x       y       z     vdW  Elec       q    Type
REMARK                         _______ _______ _______ _____ _____    ______ ____
ROOT
ATOM      1  C   LIG    1       25.345 -22.144   7.503  0.00  0.00    -0.006 A 
ATOM      2  C   LIG    1       23.903 -22.278   7.460  0.00  0.00    +0.123 A 
ATOM      3  C   LIG    1       23.310 -23.438   6.903  0.00  0.00    +0.091 A 
ATOM      4  C   LIG    1       24.103 -24.491   6.471  0.00  0.00    +0.120 A 
ATOM      5  C   LIG    1       25.491 -24.448   6.634  0.00  0.00    +0.046 A 
ATOM      6  C   LIG    1       26.100 -23.279   7.149  0.00  0.00    +0.011 A 
ENDROOT
BRANCH   2   7
ATOM      7  O   LIG    1       23.124 -21.126   7.502  0.00  0.00    -0.506 OA
ATOM      8  H   LIG    1       22.185 -21.388   7.562  0.00  0.00    +0.292 HD
ENDBRANCH   2   7
BRANCH   4   9
ATOM      9  O   LIG    1       23.527 -25.471   5.692  0.00  0.00    -0.507 OA
ATOM     10  H   LIG    1       23.254 -25.086   4.852  0.00  0.00    +0.292 HD
ENDBRANCH   4   9
BRANCH   1  11
ATOM     11  C   LIG    1       26.064 -20.748   7.476  0.00  0.00    +0.039 C 
BRANCH  11  12
ATOM     12  C   LIG    1       26.864 -20.264   6.178  0.00  0.00    +0.005 C 
BRANCH  12  13
ATOM     13  C   LIG    1       26.179 -19.924   4.795  0.00  0.00    +0.000 C 
BRANCH  13  14
ATOM     14  C   LIG    1       24.714 -20.326   4.479  0.00  0.00    -0.000 C 
BRANCH  14  16
ATOM     15  C   LIG    1       22.644 -19.196   4.651  0.00  0.00    +0.004 C 
ATOM     16  C   LIG    1       23.814 -19.288   3.837  0.00  0.00    -0.003 C 
ENDBRANCH  14  16
ENDBRANCH  13  14
ENDBRANCH  12  13
ENDBRANCH  11  12
ENDBRANCH   1  11
TORSDOF 7
ENDMDL
MODEL 7
REMARK VINA RESULT:      -6.8      3.969      6.373
REMARK  Name = *****
REMARK                            x       y       z     vdW  Elec       q    Type
REMARK                         _______ _______ _______ _____ _____    ______ ____
ROOT
ATOM      1  C   LIG    1       25.026 -20.659   5.795  0.00  0.00    -0.006 A 
ATOM      2  C   LIG    1       23.694 -20.651   6.366  0.00  0.00    +0.123 A 
ATOM      3  C   LIG    1       22.646 -19.948   5.723  0.00  0.00    +0.091 A 
ATOM      4  C   LIG    1       22.863 -19.331   4.501  0.00  0.00    +0.120 A 
ATOM      5  C   LIG    1       24.099 -19.444   3.857  0.00  0.00    +0.046 A 
ATOM      6  C   LIG    1       25.169 -20.107   4.507  0.00  0.00    +0.011 A 
ENDROOT
BRANCH   2   7
ATOM      7  O   LIG    1       23.551 -20.898   7.727  0.00  0.00    -0.506 OA
ATOM      8  H   LIG    1       24.431 -21.103   8.101  0.00  0.00    +0.292 HD
ENDBRANCH   2   7
BRANCH   4   9
ATOM      9  O   LIG    1       21.923 -18.435   4.040  0.00  0.00    -0.507 OA
ATOM     10  H   LIG    1       22.100 -17.567   4.422  0.00  0.00    +0.292 HD
ENDBRANCH   4   9
BRANCH   1  11
ATOM     11  C   LIG    1       26.320 -20.816   6.672  0.00  0.00    +0.039 C 
BRANCH  11  12
ATOM     12  C   LIG    1       26.791 -22.256   7.186  0.00  0.00    +0.005 C 
BRANCH  12  13
ATOM     13  C   LIG    1       25.827 -23.500   7.330  0.00  0.00    +0.000 C 
BRANCH  13  14
ATOM     14  C   LIG    1       25.254 -24.246   6.097  0.00  0.00    -0.000 C 
BRANCH  14  16
ATOM     15  C   LIG    1       24.314 -26.416   6.095  0.00  0.00    +0.004 C 
ATOM     16  C   LIG    1       23.975 -25.041   6.277  0.00  0.00    -0.003 C 
ENDBRANCH  14  16
ENDBRANCH  13  14
ENDBRANCH  12  13
ENDBRANCH  11  12
ENDBRANCH   1  11
TORSDOF 7
ENDMDL
MODEL 8
REMARK VINA RESULT:      -6.8      2.737      6.016
REMARK  Name = *****
REMARK                            x       y       z     vdW  Elec       q    Type
REMARK                         _______ _______ _______ _____ _____    ______ ____
ROOT
ATOM      1  C   LIG    1       27.278 -20.212   6.678  0.00  0.00    -0.006 A 
ATOM      2  C   LIG    1       26.170 -20.316   5.751  0.00  0.00    +0.123 A 
ATOM      3  C   LIG    1       24.905 -20.770   6.198  0.00  0.00    +0.091 A 
ATOM      4  C   LIG    1       24.692 -21.040   7.541  0.00  0.00    +0.120 A 
ATOM      5  C   LIG    1       25.702 -20.810   8.480  0.00  0.00    +0.046 A 
ATOM      6  C   LIG    1       26.984 -20.398   8.044  0.00  0.00    +0.011 A 
ENDROOT
BRANCH   2   7
ATOM      7  O   LIG    1       26.446 -20.443   4.393  0.00  0.00    -0.506 OA
ATOM      8  H   LIG    1       26.047 -21.275   4.071  0.00  0.00    +0.292 HD
ENDBRANCH   2   7
BRANCH   4   9
ATOM      9  O   LIG    1       23.557 -21.733   7.902  0.00  0.00    -0.507 OA
ATOM     10  H   LIG    1       23.645 -22.030   8.815  0.00  0.00    +0.292 HD
ENDBRANCH   4   9
BRANCH   1  11
ATOM     11  C   LIG    1       28.775 -20.358   6.226  0.00  0.00    +0.039 C 
BRANCH  11  12
ATOM     12  C   LIG    1       29.815 -19.162   6.440  0.00  0.00    +0.005 C 
BRANCH  12  13
ATOM     13  C   LIG    1       31.112 -19.271   7.337  0.00  0.00    +0.000 C 
BRANCH  13  14
ATOM     14  C   LIG    1       31.368 -18.323   8.538  0.00  0.00    -0.000 C 
BRANCH  14  16
ATOM     15  C   LIG    1       30.456 -17.561  10.583  0.00  0.00    +0.004 C 
ATOM     16  C   LIG    1       30.170 -17.657   9.187  0.00  0.00    -0.003 C 
ENDBRANCH  14  16
ENDBRANCH  13  14
ENDBRANCH  12  13
ENDBRANCH  11  12
ENDBRANCH   1  11
TORSDOF 7
ENDMDL
MODEL 9
REMARK VINA RESULT:      -6.8      1.694      2.581
REMARK  Name = *****
REMARK                            x       y       z     vdW  Elec       q    Type
REMARK                         _______ _______ _______ _____ _____    ______ ____
ROOT
ATOM      1  C   LIG    1       27.235 -20.296   6.636  0.00  0.00    -0.006 A 
ATOM      2  C   LIG    1       27.962 -20.628   7.844  0.00  0.00    +0.123 A 
ATOM      3  C   LIG    1       29.357 -20.397   7.925  0.00  0.00    +0.091 A 
ATOM      4  C   LIG    1       30.025 -19.774   6.881  0.00  0.00    +0.120 A 
ATOM      5  C   LIG    1       29.324 -19.312   5.764  0.00  0.00    +0.046 A 
ATOM      6  C   LIG    1       27.937 -19.574   5.650  0.00  0.00    +0.011 A 
ENDROOT
BRANCH   2   7
ATOM      7  O   LIG    1       27.427 -21.583   8.703  0.00  0.00    -0.506 OA
ATOM      8  H   LIG    1       28.021 -22.358   8.715  0.00  0.00    +0.292 HD
ENDBRANCH   2   7
BRANCH   4   9
ATOM      9  O   LIG    1       31.403 -19.812   6.866  0.00  0.00    -0.507 OA
ATOM     10  H   LIG    1       31.741 -19.287   7.600  0.00  0.00    +0.292 HD
ENDBRANCH   4   9
BRANCH   1  11
ATOM     11  C   LIG    1       25.931 -21.054   6.199  0.00  0.00    +0.039 C 
BRANCH  11  12
ATOM     12  C   LIG    1       24.526 -20.734   6.893  0.00  0.00    +0.005 C 
BRANCH  12  13
ATOM     13  C   LIG    1       23.136 -21.265   6.359  0.00  0.00    +0.000 C 
BRANCH  13  14
ATOM     14  C   LIG    1       22.437 -20.646   5.121  0.00  0.00    -0.000 C 
BRANCH  14  16
ATOM     15  C   LIG    1       22.245 -18.356   4.560  0.00  0.00    +0.004 C 
ATOM     16  C   LIG    1       23.116 -19.481   4.428  0.00  0.00    -0.003 C 
ENDBRANCH  14  16
ENDBRANCH  13  14
ENDBRANCH  12  13
ENDBRANCH  11  12
ENDBRANCH   1  11
TORSDOF 7
ENDMDL
