MODEL 1
REMARK VINA RESULT:      -7.4      0.000      0.000
REMARK  Name = *****
REMARK                            x       y       z     vdW  Elec       q    Type
REMARK                         _______ _______ _______ _____ _____    ______ ____
ROOT
ATOM      1  C   LIG    1       27.287 -20.320   6.632  0.00  0.00    -0.003 A 
ATOM      2  C   LIG    1       26.136 -20.490   5.841  0.00  0.00    +0.124 A 
ATOM      3  C   LIG    1       24.871 -20.750   6.403  0.00  0.00    -0.003 A 
ATOM      4  C   LIG    1       24.775 -20.795   7.805  0.00  0.00    +0.007 A 
ATOM      5  C   LIG    1       25.898 -20.608   8.608  0.00  0.00    +0.001 A 
ATOM      6  C   LIG    1       27.145 -20.381   8.026  0.00  0.00    +0.007 A 
ENDROOT
BRANCH   1   8
ATOM      7  C   LIG    1       28.751 -18.642   5.440  0.00  0.00    +0.012 C 
ATOM      8  C   LIG    1       28.650 -20.062   6.003  0.00  0.00    +0.016 C 
ATOM      9  C   LIG    1       29.784 -20.342   6.992  0.00  0.00    +0.012 C 
ENDBRANCH   1   8
BRANCH   3  10
ATOM     10  C   LIG    1       23.637 -21.000   5.549  0.00  0.00    +0.016 C 
ATOM     11  C   LIG    1       22.823 -19.716   5.364  0.00  0.00    +0.012 C 
ATOM     12  C   LIG    1       22.761 -22.122   6.117  0.00  0.00    +0.012 C 
ENDBRANCH   3  10
BRANCH   2  13
ATOM     13  O   LIG    1       26.281 -20.386   4.485  0.00  0.00    -0.506 OA
ATOM     14  H   LIG    1       27.168 -20.721   4.269  0.00  0.00    +0.292 HD
ENDBRANCH   2  13
TORSDOF 3
ENDMDL
MODEL 2
REMARK VINA RESULT:      -7.3      0.835      4.583
REMARK  Name = *****
REMARK                            x       y       z     vdW  Elec       q    Type
REMARK                         _______ _______ _______ _____ _____    ______ ____
ROOT
ATOM      1  C   LIG    1       24.555 -20.489   5.752  0.00  0.00    -0.003 A 
ATOM      2  C   LIG    1       25.925 -20.419   5.443  0.00  0.00    +0.124 A 
ATOM      3  C   LIG    1       26.921 -20.473   6.437  0.00  0.00    -0.003 A 
ATOM      4  C   LIG    1       26.508 -20.644   7.770  0.00  0.00    +0.007 A 
ATOM      5  C   LIG    1       25.156 -20.738   8.096  0.00  0.00    +0.001 A 
ATOM      6  C   LIG    1       24.188 -20.652   7.096  0.00  0.00    +0.007 A 
ENDROOT
BRANCH   1   8
ATOM      7  C   LIG    1       22.193 -21.098   5.091  0.00  0.00    +0.012 C 
ATOM      8  C   LIG    1       23.492 -20.407   4.665  0.00  0.00    +0.016 C 
ATOM      9  C   LIG    1       23.229 -18.958   4.247  0.00  0.00    +0.012 C 
ENDBRANCH   1   8
BRANCH   3  10
ATOM     10  C   LIG    1       28.402 -20.331   6.114  0.00  0.00    +0.016 C 
ATOM     11  C   LIG    1       29.271 -20.804   7.282  0.00  0.00    +0.012 C 
ATOM     12  C   LIG    1       28.768 -18.900   5.708  0.00  0.00    +0.012 C 
ENDBRANCH   3  10
BRANCH   2  13
ATOM     13  O   LIG    1       26.270 -20.303   4.124  0.00  0.00    -0.506 OA
ATOM     14  H   LIG    1       25.445 -20.163   3.629  0.00  0.00    +0.292 HD
ENDBRANCH   2  13
TORSDOF 3
ENDMDL
MODEL 3
REMARK VINA RESULT:      -7.2      3.217      4.292
REMARK  Name = *****
REMARK                            x       y       z     vdW  Elec       q    Type
REMARK                         _______ _______ _______ _____ _____    ______ ____
ROOT
ATOM      1  C   LIG    1       23.521 -20.559   5.256  0.00  0.00    -0.003 A 
ATOM      2  C   LIG    1       24.017 -21.862   5.068  0.00  0.00    +0.124 A 
ATOM      3  C   LIG    1       24.248 -22.739   6.144  0.00  0.00    -0.003 A 
ATOM      4  C   LIG    1       23.926 -22.289   7.436  0.00  0.00    +0.007 A 
ATOM      5  C   LIG    1       23.413 -21.010   7.644  0.00  0.00    +0.001 A 
ATOM      6  C   LIG    1       23.221 -20.150   6.564  0.00  0.00    +0.007 A 
ENDROOT
BRANCH   1   8
ATOM      7  C   LIG    1       22.232 -18.564   4.395  0.00  0.00    +0.012 C 
ATOM      8  C   LIG    1       23.299 -19.617   4.080  0.00  0.00    +0.016 C 
ATOM      9  C   LIG    1       24.607 -18.957   3.638  0.00  0.00    +0.012 C 
ENDBRANCH   1   8
BRANCH   3  10
ATOM     10  C   LIG    1       24.847 -24.125   5.951  0.00  0.00    +0.016 C 
ATOM     11  C   LIG    1       23.804 -25.218   6.201  0.00  0.00    +0.012 C 
ATOM     12  C   LIG    1       26.085 -24.345   6.826  0.00  0.00    +0.012 C 
ENDBRANCH   3  10
BRANCH   2  13
ATOM     13  O   LIG    1       24.265 -22.263   3.783  0.00  0.00    -0.506 OA
ATOM     14  H   LIG    1       24.913 -22.986   3.834  0.00  0.00    +0.292 HD
ENDBRANCH   2  13
TORSDOF 3
ENDMDL
MODEL 4
REMARK VINA RESULT:      -7.2      3.205      4.094
REMARK  Name = *****
REMARK                            x       y       z     vdW  Elec       q    Type
REMARK                         _______ _______ _______ _____ _____    ______ ____
ROOT
ATOM      1  C   LIG    1       24.286 -22.735   6.182  0.00  0.00    -0.003 A 
ATOM      2  C   LIG    1       24.108 -21.857   5.098  0.00  0.00    +0.124 A 
ATOM      3  C   LIG    1       23.560 -20.569   5.257  0.00  0.00    -0.003 A 
ATOM      4  C   LIG    1       23.226 -20.157   6.559  0.00  0.00    +0.007 A 
ATOM      5  C   LIG    1       23.415 -21.002   7.651  0.00  0.00    +0.001 A 
ATOM      6  C   LIG    1       23.931 -22.284   7.462  0.00  0.00    +0.007 A 
ENDROOT
BRANCH   1   8
ATOM      7  C   LIG    1       26.054 -24.387   6.909  0.00  0.00    +0.012 C 
ATOM      8  C   LIG    1       24.859 -24.132   5.985  0.00  0.00    +0.016 C 
ATOM      9  C   LIG    1       23.786 -25.208   6.168  0.00  0.00    +0.012 C 
ENDBRANCH   1   8
BRANCH   3  10
ATOM     10  C   LIG    1       23.305 -19.642   4.079  0.00  0.00    +0.016 C 
ATOM     11  C   LIG    1       24.596 -18.955   3.624  0.00  0.00    +0.012 C 
ATOM     12  C   LIG    1       22.218 -18.606   4.385  0.00  0.00    +0.012 C 
ENDBRANCH   3  10
BRANCH   2  13
ATOM     13  O   LIG    1       24.497 -22.294   3.861  0.00  0.00    -0.506 OA
ATOM     14  H   LIG    1       24.420 -21.536   3.257  0.00  0.00    +0.292 HD
ENDBRANCH   2  13
TORSDOF 3
ENDMDL
MODEL 5
REMARK VINA RESULT:      -6.9      1.708      5.019
REMARK  Name = *****
REMARK                            x       y       z     vdW  Elec       q    Type
REMARK                         _______ _______ _______ _____ _____    ______ ____
ROOT
ATOM      1  C   LIG    1       25.606 -20.686   6.796  0.00  0.00    -0.003 A 
ATOM      2  C   LIG    1       26.704 -20.489   7.653  0.00  0.00    +0.124 A 
ATOM      3  C   LIG    1       27.954 -20.044   7.181  0.00  0.00    -0.003 A 
ATOM      4  C   LIG    1       28.070 -19.753   5.811  0.00  0.00    +0.007 A 
ATOM      5  C   LIG    1       26.989 -19.919   4.947  0.00  0.00    +0.001 A 
ATOM      6  C   LIG    1       25.771 -20.390   5.434  0.00  0.00    +0.007 A 
ENDROOT
BRANCH   1   8
ATOM      7  C   LIG    1       23.093 -20.528   6.599  0.00  0.00    +0.012 C 
ATOM      8  C   LIG    1       24.270 -21.190   7.322  0.00  0.00    +0.016 C 
ATOM      9  C   LIG    1       24.175 -22.715   7.240  0.00  0.00    +0.012 C 
ENDBRANCH   1   8
BRANCH   3  10
ATOM     10  C   LIG    1       29.162 -19.893   8.094  0.00  0.00    +0.016 C 
ATOM     11  C   LIG    1       30.028 -18.701   7.676  0.00  0.00    +0.012 C 
ATOM     12  C   LIG    1       29.998 -21.176   8.160  0.00  0.00    +0.012 C 
ENDBRANCH   3  10
BRANCH   2  13
ATOM     13  O   LIG    1       26.518 -20.741   8.985  0.00  0.00    -0.506 OA
ATOM     14  H   LIG    1       26.856 -19.967   9.468  0.00  0.00    +0.292 HD
ENDBRANCH   2  13
TORSDOF 3
ENDMDL
MODEL 6
REMARK VINA RESULT:      -6.9      1.691      2.712
REMARK  Name = *****
REMARK                            x       y       z     vdW  Elec       q    Type
REMARK                         _______ _______ _______ _____ _____    ______ ____
ROOT
ATOM      1  C   LIG    1       27.887 -20.090   7.169  0.00  0.00    -0.003 A 
ATOM      2  C   LIG    1       26.620 -20.510   7.612  0.00  0.00    +0.124 A 
ATOM      3  C   LIG    1       25.520 -20.623   6.741  0.00  0.00    -0.003 A 
ATOM      4  C   LIG    1       25.732 -20.342   5.380  0.00  0.00    +0.007 A 
ATOM      5  C   LIG    1       26.984 -19.946   4.915  0.00  0.00    +0.001 A 
ATOM      6  C   LIG    1       28.050 -19.812   5.803  0.00  0.00    +0.007 A 
ENDROOT
BRANCH   1   8
ATOM      7  C   LIG    1       29.928 -21.213   8.148  0.00  0.00    +0.012 C 
ATOM      8  C   LIG    1       29.059 -19.952   8.132  0.00  0.00    +0.016 C 
ATOM      9  C   LIG    1       29.899 -18.712   7.817  0.00  0.00    +0.012 C 
ENDBRANCH   1   8
BRANCH   3  10
ATOM     10  C   LIG    1       24.132 -21.013   7.228  0.00  0.00    +0.016 C 
ATOM     11  C   LIG    1       23.968 -22.535   7.274  0.00  0.00    +0.012 C 
ATOM     12  C   LIG    1       23.025 -20.371   6.386  0.00  0.00    +0.012 C 
ENDBRANCH   3  10
BRANCH   2  13
ATOM     13  O   LIG    1       26.486 -20.818   8.938  0.00  0.00    -0.506 OA
ATOM     14  H   LIG    1       26.342 -21.778   8.992  0.00  0.00    +0.292 HD
ENDBRANCH   2  13
TORSDOF 3
ENDMDL
MODEL 7
REMARK VINA RESULT:      -6.9      3.145      4.962
REMARK  Name = *****
REMARK                            x       y       z     vdW  Elec       q    Type
REMARK                         _______ _______ _______ _____ _____    ______ ____
ROOT
ATOM      1  C   LIG    1       25.016 -24.534   6.437  0.00  0.00    -0.003 A 
ATOM      2  C   LIG    1       25.534 -23.264   6.748  0.00  0.00    +0.124 A 
ATOM      3  C   LIG    1       24.703 -22.168   7.050  0.00  0.00    -0.003 A 
ATOM      4  C   LIG    1       23.315 -22.387   7.075  0.00  0.00    +0.007 A 
ATOM      5  C   LIG    1       22.781 -23.643   6.792  0.00  0.00    +0.001 A 
ATOM      6  C   LIG    1       23.624 -24.705   6.467  0.00  0.00    +0.007 A 
ENDROOT
BRANCH   1   8
ATOM      7  C   LIG    1       25.917 -26.773   7.185  0.00  0.00    +0.012 C 
ATOM      8  C   LIG    1       25.931 -25.701   6.091  0.00  0.00    +0.016 C 
ATOM      9  C   LIG    1       25.580 -26.303   4.729  0.00  0.00    +0.012 C 
ENDBRANCH   1   8
BRANCH   3  10
ATOM     10  C   LIG    1       25.257 -20.777   7.322  0.00  0.00    +0.016 C 
ATOM     11  C   LIG    1       26.189 -20.322   6.195  0.00  0.00    +0.012 C 
ATOM     12  C   LIG    1       25.963 -20.694   8.679  0.00  0.00    +0.012 C 
ENDBRANCH   3  10
BRANCH   2  13
ATOM     13  O   LIG    1       26.895 -23.123   6.757  0.00  0.00    -0.506 OA
ATOM     14  H   LIG    1       27.254 -23.881   7.249  0.00  0.00    +0.292 HD
ENDBRANCH   2  13
TORSDOF 3
ENDMDL
MODEL 8
REMARK VINA RESULT:      -6.7      2.604      4.025
REMARK  Name = *****
REMARK                            x       y       z     vdW  Elec       q    Type
REMARK                         _______ _______ _______ _____ _____    ______ ____
ROOT
ATOM      1  C   LIG    1       25.255 -23.404   6.314  0.00  0.00    -0.003 A 
ATOM      2  C   LIG    1       24.792 -22.334   5.528  0.00  0.00    +0.124 A 
ATOM      3  C   LIG    1       24.820 -21.002   5.983  0.00  0.00    -0.003 A 
ATOM      4  C   LIG    1       25.372 -20.755   7.252  0.00  0.00    +0.007 A 
ATOM      5  C   LIG    1       25.858 -21.798   8.039  0.00  0.00    +0.001 A 
ATOM      6  C   LIG    1       25.792 -23.112   7.577  0.00  0.00    +0.007 A 
ENDROOT
BRANCH   1   8
ATOM      7  C   LIG    1       26.367 -25.673   6.342  0.00  0.00    +0.012 C 
ATOM      8  C   LIG    1       25.196 -24.841   5.812  0.00  0.00    +0.016 C 
ATOM      9  C   LIG    1       23.857 -25.498   6.156  0.00  0.00    +0.012 C 
ENDBRANCH   1   8
BRANCH   3  10
ATOM     10  C   LIG    1       24.259 -19.849   5.163  0.00  0.00    +0.016 C 
ATOM     11  C   LIG    1       22.730 -19.906   5.102  0.00  0.00    +0.012 C 
ATOM     12  C   LIG    1       24.858 -19.800   3.754  0.00  0.00    +0.012 C 
ENDBRANCH   3  10
BRANCH   2  13
ATOM     13  O   LIG    1       24.311 -22.628   4.281  0.00  0.00    -0.506 OA
ATOM     14  H   LIG    1       23.358 -22.436   4.294  0.00  0.00    +0.292 HD
ENDBRANCH   2  13
TORSDOF 3
ENDMDL
MODEL 9
REMARK VINA RESULT:      -6.7      3.155      4.569
REMARK  Name = *****
REMARK                            x       y       z     vdW  Elec       q    Type
REMARK                         _______ _______ _______ _____ _____    ______ ____
ROOT
ATOM      1  C   LIG    1       24.684 -22.196   7.061  0.00  0.00    -0.003 A 
ATOM      2  C   LIG    1       25.532 -23.267   6.724  0.00  0.00    +0.124 A 
ATOM      3  C   LIG    1       25.037 -24.554   6.440  0.00  0.00    -0.003 A 
ATOM      4  C   LIG    1       23.644 -24.739   6.460  0.00  0.00    +0.007 A 
ATOM      5  C   LIG    1       22.784 -23.687   6.770  0.00  0.00    +0.001 A 
ATOM      6  C   LIG    1       23.301 -22.429   7.076  0.00  0.00    +0.007 A 
ENDROOT
BRANCH   1   8
ATOM      7  C   LIG    1       25.947 -20.800   8.746  0.00  0.00    +0.012 C 
ATOM      8  C   LIG    1       25.241 -20.817   7.387  0.00  0.00    +0.016 C 
ATOM      9  C   LIG    1       26.169 -20.312   6.280  0.00  0.00    +0.012 C 
ENDBRANCH   1   8
BRANCH   3  10
ATOM     10  C   LIG    1       25.955 -25.731   6.140  0.00  0.00    +0.016 C 
ATOM     11  C   LIG    1       25.640 -26.344   4.773  0.00  0.00    +0.012 C 
ATOM     12  C   LIG    1       25.902 -26.797   7.240  0.00  0.00    +0.012 C 
ENDBRANCH   3  10
BRANCH   2  13
ATOM     13  O   LIG    1       26.876 -23.015   6.671  0.00  0.00    -0.506 OA
ATOM     14  H   LIG    1       27.108 -22.920   5.732  0.00  0.00    +0.292 HD
ENDBRANCH   2  13
TORSDOF 3
ENDMDL
