MODEL 1
REMARK VINA RESULT:      -8.9      0.000      0.000
REMARK  Name = *****
REMARK                            x       y       z     vdW  Elec       q    Type
REMARK                         _______ _______ _______ _____ _____    ______ ____
ROOT
ATOM      1  C   LIG    1       26.009 -21.221   8.921  0.00  0.00    +0.044 C 
ATOM      2  C   LIG    1       26.753 -21.187   7.611  0.00  0.00    -0.050 C 
ATOM      3  C   LIG    1       27.816 -20.346   7.577  0.00  0.00    +0.003 C 
ENDROOT
BRANCH   3   4
ATOM      4  C   LIG    1       28.799 -20.053   6.554  0.00  0.00    +0.001 C 
ATOM      5  C   LIG    1       30.100 -19.711   6.700  0.00  0.00    +0.003 C 
BRANCH   5   6
ATOM      6  C   LIG    1       30.916 -19.347   7.879  0.00  0.00    -0.044 C 
ATOM      7  C   LIG    1       31.270 -18.051   8.064  0.00  0.00    +0.094 C 
ATOM      8  C   LIG    1       31.292 -20.431   8.858  0.00  0.00    +0.044 C 
BRANCH   7   9
ATOM      9  C   LIG    1       32.083 -17.497   9.175  0.00  0.00    +0.330 C 
ATOM     10  O   LIG    1       32.283 -17.934  10.285  0.00  0.00    -0.246 OA
BRANCH   9  11
ATOM     11  O   LIG    1       32.649 -16.339   8.773  0.00  0.00    -0.477 OA
ATOM     12  H   LIG    1       32.563 -16.373   7.798  0.00  0.00    +0.295 HD
ENDBRANCH   9  11
ENDBRANCH   7   9
ENDBRANCH   5   6
ENDBRANCH   3   4
BRANCH   2  13
ATOM     13  C   LIG    1       26.248 -21.976   6.480  0.00  0.00    +0.003 C 
ATOM     14  C   LIG    1       25.328 -21.767   5.510  0.00  0.00    +0.004 C 
BRANCH  14  15
ATOM     15  C   LIG    1       24.390 -20.675   5.189  0.00  0.00    -0.043 C 
ATOM     16  C   LIG    1       24.769 -19.801   3.945  0.00  0.00    -0.010 C 
ATOM     17  C   LIG    1       26.195 -19.202   4.057  0.00  0.00    +0.016 C 
ATOM     18  C   LIG    1       24.698 -20.669   2.671  0.00  0.00    +0.016 C 
ATOM     19  C   LIG    1       23.831 -18.568   3.755  0.00  0.00    +0.011 C 
ATOM     20  C   LIG    1       22.391 -18.879   4.102  0.00  0.00    +0.005 C 
ATOM     21  C   LIG    1       22.313 -19.286   5.564  0.00  0.00    +0.031 C 
ATOM     22  C   LIG    1       23.316 -20.356   5.956  0.00  0.00    -0.069 C 
ATOM     23  C   LIG    1       22.959 -20.991   7.276  0.00  0.00    +0.039 C 
ENDBRANCH  14  15
ENDBRANCH   2  13
TORSDOF 6
ENDMDL
MODEL 2
REMARK VINA RESULT:      -8.9      0.625      2.163
REMARK  Name = *****
REMARK                            x       y       z     vdW  Elec       q    Type
REMARK                         _______ _______ _______ _____ _____    ______ ____
ROOT
ATOM      1  C   LIG    1       25.937 -20.637   8.900  0.00  0.00    +0.044 C 
ATOM      2  C   LIG    1       26.746 -20.805   7.639  0.00  0.00    -0.050 C 
ATOM      3  C   LIG    1       27.806 -19.970   7.522  0.00  0.00    +0.003 C 
ENDROOT
BRANCH   3   4
ATOM      4  C   LIG    1       28.837 -19.835   6.513  0.00  0.00    +0.001 C 
ATOM      5  C   LIG    1       30.163 -19.620   6.679  0.00  0.00    +0.003 C 
BRANCH   5   6
ATOM      6  C   LIG    1       30.985 -19.279   7.861  0.00  0.00    -0.044 C 
ATOM      7  C   LIG    1       31.325 -17.984   8.078  0.00  0.00    +0.094 C 
ATOM      8  C   LIG    1       31.383 -20.384   8.806  0.00  0.00    +0.044 C 
BRANCH   7   9
ATOM      9  C   LIG    1       32.141 -17.451   9.196  0.00  0.00    +0.330 C 
ATOM     10  O   LIG    1       32.341 -17.907  10.299  0.00  0.00    -0.246 OA
BRANCH   9  11
ATOM     11  O   LIG    1       32.710 -16.288   8.814  0.00  0.00    -0.477 OA
ATOM     12  H   LIG    1       33.283 -16.554   8.065  0.00  0.00    +0.295 HD
ENDBRANCH   9  11
ENDBRANCH   7   9
ENDBRANCH   5   6
ENDBRANCH   3   4
BRANCH   2  13
ATOM     13  C   LIG    1       26.299 -21.772   6.627  0.00  0.00    +0.003 C 
ATOM     14  C   LIG    1       25.389 -21.749   5.627  0.00  0.00    +0.004 C 
BRANCH  14  15
ATOM     15  C   LIG    1       24.407 -20.761   5.141  0.00  0.00    -0.043 C 
ATOM     16  C   LIG    1       22.966 -20.887   5.742  0.00  0.00    -0.010 C 
ATOM     17  C   LIG    1       22.369 -22.306   5.549  0.00  0.00    +0.016 C 
ATOM     18  C   LIG    1       23.014 -20.574   7.252  0.00  0.00    +0.016 C 
ATOM     19  C   LIG    1       21.936 -19.925   5.071  0.00  0.00    +0.011 C 
ATOM     20  C   LIG    1       22.542 -18.581   4.727  0.00  0.00    +0.005 C 
ATOM     21  C   LIG    1       23.677 -18.790   3.738  0.00  0.00    +0.031 C 
ATOM     22  C   LIG    1       24.672 -19.855   4.164  0.00  0.00    -0.069 C 
ATOM     23  C   LIG    1       25.952 -19.764   3.373  0.00  0.00    +0.039 C 
ENDBRANCH  14  15
ENDBRANCH   2  13
TORSDOF 6
ENDMDL
MODEL 3
REMARK VINA RESULT:      -8.7      1.832      2.993
REMARK  Name = *****
REMARK                            x       y       z     vdW  Elec       q    Type
REMARK                         _______ _______ _______ _____ _____    ______ ____
ROOT
ATOM      1  C   LIG    1       25.469 -22.011   8.742  0.00  0.00    +0.044 C 
ATOM      2  C   LIG    1       26.100 -21.593   7.439  0.00  0.00    -0.050 C 
ATOM      3  C   LIG    1       26.989 -20.574   7.533  0.00  0.00    +0.003 C 
ENDROOT
BRANCH   3   4
ATOM      4  C   LIG    1       27.828 -19.915   6.553  0.00  0.00    +0.001 C 
ATOM      5  C   LIG    1       29.178 -19.821   6.518  0.00  0.00    +0.003 C 
BRANCH   5   6
ATOM      6  C   LIG    1       30.235 -20.168   7.493  0.00  0.00    -0.044 C 
ATOM      7  C   LIG    1       30.161 -21.350   8.155  0.00  0.00    +0.094 C 
ATOM      8  C   LIG    1       31.381 -19.209   7.687  0.00  0.00    +0.044 C 
BRANCH   7   9
ATOM      9  C   LIG    1       31.116 -21.868   9.166  0.00  0.00    +0.330 C 
ATOM     10  O   LIG    1       31.006 -21.952  10.367  0.00  0.00    -0.246 OA
BRANCH   9  11
ATOM     11  O   LIG    1       32.234 -22.294   8.541  0.00  0.00    -0.477 OA
ATOM     12  H   LIG    1       31.936 -22.434   7.618  0.00  0.00    +0.295 HD
ENDBRANCH   9  11
ENDBRANCH   7   9
ENDBRANCH   5   6
ENDBRANCH   3   4
BRANCH   2  13
ATOM     13  C   LIG    1       25.666 -22.241   6.194  0.00  0.00    +0.003 C 
ATOM     14  C   LIG    1       24.918 -21.858   5.134  0.00  0.00    +0.004 C 
BRANCH  14  15
ATOM     15  C   LIG    1       24.164 -20.640   4.783  0.00  0.00    -0.043 C 
ATOM     16  C   LIG    1       22.726 -20.534   5.396  0.00  0.00    -0.010 C 
ATOM     17  C   LIG    1       21.848 -21.767   5.058  0.00  0.00    +0.016 C 
ATOM     18  C   LIG    1       22.834 -20.412   6.931  0.00  0.00    +0.016 C 
ATOM     19  C   LIG    1       21.920 -19.309   4.860  0.00  0.00    +0.011 C 
ATOM     20  C   LIG    1       22.793 -18.089   4.657  0.00  0.00    +0.005 C 
ATOM     21  C   LIG    1       23.862 -18.413   3.627  0.00  0.00    +0.031 C 
ATOM     22  C   LIG    1       24.614 -19.702   3.909  0.00  0.00    -0.069 C 
ATOM     23  C   LIG    1       25.886 -19.788   3.107  0.00  0.00    +0.039 C 
ENDBRANCH  14  15
ENDBRANCH   2  13
TORSDOF 6
ENDMDL
MODEL 4
REMARK VINA RESULT:      -8.5      1.799      3.151
REMARK  Name = *****
REMARK                            x       y       z     vdW  Elec       q    Type
REMARK                         _______ _______ _______ _____ _____    ______ ____
ROOT
ATOM      1  C   LIG    1       26.370 -20.719   8.600  0.00  0.00    +0.044 C 
ATOM      2  C   LIG    1       27.231 -20.357   7.417  0.00  0.00    -0.050 C 
ATOM      3  C   LIG    1       28.459 -19.875   7.727  0.00  0.00    +0.003 C 
ENDROOT
BRANCH   3   4
ATOM      4  C   LIG    1       29.581 -19.461   6.910  0.00  0.00    +0.001 C 
ATOM      5  C   LIG    1       30.694 -18.784   7.278  0.00  0.00    +0.003 C 
BRANCH   5   6
ATOM      6  C   LIG    1       31.081 -18.092   8.527  0.00  0.00    -0.044 C 
ATOM      7  C   LIG    1       30.205 -18.054   9.561  0.00  0.00    +0.094 C 
ATOM      8  C   LIG    1       32.459 -17.486   8.617  0.00  0.00    +0.044 C 
BRANCH   7   9
ATOM      9  C   LIG    1       30.410 -17.408  10.881  0.00  0.00    +0.330 C 
ATOM     10  O   LIG    1       30.215 -16.265  11.226  0.00  0.00    -0.246 OA
BRANCH   9  11
ATOM     11  O   LIG    1       30.872 -18.327  11.755  0.00  0.00    -0.477 OA
ATOM     12  H   LIG    1       30.346 -19.125  11.543  0.00  0.00    +0.295 HD
ENDBRANCH   9  11
ENDBRANCH   7   9
ENDBRANCH   5   6
ENDBRANCH   3   4
BRANCH   2  13
ATOM     13  C   LIG    1       26.671 -20.473   6.063  0.00  0.00    +0.003 C 
ATOM     14  C   LIG    1       25.627 -21.141   5.520  0.00  0.00    +0.004 C 
BRANCH  14  15
ATOM     15  C   LIG    1       24.621 -22.087   6.035  0.00  0.00    -0.043 C 
ATOM     16  C   LIG    1       23.199 -21.485   6.302  0.00  0.00    -0.010 C 
ATOM     17  C   LIG    1       23.247 -20.259   7.251  0.00  0.00    +0.016 C 
ATOM     18  C   LIG    1       22.571 -21.048   4.963  0.00  0.00    +0.016 C 
ATOM     19  C   LIG    1       22.229 -22.491   6.998  0.00  0.00    +0.011 C 
ATOM     20  C   LIG    1       22.413 -23.909   6.500  0.00  0.00    +0.005 C 
ATOM     21  C   LIG    1       23.831 -24.359   6.811  0.00  0.00    +0.031 C 
ATOM     22  C   LIG    1       24.899 -23.376   6.364  0.00  0.00    -0.069 C 
ATOM     23  C   LIG    1       26.263 -24.014   6.340  0.00  0.00    +0.039 C 
ENDBRANCH  14  15
ENDBRANCH   2  13
TORSDOF 6
ENDMDL
MODEL 5
REMARK VINA RESULT:      -8.3      5.470      7.551
REMARK  Name = *****
REMARK                            x       y       z     vdW  Elec       q    Type
REMARK                         _______ _______ _______ _____ _____    ______ ____
ROOT
ATOM      1  C   LIG    1       21.680 -23.501   6.611  0.00  0.00    +0.044 C 
ATOM      2  C   LIG    1       23.147 -23.284   6.882  0.00  0.00    -0.050 C 
ATOM      3  C   LIG    1       23.954 -24.313   6.525  0.00  0.00    +0.003 C 
ENDROOT
BRANCH   3   4
ATOM      4  C   LIG    1       25.391 -24.489   6.572  0.00  0.00    +0.001 C 
ATOM      5  C   LIG    1       26.106 -25.637   6.521  0.00  0.00    +0.003 C 
BRANCH   5   6
ATOM      6  C   LIG    1       25.721 -27.064   6.579  0.00  0.00    -0.044 C 
ATOM      7  C   LIG    1       25.146 -27.639   5.493  0.00  0.00    +0.094 C 
ATOM      8  C   LIG    1       26.020 -27.841   7.836  0.00  0.00    +0.044 C 
BRANCH   7   9
ATOM      9  C   LIG    1       24.691 -29.045   5.364  0.00  0.00    +0.330 C 
ATOM     10  O   LIG    1       25.333 -30.068   5.310  0.00  0.00    -0.246 OA
BRANCH   9  11
ATOM     11  O   LIG    1       23.342 -29.071   5.321  0.00  0.00    -0.477 OA
ATOM     12  H   LIG    1       23.116 -29.873   5.836  0.00  0.00    +0.295 HD
ENDBRANCH   9  11
ENDBRANCH   7   9
ENDBRANCH   5   6
ENDBRANCH   3   4
BRANCH   2  13
ATOM     13  C   LIG    1       23.574 -22.054   7.562  0.00  0.00    +0.003 C 
ATOM     14  C   LIG    1       24.114 -20.882   7.156  0.00  0.00    +0.004 C 
BRANCH  14  15
ATOM     15  C   LIG    1       24.559 -20.340   5.859  0.00  0.00    -0.043 C 
ATOM     16  C   LIG    1       23.419 -19.999   4.840  0.00  0.00    -0.010 C 
ATOM     17  C   LIG    1       22.489 -21.211   4.570  0.00  0.00    +0.016 C 
ATOM     18  C   LIG    1       22.567 -18.839   5.396  0.00  0.00    +0.016 C 
ATOM     19  C   LIG    1       23.957 -19.587   3.434  0.00  0.00    +0.011 C 
ATOM     20  C   LIG    1       25.222 -18.759   3.521  0.00  0.00    +0.005 C 
ATOM     21  C   LIG    1       26.305 -19.585   4.196  0.00  0.00    +0.031 C 
ATOM     22  C   LIG    1       25.864 -20.225   5.500  0.00  0.00    -0.069 C 
ATOM     23  C   LIG    1       27.043 -20.700   6.309  0.00  0.00    +0.039 C 
ENDBRANCH  14  15
ENDBRANCH   2  13
TORSDOF 6
ENDMDL
MODEL 6
REMARK VINA RESULT:      -8.1      1.715      3.131
REMARK  Name = *****
REMARK                            x       y       z     vdW  Elec       q    Type
REMARK                         _______ _______ _______ _____ _____    ______ ____
ROOT
ATOM      1  C   LIG    1       26.103 -20.495   8.275  0.00  0.00    +0.044 C 
ATOM      2  C   LIG    1       27.127 -20.400   7.172  0.00  0.00    -0.050 C 
ATOM      3  C   LIG    1       28.354 -19.980   7.563  0.00  0.00    +0.003 C 
ENDROOT
BRANCH   3   4
ATOM      4  C   LIG    1       29.599 -19.797   6.845  0.00  0.00    +0.001 C 
ATOM      5  C   LIG    1       30.726 -19.165   7.249  0.00  0.00    +0.003 C 
BRANCH   5   6
ATOM      6  C   LIG    1       31.036 -18.315   8.419  0.00  0.00    -0.044 C 
ATOM      7  C   LIG    1       30.224 -18.362   9.505  0.00  0.00    +0.094 C 
ATOM      8  C   LIG    1       32.274 -17.455   8.378  0.00  0.00    +0.044 C 
BRANCH   7   9
ATOM      9  C   LIG    1       30.368 -17.587  10.761  0.00  0.00    +0.330 C 
ATOM     10  O   LIG    1       30.146 -16.419  10.984  0.00  0.00    -0.246 OA
BRANCH   9  11
ATOM     11  O   LIG    1       30.805 -18.408  11.739  0.00  0.00    -0.477 OA
ATOM     12  H   LIG    1       31.096 -17.788  12.440  0.00  0.00    +0.295 HD
ENDBRANCH   9  11
ENDBRANCH   7   9
ENDBRANCH   5   6
ENDBRANCH   3   4
BRANCH   2  13
ATOM     13  C   LIG    1       26.716 -20.683   5.790  0.00  0.00    +0.003 C 
ATOM     14  C   LIG    1       25.662 -21.311   5.221  0.00  0.00    +0.004 C 
BRANCH  14  15
ATOM     15  C   LIG    1       24.484 -22.034   5.736  0.00  0.00    -0.043 C 
ATOM     16  C   LIG    1       24.697 -23.560   6.019  0.00  0.00    -0.010 C 
ATOM     17  C   LIG    1       25.233 -24.321   4.778  0.00  0.00    +0.016 C 
ATOM     18  C   LIG    1       25.706 -23.729   7.174  0.00  0.00    +0.016 C 
ATOM     19  C   LIG    1       23.378 -24.301   6.404  0.00  0.00    +0.011 C 
ATOM     20  C   LIG    1       22.468 -23.450   7.264  0.00  0.00    +0.005 C 
ATOM     21  C   LIG    1       22.077 -22.205   6.485  0.00  0.00    +0.031 C 
ATOM     22  C   LIG    1       23.256 -21.470   5.872  0.00  0.00    -0.069 C 
ATOM     23  C   LIG    1       22.878 -20.074   5.449  0.00  0.00    +0.039 C 
ENDBRANCH  14  15
ENDBRANCH   2  13
TORSDOF 6
ENDMDL
MODEL 7
REMARK VINA RESULT:      -8.0      6.249      8.113
REMARK  Name = *****
REMARK                            x       y       z     vdW  Elec       q    Type
REMARK                         _______ _______ _______ _____ _____    ______ ____
ROOT
ATOM      1  C   LIG    1       22.965 -23.895   6.737  0.00  0.00    +0.044 C 
ATOM      2  C   LIG    1       24.305 -24.222   6.129  0.00  0.00    -0.050 C 
ATOM      3  C   LIG    1       24.425 -25.486   5.654  0.00  0.00    +0.003 C 
ENDROOT
BRANCH   3   4
ATOM      4  C   LIG    1       25.502 -26.175   4.973  0.00  0.00    +0.001 C 
ATOM      5  C   LIG    1       25.828 -27.487   5.013  0.00  0.00    +0.003 C 
BRANCH   5   6
ATOM      6  C   LIG    1       25.362 -28.613   5.852  0.00  0.00    -0.044 C 
ATOM      7  C   LIG    1       25.138 -29.820   5.274  0.00  0.00    +0.094 C 
ATOM      8  C   LIG    1       25.190 -28.387   7.332  0.00  0.00    +0.044 C 
BRANCH   7   9
ATOM      9  C   LIG    1       24.667 -31.057   5.944  0.00  0.00    +0.330 C 
ATOM     10  O   LIG    1       25.290 -31.900   6.547  0.00  0.00    -0.246 OA
BRANCH   9  11
ATOM     11  O   LIG    1       23.327 -31.149   5.810  0.00  0.00    -0.477 OA
ATOM     12  H   LIG    1       23.079 -31.812   6.487  0.00  0.00    +0.295 HD
ENDBRANCH   9  11
ENDBRANCH   7   9
ENDBRANCH   5   6
ENDBRANCH   3   4
BRANCH   2  13
ATOM     13  C   LIG    1       25.372 -23.213   6.165  0.00  0.00    +0.003 C 
ATOM     14  C   LIG    1       25.424 -21.877   5.957  0.00  0.00    +0.004 C 
BRANCH  14  15
ATOM     15  C   LIG    1       24.445 -20.852   5.552  0.00  0.00    -0.043 C 
ATOM     16  C   LIG    1       24.636 -20.263   4.113  0.00  0.00    -0.010 C 
ATOM     17  C   LIG    1       26.061 -19.692   3.894  0.00  0.00    +0.016 C 
ATOM     18  C   LIG    1       24.385 -21.374   3.071  0.00  0.00    +0.016 C 
ATOM     19  C   LIG    1       23.675 -19.072   3.805  0.00  0.00    +0.011 C 
ATOM     20  C   LIG    1       22.301 -19.268   4.411  0.00  0.00    +0.005 C 
ATOM     21  C   LIG    1       22.437 -19.362   5.921  0.00  0.00    +0.031 C 
ATOM     22  C   LIG    1       23.491 -20.354   6.381  0.00  0.00    -0.069 C 
ATOM     23  C   LIG    1       23.332 -20.693   7.841  0.00  0.00    +0.039 C 
ENDBRANCH  14  15
ENDBRANCH   2  13
TORSDOF 6
ENDMDL
MODEL 8
REMARK VINA RESULT:      -8.0      6.859      9.401
REMARK  Name = *****
REMARK                            x       y       z     vdW  Elec       q    Type
REMARK                         _______ _______ _______ _____ _____    ______ ____
ROOT
ATOM      1  C   LIG    1       26.595 -27.449   4.997  0.00  0.00    +0.044 C 
ATOM      2  C   LIG    1       25.209 -27.112   5.485  0.00  0.00    -0.050 C 
ATOM      3  C   LIG    1       25.039 -25.830   5.890  0.00  0.00    +0.003 C 
ENDROOT
BRANCH   3   4
ATOM      4  C   LIG    1       23.884 -25.103   6.376  0.00  0.00    +0.001 C 
ATOM      5  C   LIG    1       23.783 -23.795   6.706  0.00  0.00    +0.003 C 
BRANCH   5   6
ATOM      6  C   LIG    1       24.785 -22.718   6.865  0.00  0.00    -0.044 C 
ATOM      7  C   LIG    1       25.505 -22.649   8.013  0.00  0.00    +0.094 C 
ATOM      8  C   LIG    1       24.998 -21.757   5.723  0.00  0.00    +0.044 C 
BRANCH   7   9
ATOM      9  C   LIG    1       26.543 -21.647   8.356  0.00  0.00    +0.330 C 
ATOM     10  O   LIG    1       27.684 -21.545   7.967  0.00  0.00    -0.246 OA
BRANCH   9  11
ATOM     11  O   LIG    1       26.027 -20.756   9.228  0.00  0.00    -0.477 OA
ATOM     12  H   LIG    1       25.096 -20.669   8.936  0.00  0.00    +0.295 HD
ENDBRANCH   9  11
ENDBRANCH   7   9
ENDBRANCH   5   6
ENDBRANCH   3   4
BRANCH   2  13
ATOM     13  C   LIG    1       24.199 -28.176   5.560  0.00  0.00    +0.003 C 
ATOM     14  C   LIG    1       24.165 -29.419   6.093  0.00  0.00    +0.004 C 
BRANCH  14  15
ATOM     15  C   LIG    1       25.143 -30.275   6.790  0.00  0.00    -0.043 C 
ATOM     16  C   LIG    1       25.407 -29.916   8.292  0.00  0.00    -0.010 C 
ATOM     17  C   LIG    1       25.833 -28.437   8.479  0.00  0.00    +0.016 C 
ATOM     18  C   LIG    1       24.123 -30.166   9.110  0.00  0.00    +0.016 C 
ATOM     19  C   LIG    1       26.566 -30.749   8.926  0.00  0.00    +0.011 C 
ATOM     20  C   LIG    1       26.584 -32.180   8.433  0.00  0.00    +0.005 C 
ATOM     21  C   LIG    1       26.797 -32.180   6.929  0.00  0.00    +0.031 C 
ATOM     22  C   LIG    1       25.859 -31.252   6.177  0.00  0.00    -0.069 C 
ATOM     23  C   LIG    1       25.840 -31.561   4.702  0.00  0.00    +0.039 C 
ENDBRANCH  14  15
ENDBRANCH   2  13
TORSDOF 6
ENDMDL
MODEL 9
REMARK VINA RESULT:      -7.7      5.596      7.904
REMARK  Name = *****
REMARK                            x       y       z     vdW  Elec       q    Type
REMARK                         _______ _______ _______ _____ _____    ______ ____
ROOT
ATOM      1  C   LIG    1       21.812 -23.277   6.078  0.00  0.00    +0.044 C 
ATOM      2  C   LIG    1       23.139 -23.320   6.793  0.00  0.00    -0.050 C 
ATOM      3  C   LIG    1       23.886 -24.424   6.551  0.00  0.00    +0.003 C 
ENDROOT
BRANCH   3   4
ATOM      4  C   LIG    1       25.205 -24.828   6.992  0.00  0.00    +0.001 C 
ATOM      5  C   LIG    1       25.916 -25.926   6.646  0.00  0.00    +0.003 C 
BRANCH   5   6
ATOM      6  C   LIG    1       25.572 -27.147   5.884  0.00  0.00    -0.044 C 
ATOM      7  C   LIG    1       24.852 -28.124   6.490  0.00  0.00    +0.094 C 
ATOM      8  C   LIG    1       26.001 -27.241   4.442  0.00  0.00    +0.044 C 
BRANCH   7   9
ATOM      9  C   LIG    1       24.418 -29.412   5.896  0.00  0.00    +0.330 C 
ATOM     10  O   LIG    1       24.985 -30.479   5.854  0.00  0.00    -0.246 OA
BRANCH   9  11
ATOM     11  O   LIG    1       23.188 -29.259   5.360  0.00  0.00    -0.477 OA
ATOM     12  H   LIG    1       23.326 -28.577   4.671  0.00  0.00    +0.295 HD
ENDBRANCH   9  11
ENDBRANCH   7   9
ENDBRANCH   5   6
ENDBRANCH   3   4
BRANCH   2  13
ATOM     13  C   LIG    1       23.481 -22.241   7.730  0.00  0.00    +0.003 C 
ATOM     14  C   LIG    1       24.316 -21.177   7.690  0.00  0.00    +0.004 C 
BRANCH  14  15
ATOM     15  C   LIG    1       25.289 -20.659   6.711  0.00  0.00    -0.043 C 
ATOM     16  C   LIG    1       26.789 -20.695   7.162  0.00  0.00    -0.010 C 
ATOM     17  C   LIG    1       27.016 -19.963   8.511  0.00  0.00    +0.016 C 
ATOM     18  C   LIG    1       27.240 -22.162   7.316  0.00  0.00    +0.016 C 
ATOM     19  C   LIG    1       27.749 -19.986   6.156  0.00  0.00    +0.011 C 
ATOM     20  C   LIG    1       27.344 -20.213   4.715  0.00  0.00    +0.005 C 
ATOM     21  C   LIG    1       25.955 -19.638   4.497  0.00  0.00    +0.031 C 
ATOM     22  C   LIG    1       24.936 -20.088   5.530  0.00  0.00    -0.069 C 
ATOM     23  C   LIG    1       23.527 -19.816   5.071  0.00  0.00    +0.039 C 
ENDBRANCH  14  15
ENDBRANCH   2  13
TORSDOF 6
ENDMDL
