MODEL 1
REMARK VINA RESULT:      -4.9      0.000      0.000
REMARK  Name = *****
REMARK                            x       y       z     vdW  Elec       q    Type
REMARK                         _______ _______ _______ _____ _____    ______ ____
ROOT
ATOM      1  C   LIG    1       25.319 -12.965   3.284  0.00  0.00    +0.104 C 
ATOM      2  C   LIG    1       26.565 -13.786   2.949  0.00  0.00    +0.152 C 
ATOM      3  O   LIG    1       26.741 -14.241   1.812  0.00  0.00    -0.296 OA
ATOM      4  C   LIG    1       27.623 -14.016   4.009  0.00  0.00    +0.070 C 
ATOM      5  C   LIG    1       28.712 -12.952   3.929  0.00  0.00    +0.017 C 
ATOM      6  C   LIG    1       26.974 -14.084   5.377  0.00  0.00    +0.115 C 
ATOM      7  N   LIG    1       26.133 -12.944   5.623  0.00  0.00    -0.314 N 
ATOM      8  H   LIG    1       25.999 -12.604   6.571  0.00  0.00    +0.149 HD
ATOM      9  C   LIG    1       25.273 -12.415   4.706  0.00  0.00    +0.226 C 
ATOM     10  O   LIG    1       24.476 -11.551   5.068  0.00  0.00    -0.275 OA
ENDROOT
BRANCH   1  12
ATOM     11  C   LIG    1       23.800 -11.447   1.816  0.00  0.00    +0.005 C 
ATOM     12  C   LIG    1       25.213 -11.776   2.285  0.00  0.00    +0.020 C 
ENDBRANCH   1  12
BRANCH   1  13
ATOM     13  C   LIG    1       24.061 -13.856   3.062  0.00  0.00    +0.020 C 
ATOM     14  C   LIG    1       23.694 -14.787   4.212  0.00  0.00    +0.005 C 
ENDBRANCH   1  13
TORSDOF 2
ENDMDL
MODEL 2
REMARK VINA RESULT:      -4.3      1.568      3.707
REMARK  Name = *****
REMARK                            x       y       z     vdW  Elec       q    Type
REMARK                         _______ _______ _______ _____ _____    ______ ____
ROOT
ATOM      1  C   LIG    1       26.803 -13.701   3.928  0.00  0.00    +0.104 C 
ATOM      2  C   LIG    1       25.585 -13.733   3.005  0.00  0.00    +0.152 C 
ATOM      3  O   LIG    1       25.697 -14.043   1.813  0.00  0.00    -0.296 OA
ATOM      4  C   LIG    1       24.210 -13.422   3.562  0.00  0.00    +0.070 C 
ATOM      5  C   LIG    1       23.497 -14.698   3.995  0.00  0.00    +0.017 C 
ATOM      6  C   LIG    1       24.327 -12.410   4.684  0.00  0.00    +0.115 C 
ATOM      7  N   LIG    1       25.282 -12.824   5.676  0.00  0.00    -0.314 N 
ATOM      8  H   LIG    1       25.167 -12.541   6.644  0.00  0.00    +0.149 HD
ATOM      9  C   LIG    1       26.499 -13.367   5.385  0.00  0.00    +0.226 C 
ATOM     10  O   LIG    1       27.310 -13.529   6.296  0.00  0.00    -0.275 OA
ENDROOT
BRANCH   1  12
ATOM     11  C   LIG    1       26.610 -16.270   3.562  0.00  0.00    +0.005 C 
ATOM     12  C   LIG    1       27.517 -15.083   3.872  0.00  0.00    +0.020 C 
ENDBRANCH   1  12
BRANCH   1  13
ATOM     13  C   LIG    1       27.812 -12.647   3.384  0.00  0.00    +0.020 C 
ATOM     14  C   LIG    1       29.281 -12.911   3.694  0.00  0.00    +0.005 C 
ENDBRANCH   1  13
TORSDOF 2
ENDMDL
MODEL 3
REMARK VINA RESULT:      -4.3      1.931      3.879
REMARK  Name = *****
REMARK                            x       y       z     vdW  Elec       q    Type
REMARK                         _______ _______ _______ _____ _____    ______ ____
ROOT
ATOM      1  C   LIG    1       25.932 -14.406   3.731  0.00  0.00    +0.104 C 
ATOM      2  C   LIG    1       24.447 -14.068   3.868  0.00  0.00    +0.152 C 
ATOM      3  O   LIG    1       23.707 -14.735   4.601  0.00  0.00    -0.296 OA
ATOM      4  C   LIG    1       23.875 -12.874   3.130  0.00  0.00    +0.070 C 
ATOM      5  C   LIG    1       23.896 -11.630   4.012  0.00  0.00    +0.017 C 
ATOM      6  C   LIG    1       24.615 -12.675   1.823  0.00  0.00    +0.115 C 
ATOM      7  N   LIG    1       26.038 -12.616   2.022  0.00  0.00    -0.314 N 
ATOM      8  H   LIG    1       26.619 -12.069   1.394  0.00  0.00    +0.149 HD
ATOM      9  C   LIG    1       26.731 -13.454   2.846  0.00  0.00    +0.226 C 
ATOM     10  O   LIG    1       27.960 -13.435   2.816  0.00  0.00    -0.275 OA
ENDROOT
BRANCH   1  12
ATOM     11  C   LIG    1       26.856 -13.061   5.758  0.00  0.00    +0.005 C 
ATOM     12  C   LIG    1       26.578 -14.431   5.147  0.00  0.00    +0.020 C 
ENDBRANCH   1  12
BRANCH   1  13
ATOM     13  C   LIG    1       26.064 -15.844   3.147  0.00  0.00    +0.020 C 
ATOM     14  C   LIG    1       27.179 -16.700   3.734  0.00  0.00    +0.005 C 
ENDBRANCH   1  13
TORSDOF 2
ENDMDL
MODEL 4
REMARK VINA RESULT:      -3.9      1.852      3.071
REMARK  Name = *****
REMARK                            x       y       z     vdW  Elec       q    Type
REMARK                         _______ _______ _______ _____ _____    ______ ____
ROOT
ATOM      1  C   LIG    1       25.141 -13.140   4.150  0.00  0.00    +0.104 C 
ATOM      2  C   LIG    1       26.324 -13.636   4.983  0.00  0.00    +0.152 C 
ATOM      3  O   LIG    1       26.252 -13.702   6.216  0.00  0.00    -0.296 OA
ATOM      4  C   LIG    1       27.592 -14.094   4.291  0.00  0.00    +0.070 C 
ATOM      5  C   LIG    1       27.564 -15.599   4.046  0.00  0.00    +0.017 C 
ATOM      6  C   LIG    1       27.798 -13.300   3.016  0.00  0.00    +0.115 C 
ATOM      7  N   LIG    1       26.630 -13.326   2.179  0.00  0.00    -0.314 N 
ATOM      8  H   LIG    1       26.723 -13.257   1.170  0.00  0.00    +0.149 HD
ATOM      9  C   LIG    1       25.355 -13.178   2.640  0.00  0.00    +0.226 C 
ATOM     10  O   LIG    1       24.441 -13.044   1.828  0.00  0.00    -0.275 OA
ENDROOT
BRANCH   1  12
ATOM     11  C   LIG    1       23.951 -15.452   4.065  0.00  0.00    +0.005 C 
ATOM     12  C   LIG    1       23.885 -13.991   4.498  0.00  0.00    +0.020 C 
ENDBRANCH   1  12
BRANCH   1  13
ATOM     13  C   LIG    1       24.823 -11.672   4.563  0.00  0.00    +0.020 C 
ATOM     14  C   LIG    1       23.471 -11.447   5.229  0.00  0.00    +0.005 C 
ENDBRANCH   1  13
TORSDOF 2
ENDMDL
MODEL 5
REMARK VINA RESULT:      -3.5      1.516      3.311
REMARK  Name = *****
REMARK                            x       y       z     vdW  Elec       q    Type
REMARK                         _______ _______ _______ _____ _____    ______ ____
ROOT
ATOM      1  C   LIG    1       24.876 -14.246   3.926  0.00  0.00    +0.104 C 
ATOM      2  C   LIG    1       25.488 -13.041   4.641  0.00  0.00    +0.152 C 
ATOM      3  O   LIG    1       24.773 -12.155   5.125  0.00  0.00    -0.296 OA
ATOM      4  C   LIG    1       26.993 -12.945   4.800  0.00  0.00    +0.070 C 
ATOM      5  C   LIG    1       27.438 -13.538   6.132  0.00  0.00    +0.017 C 
ATOM      6  C   LIG    1       27.677 -13.595   3.614  0.00  0.00    +0.115 C 
ATOM      7  N   LIG    1       27.194 -14.930   3.388  0.00  0.00    -0.314 N 
ATOM      8  H   LIG    1       27.804 -15.631   2.977  0.00  0.00    +0.149 HD
ATOM      9  C   LIG    1       25.879 -15.288   3.443  0.00  0.00    +0.226 C 
ATOM     10  O   LIG    1       25.553 -16.412   3.068  0.00  0.00    -0.275 OA
ENDROOT
BRANCH   1  12
ATOM     11  C   LIG    1       22.721 -15.680   4.189  0.00  0.00    +0.005 C 
ATOM     12  C   LIG    1       23.859 -14.938   4.881  0.00  0.00    +0.020 C 
ENDBRANCH   1  12
BRANCH   1  13
ATOM     13  C   LIG    1       24.067 -13.737   2.696  0.00  0.00    +0.020 C 
ATOM     14  C   LIG    1       24.755 -12.681   1.839  0.00  0.00    +0.005 C 
ENDBRANCH   1  13
TORSDOF 2
ENDMDL
MODEL 6
REMARK VINA RESULT:      -2.8      1.821      2.575
REMARK  Name = *****
REMARK                            x       y       z     vdW  Elec       q    Type
REMARK                         _______ _______ _______ _____ _____    ______ ____
ROOT
ATOM      1  C   LIG    1       24.912 -13.357   3.624  0.00  0.00    +0.104 C 
ATOM      2  C   LIG    1       26.365 -13.468   3.161  0.00  0.00    +0.152 C 
ATOM      3  O   LIG    1       26.990 -12.472   2.778  0.00  0.00    -0.296 OA
ATOM      4  C   LIG    1       27.069 -14.810   3.207  0.00  0.00    +0.070 C 
ATOM      5  C   LIG    1       27.826 -14.982   4.519  0.00  0.00    +0.017 C 
ATOM      6  C   LIG    1       26.071 -15.924   2.959  0.00  0.00    +0.115 C 
ATOM      7  N   LIG    1       24.937 -15.825   3.837  0.00  0.00    -0.314 N 
ATOM      8  H   LIG    1       24.437 -16.662   4.122  0.00  0.00    +0.149 HD
ATOM      9  C   LIG    1       24.295 -14.657   4.131  0.00  0.00    +0.226 C 
ATOM     10  O   LIG    1       23.236 -14.701   4.753  0.00  0.00    -0.275 OA
ENDROOT
BRANCH   1  12
ATOM     11  C   LIG    1       23.535 -11.470   4.770  0.00  0.00    +0.005 C 
ATOM     12  C   LIG    1       24.822 -12.289   4.753  0.00  0.00    +0.020 C 
ENDBRANCH   1  12
BRANCH   1  13
ATOM     13  C   LIG    1       24.049 -12.836   2.437  0.00  0.00    +0.020 C 
ATOM     14  C   LIG    1       24.501 -11.520   1.814  0.00  0.00    +0.005 C 
ENDBRANCH   1  13
TORSDOF 2
ENDMDL
MODEL 7
REMARK VINA RESULT:      -2.4      6.540      7.424
REMARK  Name = *****
REMARK                            x       y       z     vdW  Elec       q    Type
REMARK                         _______ _______ _______ _____ _____    ______ ____
ROOT
ATOM      1  C   LIG    1       23.629 -20.003   4.716  0.00  0.00    +0.104 C 
ATOM      2  C   LIG    1       24.970 -20.257   4.025  0.00  0.00    +0.152 C 
ATOM      3  O   LIG    1       25.108 -20.062   2.812  0.00  0.00    -0.296 OA
ATOM      4  C   LIG    1       26.162 -20.715   4.841  0.00  0.00    +0.070 C 
ATOM      5  C   LIG    1       27.001 -19.524   5.293  0.00  0.00    +0.017 C 
ATOM      6  C   LIG    1       25.693 -21.571   6.000  0.00  0.00    +0.115 C 
ATOM      7  N   LIG    1       24.673 -20.911   6.770  0.00  0.00    -0.314 N 
ATOM      8  H   LIG    1       24.578 -21.103   7.763  0.00  0.00    +0.149 HD
ATOM      9  C   LIG    1       23.630 -20.222   6.225  0.00  0.00    +0.226 C 
ATOM     10  O   LIG    1       22.721 -19.841   6.960  0.00  0.00    -0.275 OA
ENDROOT
BRANCH   1  12
ATOM     11  C   LIG    1       21.690 -18.365   4.142  0.00  0.00    +0.005 C 
ATOM     12  C   LIG    1       23.179 -18.541   4.424  0.00  0.00    +0.020 C 
ENDBRANCH   1  12
BRANCH   1  13
ATOM     13  C   LIG    1       22.558 -20.941   4.085  0.00  0.00    +0.020 C 
ATOM     14  C   LIG    1       21.570 -21.572   5.059  0.00  0.00    +0.005 C 
ENDBRANCH   1  13
TORSDOF 2
ENDMDL
MODEL 8
REMARK VINA RESULT:      -2.1      1.847      3.538
REMARK  Name = *****
REMARK                            x       y       z     vdW  Elec       q    Type
REMARK                         _______ _______ _______ _____ _____    ______ ____
ROOT
ATOM      1  C   LIG    1       25.560 -14.181   3.800  0.00  0.00    +0.104 C 
ATOM      2  C   LIG    1       25.954 -12.860   3.139  0.00  0.00    +0.152 C 
ATOM      3  O   LIG    1       27.059 -12.722   2.600  0.00  0.00    -0.296 OA
ATOM      4  C   LIG    1       24.966 -11.711   3.104  0.00  0.00    +0.070 C 
ATOM      5  C   LIG    1       24.157 -11.731   1.812  0.00  0.00    +0.017 C 
ATOM      6  C   LIG    1       24.091 -11.748   4.341  0.00  0.00    +0.115 C 
ATOM      7  N   LIG    1       23.485 -13.039   4.525  0.00  0.00    -0.314 N 
ATOM      8  H   LIG    1       22.582 -13.119   4.983  0.00  0.00    +0.149 HD
ATOM      9  C   LIG    1       24.143 -14.223   4.363  0.00  0.00    +0.226 C 
ATOM     10  O   LIG    1       23.587 -15.264   4.709  0.00  0.00    -0.275 OA
ENDROOT
BRANCH   1  12
ATOM     11  C   LIG    1       26.336 -16.616   3.312  0.00  0.00    +0.005 C 
ATOM     12  C   LIG    1       25.720 -15.333   2.765  0.00  0.00    +0.020 C 
ENDBRANCH   1  12
BRANCH   1  13
ATOM     13  C   LIG    1       26.557 -14.474   4.961  0.00  0.00    +0.020 C 
ATOM     14  C   LIG    1       26.968 -13.273   5.804  0.00  0.00    +0.005 C 
ENDBRANCH   1  13
TORSDOF 2
ENDMDL
