MODEL 1
REMARK VINA RESULT:      -9.3      0.000      0.000
REMARK  Name = *****
REMARK                            x       y       z     vdW  Elec       q    Type
REMARK                         _______ _______ _______ _____ _____    ______ ____
ROOT
ATOM      1  N   LIG    1       26.537 -22.422   6.622  0.00  0.00    -0.199 N 
ATOM      2  H   LIG    1       27.371 -22.987   6.571  0.00  0.00    +0.175 HD
ENDROOT
BRANCH   1   3
ATOM      3  C   LIG    1       25.333 -23.084   6.398  0.00  0.00    +0.141 A 
ATOM      4  N   LIG    1       24.095 -22.620   5.952  0.00  0.00    -0.217 N 
ATOM      5  N   LIG    1       23.147 -23.587   6.107  0.00  0.00    -0.173 NA
ATOM      6  C   LIG    1       23.813 -24.667   6.508  0.00  0.00    +0.137 A 
ATOM      7  C   LIG    1       25.179 -24.419   6.693  0.00  0.00    +0.066 A 
BRANCH   4   8
ATOM      8  C   LIG    1       23.756 -21.396   5.311  0.00  0.00    +0.068 A 
ATOM      9  C   LIG    1       24.472 -20.997   4.169  0.00  0.00    +0.028 A 
ATOM     10  C   LIG    1       24.151 -19.804   3.516  0.00  0.00    +0.002 A 
ATOM     11  C   LIG    1       23.129 -18.994   4.005  0.00  0.00    +0.000 A 
ATOM     12  C   LIG    1       22.441 -19.364   5.160  0.00  0.00    +0.002 A 
ATOM     13  C   LIG    1       22.756 -20.557   5.817  0.00  0.00    +0.028 A 
ENDBRANCH   4   8
ENDBRANCH   1   3
BRANCH   1  14
ATOM     14  S   LIG    1       26.618 -21.303   7.829  0.00  0.00    +0.073 S 
ATOM     15  O   LIG    1       25.734 -20.188   7.602  0.00  0.00    -0.150 OA
ATOM     16  O   LIG    1       26.620 -22.006   9.098  0.00  0.00    -0.150 OA
BRANCH  14  20
ATOM     17  C   LIG    1       30.875 -19.675   7.334  0.00  0.00    +0.025 A 
ATOM     18  C   LIG    1       29.819 -19.120   6.603  0.00  0.00    +0.024 A 
ATOM     19  C   LIG    1       28.523 -19.634   6.710  0.00  0.00    +0.030 A 
ATOM     20  C   LIG    1       28.279 -20.689   7.592  0.00  0.00    +0.109 A 
ATOM     21  C   LIG    1       29.314 -21.232   8.356  0.00  0.00    +0.030 A 
ATOM     22  C   LIG    1       30.601 -20.704   8.239  0.00  0.00    +0.024 A 
BRANCH  17  23
ATOM     23  N   LIG    1       32.126 -19.053   7.339  0.00  0.00    -0.358 N 
ATOM     24  H   LIG    1       32.830 -19.530   7.897  0.00  0.00    +0.142 HD
ATOM     25  H   LIG    1       32.102 -18.057   7.541  0.00  0.00    +0.142 HD
ENDBRANCH  17  23
ENDBRANCH  14  20
ENDBRANCH   1  14
TORSDOF 5
ENDMDL
MODEL 2
REMARK VINA RESULT:      -8.4      1.479      3.154
REMARK  Name = *****
REMARK                            x       y       z     vdW  Elec       q    Type
REMARK                         _______ _______ _______ _____ _____    ______ ____
ROOT
ATOM      1  N   LIG    1       26.913 -20.544   5.220  0.00  0.00    -0.199 N 
ATOM      2  H   LIG    1       27.512 -21.120   4.648  0.00  0.00    +0.175 HD
ENDROOT
BRANCH   1   3
ATOM      3  C   LIG    1       25.651 -20.270   4.703  0.00  0.00    +0.141 A 
ATOM      4  N   LIG    1       24.495 -21.049   4.630  0.00  0.00    -0.217 N 
ATOM      5  N   LIG    1       23.570 -20.443   3.833  0.00  0.00    -0.173 NA
ATOM      6  C   LIG    1       24.090 -19.255   3.535  0.00  0.00    +0.137 A 
ATOM      7  C   LIG    1       25.376 -19.084   4.061  0.00  0.00    +0.066 A 
BRANCH   4   8
ATOM      8  C   LIG    1       24.158 -22.248   5.317  0.00  0.00    +0.068 A 
ATOM      9  C   LIG    1       24.851 -23.432   5.013  0.00  0.00    +0.028 A 
ATOM     10  C   LIG    1       24.545 -24.620   5.682  0.00  0.00    +0.002 A 
ATOM     11  C   LIG    1       23.536 -24.641   6.642  0.00  0.00    +0.000 A 
ATOM     12  C   LIG    1       22.818 -23.479   6.920  0.00  0.00    +0.002 A 
ATOM     13  C   LIG    1       23.120 -22.286   6.257  0.00  0.00    +0.028 A 
ENDBRANCH   4   8
ENDBRANCH   1   3
BRANCH   1  14
ATOM     14  S   LIG    1       27.057 -20.899   6.823  0.00  0.00    +0.073 S 
ATOM     15  O   LIG    1       26.123 -20.160   7.634  0.00  0.00    -0.150 OA
ATOM     16  O   LIG    1       27.185 -22.338   6.959  0.00  0.00    -0.150 OA
BRANCH  14  20
ATOM     17  C   LIG    1       31.164 -19.116   7.809  0.00  0.00    +0.025 A 
ATOM     18  C   LIG    1       30.302 -18.455   6.928  0.00  0.00    +0.024 A 
ATOM     19  C   LIG    1       29.065 -19.007   6.584  0.00  0.00    +0.030 A 
ATOM     20  C   LIG    1       28.673 -20.216   7.163  0.00  0.00    +0.109 A 
ATOM     21  C   LIG    1       29.505 -20.873   8.072  0.00  0.00    +0.030 A 
ATOM     22  C   LIG    1       30.736 -20.305   8.407  0.00  0.00    +0.024 A 
BRANCH  17  23
ATOM     23  N   LIG    1       32.322 -18.480   8.267  0.00  0.00    -0.358 N 
ATOM     24  H   LIG    1       32.154 -17.599   8.747  0.00  0.00    +0.142 HD
ATOM     25  H   LIG    1       33.058 -18.393   7.571  0.00  0.00    +0.142 HD
ENDBRANCH  17  23
ENDBRANCH  14  20
ENDBRANCH   1  14
TORSDOF 5
ENDMDL
MODEL 3
REMARK VINA RESULT:      -8.3      3.339      5.900
REMARK  Name = *****
REMARK                            x       y       z     vdW  Elec       q    Type
REMARK                         _______ _______ _______ _____ _____    ______ ____
ROOT
ATOM      1  N   LIG    1       25.934 -23.491   6.247  0.00  0.00    -0.199 N 
ATOM      2  H   LIG    1       26.641 -23.333   5.546  0.00  0.00    +0.175 HD
ENDROOT
BRANCH   1   3
ATOM      3  C   LIG    1       25.736 -22.461   7.162  0.00  0.00    +0.141 A 
ATOM      4  N   LIG    1       25.310 -21.143   6.988  0.00  0.00    -0.217 N 
ATOM      5  N   LIG    1       25.487 -20.437   8.140  0.00  0.00    -0.173 NA
ATOM      6  C   LIG    1       25.883 -21.332   9.042  0.00  0.00    +0.137 A 
ATOM      7  C   LIG    1       26.041 -22.612   8.495  0.00  0.00    +0.066 A 
BRANCH   4   8
ATOM      8  C   LIG    1       24.668 -20.531   5.876  0.00  0.00    +0.068 A 
ATOM      9  C   LIG    1       23.282 -20.306   5.921  0.00  0.00    +0.028 A 
ATOM     10  C   LIG    1       22.630 -19.697   4.846  0.00  0.00    +0.002 A 
ATOM     11  C   LIG    1       23.350 -19.325   3.714  0.00  0.00    +0.000 A 
ATOM     12  C   LIG    1       24.719 -19.580   3.646  0.00  0.00    +0.002 A 
ATOM     13  C   LIG    1       25.378 -20.188   4.719  0.00  0.00    +0.028 A 
ENDBRANCH   4   8
ENDBRANCH   1   3
BRANCH   1  14
ATOM     14  S   LIG    1       24.620 -24.279   5.639  0.00  0.00    +0.073 S 
ATOM     15  O   LIG    1       23.399 -23.901   6.304  0.00  0.00    -0.150 OA
ATOM     16  O   LIG    1       24.715 -24.265   4.191  0.00  0.00    -0.150 OA
BRANCH  14  20
ATOM     17  C   LIG    1       25.434 -28.576   7.015  0.00  0.00    +0.025 A 
ATOM     18  C   LIG    1       26.169 -27.513   7.551  0.00  0.00    +0.024 A 
ATOM     19  C   LIG    1       25.963 -26.203   7.110  0.00  0.00    +0.030 A 
ATOM     20  C   LIG    1       24.979 -25.953   6.150  0.00  0.00    +0.109 A 
ATOM     21  C   LIG    1       24.211 -26.996   5.629  0.00  0.00    +0.030 A 
ATOM     22  C   LIG    1       24.428 -28.298   6.084  0.00  0.00    +0.024 A 
BRANCH  17  23
ATOM     23  N   LIG    1       25.537 -29.852   7.575  0.00  0.00    -0.358 N 
ATOM     24  H   LIG    1       24.654 -30.353   7.641  0.00  0.00    +0.142 HD
ATOM     25  H   LIG    1       26.054 -29.889   8.449  0.00  0.00    +0.142 HD
ENDBRANCH  17  23
ENDBRANCH  14  20
ENDBRANCH   1  14
TORSDOF 5
ENDMDL
MODEL 4
REMARK VINA RESULT:      -8.3      2.120      2.746
REMARK  Name = *****
REMARK                            x       y       z     vdW  Elec       q    Type
REMARK                         _______ _______ _______ _____ _____    ______ ____
ROOT
ATOM      1  N   LIG    1       27.296 -20.086   7.413  0.00  0.00    -0.199 N 
ATOM      2  H   LIG    1       26.840 -19.188   7.469  0.00  0.00    +0.175 HD
ENDROOT
BRANCH   1   3
ATOM      3  C   LIG    1       26.459 -21.195   7.332  0.00  0.00    +0.141 A 
ATOM      4  N   LIG    1       25.208 -21.364   6.739  0.00  0.00    -0.217 N 
ATOM      5  N   LIG    1       24.669 -22.560   7.112  0.00  0.00    -0.173 NA
ATOM      6  C   LIG    1       25.625 -23.173   7.806  0.00  0.00    +0.137 A 
ATOM      7  C   LIG    1       26.768 -22.379   7.963  0.00  0.00    +0.066 A 
BRANCH   4   8
ATOM      8  C   LIG    1       24.531 -20.552   5.787  0.00  0.00    +0.068 A 
ATOM      9  C   LIG    1       23.192 -20.194   6.016  0.00  0.00    +0.028 A 
ATOM     10  C   LIG    1       22.510 -19.388   5.101  0.00  0.00    +0.002 A 
ATOM     11  C   LIG    1       23.150 -18.950   3.945  0.00  0.00    +0.000 A 
ATOM     12  C   LIG    1       24.466 -19.334   3.691  0.00  0.00    +0.002 A 
ATOM     13  C   LIG    1       25.155 -20.138   4.603  0.00  0.00    +0.028 A 
ENDBRANCH   4   8
ENDBRANCH   1   3
BRANCH   1  14
ATOM     14  S   LIG    1       28.647 -20.037   6.469  0.00  0.00    +0.073 S 
ATOM     15  O   LIG    1       29.189 -21.349   6.221  0.00  0.00    -0.150 OA
ATOM     16  O   LIG    1       28.404 -19.113   5.378  0.00  0.00    -0.150 OA
BRANCH  14  20
ATOM     17  C   LIG    1       31.527 -17.830   9.271  0.00  0.00    +0.025 A 
ATOM     18  C   LIG    1       32.012 -18.477   8.129  0.00  0.00    +0.024 A 
ATOM     19  C   LIG    1       31.153 -19.190   7.289  0.00  0.00    +0.030 A 
ATOM     20  C   LIG    1       29.787 -19.220   7.577  0.00  0.00    +0.109 A 
ATOM     21  C   LIG    1       29.279 -18.551   8.693  0.00  0.00    +0.030 A 
ATOM     22  C   LIG    1       30.151 -17.840   9.519  0.00  0.00    +0.024 A 
BRANCH  17  23
ATOM     23  N   LIG    1       32.365 -16.991  10.011  0.00  0.00    -0.358 N 
ATOM     24  H   LIG    1       32.003 -16.738  10.927  0.00  0.00    +0.142 HD
ATOM     25  H   LIG    1       32.701 -16.177   9.504  0.00  0.00    +0.142 HD
ENDBRANCH  17  23
ENDBRANCH  14  20
ENDBRANCH   1  14
TORSDOF 5
ENDMDL
MODEL 5
REMARK VINA RESULT:      -8.2      2.803      6.301
REMARK  Name = *****
REMARK                            x       y       z     vdW  Elec       q    Type
REMARK                         _______ _______ _______ _____ _____    ______ ____
ROOT
ATOM      1  N   LIG    1       24.991 -23.242   5.061  0.00  0.00    -0.199 N 
ATOM      2  H   LIG    1       24.827 -23.852   4.275  0.00  0.00    +0.175 HD
ENDROOT
BRANCH   1   3
ATOM      3  C   LIG    1       24.572 -21.923   4.912  0.00  0.00    +0.141 A 
ATOM      4  N   LIG    1       25.027 -20.740   5.494  0.00  0.00    -0.217 N 
ATOM      5  N   LIG    1       24.163 -19.720   5.224  0.00  0.00    -0.173 NA
ATOM      6  C   LIG    1       23.271 -20.233   4.381  0.00  0.00    +0.137 A 
ATOM      7  C   LIG    1       23.482 -21.596   4.137  0.00  0.00    +0.066 A 
BRANCH   4   8
ATOM      8  C   LIG    1       26.240 -20.471   6.187  0.00  0.00    +0.068 A 
ATOM      9  C   LIG    1       26.258 -20.534   7.591  0.00  0.00    +0.028 A 
ATOM     10  C   LIG    1       27.440 -20.285   8.293  0.00  0.00    +0.002 A 
ATOM     11  C   LIG    1       28.604 -19.955   7.605  0.00  0.00    +0.000 A 
ATOM     12  C   LIG    1       28.585 -19.852   6.215  0.00  0.00    +0.002 A 
ATOM     13  C   LIG    1       27.407 -20.102   5.506  0.00  0.00    +0.028 A 
ENDBRANCH   4   8
ENDBRANCH   1   3
BRANCH   1  14
ATOM     14  S   LIG    1       24.734 -24.001   6.501  0.00  0.00    +0.073 S 
ATOM     15  O   LIG    1       25.733 -23.666   7.483  0.00  0.00    -0.150 OA
ATOM     16  O   LIG    1       23.320 -23.909   6.815  0.00  0.00    -0.150 OA
BRANCH  14  20
ATOM     17  C   LIG    1       25.511 -28.387   5.417  0.00  0.00    +0.025 A 
ATOM     18  C   LIG    1       26.510 -27.427   5.228  0.00  0.00    +0.024 A 
ATOM     19  C   LIG    1       26.274 -26.079   5.513  0.00  0.00    +0.030 A 
ATOM     20  C   LIG    1       25.034 -25.699   6.031  0.00  0.00    +0.109 A 
ATOM     21  C   LIG    1       24.036 -26.648   6.260  0.00  0.00    +0.030 A 
ATOM     22  C   LIG    1       24.291 -27.991   5.973  0.00  0.00    +0.024 A 
BRANCH  17  23
ATOM     23  N   LIG    1       25.809 -29.746   5.281  0.00  0.00    -0.358 N 
ATOM     24  H   LIG    1       26.144 -30.012   4.358  0.00  0.00    +0.142 HD
ATOM     25  H   LIG    1       25.079 -30.373   5.608  0.00  0.00    +0.142 HD
ENDBRANCH  17  23
ENDBRANCH  14  20
ENDBRANCH   1  14
TORSDOF 5
ENDMDL
MODEL 6
REMARK VINA RESULT:      -8.0      4.865      7.904
REMARK  Name = *****
REMARK                            x       y       z     vdW  Elec       q    Type
REMARK                         _______ _______ _______ _____ _____    ______ ____
ROOT
ATOM      1  N   LIG    1       24.469 -27.299   6.419  0.00  0.00    -0.199 N 
ATOM      2  H   LIG    1       23.523 -27.041   6.182  0.00  0.00    +0.175 HD
ENDROOT
BRANCH   1   3
ATOM      3  C   LIG    1       24.753 -28.661   6.413  0.00  0.00    +0.141 A 
ATOM      4  N   LIG    1       25.303 -29.492   7.390  0.00  0.00    -0.217 N 
ATOM      5  N   LIG    1       25.608 -30.708   6.855  0.00  0.00    -0.173 NA
ATOM      6  C   LIG    1       25.130 -30.673   5.614  0.00  0.00    +0.137 A 
ATOM      7  C   LIG    1       24.574 -29.431   5.286  0.00  0.00    +0.066 A 
BRANCH   4   8
ATOM      8  C   LIG    1       25.469 -29.273   8.786  0.00  0.00    +0.068 A 
ATOM      9  C   LIG    1       26.526 -28.463   9.234  0.00  0.00    +0.028 A 
ATOM     10  C   LIG    1       26.703 -28.225  10.599  0.00  0.00    +0.002 A 
ATOM     11  C   LIG    1       25.842 -28.806  11.527  0.00  0.00    +0.000 A 
ATOM     12  C   LIG    1       24.815 -29.642  11.092  0.00  0.00    +0.002 A 
ATOM     13  C   LIG    1       24.630 -29.883   9.727  0.00  0.00    +0.028 A 
ENDBRANCH   4   8
ENDBRANCH   1   3
BRANCH   1  14
ATOM     14  S   LIG    1       25.574 -26.252   5.786  0.00  0.00    +0.073 S 
ATOM     15  O   LIG    1       26.894 -26.458   6.326  0.00  0.00    -0.150 OA
ATOM     16  O   LIG    1       25.359 -26.178   4.353  0.00  0.00    -0.150 OA
BRANCH  14  20
ATOM     17  C   LIG    1       24.029 -22.253   7.410  0.00  0.00    +0.025 A 
ATOM     18  C   LIG    1       25.404 -22.510   7.362  0.00  0.00    +0.024 A 
ATOM     19  C   LIG    1       25.889 -23.741   6.910  0.00  0.00    +0.030 A 
ATOM     20  C   LIG    1       24.985 -24.708   6.464  0.00  0.00    +0.109 A 
ATOM     21  C   LIG    1       23.611 -24.456   6.472  0.00  0.00    +0.030 A 
ATOM     22  C   LIG    1       23.145 -23.220   6.923  0.00  0.00    +0.024 A 
BRANCH  17  23
ATOM     23  N   LIG    1       23.567 -20.969   7.711  0.00  0.00    -0.358 N 
ATOM     24  H   LIG    1       23.850 -20.254   7.045  0.00  0.00    +0.142 HD
ATOM     25  H   LIG    1       23.734 -20.674   8.669  0.00  0.00    +0.142 HD
ENDBRANCH  17  23
ENDBRANCH  14  20
ENDBRANCH   1  14
TORSDOF 5
ENDMDL
MODEL 7
REMARK VINA RESULT:      -7.9      4.978      8.044
REMARK  Name = *****
REMARK                            x       y       z     vdW  Elec       q    Type
REMARK                         _______ _______ _______ _____ _____    ______ ____
ROOT
ATOM      1  N   LIG    1       24.512 -27.493   6.521  0.00  0.00    -0.199 N 
ATOM      2  H   LIG    1       23.573 -27.241   6.254  0.00  0.00    +0.175 HD
ENDROOT
BRANCH   1   3
ATOM      3  C   LIG    1       24.783 -28.856   6.599  0.00  0.00    +0.141 A 
ATOM      4  N   LIG    1       25.349 -29.627   7.614  0.00  0.00    -0.217 N 
ATOM      5  N   LIG    1       25.628 -30.879   7.154  0.00  0.00    -0.173 NA
ATOM      6  C   LIG    1       25.119 -30.921   5.925  0.00  0.00    +0.137 A 
ATOM      7  C   LIG    1       24.567 -29.696   5.530  0.00  0.00    +0.066 A 
BRANCH   4   8
ATOM      8  C   LIG    1       25.554 -29.318   8.988  0.00  0.00    +0.068 A 
ATOM      9  C   LIG    1       24.672 -29.842   9.949  0.00  0.00    +0.028 A 
ATOM     10  C   LIG    1       24.859 -29.562  11.305  0.00  0.00    +0.002 A 
ATOM     11  C   LIG    1       25.911 -28.745  11.710  0.00  0.00    +0.000 A 
ATOM     12  C   LIG    1       26.765 -28.190  10.760  0.00  0.00    +0.002 A 
ATOM     13  C   LIG    1       26.586 -28.467   9.401  0.00  0.00    +0.028 A 
ENDBRANCH   4   8
ENDBRANCH   1   3
BRANCH   1  14
ATOM     14  S   LIG    1       25.638 -26.495   5.847  0.00  0.00    +0.073 S 
ATOM     15  O   LIG    1       26.935 -26.644   6.456  0.00  0.00    -0.150 OA
ATOM     16  O   LIG    1       25.480 -26.543   4.406  0.00  0.00    -0.150 OA
BRANCH  14  20
ATOM     17  C   LIG    1       24.058 -22.445   7.304  0.00  0.00    +0.025 A 
ATOM     18  C   LIG    1       23.174 -23.409   6.808  0.00  0.00    +0.024 A 
ATOM     19  C   LIG    1       23.644 -24.631   6.320  0.00  0.00    +0.030 A 
ATOM     20  C   LIG    1       25.013 -24.904   6.368  0.00  0.00    +0.109 A 
ATOM     21  C   LIG    1       25.907 -23.968   6.893  0.00  0.00    +0.030 A 
ATOM     22  C   LIG    1       25.419 -22.753   7.380  0.00  0.00    +0.024 A 
BRANCH  17  23
ATOM     23  N   LIG    1       23.564 -21.299   7.933  0.00  0.00    -0.358 N 
ATOM     24  H   LIG    1       23.641 -20.450   7.378  0.00  0.00    +0.142 HD
ATOM     25  H   LIG    1       23.904 -21.158   8.881  0.00  0.00    +0.142 HD
ENDBRANCH  17  23
ENDBRANCH  14  20
ENDBRANCH   1  14
TORSDOF 5
ENDMDL
MODEL 8
REMARK VINA RESULT:      -7.8      2.028      3.952
REMARK  Name = *****
REMARK                            x       y       z     vdW  Elec       q    Type
REMARK                         _______ _______ _______ _____ _____    ______ ____
ROOT
ATOM      1  N   LIG    1       25.915 -22.247   6.177  0.00  0.00    -0.199 N 
ATOM      2  H   LIG    1       26.752 -22.698   6.512  0.00  0.00    +0.175 HD
ENDROOT
BRANCH   1   3
ATOM      3  C   LIG    1       24.712 -22.870   6.495  0.00  0.00    +0.141 A 
ATOM      4  N   LIG    1       24.275 -24.182   6.307  0.00  0.00    -0.217 N 
ATOM      5  N   LIG    1       22.940 -24.274   6.567  0.00  0.00    -0.173 NA
ATOM      6  C   LIG    1       22.592 -23.080   7.038  0.00  0.00    +0.137 A 
ATOM      7  C   LIG    1       23.656 -22.168   7.031  0.00  0.00    +0.066 A 
BRANCH   4   8
ATOM      8  C   LIG    1       25.018 -25.356   6.004  0.00  0.00    +0.068 A 
ATOM      9  C   LIG    1       25.145 -25.763   4.665  0.00  0.00    +0.028 A 
ATOM     10  C   LIG    1       25.879 -26.908   4.341  0.00  0.00    +0.002 A 
ATOM     11  C   LIG    1       26.474 -27.663   5.348  0.00  0.00    +0.000 A 
ATOM     12  C   LIG    1       26.320 -27.287   6.682  0.00  0.00    +0.002 A 
ATOM     13  C   LIG    1       25.589 -26.142   7.013  0.00  0.00    +0.028 A 
ENDBRANCH   4   8
ENDBRANCH   1   3
BRANCH   1  14
ATOM     14  S   LIG    1       26.012 -20.604   6.280  0.00  0.00    +0.073 S 
ATOM     15  O   LIG    1       25.774 -19.962   5.013  0.00  0.00    -0.150 OA
ATOM     16  O   LIG    1       25.304 -20.183   7.474  0.00  0.00    -0.150 OA
BRANCH  14  20
ATOM     17  C   LIG    1       30.448 -20.036   7.290  0.00  0.00    +0.025 A 
ATOM     18  C   LIG    1       29.843 -19.249   6.304  0.00  0.00    +0.024 A 
ATOM     19  C   LIG    1       28.504 -19.440   5.954  0.00  0.00    +0.030 A 
ATOM     20  C   LIG    1       27.753 -20.404   6.631  0.00  0.00    +0.109 A 
ATOM     21  C   LIG    1       28.329 -21.174   7.643  0.00  0.00    +0.030 A 
ATOM     22  C   LIG    1       29.668 -20.968   7.982  0.00  0.00    +0.024 A 
BRANCH  17  23
ATOM     23  N   LIG    1       31.735 -19.729   7.740  0.00  0.00    -0.358 N 
ATOM     24  H   LIG    1       31.776 -19.399   8.701  0.00  0.00    +0.142 HD
ATOM     25  H   LIG    1       32.269 -19.129   7.116  0.00  0.00    +0.142 HD
ENDBRANCH  17  23
ENDBRANCH  14  20
ENDBRANCH   1  14
TORSDOF 5
ENDMDL
MODEL 9
REMARK VINA RESULT:      -7.6      2.334      5.974
REMARK  Name = *****
REMARK                            x       y       z     vdW  Elec       q    Type
REMARK                         _______ _______ _______ _____ _____    ______ ____
ROOT
ATOM      1  N   LIG    1       24.791 -20.911   6.860  0.00  0.00    -0.199 N 
ATOM      2  H   LIG    1       25.511 -21.201   7.503  0.00  0.00    +0.175 HD
ENDROOT
BRANCH   1   3
ATOM      3  C   LIG    1       25.223 -20.466   5.614  0.00  0.00    +0.141 A 
ATOM      4  N   LIG    1       26.438 -19.919   5.202  0.00  0.00    -0.217 N 
ATOM      5  N   LIG    1       26.324 -19.420   3.938  0.00  0.00    -0.173 NA
ATOM      6  C   LIG    1       25.109 -19.776   3.531  0.00  0.00    +0.137 A 
ATOM      7  C   LIG    1       24.382 -20.443   4.525  0.00  0.00    +0.066 A 
BRANCH   4   8
ATOM      8  C   LIG    1       27.705 -19.915   5.850  0.00  0.00    +0.068 A 
ATOM      9  C   LIG    1       27.983 -20.892   6.821  0.00  0.00    +0.028 A 
ATOM     10  C   LIG    1       29.223 -20.915   7.464  0.00  0.00    +0.002 A 
ATOM     11  C   LIG    1       30.186 -19.957   7.158  0.00  0.00    +0.000 A 
ATOM     12  C   LIG    1       29.903 -18.962   6.224  0.00  0.00    +0.002 A 
ATOM     13  C   LIG    1       28.665 -18.933   5.575  0.00  0.00    +0.028 A 
ENDBRANCH   4   8
ENDBRANCH   1   3
BRANCH   1  14
ATOM     14  S   LIG    1       23.459 -21.878   6.942  0.00  0.00    +0.073 S 
ATOM     15  O   LIG    1       22.839 -21.849   8.242  0.00  0.00    -0.150 OA
ATOM     16  O   LIG    1       22.675 -21.672   5.738  0.00  0.00    -0.150 OA
BRANCH  14  20
ATOM     17  C   LIG    1       25.461 -25.969   6.418  0.00  0.00    +0.025 A 
ATOM     18  C   LIG    1       24.092 -25.819   6.175  0.00  0.00    +0.024 A 
ATOM     19  C   LIG    1       23.458 -24.589   6.372  0.00  0.00    +0.030 A 
ATOM     20  C   LIG    1       24.217 -23.488   6.779  0.00  0.00    +0.109 A 
ATOM     21  C   LIG    1       25.591 -23.610   6.991  0.00  0.00    +0.030 A 
ATOM     22  C   LIG    1       26.208 -24.846   6.786  0.00  0.00    +0.024 A 
BRANCH  17  23
ATOM     23  N   LIG    1       26.109 -27.156   6.066  0.00  0.00    -0.358 N 
ATOM     24  H   LIG    1       25.534 -27.990   6.152  0.00  0.00    +0.142 HD
ATOM     25  H   LIG    1       27.020 -27.285   6.500  0.00  0.00    +0.142 HD
ENDBRANCH  17  23
ENDBRANCH  14  20
ENDBRANCH   1  14
TORSDOF 5
ENDMDL
