MODEL 1
REMARK VINA RESULT:      -4.0      0.000      0.000
REMARK  Name = *****
REMARK                            x       y       z     vdW  Elec       q    Type
REMARK                         _______ _______ _______ _____ _____    ______ ____
ROOT
ATOM      1  C   LIG    1       27.057 -15.559   4.240  0.00  0.00    -0.017 C 
ATOM      2  C   LIG    1       25.818 -15.507   3.700  0.00  0.00    -0.014 C 
ATOM      3  C   LIG    1       25.008 -16.755   3.688  0.00  0.00    -0.014 A 
ATOM      4  C   LIG    1       23.705 -16.826   4.225  0.00  0.00    -0.039 A 
ATOM      5  C   LIG    1       23.001 -18.046   4.128  0.00  0.00    +0.004 A 
ATOM      6  C   LIG    1       23.565 -19.169   3.523  0.00  0.00    +0.000 A 
ATOM      7  C   LIG    1       24.845 -19.095   2.991  0.00  0.00    +0.001 A 
ATOM      8  C   LIG    1       22.945 -15.677   4.868  0.00  0.00    +0.040 C 
ATOM      9  C   LIG    1       23.687 -14.394   5.264  0.00  0.00    +0.040 C 
ATOM     10  C   LIG    1       24.216 -13.644   4.067  0.00  0.00    -0.039 A 
ATOM     11  C   LIG    1       23.689 -12.398   3.705  0.00  0.00    +0.004 A 
ATOM     12  C   LIG    1       24.180 -11.723   2.586  0.00  0.00    +0.000 A 
ATOM     13  C   LIG    1       25.191 -12.289   1.813  0.00  0.00    +0.001 A 
ATOM     14  C   LIG    1       25.718 -13.532   2.162  0.00  0.00    +0.009 A 
ATOM     15  C   LIG    1       25.556 -17.898   3.071  0.00  0.00    +0.009 A 
ATOM     16  C   LIG    1       25.249 -14.204   3.297  0.00  0.00    -0.014 A 
ENDROOT
BRANCH   1  17
ATOM     17  C   LIG    1       28.023 -14.419   4.459  0.00  0.00    +0.043 C 
BRANCH  17  18
ATOM     18  C   LIG    1       27.574 -13.440   5.556  0.00  0.00    +0.085 C 
BRANCH  18  20
ATOM     19  C   LIG    1       29.108 -12.082   4.291  0.00  0.00    +0.101 C 
ATOM     20  N   LIG    1       28.349 -12.194   5.529  0.00  0.00    -0.319 NA
ATOM     21  H   LIG    1       27.704 -11.407   5.595  0.00  0.00    +0.122 HD
ENDBRANCH  18  20
ENDBRANCH  17  18
ENDBRANCH   1  17
TORSDOF 3
ENDMDL
MODEL 2
REMARK VINA RESULT:      -1.7      1.509      3.789
REMARK  Name = *****
REMARK                            x       y       z     vdW  Elec       q    Type
REMARK                         _______ _______ _______ _____ _____    ______ ____
ROOT
ATOM      1  C   LIG    1       23.629 -13.950   3.060  0.00  0.00    -0.017 C 
ATOM      2  C   LIG    1       24.320 -14.807   3.846  0.00  0.00    -0.014 C 
ATOM      3  C   LIG    1       23.761 -16.171   4.051  0.00  0.00    -0.014 A 
ATOM      4  C   LIG    1       24.502 -17.345   3.801  0.00  0.00    -0.039 A 
ATOM      5  C   LIG    1       23.897 -18.593   4.067  0.00  0.00    +0.004 A 
ATOM      6  C   LIG    1       22.596 -18.684   4.563  0.00  0.00    +0.000 A 
ATOM      7  C   LIG    1       21.873 -17.527   4.813  0.00  0.00    +0.001 A 
ATOM      8  C   LIG    1       25.939 -17.402   3.308  0.00  0.00    +0.040 C 
ATOM      9  C   LIG    1       26.605 -16.143   2.741  0.00  0.00    +0.040 C 
ATOM     10  C   LIG    1       26.789 -15.070   3.785  0.00  0.00    -0.039 A 
ATOM     11  C   LIG    1       28.068 -14.703   4.225  0.00  0.00    +0.004 A 
ATOM     12  C   LIG    1       28.221 -13.719   5.203  0.00  0.00    +0.000 A 
ATOM     13  C   LIG    1       27.103 -13.102   5.758  0.00  0.00    +0.001 A 
ATOM     14  C   LIG    1       25.825 -13.465   5.331  0.00  0.00    +0.009 A 
ATOM     15  C   LIG    1       22.452 -16.283   4.563  0.00  0.00    +0.009 A 
ATOM     16  C   LIG    1       25.664 -14.432   4.334  0.00  0.00    -0.014 A 
ENDROOT
BRANCH   1  17
ATOM     17  C   LIG    1       24.033 -12.562   2.621  0.00  0.00    +0.043 C 
BRANCH  17  18
ATOM     18  C   LIG    1       23.437 -11.447   3.496  0.00  0.00    +0.085 C 
BRANCH  18  20
ATOM     19  C   LIG    1       22.942 -11.447   5.853  0.00  0.00    +0.101 C 
ATOM     20  N   LIG    1       24.000 -11.454   4.852  0.00  0.00    -0.319 NA
ATOM     21  H   LIG    1       24.560 -12.299   4.968  0.00  0.00    +0.122 HD
ENDBRANCH  18  20
ENDBRANCH  17  18
ENDBRANCH   1  17
TORSDOF 3
ENDMDL
