MODEL 1
REMARK VINA RESULT:      -8.3      0.000      0.000
REMARK  Name = *****
REMARK                            x       y       z     vdW  Elec       q    Type
REMARK                         _______ _______ _______ _____ _____    ______ ____
ROOT
ATOM      1  P   LIG    1       25.271 -27.311   6.476  0.00  0.00    +0.216 P 
ATOM      2  O   LIG    1       26.050 -27.604   5.227  0.00  0.00    -0.290 OA
ENDROOT
BRANCH   1   3
ATOM      3  C   LIG    1       24.507 -25.704   6.488  0.00  0.00    +0.193 C 
BRANCH   3   4
ATOM      4  C   LIG    1       25.437 -24.505   6.442  0.00  0.00    +0.226 C 
ATOM      5  N   LIG    1       24.904 -23.275   6.753  0.00  0.00    -0.287 N 
ATOM      6  C   LIG    1       25.690 -22.064   6.985  0.00  0.00    +0.185 C 
ATOM      7  C   LIG    1       24.683 -20.910   6.782  0.00  0.00    +0.039 C 
ATOM      8  C   LIG    1       23.311 -21.563   6.500  0.00  0.00    +0.012 C 
ATOM      9  C   LIG    1       23.511 -22.995   6.989  0.00  0.00    +0.112 C 
ATOM     10  O   LIG    1       26.648 -24.633   6.229  0.00  0.00    -0.275 OA
BRANCH   8  11
ATOM     11  C   LIG    1       22.927 -21.466   4.997  0.00  0.00    -0.006 C 
ATOM     12  C   LIG    1       21.866 -20.402   4.698  0.00  0.00    +0.004 C 
ATOM     13  C   LIG    1       22.357 -18.964   4.736  0.00  0.00    +0.000 C 
ATOM     14  C   LIG    1       23.501 -18.782   3.756  0.00  0.00    +0.000 C 
ATOM     15  C   LIG    1       24.626 -19.769   4.046  0.00  0.00    +0.000 C 
ATOM     16  C   LIG    1       24.137 -21.219   4.071  0.00  0.00    +0.004 C 
ENDBRANCH   8  11
BRANCH   6  17
ATOM     17  C   LIG    1       26.202 -22.015   8.445  0.00  0.00    +0.326 C 
ATOM     18  O   LIG    1       25.504 -22.175   9.428  0.00  0.00    -0.249 OA
BRANCH  17  19
ATOM     19  O   LIG    1       27.546 -21.847   8.544  0.00  0.00    -0.479 OA
ATOM     20  H   LIG    1       27.825 -21.297   9.298  0.00  0.00    +0.295 HD
ENDBRANCH  17  19
ENDBRANCH   6  17
ENDBRANCH   3   4
ENDBRANCH   1   3
BRANCH   1  21
ATOM     21  O   LIG    1       24.057 -28.364   6.766  0.00  0.00    -0.286 OA
BRANCH  21  22
ATOM     22  C   LIG    1       24.355 -29.734   7.083  0.00  0.00    +0.320 C 
BRANCH  22  23
ATOM     23  C   LIG    1       24.470 -30.631   5.810  0.00  0.00    +0.052 C 
ATOM     24  C   LIG    1       23.614 -31.896   5.955  0.00  0.00    +0.013 C 
ATOM     25  C   LIG    1       25.900 -31.014   5.396  0.00  0.00    +0.013 C 
ENDBRANCH  22  23
BRANCH  22  26
ATOM     26  O   LIG    1       23.344 -30.262   7.937  0.00  0.00    -0.434 OA
BRANCH  26  27
ATOM     27  C   LIG    1       23.826 -30.783   9.123  0.00  0.00    +0.309 C 
ATOM     28  O   LIG    1       24.760 -31.554   9.234  0.00  0.00    -0.251 OA
BRANCH  27  30
ATOM     29  C   LIG    1       21.793 -30.877  10.599  0.00  0.00    +0.015 C 
ATOM     30  C   LIG    1       23.065 -30.152  10.277  0.00  0.00    +0.117 C 
ENDBRANCH  27  30
ENDBRANCH  26  27
ENDBRANCH  22  26
ENDBRANCH  21  22
ENDBRANCH   1  21
BRANCH   1  31
ATOM     31  C   LIG    1       26.289 -27.324   7.939  0.00  0.00    +0.098 C 
BRANCH  31  32
ATOM     32  C   LIG    1       26.296 -28.571   8.805  0.00  0.00    +0.010 C 
BRANCH  32  33
ATOM     33  C   LIG    1       26.961 -28.230  10.146  0.00  0.00    +0.005 C 
BRANCH  33  34
ATOM     34  C   LIG    1       26.210 -28.798  11.350  0.00  0.00    +0.035 C 
BRANCH  34  35
ATOM     35  C   LIG    1       25.681 -27.713  12.264  0.00  0.00    -0.047 A 
ATOM     36  C   LIG    1       26.455 -26.582  12.559  0.00  0.00    +0.003 A 
ATOM     37  C   LIG    1       25.962 -25.581  13.401  0.00  0.00    +0.000 A 
ATOM     38  C   LIG    1       24.691 -25.696  13.957  0.00  0.00    +0.000 A 
ATOM     39  C   LIG    1       23.911 -26.815  13.673  0.00  0.00    +0.000 A 
ATOM     40  C   LIG    1       24.401 -27.816  12.829  0.00  0.00    +0.003 A 
ENDBRANCH  34  35
ENDBRANCH  33  34
ENDBRANCH  32  33
ENDBRANCH  31  32
ENDBRANCH   1  31
TORSDOF 16
ENDMDL
MODEL 2
REMARK VINA RESULT:      -8.3      3.135      7.988
REMARK  Name = *****
REMARK                            x       y       z     vdW  Elec       q    Type
REMARK                         _______ _______ _______ _____ _____    ______ ____
ROOT
ATOM      1  P   LIG    1       24.611 -29.901   7.186  0.00  0.00    +0.216 P 
ATOM      2  O   LIG    1       23.582 -30.323   6.179  0.00  0.00    -0.290 OA
ENDROOT
BRANCH   1   3
ATOM      3  C   LIG    1       23.999 -29.834   8.856  0.00  0.00    +0.193 C 
BRANCH   3   4
ATOM      4  C   LIG    1       25.016 -29.550   9.946  0.00  0.00    +0.226 C 
ATOM      5  N   LIG    1       24.587 -29.627  11.251  0.00  0.00    -0.287 N 
ATOM      6  C   LIG    1       25.469 -29.616  12.417  0.00  0.00    +0.185 C 
ATOM      7  C   LIG    1       24.549 -29.207  13.589  0.00  0.00    +0.039 C 
ATOM      8  C   LIG    1       23.124 -29.069  13.007  0.00  0.00    +0.012 C 
ATOM      9  C   LIG    1       23.226 -29.819  11.681  0.00  0.00    +0.112 C 
ATOM     10  O   LIG    1       26.208 -29.354   9.683  0.00  0.00    -0.275 OA
BRANCH   8  11
ATOM     11  C   LIG    1       22.712 -27.578  12.848  0.00  0.00    -0.006 C 
ATOM     12  C   LIG    1       21.197 -27.351  12.871  0.00  0.00    +0.004 C 
ATOM     13  C   LIG    1       20.544 -27.457  14.240  0.00  0.00    +0.000 C 
ATOM     14  C   LIG    1       21.187 -26.472  15.198  0.00  0.00    +0.000 C 
ATOM     15  C   LIG    1       22.693 -26.694  15.274  0.00  0.00    +0.000 C 
ATOM     16  C   LIG    1       23.359 -26.649  13.897  0.00  0.00    +0.004 C 
ENDBRANCH   8  11
BRANCH   6  17
ATOM     17  C   LIG    1       26.020 -31.035  12.700  0.00  0.00    +0.326 C 
ATOM     18  O   LIG    1       25.678 -32.040  12.106  0.00  0.00    -0.249 OA
BRANCH  17  19
ATOM     19  O   LIG    1       26.996 -31.061  13.643  0.00  0.00    -0.479 OA
ATOM     20  H   LIG    1       27.454 -31.917  13.721  0.00  0.00    +0.295 HD
ENDBRANCH  17  19
ENDBRANCH   6  17
ENDBRANCH   3   4
ENDBRANCH   1   3
BRANCH   1  21
ATOM     21  O   LIG    1       25.919 -30.877   7.250  0.00  0.00    -0.286 OA
BRANCH  21  22
ATOM     22  C   LIG    1       25.892 -32.158   6.598  0.00  0.00    +0.320 C 
BRANCH  22  23
ATOM     23  C   LIG    1       26.851 -33.191   7.271  0.00  0.00    +0.052 C 
ATOM     24  C   LIG    1       26.954 -32.937   8.780  0.00  0.00    +0.013 C 
ATOM     25  C   LIG    1       28.259 -33.283   6.661  0.00  0.00    +0.013 C 
ENDBRANCH  22  23
BRANCH  22  26
ATOM     26  O   LIG    1       26.253 -32.010   5.228  0.00  0.00    -0.434 OA
BRANCH  26  27
ATOM     27  C   LIG    1       25.603 -32.886   4.378  0.00  0.00    +0.309 C 
ATOM     28  O   LIG    1       24.409 -33.121   4.377  0.00  0.00    -0.251 OA
BRANCH  27  30
ATOM     29  C   LIG    1       26.409 -32.874   1.998  0.00  0.00    +0.015 C 
ATOM     30  C   LIG    1       26.607 -33.428   3.376  0.00  0.00    +0.117 C 
ENDBRANCH  27  30
ENDBRANCH  26  27
ENDBRANCH  22  26
ENDBRANCH  21  22
ENDBRANCH   1  21
BRANCH   1  31
ATOM     31  C   LIG    1       25.239 -28.261   6.883  0.00  0.00    +0.098 C 
BRANCH  31  32
ATOM     32  C   LIG    1       24.370 -27.284   6.113  0.00  0.00    +0.010 C 
BRANCH  32  33
ATOM     33  C   LIG    1       24.840 -25.858   6.432  0.00  0.00    +0.005 C 
BRANCH  33  34
ATOM     34  C   LIG    1       23.708 -24.832   6.399  0.00  0.00    +0.035 C 
BRANCH  34  35
ATOM     35  C   LIG    1       24.156 -23.461   6.860  0.00  0.00    -0.047 A 
ATOM     36  C   LIG    1       23.266 -22.378   6.865  0.00  0.00    +0.003 A 
ATOM     37  C   LIG    1       23.682 -21.115   7.293  0.00  0.00    +0.000 A 
ATOM     38  C   LIG    1       24.991 -20.917   7.723  0.00  0.00    +0.000 A 
ATOM     39  C   LIG    1       25.888 -21.984   7.723  0.00  0.00    +0.000 A 
ATOM     40  C   LIG    1       25.472 -23.249   7.297  0.00  0.00    +0.003 A 
ENDBRANCH  34  35
ENDBRANCH  33  34
ENDBRANCH  32  33
ENDBRANCH  31  32
ENDBRANCH   1  31
TORSDOF 16
ENDMDL
MODEL 3
REMARK VINA RESULT:      -8.2      2.218      9.551
REMARK  Name = *****
REMARK                            x       y       z     vdW  Elec       q    Type
REMARK                         _______ _______ _______ _____ _____    ______ ____
ROOT
ATOM      1  P   LIG    1       25.200 -24.134   5.881  0.00  0.00    +0.216 P 
ATOM      2  O   LIG    1       24.811 -24.455   4.467  0.00  0.00    -0.290 OA
ENDROOT
BRANCH   1   3
ATOM      3  C   LIG    1       26.339 -25.300   6.596  0.00  0.00    +0.193 C 
BRANCH   3   4
ATOM      4  C   LIG    1       26.399 -26.676   5.959  0.00  0.00    +0.226 C 
ATOM      5  N   LIG    1       25.753 -27.705   6.606  0.00  0.00    -0.287 N 
ATOM      6  C   LIG    1       25.509 -29.026   6.029  0.00  0.00    +0.185 C 
ATOM      7  C   LIG    1       25.250 -29.935   7.251  0.00  0.00    +0.039 C 
ATOM      8  C   LIG    1       25.299 -29.025   8.499  0.00  0.00    +0.012 C 
ATOM      9  C   LIG    1       25.137 -27.628   7.905  0.00  0.00    +0.112 C 
ATOM     10  O   LIG    1       26.921 -26.855   4.852  0.00  0.00    -0.275 OA
BRANCH   8  11
ATOM     11  C   LIG    1       26.621 -29.214   9.295  0.00  0.00    -0.006 C 
ATOM     12  C   LIG    1       26.785 -28.232  10.460  0.00  0.00    +0.004 C 
ATOM     13  C   LIG    1       25.927 -28.522  11.681  0.00  0.00    +0.000 C 
ATOM     14  C   LIG    1       26.214 -29.921  12.194  0.00  0.00    +0.000 C 
ATOM     15  C   LIG    1       25.998 -30.956  11.096  0.00  0.00    +0.000 C 
ATOM     16  C   LIG    1       26.810 -30.646   9.837  0.00  0.00    +0.004 C 
ENDBRANCH   8  11
BRANCH   6  17
ATOM     17  C   LIG    1       24.234 -29.013   5.151  0.00  0.00    +0.326 C 
ATOM     18  O   LIG    1       24.122 -28.403   4.104  0.00  0.00    -0.249 OA
BRANCH  17  19
ATOM     19  O   LIG    1       23.245 -29.817   5.618  0.00  0.00    -0.479 OA
ATOM     20  H   LIG    1       22.493 -29.924   5.006  0.00  0.00    +0.295 HD
ENDBRANCH  17  19
ENDBRANCH   6  17
ENDBRANCH   3   4
ENDBRANCH   1   3
BRANCH   1  21
ATOM     21  O   LIG    1       25.912 -22.676   6.061  0.00  0.00    -0.286 OA
BRANCH  21  22
ATOM     22  C   LIG    1       26.786 -22.436   7.177  0.00  0.00    +0.320 C 
BRANCH  22  23
ATOM     23  C   LIG    1       26.178 -21.431   8.206  0.00  0.00    +0.052 C 
ATOM     24  C   LIG    1       25.540 -22.177   9.386  0.00  0.00    +0.013 C 
ATOM     25  C   LIG    1       25.179 -20.415   7.631  0.00  0.00    +0.013 C 
ENDBRANCH  22  23
BRANCH  22  26
ATOM     26  O   LIG    1       28.035 -21.931   6.713  0.00  0.00    -0.434 OA
BRANCH  26  27
ATOM     27  C   LIG    1       28.721 -21.182   7.651  0.00  0.00    +0.309 C 
ATOM     28  O   LIG    1       29.171 -21.597   8.701  0.00  0.00    -0.251 OA
BRANCH  27  30
ATOM     29  C   LIG    1       28.390 -19.619   5.711  0.00  0.00    +0.015 C 
ATOM     30  C   LIG    1       28.913 -19.777   7.106  0.00  0.00    +0.117 C 
ENDBRANCH  27  30
ENDBRANCH  26  27
ENDBRANCH  22  26
ENDBRANCH  21  22
ENDBRANCH   1  21
BRANCH   1  31
ATOM     31  C   LIG    1       23.810 -24.140   6.996  0.00  0.00    +0.098 C 
BRANCH  31  32
ATOM     32  C   LIG    1       22.490 -23.570   6.510  0.00  0.00    +0.010 C 
BRANCH  32  33
ATOM     33  C   LIG    1       22.601 -22.039   6.480  0.00  0.00    +0.005 C 
BRANCH  33  34
ATOM     34  C   LIG    1       22.040 -21.422   5.200  0.00  0.00    +0.035 C 
BRANCH  34  35
ATOM     35  C   LIG    1       22.961 -20.373   4.612  0.00  0.00    -0.047 A 
ATOM     36  C   LIG    1       22.571 -19.028   4.552  0.00  0.00    +0.003 A 
ATOM     37  C   LIG    1       23.424 -18.061   4.012  0.00  0.00    +0.000 A 
ATOM     38  C   LIG    1       24.677 -18.426   3.527  0.00  0.00    +0.000 A 
ATOM     39  C   LIG    1       25.078 -19.760   3.579  0.00  0.00    +0.000 A 
ATOM     40  C   LIG    1       24.226 -20.727   4.122  0.00  0.00    +0.003 A 
ENDBRANCH  34  35
ENDBRANCH  33  34
ENDBRANCH  32  33
ENDBRANCH  31  32
ENDBRANCH   1  31
TORSDOF 16
ENDMDL
MODEL 4
REMARK VINA RESULT:      -8.0      2.766      9.356
REMARK  Name = *****
REMARK                            x       y       z     vdW  Elec       q    Type
REMARK                         _______ _______ _______ _____ _____    ______ ____
ROOT
ATOM      1  P   LIG    1       24.718 -24.123   6.419  0.00  0.00    +0.216 P 
ATOM      2  O   LIG    1       23.484 -24.975   6.479  0.00  0.00    -0.290 OA
ENDROOT
BRANCH   1   3
ATOM      3  C   LIG    1       26.236 -25.045   6.522  0.00  0.00    +0.193 C 
BRANCH   3   4
ATOM      4  C   LIG    1       26.243 -26.422   5.884  0.00  0.00    +0.226 C 
ATOM      5  N   LIG    1       25.643 -27.448   6.578  0.00  0.00    -0.287 N 
ATOM      6  C   LIG    1       25.353 -28.769   6.022  0.00  0.00    +0.185 C 
ATOM      7  C   LIG    1       25.180 -29.676   7.261  0.00  0.00    +0.039 C 
ATOM      8  C   LIG    1       25.323 -28.765   8.501  0.00  0.00    +0.012 C 
ATOM      9  C   LIG    1       25.124 -27.368   7.919  0.00  0.00    +0.112 C 
ATOM     10  O   LIG    1       26.683 -26.604   4.743  0.00  0.00    -0.275 OA
BRANCH   8  11
ATOM     11  C   LIG    1       26.699 -28.958   9.199  0.00  0.00    -0.006 C 
ATOM     12  C   LIG    1       26.875 -28.109  10.462  0.00  0.00    +0.004 C 
ATOM     13  C   LIG    1       26.110 -28.594  11.683  0.00  0.00    +0.000 C 
ATOM     14  C   LIG    1       26.509 -30.021  12.010  0.00  0.00    +0.000 C 
ATOM     15  C   LIG    1       26.289 -30.934  10.809  0.00  0.00    +0.000 C 
ATOM     16  C   LIG    1       27.004 -30.428   9.555  0.00  0.00    +0.004 C 
ENDBRANCH   8  11
BRANCH   6  17
ATOM     17  C   LIG    1       24.017 -28.752   5.239  0.00  0.00    +0.326 C 
ATOM     18  O   LIG    1       23.709 -27.912   4.415  0.00  0.00    -0.249 OA
BRANCH  17  19
ATOM     19  O   LIG    1       23.221 -29.820   5.501  0.00  0.00    -0.479 OA
ATOM     20  H   LIG    1       23.517 -30.651   5.086  0.00  0.00    +0.295 HD
ENDBRANCH  17  19
ENDBRANCH   6  17
ENDBRANCH   3   4
ENDBRANCH   1   3
BRANCH   1  21
ATOM     21  O   LIG    1       24.849 -23.236   5.054  0.00  0.00    -0.286 OA
BRANCH  21  22
ATOM     22  C   LIG    1       24.428 -21.861   5.047  0.00  0.00    +0.320 C 
BRANCH  22  23
ATOM     23  C   LIG    1       23.147 -21.624   5.908  0.00  0.00    +0.052 C 
ATOM     24  C   LIG    1       21.881 -21.760   5.052  0.00  0.00    +0.013 C 
ATOM     25  C   LIG    1       23.109 -20.300   6.688  0.00  0.00    +0.013 C 
ENDBRANCH  22  23
BRANCH  22  26
ATOM     26  O   LIG    1       24.175 -21.441   3.709  0.00  0.00    -0.434 OA
BRANCH  26  27
ATOM     27  C   LIG    1       24.263 -20.073   3.525  0.00  0.00    +0.309 C 
ATOM     28  O   LIG    1       23.340 -19.333   3.245  0.00  0.00    -0.251 OA
BRANCH  27  30
ATOM     29  C   LIG    1       25.942 -18.204   3.451  0.00  0.00    +0.015 C 
ATOM     30  C   LIG    1       25.684 -19.631   3.832  0.00  0.00    +0.117 C 
ENDBRANCH  27  30
ENDBRANCH  26  27
ENDBRANCH  22  26
ENDBRANCH  21  22
ENDBRANCH   1  21
BRANCH   1  31
ATOM     31  C   LIG    1       24.818 -22.961   7.766  0.00  0.00    +0.098 C 
BRANCH  31  32
ATOM     32  C   LIG    1       26.186 -22.623   8.330  0.00  0.00    +0.010 C 
BRANCH  32  33
ATOM     33  C   LIG    1       26.378 -21.101   8.263  0.00  0.00    +0.005 C 
BRANCH  33  34
ATOM     34  C   LIG    1       26.911 -20.624   6.913  0.00  0.00    +0.035 C 
BRANCH  34  35
ATOM     35  C   LIG    1       28.364 -20.203   6.981  0.00  0.00    -0.047 A 
ATOM     36  C   LIG    1       28.863 -19.203   6.134  0.00  0.00    +0.003 A 
ATOM     37  C   LIG    1       30.204 -18.815   6.201  0.00  0.00    +0.000 A 
ATOM     38  C   LIG    1       31.062 -19.419   7.116  0.00  0.00    +0.000 A 
ATOM     39  C   LIG    1       30.581 -20.414   7.964  0.00  0.00    +0.000 A 
ATOM     40  C   LIG    1       29.239 -20.802   7.899  0.00  0.00    +0.003 A 
ENDBRANCH  34  35
ENDBRANCH  33  34
ENDBRANCH  32  33
ENDBRANCH  31  32
ENDBRANCH   1  31
TORSDOF 16
ENDMDL
MODEL 5
REMARK VINA RESULT:      -7.8      3.373      8.947
REMARK  Name = *****
REMARK                            x       y       z     vdW  Elec       q    Type
REMARK                         _______ _______ _______ _____ _____    ______ ____
ROOT
ATOM      1  P   LIG    1       26.318 -29.375  10.026  0.00  0.00    +0.216 P 
ATOM      2  O   LIG    1       27.681 -29.907  10.360  0.00  0.00    -0.290 OA
ENDROOT
BRANCH   1   3
ATOM      3  C   LIG    1       25.201 -30.605   9.389  0.00  0.00    +0.193 C 
BRANCH   3   4
ATOM      4  C   LIG    1       24.632 -31.595  10.389  0.00  0.00    +0.226 C 
ATOM      5  N   LIG    1       23.356 -31.367  10.852  0.00  0.00    -0.287 N 
ATOM      6  C   LIG    1       22.570 -32.326  11.627  0.00  0.00    +0.185 C 
ATOM      7  C   LIG    1       21.493 -31.465  12.323  0.00  0.00    +0.039 C 
ATOM      8  C   LIG    1       21.698 -30.015  11.829  0.00  0.00    +0.012 C 
ATOM      9  C   LIG    1       22.556 -30.201  10.581  0.00  0.00    +0.112 C 
ATOM     10  O   LIG    1       25.245 -32.621  10.705  0.00  0.00    -0.275 OA
BRANCH   8  11
ATOM     11  C   LIG    1       22.365 -29.127  12.918  0.00  0.00    -0.006 C 
ATOM     12  C   LIG    1       22.127 -27.627  12.722  0.00  0.00    +0.004 C 
ATOM     13  C   LIG    1       20.733 -27.136  13.078  0.00  0.00    +0.000 C 
ATOM     14  C   LIG    1       20.417 -27.483  14.521  0.00  0.00    +0.000 C 
ATOM     15  C   LIG    1       20.566 -28.980  14.765  0.00  0.00    +0.000 C 
ATOM     16  C   LIG    1       21.945 -29.502  14.355  0.00  0.00    +0.004 C 
ENDBRANCH   8  11
BRANCH   6  17
ATOM     17  C   LIG    1       21.861 -33.335  10.691  0.00  0.00    +0.326 C 
ATOM     18  O   LIG    1       20.753 -33.798  10.885  0.00  0.00    -0.249 OA
BRANCH  17  19
ATOM     19  O   LIG    1       22.564 -33.616   9.564  0.00  0.00    -0.479 OA
ATOM     20  H   LIG    1       23.281 -32.985   9.372  0.00  0.00    +0.295 HD
ENDBRANCH  17  19
ENDBRANCH   6  17
ENDBRANCH   3   4
ENDBRANCH   1   3
BRANCH   1  21
ATOM     21  O   LIG    1       25.536 -28.703  11.292  0.00  0.00    -0.286 OA
BRANCH  21  22
ATOM     22  C   LIG    1       26.286 -28.143  12.384  0.00  0.00    +0.320 C 
BRANCH  22  23
ATOM     23  C   LIG    1       26.762 -29.228  13.401  0.00  0.00    +0.052 C 
ATOM     24  C   LIG    1       25.791 -29.328  14.586  0.00  0.00    +0.013 C 
ATOM     25  C   LIG    1       28.200 -29.066  13.919  0.00  0.00    +0.013 C 
ENDBRANCH  22  23
BRANCH  22  26
ATOM     26  O   LIG    1       25.493 -27.177  13.068  0.00  0.00    -0.434 OA
BRANCH  26  27
ATOM     27  C   LIG    1       26.117 -25.955  13.236  0.00  0.00    +0.309 C 
ATOM     28  O   LIG    1       27.236 -25.670  12.855  0.00  0.00    -0.251 OA
BRANCH  27  30
ATOM     29  C   LIG    1       24.224 -25.664  14.863  0.00  0.00    +0.015 C 
ATOM     30  C   LIG    1       25.137 -24.992  13.883  0.00  0.00    +0.117 C 
ENDBRANCH  27  30
ENDBRANCH  26  27
ENDBRANCH  22  26
ENDBRANCH  21  22
ENDBRANCH   1  21
BRANCH   1  31
ATOM     31  C   LIG    1       26.360 -28.123   8.759  0.00  0.00    +0.098 C 
BRANCH  31  32
ATOM     32  C   LIG    1       25.449 -28.280   7.554  0.00  0.00    +0.010 C 
BRANCH  32  33
ATOM     33  C   LIG    1       25.724 -27.125   6.581  0.00  0.00    +0.005 C 
BRANCH  33  34
ATOM     34  C   LIG    1       24.455 -26.392   6.148  0.00  0.00    +0.035 C 
BRANCH  34  35
ATOM     35  C   LIG    1       24.463 -24.934   6.558  0.00  0.00    -0.047 A 
ATOM     36  C   LIG    1       23.271 -24.198   6.615  0.00  0.00    +0.003 A 
ATOM     37  C   LIG    1       23.280 -22.853   6.996  0.00  0.00    +0.000 A 
ATOM     38  C   LIG    1       24.480 -22.228   7.327  0.00  0.00    +0.000 A 
ATOM     39  C   LIG    1       25.672 -22.947   7.274  0.00  0.00    +0.000 A 
ATOM     40  C   LIG    1       25.664 -24.292   6.895  0.00  0.00    +0.003 A 
ENDBRANCH  34  35
ENDBRANCH  33  34
ENDBRANCH  32  33
ENDBRANCH  31  32
ENDBRANCH   1  31
TORSDOF 16
ENDMDL
MODEL 6
REMARK VINA RESULT:      -7.8      3.622      8.492
REMARK  Name = *****
REMARK                            x       y       z     vdW  Elec       q    Type
REMARK                         _______ _______ _______ _____ _____    ______ ____
ROOT
ATOM      1  P   LIG    1       24.930 -30.345   8.268  0.00  0.00    +0.216 P 
ATOM      2  O   LIG    1       23.589 -30.665   7.674  0.00  0.00    -0.290 OA
ENDROOT
BRANCH   1   3
ATOM      3  C   LIG    1       24.981 -30.475  10.042  0.00  0.00    +0.193 C 
BRANCH   3   4
ATOM      4  C   LIG    1       24.145 -31.575  10.671  0.00  0.00    +0.226 C 
ATOM      5  N   LIG    1       22.853 -31.267  11.029  0.00  0.00    -0.287 N 
ATOM      6  C   LIG    1       21.844 -32.248  11.425  0.00  0.00    +0.185 C 
ATOM      7  C   LIG    1       20.789 -31.422  12.195  0.00  0.00    +0.039 C 
ATOM      8  C   LIG    1       21.247 -29.948  12.131  0.00  0.00    +0.012 C 
ATOM      9  C   LIG    1       22.256 -29.957  10.987  0.00  0.00    +0.112 C 
ATOM     10  O   LIG    1       24.570 -32.732  10.773  0.00  0.00    -0.275 OA
BRANCH   8  11
ATOM     11  C   LIG    1       21.846 -29.474  13.486  0.00  0.00    -0.006 C 
ATOM     12  C   LIG    1       23.288 -28.966  13.380  0.00  0.00    +0.004 C 
ATOM     13  C   LIG    1       23.449 -27.593  12.749  0.00  0.00    +0.000 C 
ATOM     14  C   LIG    1       22.641 -26.569  13.525  0.00  0.00    +0.000 C 
ATOM     15  C   LIG    1       21.176 -26.983  13.605  0.00  0.00    +0.000 C 
ATOM     16  C   LIG    1       20.999 -28.389  14.183  0.00  0.00    +0.004 C 
ENDBRANCH   8  11
BRANCH   6  17
ATOM     17  C   LIG    1       21.165 -32.868  10.180  0.00  0.00    +0.326 C 
ATOM     18  O   LIG    1       21.677 -33.700   9.455  0.00  0.00    -0.249 OA
BRANCH  17  19
ATOM     19  O   LIG    1       19.886 -32.451   9.994  0.00  0.00    -0.479 OA
ATOM     20  H   LIG    1       19.671 -32.217   9.073  0.00  0.00    +0.295 HD
ENDBRANCH  17  19
ENDBRANCH   6  17
ENDBRANCH   3   4
ENDBRANCH   1   3
BRANCH   1  21
ATOM     21  O   LIG    1       26.139 -31.303   7.735  0.00  0.00    -0.286 OA
BRANCH  21  22
ATOM     22  C   LIG    1       25.836 -32.511   7.016  0.00  0.00    +0.320 C 
BRANCH  22  23
ATOM     23  C   LIG    1       26.971 -33.577   7.132  0.00  0.00    +0.052 C 
ATOM     24  C   LIG    1       27.452 -33.706   8.584  0.00  0.00    +0.013 C 
ATOM     25  C   LIG    1       28.175 -33.368   6.201  0.00  0.00    +0.013 C 
ENDBRANCH  22  23
BRANCH  22  26
ATOM     26  O   LIG    1       25.616 -32.212   5.641  0.00  0.00    -0.434 OA
BRANCH  26  27
ATOM     27  C   LIG    1       24.595 -32.944   5.063  0.00  0.00    +0.309 C 
ATOM     28  O   LIG    1       23.431 -32.942   5.416  0.00  0.00    -0.251 OA
BRANCH  27  30
ATOM     29  C   LIG    1       25.821 -32.751   2.878  0.00  0.00    +0.015 C 
ATOM     30  C   LIG    1       25.144 -33.671   3.848  0.00  0.00    +0.117 C 
ENDBRANCH  27  30
ENDBRANCH  26  27
ENDBRANCH  22  26
ENDBRANCH  21  22
ENDBRANCH   1  21
BRANCH   1  31
ATOM     31  C   LIG    1       25.449 -28.673   7.936  0.00  0.00    +0.098 C 
BRANCH  31  32
ATOM     32  C   LIG    1       25.043 -28.037   6.618  0.00  0.00    +0.010 C 
BRANCH  32  33
ATOM     33  C   LIG    1       25.397 -26.544   6.668  0.00  0.00    +0.005 C 
BRANCH  33  34
ATOM     34  C   LIG    1       24.300 -25.649   6.092  0.00  0.00    +0.035 C 
BRANCH  34  35
ATOM     35  C   LIG    1       24.360 -24.238   6.639  0.00  0.00    -0.047 A 
ATOM     36  C   LIG    1       23.200 -23.456   6.737  0.00  0.00    +0.003 A 
ATOM     37  C   LIG    1       23.257 -22.156   7.245  0.00  0.00    +0.000 A 
ATOM     38  C   LIG    1       24.472 -21.620   7.663  0.00  0.00    +0.000 A 
ATOM     39  C   LIG    1       25.634 -22.385   7.571  0.00  0.00    +0.000 A 
ATOM     40  C   LIG    1       25.577 -23.688   7.065  0.00  0.00    +0.003 A 
ENDBRANCH  34  35
ENDBRANCH  33  34
ENDBRANCH  32  33
ENDBRANCH  31  32
ENDBRANCH   1  31
TORSDOF 16
ENDMDL
MODEL 7
REMARK VINA RESULT:      -7.7      3.095      9.417
REMARK  Name = *****
REMARK                            x       y       z     vdW  Elec       q    Type
REMARK                         _______ _______ _______ _____ _____    ______ ____
ROOT
ATOM      1  P   LIG    1       23.721 -22.773   6.883  0.00  0.00    +0.216 P 
ATOM      2  O   LIG    1       22.528 -22.306   7.666  0.00  0.00    -0.290 OA
ENDROOT
BRANCH   1   3
ATOM      3  C   LIG    1       23.788 -24.537   6.658  0.00  0.00    +0.193 C 
BRANCH   3   4
ATOM      4  C   LIG    1       25.168 -25.170   6.631  0.00  0.00    +0.226 C 
ATOM      5  N   LIG    1       25.242 -26.522   6.386  0.00  0.00    -0.287 N 
ATOM      6  C   LIG    1       26.478 -27.247   6.094  0.00  0.00    +0.185 C 
ATOM      7  C   LIG    1       26.139 -28.722   6.405  0.00  0.00    +0.039 C 
ATOM      8  C   LIG    1       24.648 -28.758   6.808  0.00  0.00    +0.012 C 
ATOM      9  C   LIG    1       24.124 -27.423   6.286  0.00  0.00    +0.112 C 
ATOM     10  O   LIG    1       26.194 -24.488   6.726  0.00  0.00    -0.275 OA
BRANCH   8  11
ATOM     11  C   LIG    1       24.472 -28.939   8.342  0.00  0.00    -0.006 C 
ATOM     12  C   LIG    1       23.571 -30.118   8.725  0.00  0.00    +0.004 C 
ATOM     13  C   LIG    1       24.197 -31.494   8.565  0.00  0.00    +0.000 C 
ATOM     14  C   LIG    1       25.470 -31.582   9.386  0.00  0.00    +0.000 C 
ATOM     15  C   LIG    1       26.442 -30.473   9.000  0.00  0.00    +0.000 C 
ATOM     16  C   LIG    1       25.809 -29.084   9.098  0.00  0.00    +0.004 C 
ENDBRANCH   8  11
BRANCH   6  17
ATOM     17  C   LIG    1       26.838 -27.133   4.593  0.00  0.00    +0.326 C 
ATOM     18  O   LIG    1       26.077 -26.744   3.727  0.00  0.00    -0.249 OA
BRANCH  17  19
ATOM     19  O   LIG    1       28.131 -27.444   4.320  0.00  0.00    -0.479 OA
ATOM     20  H   LIG    1       28.263 -28.350   3.985  0.00  0.00    +0.295 HD
ENDBRANCH  17  19
ENDBRANCH   6  17
ENDBRANCH   3   4
ENDBRANCH   1   3
BRANCH   1  21
ATOM     21  O   LIG    1       23.816 -22.146   5.378  0.00  0.00    -0.286 OA
BRANCH  21  22
ATOM     22  C   LIG    1       23.811 -20.721   5.192  0.00  0.00    +0.320 C 
BRANCH  22  23
ATOM     23  C   LIG    1       22.369 -20.121   5.211  0.00  0.00    +0.052 C 
ATOM     24  C   LIG    1       21.372 -21.074   4.538  0.00  0.00    +0.013 C 
ATOM     25  C   LIG    1       22.229 -18.712   4.612  0.00  0.00    +0.013 C 
ENDBRANCH  22  23
BRANCH  22  26
ATOM     26  O   LIG    1       24.436 -20.393   3.954  0.00  0.00    -0.434 OA
BRANCH  26  27
ATOM     27  C   LIG    1       25.542 -19.574   4.083  0.00  0.00    +0.309 C 
ATOM     28  O   LIG    1       26.492 -19.773   4.816  0.00  0.00    -0.251 OA
BRANCH  27  30
ATOM     29  C   LIG    1       26.287 -17.263   3.435  0.00  0.00    +0.015 C 
ATOM     30  C   LIG    1       25.426 -18.438   3.082  0.00  0.00    +0.117 C 
ENDBRANCH  27  30
ENDBRANCH  26  27
ENDBRANCH  22  26
ENDBRANCH  21  22
ENDBRANCH   1  21
BRANCH   1  31
ATOM     31  C   LIG    1       25.265 -22.372   7.677  0.00  0.00    +0.098 C 
BRANCH  31  32
ATOM     32  C   LIG    1       25.311 -21.175   8.609  0.00  0.00    +0.010 C 
BRANCH  32  33
ATOM     33  C   LIG    1       26.645 -20.445   8.399  0.00  0.00    +0.005 C 
BRANCH  33  34
ATOM     34  C   LIG    1       27.680 -21.290   7.656  0.00  0.00    +0.035 C 
BRANCH  34  35
ATOM     35  C   LIG    1       29.021 -20.597   7.548  0.00  0.00    -0.047 A 
ATOM     36  C   LIG    1       30.078 -20.941   8.403  0.00  0.00    +0.003 A 
ATOM     37  C   LIG    1       31.317 -20.301   8.299  0.00  0.00    +0.000 A 
ATOM     38  C   LIG    1       31.515 -19.312   7.340  0.00  0.00    +0.000 A 
ATOM     39  C   LIG    1       30.474 -18.959   6.484  0.00  0.00    +0.000 A 
ATOM     40  C   LIG    1       29.235 -19.600   6.585  0.00  0.00    +0.003 A 
ENDBRANCH  34  35
ENDBRANCH  33  34
ENDBRANCH  32  33
ENDBRANCH  31  32
ENDBRANCH   1  31
TORSDOF 16
ENDMDL
MODEL 8
REMARK VINA RESULT:      -7.6      3.285      9.214
REMARK  Name = *****
REMARK                            x       y       z     vdW  Elec       q    Type
REMARK                         _______ _______ _______ _____ _____    ______ ____
ROOT
ATOM      1  P   LIG    1       26.849 -29.004  10.972  0.00  0.00    +0.216 P 
ATOM      2  O   LIG    1       28.307 -29.019  11.324  0.00  0.00    -0.290 OA
ENDROOT
BRANCH   1   3
ATOM      3  C   LIG    1       25.958 -30.439  11.532  0.00  0.00    +0.193 C 
BRANCH   3   4
ATOM      4  C   LIG    1       25.734 -31.544  10.515  0.00  0.00    +0.226 C 
ATOM      5  N   LIG    1       24.500 -31.610   9.909  0.00  0.00    -0.287 N 
ATOM      6  C   LIG    1       24.186 -32.448   8.753  0.00  0.00    +0.185 C 
ATOM      7  C   LIG    1       22.646 -32.573   8.778  0.00  0.00    +0.039 C 
ATOM      8  C   LIG    1       22.150 -31.707   9.958  0.00  0.00    +0.012 C 
ATOM      9  C   LIG    1       23.351 -30.811  10.248  0.00  0.00    +0.112 C 
ATOM     10  O   LIG    1       26.650 -32.298  10.167  0.00  0.00    -0.275 OA
BRANCH   8  11
ATOM     11  C   LIG    1       21.719 -32.581  11.169  0.00  0.00    -0.006 C 
ATOM     12  C   LIG    1       21.493 -31.783  12.457  0.00  0.00    +0.004 C 
ATOM     13  C   LIG    1       20.210 -30.969  12.501  0.00  0.00    +0.000 C 
ATOM     14  C   LIG    1       19.013 -31.877  12.288  0.00  0.00    +0.000 C 
ATOM     15  C   LIG    1       19.145 -32.650  10.981  0.00  0.00    +0.000 C 
ATOM     16  C   LIG    1       20.459 -33.429  10.894  0.00  0.00    +0.004 C 
ENDBRANCH   8  11
BRANCH   6  17
ATOM     17  C   LIG    1       24.598 -31.743   7.438  0.00  0.00    +0.326 C 
ATOM     18  O   LIG    1       25.735 -31.693   7.007  0.00  0.00    -0.249 OA
BRANCH  17  19
ATOM     19  O   LIG    1       23.549 -31.229   6.746  0.00  0.00    -0.479 OA
ATOM     20  H   LIG    1       23.096 -30.492   7.194  0.00  0.00    +0.295 HD
ENDBRANCH  17  19
ENDBRANCH   6  17
ENDBRANCH   3   4
ENDBRANCH   1   3
BRANCH   1  21
ATOM     21  O   LIG    1       26.030 -27.729  11.582  0.00  0.00    -0.286 OA
BRANCH  21  22
ATOM     22  C   LIG    1       25.558 -27.761  12.939  0.00  0.00    +0.320 C 
BRANCH  22  23
ATOM     23  C   LIG    1       24.012 -27.963  13.030  0.00  0.00    +0.052 C 
ATOM     24  C   LIG    1       23.311 -26.649  13.397  0.00  0.00    +0.013 C 
ATOM     25  C   LIG    1       23.545 -29.084  13.972  0.00  0.00    +0.013 C 
ENDBRANCH  22  23
BRANCH  22  26
ATOM     26  O   LIG    1       25.910 -26.549  13.601  0.00  0.00    -0.434 OA
BRANCH  26  27
ATOM     27  C   LIG    1       27.229 -26.496  14.012  0.00  0.00    +0.309 C 
ATOM     28  O   LIG    1       27.898 -27.443  14.379  0.00  0.00    -0.251 OA
BRANCH  27  30
ATOM     29  C   LIG    1       28.117 -24.426  15.128  0.00  0.00    +0.015 C 
ATOM     30  C   LIG    1       27.739 -25.077  13.831  0.00  0.00    +0.117 C 
ENDBRANCH  27  30
ENDBRANCH  26  27
ENDBRANCH  22  26
ENDBRANCH  21  22
ENDBRANCH   1  21
BRANCH   1  31
ATOM     31  C   LIG    1       26.565 -28.970   9.213  0.00  0.00    +0.098 C 
BRANCH  31  32
ATOM     32  C   LIG    1       26.401 -27.624   8.532  0.00  0.00    +0.010 C 
BRANCH  32  33
ATOM     33  C   LIG    1       25.655 -27.836   7.207  0.00  0.00    +0.005 C 
BRANCH  33  34
ATOM     34  C   LIG    1       25.958 -26.756   6.169  0.00  0.00    +0.035 C 
BRANCH  34  35
ATOM     35  C   LIG    1       25.262 -25.447   6.478  0.00  0.00    -0.047 A 
ATOM     36  C   LIG    1       25.989 -24.336   6.930  0.00  0.00    +0.003 A 
ATOM     37  C   LIG    1       25.344 -23.129   7.212  0.00  0.00    +0.000 A 
ATOM     38  C   LIG    1       23.967 -23.015   7.043  0.00  0.00    +0.000 A 
ATOM     39  C   LIG    1       23.231 -24.110   6.595  0.00  0.00    +0.000 A 
ATOM     40  C   LIG    1       23.875 -25.318   6.311  0.00  0.00    +0.003 A 
ENDBRANCH  34  35
ENDBRANCH  33  34
ENDBRANCH  32  33
ENDBRANCH  31  32
ENDBRANCH   1  31
TORSDOF 16
ENDMDL
MODEL 9
REMARK VINA RESULT:      -7.5      4.917      9.488
REMARK  Name = *****
REMARK                            x       y       z     vdW  Elec       q    Type
REMARK                         _______ _______ _______ _____ _____    ______ ____
ROOT
ATOM      1  P   LIG    1       27.171 -20.682   6.641  0.00  0.00    +0.216 P 
ATOM      2  O   LIG    1       27.897 -21.929   7.051  0.00  0.00    -0.290 OA
ENDROOT
BRANCH   1   3
ATOM      3  C   LIG    1       28.188 -19.222   6.647  0.00  0.00    +0.193 C 
BRANCH   3   4
ATOM      4  C   LIG    1       29.676 -19.426   6.868  0.00  0.00    +0.226 C 
ATOM      5  N   LIG    1       30.136 -19.398   8.164  0.00  0.00    -0.287 N 
ATOM      6  C   LIG    1       31.479 -19.803   8.578  0.00  0.00    +0.185 C 
ATOM      7  C   LIG    1       31.675 -19.128   9.954  0.00  0.00    +0.039 C 
ATOM      8  C   LIG    1       30.352 -18.403  10.285  0.00  0.00    +0.012 C 
ATOM      9  C   LIG    1       29.359 -19.057   9.328  0.00  0.00    +0.112 C 
ATOM     10  O   LIG    1       30.436 -19.705   5.934  0.00  0.00    -0.275 OA
BRANCH   8  11
ATOM     11  C   LIG    1       30.477 -16.864  10.096  0.00  0.00    -0.006 C 
ATOM     12  C   LIG    1       30.552 -16.085  11.412  0.00  0.00    +0.004 C 
ATOM     13  C   LIG    1       31.881 -16.172  12.145  0.00  0.00    +0.000 C 
ATOM     14  C   LIG    1       33.002 -15.690  11.242  0.00  0.00    +0.000 C 
ATOM     15  C   LIG    1       33.025 -16.479   9.938  0.00  0.00    +0.000 C 
ATOM     16  C   LIG    1       31.676 -16.452   9.217  0.00  0.00    +0.004 C 
ENDBRANCH   8  11
BRANCH   6  17
ATOM     17  C   LIG    1       31.553 -21.337   8.771  0.00  0.00    +0.326 C 
ATOM     18  O   LIG    1       32.343 -21.905   9.502  0.00  0.00    -0.249 OA
BRANCH  17  19
ATOM     19  O   LIG    1       30.590 -22.016   8.096  0.00  0.00    -0.479 OA
ATOM     20  H   LIG    1       30.371 -21.638   7.224  0.00  0.00    +0.295 HD
ENDBRANCH  17  19
ENDBRANCH   6  17
ENDBRANCH   3   4
ENDBRANCH   1   3
BRANCH   1  21
ATOM     21  O   LIG    1       26.528 -20.748   5.142  0.00  0.00    -0.286 OA
BRANCH  21  22
ATOM     22  C   LIG    1       25.355 -19.978   4.829  0.00  0.00    +0.320 C 
BRANCH  22  23
ATOM     23  C   LIG    1       24.056 -20.846   4.812  0.00  0.00    +0.052 C 
ATOM     24  C   LIG    1       23.730 -21.311   3.387  0.00  0.00    +0.013 C 
ATOM     25  C   LIG    1       22.816 -20.196   5.445  0.00  0.00    +0.013 C 
ENDBRANCH  22  23
BRANCH  22  26
ATOM     26  O   LIG    1       25.514 -19.351   3.560  0.00  0.00    -0.434 OA
BRANCH  26  27
ATOM     27  C   LIG    1       25.183 -18.009   3.551  0.00  0.00    +0.309 C 
ATOM     28  O   LIG    1       24.071 -17.549   3.727  0.00  0.00    -0.251 OA
BRANCH  27  30
ATOM     29  C   LIG    1       26.197 -15.719   3.341  0.00  0.00    +0.015 C 
ATOM     30  C   LIG    1       26.455 -17.194   3.390  0.00  0.00    +0.117 C 
ENDBRANCH  27  30
ENDBRANCH  26  27
ENDBRANCH  22  26
ENDBRANCH  21  22
ENDBRANCH   1  21
BRANCH   1  31
ATOM     31  C   LIG    1       25.822 -20.281   7.734  0.00  0.00    +0.098 C 
BRANCH  31  32
ATOM     32  C   LIG    1       25.002 -21.416   8.320  0.00  0.00    +0.010 C 
BRANCH  32  33
ATOM     33  C   LIG    1       25.487 -22.736   7.704  0.00  0.00    +0.005 C 
BRANCH  33  34
ATOM     34  C   LIG    1       24.399 -23.466   6.917  0.00  0.00    +0.035 C 
BRANCH  34  35
ATOM     35  C   LIG    1       24.849 -24.831   6.441  0.00  0.00    -0.047 A 
ATOM     36  C   LIG    1       23.913 -25.797   6.046  0.00  0.00    +0.003 A 
ATOM     37  C   LIG    1       24.330 -27.056   5.604  0.00  0.00    +0.000 A 
ATOM     38  C   LIG    1       25.687 -27.364   5.549  0.00  0.00    +0.000 A 
ATOM     39  C   LIG    1       26.629 -26.413   5.939  0.00  0.00    +0.000 A 
ATOM     40  C   LIG    1       26.212 -25.153   6.379  0.00  0.00    +0.003 A 
ENDBRANCH  34  35
ENDBRANCH  33  34
ENDBRANCH  32  33
ENDBRANCH  31  32
ENDBRANCH   1  31
TORSDOF 16
ENDMDL
