MODEL 1
REMARK VINA RESULT:      -5.4      0.000      0.000
REMARK  Name = *****
REMARK                            x       y       z     vdW  Elec       q    Type
REMARK                         _______ _______ _______ _____ _____    ______ ____
ROOT
ATOM      1  C   LIG    1       24.183 -29.527  12.776  0.00  0.00    +0.064 A 
ATOM      2  C   LIG    1       25.501 -29.635  12.314  0.00  0.00    +0.049 A 
ATOM      3  I   LIG    1       26.413 -30.693  14.389  0.00  0.00    -0.041 I 
ATOM      4  C   LIG    1       25.840 -30.369  11.116  0.00  0.00    +0.065 A 
ATOM      5  C   LIG    1       24.776 -31.099  10.493  0.00  0.00    +0.040 A 
ATOM      6  I   LIG    1       25.283 -32.826   9.268  0.00  0.00    -0.042 I 
ATOM      7  C   LIG    1       23.480 -31.118  11.059  0.00  0.00    +0.065 A 
ATOM      8  C   LIG    1       23.318 -30.519  12.308  0.00  0.00    +0.049 A 
ATOM      9  I   LIG    1       23.075 -32.301  13.857  0.00  0.00    -0.041 I 
ENDROOT
BRANCH   4  10
ATOM     10  C   LIG    1       27.053 -29.895  10.254  0.00  0.00    +0.246 C 
ATOM     11  N   LIG    1       26.864 -29.293   9.005  0.00  0.00    -0.309 N 
ATOM     12  H   LIG    1       27.672 -29.108   8.419  0.00  0.00    +0.149 HD
ATOM     13  O   LIG    1       28.209 -30.095  10.627  0.00  0.00    -0.270 OA
BRANCH  11  14
ATOM     14  C   LIG    1       25.553 -29.052   8.519  0.00  0.00    +0.138 C 
BRANCH  14  15
ATOM     15  C   LIG    1       25.081 -28.974   7.082  0.00  0.00    +0.157 C 
BRANCH  15  16
ATOM     16  O   LIG    1       24.683 -27.646   6.777  0.00  0.00    -0.388 OA
ATOM     17  H   LIG    1       24.726 -27.548   5.811  0.00  0.00    +0.210 HD
ENDBRANCH  15  16
BRANCH  15  18
ATOM     18  C   LIG    1       24.030 -30.019   6.765  0.00  0.00    +0.188 C 
BRANCH  18  19
ATOM     19  O   LIG    1       23.287 -29.648   5.610  0.00  0.00    -0.392 OA
ATOM     20  H   LIG    1       23.116 -28.693   5.666  0.00  0.00    +0.209 HD
ENDBRANCH  18  19
ENDBRANCH  15  18
ENDBRANCH  14  15
ENDBRANCH  11  14
ENDBRANCH   4  10
BRANCH   1  23
ATOM     21  C   LIG    1       24.215 -26.006  14.183  0.00  0.00    +0.110 C 
ATOM     22  C   LIG    1       24.487 -27.171  13.289  0.00  0.00    +0.217 C 
ATOM     23  N   LIG    1       23.625 -28.286  13.296  0.00  0.00    -0.267 N 
ATOM     24  O   LIG    1       25.500 -27.080  12.590  0.00  0.00    -0.276 OA
BRANCH  23  25
ATOM     25  C   LIG    1       22.236 -28.267  13.884  0.00  0.00    +0.147 C 
BRANCH  25  26
ATOM     26  C   LIG    1       21.181 -27.448  13.091  0.00  0.00    +0.158 C 
BRANCH  26  27
ATOM     27  O   LIG    1       20.580 -28.280  12.093  0.00  0.00    -0.388 OA
ATOM     28  H   LIG    1       19.808 -28.695  12.518  0.00  0.00    +0.210 HD
ENDBRANCH  26  27
BRANCH  26  29
ATOM     29  C   LIG    1       20.024 -26.862  13.926  0.00  0.00    +0.188 C 
BRANCH  29  30
ATOM     30  O   LIG    1       19.160 -26.120  13.047  0.00  0.00    -0.392 OA
ATOM     31  H   LIG    1       19.665 -25.888  12.247  0.00  0.00    +0.209 HD
ENDBRANCH  29  30
ENDBRANCH  26  29
ENDBRANCH  25  26
ENDBRANCH  23  25
ENDBRANCH   1  23
BRANCH   7  32
ATOM     32  C   LIG    1       22.141 -31.375  10.420  0.00  0.00    +0.246 C 
ATOM     33  N   LIG    1       21.040 -30.933  11.124  0.00  0.00    -0.309 N 
ATOM     34  H   LIG    1       21.166 -30.411  11.978  0.00  0.00    +0.149 HD
ATOM     35  O   LIG    1       22.039 -31.963   9.385  0.00  0.00    -0.270 OA
BRANCH  33  36
ATOM     36  C   LIG    1       19.679 -31.171  10.666  0.00  0.00    +0.138 C 
BRANCH  36  37
ATOM     37  C   LIG    1       18.734 -31.374  11.859  0.00  0.00    +0.157 C 
BRANCH  37  38
ATOM     38  O   LIG    1       18.833 -30.281  12.778  0.00  0.00    -0.388 OA
ATOM     39  H   LIG    1       18.797 -30.665  13.673  0.00  0.00    +0.210 HD
ENDBRANCH  37  38
BRANCH  37  40
ATOM     40  C   LIG    1       17.287 -31.502  11.384  0.00  0.00    +0.188 C 
BRANCH  40  41
ATOM     41  O   LIG    1       16.444 -30.585  12.073  0.00  0.00    -0.392 OA
ATOM     42  H   LIG    1       15.883 -30.162  11.399  0.00  0.00    +0.209 HD
ENDBRANCH  40  41
ENDBRANCH  37  40
ENDBRANCH  36  37
ENDBRANCH  33  36
ENDBRANCH   7  32
TORSDOF 18
ENDMDL
MODEL 2
REMARK VINA RESULT:      -5.4      2.407      7.206
REMARK  Name = *****
REMARK                            x       y       z     vdW  Elec       q    Type
REMARK                         _______ _______ _______ _____ _____    ______ ____
ROOT
ATOM      1  C   LIG    1       24.574 -30.859  10.903  0.00  0.00    +0.064 A 
ATOM      2  C   LIG    1       23.240 -30.452  11.028  0.00  0.00    +0.049 A 
ATOM      3  I   LIG    1       22.258 -32.424   9.843  0.00  0.00    -0.041 I 
ATOM      4  C   LIG    1       22.626 -30.208  12.314  0.00  0.00    +0.065 A 
ATOM      5  C   LIG    1       23.410 -30.536  13.467  0.00  0.00    +0.040 A 
ATOM      6  I   LIG    1       22.374 -31.009  15.323  0.00  0.00    -0.042 I 
ATOM      7  C   LIG    1       24.698 -31.102  13.331  0.00  0.00    +0.065 A 
ATOM      8  C   LIG    1       25.111 -31.454  12.047  0.00  0.00    +0.049 A 
ATOM      9  I   LIG    1       25.011 -33.824  11.957  0.00  0.00    -0.041 I 
ENDROOT
BRANCH   4  10
ATOM     10  C   LIG    1       21.510 -29.121  12.427  0.00  0.00    +0.246 C 
ATOM     11  N   LIG    1       20.155 -29.461  12.349  0.00  0.00    -0.309 N 
ATOM     12  H   LIG    1       19.462 -28.721  12.305  0.00  0.00    +0.149 HD
ATOM     13  O   LIG    1       21.798 -27.928  12.527  0.00  0.00    -0.270 OA
BRANCH  11  14
ATOM     14  C   LIG    1       19.767 -30.819  12.218  0.00  0.00    +0.138 C 
BRANCH  14  15
ATOM     15  C   LIG    1       18.677 -31.407  11.345  0.00  0.00    +0.157 C 
BRANCH  15  16
ATOM     16  O   LIG    1       18.713 -30.808  10.060  0.00  0.00    -0.388 OA
ATOM     17  H   LIG    1       17.833 -30.430   9.894  0.00  0.00    +0.210 HD
ENDBRANCH  15  16
BRANCH  15  18
ATOM     18  C   LIG    1       17.316 -31.351  12.011  0.00  0.00    +0.188 C 
BRANCH  18  19
ATOM     19  O   LIG    1       17.224 -30.218  12.868  0.00  0.00    -0.392 OA
ATOM     20  H   LIG    1       16.763 -30.499  13.677  0.00  0.00    +0.209 HD
ENDBRANCH  18  19
ENDBRANCH  15  18
ENDBRANCH  14  15
ENDBRANCH  11  14
ENDBRANCH   4  10
BRANCH   1  23
ATOM     21  C   LIG    1       26.579 -28.219   9.062  0.00  0.00    +0.110 C 
ATOM     22  C   LIG    1       26.034 -29.060  10.170  0.00  0.00    +0.217 C 
ATOM     23  N   LIG    1       25.474 -30.323   9.892  0.00  0.00    -0.267 N 
ATOM     24  O   LIG    1       26.096 -28.561  11.297  0.00  0.00    -0.276 OA
BRANCH  23  25
ATOM     25  C   LIG    1       25.691 -31.067   8.597  0.00  0.00    +0.147 C 
BRANCH  25  26
ATOM     26  C   LIG    1       24.885 -30.542   7.377  0.00  0.00    +0.158 C 
BRANCH  26  27
ATOM     27  O   LIG    1       25.786 -29.991   6.410  0.00  0.00    -0.388 OA
ATOM     28  H   LIG    1       26.350 -29.362   6.895  0.00  0.00    +0.210 HD
ENDBRANCH  26  27
BRANCH  26  29
ATOM     29  C   LIG    1       24.036 -31.593   6.635  0.00  0.00    +0.188 C 
BRANCH  29  30
ATOM     30  O   LIG    1       23.266 -30.921   5.622  0.00  0.00    -0.392 OA
ATOM     31  H   LIG    1       23.771 -30.945   4.789  0.00  0.00    +0.209 HD
ENDBRANCH  29  30
ENDBRANCH  26  29
ENDBRANCH  25  26
ENDBRANCH  23  25
ENDBRANCH   1  23
BRANCH   7  32
ATOM     32  C   LIG    1       25.868 -31.101  14.280  0.00  0.00    +0.246 C 
ATOM     33  N   LIG    1       26.882 -30.213  13.987  0.00  0.00    -0.309 N 
ATOM     34  H   LIG    1       26.780 -29.569  13.216  0.00  0.00    +0.149 HD
ATOM     35  O   LIG    1       25.930 -31.853  15.205  0.00  0.00    -0.270 OA
BRANCH  33  36
ATOM     36  C   LIG    1       28.105 -30.145  14.773  0.00  0.00    +0.138 C 
BRANCH  36  37
ATOM     37  C   LIG    1       28.469 -28.687  15.085  0.00  0.00    +0.157 C 
BRANCH  37  38
ATOM     38  O   LIG    1       29.756 -28.358  14.551  0.00  0.00    -0.388 OA
ATOM     39  H   LIG    1       30.415 -28.683  15.191  0.00  0.00    +0.210 HD
ENDBRANCH  37  38
BRANCH  37  40
ATOM     40  C   LIG    1       27.425 -27.734  14.501  0.00  0.00    +0.188 C 
BRANCH  40  41
ATOM     41  O   LIG    1       27.749 -27.388  13.158  0.00  0.00    -0.392 OA
ATOM     42  H   LIG    1       27.395 -28.099  12.595  0.00  0.00    +0.209 HD
ENDBRANCH  40  41
ENDBRANCH  37  40
ENDBRANCH  36  37
ENDBRANCH  33  36
ENDBRANCH   7  32
TORSDOF 18
ENDMDL
MODEL 3
REMARK VINA RESULT:      -5.4      2.306      4.313
REMARK  Name = *****
REMARK                            x       y       z     vdW  Elec       q    Type
REMARK                         _______ _______ _______ _____ _____    ______ ____
ROOT
ATOM      1  C   LIG    1       24.980 -29.974  12.669  0.00  0.00    +0.064 A 
ATOM      2  C   LIG    1       24.652 -31.050  11.835  0.00  0.00    +0.049 A 
ATOM      3  I   LIG    1       25.060 -32.832  13.543  0.00  0.00    -0.041 I 
ATOM      4  C   LIG    1       23.358 -31.167  11.201  0.00  0.00    +0.065 A 
ATOM      5  C   LIG    1       22.374 -30.196  11.577  0.00  0.00    +0.040 A 
ATOM      6  I   LIG    1       20.270 -30.724  11.382  0.00  0.00    -0.042 I 
ATOM      7  C   LIG    1       22.662 -29.208  12.546  0.00  0.00    +0.065 A 
ATOM      8  C   LIG    1       23.882 -29.303  13.214  0.00  0.00    +0.049 A 
ATOM      9  I   LIG    1       23.367 -30.060  15.405  0.00  0.00    -0.041 I 
ENDROOT
BRANCH   4  10
ATOM     10  C   LIG    1       23.257 -31.864   9.807  0.00  0.00    +0.246 C 
ATOM     11  N   LIG    1       23.666 -31.211   8.639  0.00  0.00    -0.309 N 
ATOM     12  H   LIG    1       23.476 -31.642   7.740  0.00  0.00    +0.149 HD
ATOM     13  O   LIG    1       22.756 -32.983   9.695  0.00  0.00    -0.270 OA
BRANCH  11  14
ATOM     14  C   LIG    1       24.236 -29.914   8.708  0.00  0.00    +0.138 C 
BRANCH  14  15
ATOM     15  C   LIG    1       25.120 -29.218   7.694  0.00  0.00    +0.157 C 
BRANCH  15  16
ATOM     16  O   LIG    1       26.041 -28.369   8.359  0.00  0.00    -0.388 OA
ATOM     17  H   LIG    1       26.804 -28.915   8.614  0.00  0.00    +0.210 HD
ENDBRANCH  15  16
BRANCH  15  18
ATOM     18  C   LIG    1       24.316 -28.525   6.612  0.00  0.00    +0.188 C 
BRANCH  18  19
ATOM     19  O   LIG    1       23.514 -29.464   5.905  0.00  0.00    -0.392 OA
ATOM     20  H   LIG    1       23.501 -29.194   4.971  0.00  0.00    +0.209 HD
ENDBRANCH  18  19
ENDBRANCH  15  18
ENDBRANCH  14  15
ENDBRANCH  11  14
ENDBRANCH   4  10
BRANCH   1  23
ATOM     21  C   LIG    1       28.609 -29.450  11.704  0.00  0.00    +0.110 C 
ATOM     22  C   LIG    1       27.142 -29.705  11.592  0.00  0.00    +0.217 C 
ATOM     23  N   LIG    1       26.271 -29.303  12.625  0.00  0.00    -0.267 N 
ATOM     24  O   LIG    1       26.780 -30.291  10.568  0.00  0.00    -0.276 OA
BRANCH  23  25
ATOM     25  C   LIG    1       26.649 -28.312  13.699  0.00  0.00    +0.147 C 
BRANCH  25  26
ATOM     26  C   LIG    1       26.669 -26.822  13.262  0.00  0.00    +0.158 C 
BRANCH  26  27
ATOM     27  O   LIG    1       25.334 -26.305  13.263  0.00  0.00    -0.388 OA
ATOM     28  H   LIG    1       24.933 -26.592  12.423  0.00  0.00    +0.210 HD
ENDBRANCH  26  27
BRANCH  26  29
ATOM     29  C   LIG    1       27.505 -25.877  14.149  0.00  0.00    +0.188 C 
BRANCH  29  30
ATOM     30  O   LIG    1       28.007 -24.809  13.327  0.00  0.00    -0.392 OA
ATOM     31  H   LIG    1       27.412 -24.707  12.562  0.00  0.00    +0.209 HD
ENDBRANCH  29  30
ENDBRANCH  26  29
ENDBRANCH  25  26
ENDBRANCH  23  25
ENDBRANCH   1  23
BRANCH   7  32
ATOM     32  C   LIG    1       22.041 -27.855  12.773  0.00  0.00    +0.246 C 
ATOM     33  N   LIG    1       20.663 -27.812  12.757  0.00  0.00    -0.309 N 
ATOM     34  H   LIG    1       20.134 -28.668  12.666  0.00  0.00    +0.149 HD
ATOM     35  O   LIG    1       22.705 -26.873  12.917  0.00  0.00    -0.270 OA
BRANCH  33  36
ATOM     36  C   LIG    1       19.923 -26.566  12.894  0.00  0.00    +0.138 C 
BRANCH  36  37
ATOM     37  C   LIG    1       19.065 -26.583  14.167  0.00  0.00    +0.157 C 
BRANCH  37  38
ATOM     38  O   LIG    1       17.976 -25.660  14.058  0.00  0.00    -0.388 OA
ATOM     39  H   LIG    1       17.814 -25.530  13.106  0.00  0.00    +0.210 HD
ENDBRANCH  37  38
BRANCH  37  40
ATOM     40  C   LIG    1       18.510 -27.984  14.425  0.00  0.00    +0.188 C 
BRANCH  40  41
ATOM     41  O   LIG    1       17.142 -28.068  14.040  0.00  0.00    -0.392 OA
ATOM     42  H   LIG    1       16.924 -29.016  13.991  0.00  0.00    +0.209 HD
ENDBRANCH  40  41
ENDBRANCH  37  40
ENDBRANCH  36  37
ENDBRANCH  33  36
ENDBRANCH   7  32
TORSDOF 18
ENDMDL
MODEL 4
REMARK VINA RESULT:      -5.4      2.403      4.494
REMARK  Name = *****
REMARK                            x       y       z     vdW  Elec       q    Type
REMARK                         _______ _______ _______ _____ _____    ______ ____
ROOT
ATOM      1  C   LIG    1       22.997 -29.777  13.439  0.00  0.00    +0.064 A 
ATOM      2  C   LIG    1       23.889 -30.622  14.111  0.00  0.00    +0.049 A 
ATOM      3  I   LIG    1       22.155 -31.772  15.500  0.00  0.00    -0.041 I 
ATOM      4  C   LIG    1       24.750 -31.547  13.410  0.00  0.00    +0.065 A 
ATOM      5  C   LIG    1       24.550 -31.658  11.996  0.00  0.00    +0.040 A 
ATOM      6  I   LIG    1       25.132 -33.509  11.008  0.00  0.00    -0.042 I 
ATOM      7  C   LIG    1       23.533 -30.920  11.347  0.00  0.00    +0.065 A 
ATOM      8  C   LIG    1       22.654 -30.196  12.152  0.00  0.00    +0.049 A 
ATOM      9  I   LIG    1       20.604 -31.393  12.114  0.00  0.00    -0.041 I 
ENDROOT
BRANCH   4  10
ATOM     10  C   LIG    1       26.147 -31.892  14.017  0.00  0.00    +0.246 C 
ATOM     11  N   LIG    1       27.175 -30.942  14.058  0.00  0.00    -0.309 N 
ATOM     12  H   LIG    1       28.104 -31.232  14.346  0.00  0.00    +0.149 HD
ATOM     13  O   LIG    1       26.398 -33.028  14.420  0.00  0.00    -0.270 OA
BRANCH  11  14
ATOM     14  C   LIG    1       26.945 -29.622  13.592  0.00  0.00    +0.138 C 
BRANCH  14  15
ATOM     15  C   LIG    1       27.780 -28.806  12.627  0.00  0.00    +0.157 C 
BRANCH  15  16
ATOM     16  O   LIG    1       27.542 -27.423  12.834  0.00  0.00    -0.388 OA
ATOM     17  H   LIG    1       26.579 -27.300  12.877  0.00  0.00    +0.210 HD
ENDBRANCH  15  16
BRANCH  15  18
ATOM     18  C   LIG    1       27.595 -29.253  11.190  0.00  0.00    +0.188 C 
BRANCH  18  19
ATOM     19  O   LIG    1       26.797 -28.317  10.473  0.00  0.00    -0.392 OA
ATOM     20  H   LIG    1       26.090 -28.815  10.029  0.00  0.00    +0.209 HD
ENDBRANCH  18  19
ENDBRANCH  15  18
ENDBRANCH  14  15
ENDBRANCH  11  14
ENDBRANCH   4  10
BRANCH   1  23
ATOM     21  C   LIG    1       23.953 -26.164  14.081  0.00  0.00    +0.110 C 
ATOM     22  C   LIG    1       23.802 -27.484  13.399  0.00  0.00    +0.217 C 
ATOM     23  N   LIG    1       22.796 -28.383  13.808  0.00  0.00    -0.267 N 
ATOM     24  O   LIG    1       24.613 -27.713  12.497  0.00  0.00    -0.276 OA
BRANCH  23  25
ATOM     25  C   LIG    1       21.616 -27.986  14.661  0.00  0.00    +0.147 C 
BRANCH  25  26
ATOM     26  C   LIG    1       20.516 -27.158  13.942  0.00  0.00    +0.158 C 
BRANCH  26  27
ATOM     27  O   LIG    1       20.428 -27.564  12.573  0.00  0.00    -0.388 OA
ATOM     28  H   LIG    1       19.477 -27.606  12.365  0.00  0.00    +0.210 HD
ENDBRANCH  26  27
BRANCH  26  29
ATOM     29  C   LIG    1       19.095 -27.285  14.528  0.00  0.00    +0.188 C 
BRANCH  29  30
ATOM     30  O   LIG    1       18.596 -25.963  14.802  0.00  0.00    -0.392 OA
ATOM     31  H   LIG    1       17.632 -26.020  14.920  0.00  0.00    +0.209 HD
ENDBRANCH  29  30
ENDBRANCH  26  29
ENDBRANCH  25  26
ENDBRANCH  23  25
ENDBRANCH   1  23
BRANCH   7  32
ATOM     32  C   LIG    1       23.408 -30.488   9.909  0.00  0.00    +0.246 C 
ATOM     33  N   LIG    1       24.523 -29.892   9.358  0.00  0.00    -0.309 N 
ATOM     34  H   LIG    1       25.376 -29.828   9.894  0.00  0.00    +0.149 HD
ATOM     35  O   LIG    1       22.390 -30.619   9.298  0.00  0.00    -0.270 OA
BRANCH  33  36
ATOM     36  C   LIG    1       24.530 -29.362   8.002  0.00  0.00    +0.138 C 
BRANCH  36  37
ATOM     37  C   LIG    1       25.314 -30.289   7.063  0.00  0.00    +0.157 C 
BRANCH  37  38
ATOM     38  O   LIG    1       26.333 -30.996   7.779  0.00  0.00    -0.388 OA
ATOM     39  H   LIG    1       26.950 -31.348   7.112  0.00  0.00    +0.210 HD
ENDBRANCH  37  38
BRANCH  37  40
ATOM     40  C   LIG    1       24.379 -31.298   6.396  0.00  0.00    +0.188 C 
BRANCH  40  41
ATOM     41  O   LIG    1       23.319 -30.634   5.715  0.00  0.00    -0.392 OA
ATOM     42  H   LIG    1       23.684 -30.325   4.866  0.00  0.00    +0.209 HD
ENDBRANCH  40  41
ENDBRANCH  37  40
ENDBRANCH  36  37
ENDBRANCH  33  36
ENDBRANCH   7  32
TORSDOF 18
ENDMDL
MODEL 5
REMARK VINA RESULT:      -5.4      2.308      4.870
REMARK  Name = *****
REMARK                            x       y       z     vdW  Elec       q    Type
REMARK                         _______ _______ _______ _____ _____    ______ ____
ROOT
ATOM      1  C   LIG    1       22.661 -29.850  12.858  0.00  0.00    +0.064 A 
ATOM      2  C   LIG    1       23.534 -30.579  13.676  0.00  0.00    +0.049 A 
ATOM      3  I   LIG    1       21.749 -31.666  15.051  0.00  0.00    -0.041 I 
ATOM      4  C   LIG    1       24.483 -31.527  13.139  0.00  0.00    +0.065 A 
ATOM      5  C   LIG    1       24.395 -31.790  11.733  0.00  0.00    +0.040 A 
ATOM      6  I   LIG    1       25.127 -33.701  10.988  0.00  0.00    -0.042 I 
ATOM      7  C   LIG    1       23.401 -31.172  10.940  0.00  0.00    +0.065 A 
ATOM      8  C   LIG    1       22.434 -30.414  11.600  0.00  0.00    +0.049 A 
ATOM      9  I   LIG    1       20.444 -31.707  11.542  0.00  0.00    -0.041 I 
ENDROOT
BRANCH   4  10
ATOM     10  C   LIG    1       25.843 -31.740  13.876  0.00  0.00    +0.246 C 
ATOM     11  N   LIG    1       26.940 -30.906  13.631  0.00  0.00    -0.309 N 
ATOM     12  H   LIG    1       27.841 -31.144  14.033  0.00  0.00    +0.149 HD
ATOM     13  O   LIG    1       26.002 -32.686  14.648  0.00  0.00    -0.270 OA
BRANCH  11  14
ATOM     14  C   LIG    1       26.817 -29.810  12.738  0.00  0.00    +0.138 C 
BRANCH  14  15
ATOM     15  C   LIG    1       27.455 -29.629  11.376  0.00  0.00    +0.157 C 
BRANCH  15  16
ATOM     16  O   LIG    1       28.868 -29.684  11.495  0.00  0.00    -0.388 OA
ATOM     17  H   LIG    1       29.165 -28.811  11.802  0.00  0.00    +0.210 HD
ENDBRANCH  15  16
BRANCH  15  18
ATOM     18  C   LIG    1       26.946 -28.392  10.664  0.00  0.00    +0.188 C 
BRANCH  18  19
ATOM     19  O   LIG    1       27.093 -28.528   9.255  0.00  0.00    -0.392 OA
ATOM     20  H   LIG    1       27.261 -29.468   9.068  0.00  0.00    +0.209 HD
ENDBRANCH  18  19
ENDBRANCH  15  18
ENDBRANCH  14  15
ENDBRANCH  11  14
ENDBRANCH   4  10
BRANCH   1  23
ATOM     21  C   LIG    1       20.563 -26.694  12.967  0.00  0.00    +0.110 C 
ATOM     22  C   LIG    1       21.015 -28.097  13.208  0.00  0.00    +0.217 C 
ATOM     23  N   LIG    1       22.375 -28.438  13.064  0.00  0.00    -0.267 N 
ATOM     24  O   LIG    1       20.126 -28.898  13.511  0.00  0.00    -0.276 OA
BRANCH  23  25
ATOM     25  C   LIG    1       23.492 -27.424  13.023  0.00  0.00    +0.147 C 
BRANCH  25  26
ATOM     26  C   LIG    1       24.194 -27.142  14.380  0.00  0.00    +0.158 C 
BRANCH  26  27
ATOM     27  O   LIG    1       25.551 -26.754  14.147  0.00  0.00    -0.388 OA
ATOM     28  H   LIG    1       25.517 -26.042  13.482  0.00  0.00    +0.210 HD
ENDBRANCH  26  27
BRANCH  26  29
ATOM     29  C   LIG    1       23.563 -26.028  15.240  0.00  0.00    +0.188 C 
BRANCH  29  30
ATOM     30  O   LIG    1       24.517 -24.960  15.371  0.00  0.00    -0.392 OA
ATOM     31  H   LIG    1       24.777 -24.671  14.478  0.00  0.00    +0.209 HD
ENDBRANCH  29  30
ENDBRANCH  26  29
ENDBRANCH  25  26
ENDBRANCH  23  25
ENDBRANCH   1  23
BRANCH   7  32
ATOM     32  C   LIG    1       23.368 -30.895   9.460  0.00  0.00    +0.246 C 
ATOM     33  N   LIG    1       24.231 -29.918   9.008  0.00  0.00    -0.309 N 
ATOM     34  H   LIG    1       24.881 -29.486   9.649  0.00  0.00    +0.149 HD
ATOM     35  O   LIG    1       22.610 -31.459   8.730  0.00  0.00    -0.270 OA
BRANCH  33  36
ATOM     36  C   LIG    1       24.263 -29.494   7.616  0.00  0.00    +0.138 C 
BRANCH  36  37
ATOM     37  C   LIG    1       25.361 -30.242   6.847  0.00  0.00    +0.157 C 
BRANCH  37  38
ATOM     38  O   LIG    1       26.250 -30.909   7.750  0.00  0.00    -0.388 OA
ATOM     39  H   LIG    1       27.154 -30.651   7.493  0.00  0.00    +0.210 HD
ENDBRANCH  37  38
BRANCH  37  40
ATOM     40  C   LIG    1       24.749 -31.269   5.895  0.00  0.00    +0.188 C 
BRANCH  40  41
ATOM     41  O   LIG    1       23.328 -31.180   5.897  0.00  0.00    -0.392 OA
ATOM     42  H   LIG    1       23.006 -31.855   5.274  0.00  0.00    +0.209 HD
ENDBRANCH  40  41
ENDBRANCH  37  40
ENDBRANCH  36  37
ENDBRANCH  33  36
ENDBRANCH   7  32
TORSDOF 18
ENDMDL
MODEL 6
REMARK VINA RESULT:      -5.3      1.940      5.676
REMARK  Name = *****
REMARK                            x       y       z     vdW  Elec       q    Type
REMARK                         _______ _______ _______ _____ _____    ______ ____
ROOT
ATOM      1  C   LIG    1       23.030 -30.940  13.050  0.00  0.00    +0.064 A 
ATOM      2  C   LIG    1       23.853 -30.137  13.850  0.00  0.00    +0.049 A 
ATOM      3  I   LIG    1       24.892 -32.024  15.122  0.00  0.00    -0.041 I 
ATOM      4  C   LIG    1       24.832 -29.235  13.287  0.00  0.00    +0.065 A 
ATOM      5  C   LIG    1       25.017 -29.300  11.868  0.00  0.00    +0.040 A 
ATOM      6  I   LIG    1       26.931 -28.670  11.042  0.00  0.00    -0.042 I 
ATOM      7  C   LIG    1       24.297 -30.231  11.084  0.00  0.00    +0.065 A 
ATOM      8  C   LIG    1       23.513 -31.166  11.759  0.00  0.00    +0.049 A 
ATOM      9  I   LIG    1       24.671 -33.232  11.585  0.00  0.00    -0.041 I 
ENDROOT
BRANCH   4  10
ATOM     10  C   LIG    1       25.169 -27.912  14.045  0.00  0.00    +0.246 C 
ATOM     11  N   LIG    1       24.305 -26.811  14.003  0.00  0.00    -0.309 N 
ATOM     12  H   LIG    1       24.609 -25.930  14.403  0.00  0.00    +0.149 HD
ATOM     13  O   LIG    1       26.234 -27.784  14.650  0.00  0.00    -0.270 OA
BRANCH  11  14
ATOM     14  C   LIG    1       23.072 -26.898  13.307  0.00  0.00    +0.138 C 
BRANCH  14  15
ATOM     15  C   LIG    1       21.682 -26.568  13.810  0.00  0.00    +0.157 C 
BRANCH  15  16
ATOM     16  O   LIG    1       21.594 -26.842  15.200  0.00  0.00    -0.388 OA
ATOM     17  H   LIG    1       21.800 -26.016  15.669  0.00  0.00    +0.210 HD
ENDBRANCH  15  16
BRANCH  15  18
ATOM     18  C   LIG    1       20.600 -27.233  12.983  0.00  0.00    +0.188 C 
BRANCH  18  19
ATOM     19  O   LIG    1       19.607 -26.287  12.604  0.00  0.00    -0.392 OA
ATOM     20  H   LIG    1       18.745 -26.737  12.637  0.00  0.00    +0.209 HD
ENDBRANCH  18  19
ENDBRANCH  15  18
ENDBRANCH  14  15
ENDBRANCH  11  14
ENDBRANCH   4  10
BRANCH   1  23
ATOM     21  C   LIG    1       19.882 -31.192  15.149  0.00  0.00    +0.110 C 
ATOM     22  C   LIG    1       21.149 -30.660  14.564  0.00  0.00    +0.217 C 
ATOM     23  N   LIG    1       21.614 -31.141  13.323  0.00  0.00    -0.267 N 
ATOM     24  O   LIG    1       21.736 -29.815  15.245  0.00  0.00    -0.276 OA
BRANCH  23  25
ATOM     25  C   LIG    1       20.755 -31.909  12.348  0.00  0.00    +0.147 C 
BRANCH  25  26
ATOM     26  C   LIG    1       19.728 -31.063  11.546  0.00  0.00    +0.158 C 
BRANCH  26  27
ATOM     27  O   LIG    1       20.289 -30.705  10.279  0.00  0.00    -0.388 OA
ATOM     28  H   LIG    1       21.034 -30.108  10.474  0.00  0.00    +0.210 HD
ENDBRANCH  26  27
BRANCH  26  29
ATOM     29  C   LIG    1       18.382 -31.754  11.248  0.00  0.00    +0.188 C 
BRANCH  29  30
ATOM     30  O   LIG    1       17.534 -30.817  10.561  0.00  0.00    -0.392 OA
ATOM     31  H   LIG    1       17.963 -30.577   9.720  0.00  0.00    +0.209 HD
ENDBRANCH  29  30
ENDBRANCH  26  29
ENDBRANCH  25  26
ENDBRANCH  23  25
ENDBRANCH   1  23
BRANCH   7  32
ATOM     32  C   LIG    1       23.943 -30.206   9.620  0.00  0.00    +0.246 C 
ATOM     33  N   LIG    1       24.999 -30.049   8.746  0.00  0.00    -0.309 N 
ATOM     34  H   LIG    1       25.945 -30.026   9.098  0.00  0.00    +0.149 HD
ATOM     35  O   LIG    1       22.812 -30.276   9.244  0.00  0.00    -0.270 OA
BRANCH  33  36
ATOM     36  C   LIG    1       24.805 -29.938   7.308  0.00  0.00    +0.138 C 
BRANCH  36  37
ATOM     37  C   LIG    1       24.818 -28.466   6.872  0.00  0.00    +0.157 C 
BRANCH  37  38
ATOM     38  O   LIG    1       26.160 -27.988   6.729  0.00  0.00    -0.388 OA
ATOM     39  H   LIG    1       26.420 -28.158   5.805  0.00  0.00    +0.210 HD
ENDBRANCH  37  38
BRANCH  37  40
ATOM     40  C   LIG    1       24.079 -28.290   5.545  0.00  0.00    +0.188 C 
BRANCH  40  41
ATOM     41  O   LIG    1       23.220 -29.397   5.291  0.00  0.00    -0.392 OA
ATOM     42  H   LIG    1       22.316 -29.101   5.497  0.00  0.00    +0.209 HD
ENDBRANCH  40  41
ENDBRANCH  37  40
ENDBRANCH  36  37
ENDBRANCH  33  36
ENDBRANCH   7  32
TORSDOF 18
ENDMDL
MODEL 7
REMARK VINA RESULT:      -5.0      2.074      6.817
REMARK  Name = *****
REMARK                            x       y       z     vdW  Elec       q    Type
REMARK                         _______ _______ _______ _____ _____    ______ ____
ROOT
ATOM      1  C   LIG    1       24.329 -31.161   9.493  0.00  0.00    +0.064 A 
ATOM      2  C   LIG    1       22.957 -31.445   9.512  0.00  0.00    +0.049 A 
ATOM      3  I   LIG    1       23.042 -33.230   7.760  0.00  0.00    -0.041 I 
ATOM      4  C   LIG    1       22.275 -31.871  10.713  0.00  0.00    +0.065 A 
ATOM      5  C   LIG    1       23.098 -32.122  11.858  0.00  0.00    +0.040 A 
ATOM      6  I   LIG    1       22.370 -33.504  13.375  0.00  0.00    -0.042 I 
ATOM      7  C   LIG    1       24.503 -31.989  11.785  0.00  0.00    +0.065 A 
ATOM      8  C   LIG    1       25.059 -31.745  10.530  0.00  0.00    +0.049 A 
ATOM      9  I   LIG    1       26.088 -33.780   9.867  0.00  0.00    -0.041 I 
ENDROOT
BRANCH   4  10
ATOM     10  C   LIG    1       20.777 -31.478  10.914  0.00  0.00    +0.246 C 
ATOM     11  N   LIG    1       20.419 -30.312  11.601  0.00  0.00    -0.309 N 
ATOM     12  H   LIG    1       19.442 -30.148  11.819  0.00  0.00    +0.149 HD
ATOM     13  O   LIG    1       19.872 -32.216  10.525  0.00  0.00    -0.270 OA
BRANCH  11  14
ATOM     14  C   LIG    1       21.422 -29.432  12.084  0.00  0.00    +0.138 C 
BRANCH  14  15
ATOM     15  C   LIG    1       21.290 -28.329  13.114  0.00  0.00    +0.157 C 
BRANCH  15  16
ATOM     16  O   LIG    1       20.480 -27.284  12.600  0.00  0.00    -0.388 OA
ATOM     17  H   LIG    1       19.901 -26.988  13.323  0.00  0.00    +0.210 HD
ENDBRANCH  15  16
BRANCH  15  18
ATOM     18  C   LIG    1       22.636 -27.865  13.633  0.00  0.00    +0.188 C 
BRANCH  18  19
ATOM     19  O   LIG    1       22.951 -26.574  13.124  0.00  0.00    -0.392 OA
ATOM     20  H   LIG    1       22.891 -25.945  13.863  0.00  0.00    +0.209 HD
ENDBRANCH  18  19
ENDBRANCH  15  18
ENDBRANCH  14  15
ENDBRANCH  11  14
ENDBRANCH   4  10
BRANCH   1  23
ATOM     21  C   LIG    1       26.595 -28.174   8.928  0.00  0.00    +0.110 C 
ATOM     22  C   LIG    1       26.141 -29.561   9.244  0.00  0.00    +0.217 C 
ATOM     23  N   LIG    1       24.891 -30.021   8.783  0.00  0.00    -0.267 N 
ATOM     24  O   LIG    1       26.917 -30.231   9.932  0.00  0.00    -0.276 OA
BRANCH  23  25
ATOM     25  C   LIG    1       24.103 -29.345   7.688  0.00  0.00    +0.147 C 
BRANCH  25  26
ATOM     26  C   LIG    1       24.480 -29.755   6.238  0.00  0.00    +0.158 C 
BRANCH  26  27
ATOM     27  O   LIG    1       23.329 -30.287   5.575  0.00  0.00    -0.388 OA
ATOM     28  H   LIG    1       22.564 -29.798   5.930  0.00  0.00    +0.210 HD
ENDBRANCH  26  27
BRANCH  26  29
ATOM     29  C   LIG    1       25.015 -28.620   5.340  0.00  0.00    +0.188 C 
BRANCH  29  30
ATOM     30  O   LIG    1       24.086 -27.524   5.393  0.00  0.00    -0.392 OA
ATOM     31  H   LIG    1       23.969 -27.179   4.490  0.00  0.00    +0.209 HD
ENDBRANCH  29  30
ENDBRANCH  26  29
ENDBRANCH  25  26
ENDBRANCH  23  25
ENDBRANCH   1  23
BRANCH   7  32
ATOM     32  C   LIG    1       25.516 -31.730  12.869  0.00  0.00    +0.246 C 
ATOM     33  N   LIG    1       25.955 -30.428  12.987  0.00  0.00    -0.309 N 
ATOM     34  H   LIG    1       25.549 -29.706  12.410  0.00  0.00    +0.149 HD
ATOM     35  O   LIG    1       25.942 -32.608  13.558  0.00  0.00    -0.270 OA
BRANCH  33  36
ATOM     36  C   LIG    1       26.982 -30.038  13.942  0.00  0.00    +0.138 C 
BRANCH  36  37
ATOM     37  C   LIG    1       27.712 -28.774  13.467  0.00  0.00    +0.157 C 
BRANCH  37  38
ATOM     38  O   LIG    1       28.217 -28.948  12.139  0.00  0.00    -0.388 OA
ATOM     39  H   LIG    1       27.585 -29.526  11.673  0.00  0.00    +0.210 HD
ENDBRANCH  37  38
BRANCH  37  40
ATOM     40  C   LIG    1       26.775 -27.567  13.494  0.00  0.00    +0.188 C 
BRANCH  40  41
ATOM     41  O   LIG    1       25.853 -27.616  12.410  0.00  0.00    -0.392 OA
ATOM     42  H   LIG    1       25.470 -26.724  12.330  0.00  0.00    +0.209 HD
ENDBRANCH  40  41
ENDBRANCH  37  40
ENDBRANCH  36  37
ENDBRANCH  33  36
ENDBRANCH   7  32
TORSDOF 18
ENDMDL
MODEL 8
REMARK VINA RESULT:      -5.0      2.383      5.692
REMARK  Name = *****
REMARK                            x       y       z     vdW  Elec       q    Type
REMARK                         _______ _______ _______ _____ _____    ______ ____
ROOT
ATOM      1  C   LIG    1       22.858 -30.152  13.159  0.00  0.00    +0.064 A 
ATOM      2  C   LIG    1       23.807 -29.338  13.788  0.00  0.00    +0.049 A 
ATOM      3  I   LIG    1       24.499 -31.026  15.500  0.00  0.00    -0.041 I 
ATOM      4  C   LIG    1       24.930 -28.770  13.076  0.00  0.00    +0.065 A 
ATOM      5  C   LIG    1       25.103 -29.194  11.718  0.00  0.00    +0.040 A 
ATOM      6  I   LIG    1       27.098 -29.107  10.851  0.00  0.00    -0.042 I 
ATOM      7  C   LIG    1       24.232 -30.145  11.138  0.00  0.00    +0.065 A 
ATOM      8  C   LIG    1       23.296 -30.751  11.976  0.00  0.00    +0.049 A 
ATOM      9  I   LIG    1       24.075 -32.966  12.327  0.00  0.00    -0.041 I 
ENDROOT
BRANCH   4  10
ATOM     10  C   LIG    1       25.492 -27.385  13.525  0.00  0.00    +0.246 C 
ATOM     11  N   LIG    1       26.646 -27.289  14.311  0.00  0.00    -0.309 N 
ATOM     12  H   LIG    1       26.914 -26.386  14.687  0.00  0.00    +0.149 HD
ATOM     13  O   LIG    1       24.897 -26.342  13.249  0.00  0.00    -0.270 OA
BRANCH  11  14
ATOM     14  C   LIG    1       27.362 -28.460  14.672  0.00  0.00    +0.138 C 
BRANCH  14  15
ATOM     15  C   LIG    1       28.848 -28.615  14.920  0.00  0.00    +0.157 C 
BRANCH  15  16
ATOM     16  O   LIG    1       29.499 -27.366  14.748  0.00  0.00    -0.388 OA
ATOM     17  H   LIG    1       29.560 -26.951  15.624  0.00  0.00    +0.210 HD
ENDBRANCH  15  16
BRANCH  15  18
ATOM     18  C   LIG    1       29.451 -29.741  14.104  0.00  0.00    +0.188 C 
BRANCH  18  19
ATOM     19  O   LIG    1       30.415 -29.234  13.188  0.00  0.00    -0.392 OA
ATOM     20  H   LIG    1       31.296 -29.428  13.551  0.00  0.00    +0.209 HD
ENDBRANCH  18  19
ENDBRANCH  15  18
ENDBRANCH  14  15
ENDBRANCH  11  14
ENDBRANCH   4  10
BRANCH   1  23
ATOM     21  C   LIG    1       19.345 -31.360  13.922  0.00  0.00    +0.110 C 
ATOM     22  C   LIG    1       20.821 -31.156  14.026  0.00  0.00    +0.217 C 
ATOM     23  N   LIG    1       21.428 -30.042  13.411  0.00  0.00    -0.267 N 
ATOM     24  O   LIG    1       21.435 -32.023  14.654  0.00  0.00    -0.276 OA
BRANCH  23  25
ATOM     25  C   LIG    1       20.665 -28.828  12.939  0.00  0.00    +0.147 C 
BRANCH  25  26
ATOM     26  C   LIG    1       20.860 -27.541  13.786  0.00  0.00    +0.158 C 
BRANCH  26  27
ATOM     27  O   LIG    1       21.734 -26.641  13.096  0.00  0.00    -0.388 OA
ATOM     28  H   LIG    1       21.413 -25.744  13.300  0.00  0.00    +0.210 HD
ENDBRANCH  26  27
BRANCH  26  29
ATOM     29  C   LIG    1       19.576 -26.747  14.099  0.00  0.00    +0.188 C 
BRANCH  29  30
ATOM     30  O   LIG    1       18.446 -27.615  13.900  0.00  0.00    -0.392 OA
ATOM     31  H   LIG    1       18.774 -28.474  13.579  0.00  0.00    +0.209 HD
ENDBRANCH  29  30
ENDBRANCH  26  29
ENDBRANCH  25  26
ENDBRANCH  23  25
ENDBRANCH   1  23
BRANCH   7  32
ATOM     32  C   LIG    1       23.890 -30.401   9.694  0.00  0.00    +0.246 C 
ATOM     33  N   LIG    1       24.943 -30.761   8.878  0.00  0.00    -0.309 N 
ATOM     34  H   LIG    1       25.861 -30.903   9.275  0.00  0.00    +0.149 HD
ATOM     35  O   LIG    1       22.781 -30.260   9.274  0.00  0.00    -0.270 OA
BRANCH  33  36
ATOM     36  C   LIG    1       24.779 -30.973   7.448  0.00  0.00    +0.138 C 
BRANCH  36  37
ATOM     37  C   LIG    1       25.298 -29.764   6.658  0.00  0.00    +0.157 C 
BRANCH  37  38
ATOM     38  O   LIG    1       25.898 -30.180   5.426  0.00  0.00    -0.388 OA
ATOM     39  H   LIG    1       26.184 -31.103   5.553  0.00  0.00    +0.210 HD
ENDBRANCH  37  38
BRANCH  37  40
ATOM     40  C   LIG    1       24.161 -28.788   6.357  0.00  0.00    +0.188 C 
BRANCH  40  41
ATOM     41  O   LIG    1       23.589 -29.053   5.080  0.00  0.00    -0.392 OA
ATOM     42  H   LIG    1       22.712 -29.443   5.244  0.00  0.00    +0.209 HD
ENDBRANCH  40  41
ENDBRANCH  37  40
ENDBRANCH  36  37
ENDBRANCH  33  36
ENDBRANCH   7  32
TORSDOF 18
ENDMDL
MODEL 9
REMARK VINA RESULT:      -4.5      2.712      6.018
REMARK  Name = *****
REMARK                            x       y       z     vdW  Elec       q    Type
REMARK                         _______ _______ _______ _____ _____    ______ ____
ROOT
ATOM      1  C   LIG    1       23.377 -29.815  13.097  0.00  0.00    +0.064 A 
ATOM      2  C   LIG    1       23.839 -30.933  13.803  0.00  0.00    +0.049 A 
ATOM      3  I   LIG    1       21.578 -31.916  14.230  0.00  0.00    -0.041 I 
ATOM      4  C   LIG    1       24.762 -31.883  13.224  0.00  0.00    +0.065 A 
ATOM      5  C   LIG    1       25.079 -31.700  11.839  0.00  0.00    +0.040 A 
ATOM      6  I   LIG    1       25.725 -33.431  10.686  0.00  0.00    -0.042 I 
ATOM      7  C   LIG    1       24.481 -30.662  11.088  0.00  0.00    +0.065 A 
ATOM      8  C   LIG    1       23.476 -29.921  11.708  0.00  0.00    +0.049 A 
ATOM      9  I   LIG    1       21.439 -30.632  10.717  0.00  0.00    -0.041 I 
ENDROOT
BRANCH   4  10
ATOM     10  C   LIG    1       25.780 -32.616  14.154  0.00  0.00    +0.246 C 
ATOM     11  N   LIG    1       26.867 -31.937  14.717  0.00  0.00    -0.309 N 
ATOM     12  H   LIG    1       27.575 -32.467  15.216  0.00  0.00    +0.149 HD
ATOM     13  O   LIG    1       25.684 -33.825  14.368  0.00  0.00    -0.270 OA
BRANCH  11  14
ATOM     14  C   LIG    1       27.035 -30.547  14.491  0.00  0.00    +0.138 C 
BRANCH  14  15
ATOM     15  C   LIG    1       28.322 -29.749  14.449  0.00  0.00    +0.157 C 
BRANCH  15  16
ATOM     16  O   LIG    1       29.424 -30.595  14.733  0.00  0.00    -0.388 OA
ATOM     17  H   LIG    1       29.851 -30.805  13.885  0.00  0.00    +0.210 HD
ENDBRANCH  15  16
BRANCH  15  18
ATOM     18  C   LIG    1       28.257 -28.511  15.321  0.00  0.00    +0.188 C 
BRANCH  18  19
ATOM     19  O   LIG    1       29.049 -27.466  14.767  0.00  0.00    -0.392 OA
ATOM     20  H   LIG    1       29.463 -26.989  15.507  0.00  0.00    +0.209 HD
ENDBRANCH  18  19
ENDBRANCH  15  18
ENDBRANCH  14  15
ENDBRANCH  11  14
ENDBRANCH   4  10
BRANCH   1  23
ATOM     21  C   LIG    1       21.878 -26.384  13.696  0.00  0.00    +0.110 C 
ATOM     22  C   LIG    1       21.997 -27.865  13.542  0.00  0.00    +0.217 C 
ATOM     23  N   LIG    1       23.247 -28.496  13.701  0.00  0.00    -0.267 N 
ATOM     24  O   LIG    1       20.952 -28.455  13.255  0.00  0.00    -0.276 OA
BRANCH  23  25
ATOM     25  C   LIG    1       24.435 -27.844  14.364  0.00  0.00    +0.147 C 
BRANCH  25  26
ATOM     26  C   LIG    1       25.178 -26.778  13.514  0.00  0.00    +0.158 C 
BRANCH  26  27
ATOM     27  O   LIG    1       25.855 -25.861  14.380  0.00  0.00    -0.388 OA
ATOM     28  H   LIG    1       26.798 -25.910  14.139  0.00  0.00    +0.210 HD
ENDBRANCH  26  27
BRANCH  26  29
ATOM     29  C   LIG    1       26.241 -27.323  12.538  0.00  0.00    +0.188 C 
BRANCH  29  30
ATOM     30  O   LIG    1       27.400 -26.474  12.608  0.00  0.00    -0.392 OA
ATOM     31  H   LIG    1       27.717 -26.466  13.528  0.00  0.00    +0.209 HD
ENDBRANCH  29  30
ENDBRANCH  26  29
ENDBRANCH  25  26
ENDBRANCH  23  25
ENDBRANCH   1  23
BRANCH   7  32
ATOM     32  C   LIG    1       24.950 -29.970   9.836  0.00  0.00    +0.246 C 
ATOM     33  N   LIG    1       24.266 -30.282   8.680  0.00  0.00    -0.309 N 
ATOM     34  H   LIG    1       23.459 -30.889   8.721  0.00  0.00    +0.149 HD
ATOM     35  O   LIG    1       25.885 -29.227   9.839  0.00  0.00    -0.270 OA
BRANCH  33  36
ATOM     36  C   LIG    1       24.647 -29.745   7.382  0.00  0.00    +0.138 C 
BRANCH  36  37
ATOM     37  C   LIG    1       23.940 -30.506   6.252  0.00  0.00    +0.157 C 
BRANCH  37  38
ATOM     38  O   LIG    1       23.237 -29.602   5.392  0.00  0.00    -0.388 OA
ATOM     39  H   LIG    1       23.055 -30.087   4.566  0.00  0.00    +0.210 HD
ENDBRANCH  37  38
BRANCH  37  40
ATOM     40  C   LIG    1       24.949 -31.302   5.424  0.00  0.00    +0.188 C 
BRANCH  40  41
ATOM     41  O   LIG    1       26.275 -31.091   5.899  0.00  0.00    -0.392 OA
ATOM     42  H   LIG    1       26.193 -30.723   6.797  0.00  0.00    +0.209 HD
ENDBRANCH  40  41
ENDBRANCH  37  40
ENDBRANCH  36  37
ENDBRANCH  33  36
ENDBRANCH   7  32
TORSDOF 18
ENDMDL
