MODEL 1
REMARK VINA RESULT:      -8.3      0.000      0.000
REMARK  Name = *****
REMARK                            x       y       z     vdW  Elec       q    Type
REMARK                         _______ _______ _______ _____ _____    ______ ____
ROOT
ATOM      1  C   LIG    1       25.577 -22.074   7.095  0.00  0.00    +0.106 C 
ENDROOT
BRANCH   1   5
ATOM      2  C   LIG    1       29.423 -19.998   7.113  0.00  0.00    +0.008 A 
ATOM      3  C   LIG    1       29.136 -20.980   8.048  0.00  0.00    +0.015 A 
ATOM      4  C   LIG    1       27.872 -21.597   8.114  0.00  0.00    +0.006 A 
ATOM      5  C   LIG    1       26.889 -21.286   7.133  0.00  0.00    -0.030 A 
ATOM      6  C   LIG    1       27.164 -20.286   6.234  0.00  0.00    +0.006 A 
ATOM      7  C   LIG    1       28.392 -19.611   6.226  0.00  0.00    +0.015 A 
BRANCH   2   8
ATOM      8  S   LIG    1       31.091 -19.340   6.989  0.00  0.00    -0.125 S 
BRANCH   8   9
ATOM      9  C   LIG    1       31.399 -18.590   8.640  0.00  0.00    +0.074 C 
BRANCH   9  10
ATOM     10  C   LIG    1       30.292 -17.639   9.110  0.00  0.00    +0.011 C 
BRANCH  10  12
ATOM     11  C   LIG    1       31.445 -16.654  11.140  0.00  0.00    +0.004 C 
ATOM     12  C   LIG    1       30.255 -17.452  10.630  0.00  0.00    -0.003 C 
ENDBRANCH  10  12
ENDBRANCH   9  10
ENDBRANCH   8   9
ENDBRANCH   2   8
ENDBRANCH   1   5
BRANCH   1  13
ATOM     13  C   LIG    1       24.616 -21.357   6.113  0.00  0.00    -0.030 A 
ATOM     14  C   LIG    1       23.572 -20.551   6.613  0.00  0.00    +0.005 A 
ATOM     15  C   LIG    1       22.699 -19.875   5.759  0.00  0.00    +0.000 A 
ATOM     16  C   LIG    1       22.843 -19.994   4.379  0.00  0.00    +0.000 A 
ATOM     17  C   LIG    1       23.876 -20.766   3.861  0.00  0.00    +0.000 A 
ATOM     18  C   LIG    1       24.743 -21.441   4.711  0.00  0.00    +0.005 A 
ENDBRANCH   1  13
BRANCH   1  19
ATOM     19  S   LIG    1       25.819 -23.891   6.626  0.00  0.00    -0.147 S 
BRANCH  19  20
ATOM     20  C   LIG    1       24.154 -24.622   6.464  0.00  0.00    +0.085 C 
BRANCH  20  21
ATOM     21  C   LIG    1       24.073 -25.989   5.771  0.00  0.00    +0.094 C 
BRANCH  21  22
ATOM     22  N   LIG    1       25.240 -26.831   5.954  0.00  0.00    -0.308 NA
ATOM     23  C   LIG    1       25.981 -27.050   4.723  0.00  0.00    +0.104 C 
ATOM     24  C   LIG    1       25.011 -28.034   6.736  0.00  0.00    +0.104 C 
ENDBRANCH  21  22
ENDBRANCH  20  21
ENDBRANCH  19  20
ENDBRANCH   1  19
TORSDOF 10
ENDMDL
MODEL 2
REMARK VINA RESULT:      -8.1      0.678      1.181
REMARK  Name = *****
REMARK                            x       y       z     vdW  Elec       q    Type
REMARK                         _______ _______ _______ _____ _____    ______ ____
ROOT
ATOM      1  C   LIG    1       25.281 -21.822   6.577  0.00  0.00    +0.106 C 
ENDROOT
BRANCH   1   5
ATOM      2  C   LIG    1       29.240 -20.059   7.142  0.00  0.00    +0.008 A 
ATOM      3  C   LIG    1       28.740 -20.995   8.033  0.00  0.00    +0.015 A 
ATOM      4  C   LIG    1       27.434 -21.508   7.918  0.00  0.00    +0.006 A 
ATOM      5  C   LIG    1       26.633 -21.140   6.800  0.00  0.00    -0.030 A 
ATOM      6  C   LIG    1       27.117 -20.184   5.942  0.00  0.00    +0.006 A 
ATOM      7  C   LIG    1       28.384 -19.609   6.109  0.00  0.00    +0.015 A 
BRANCH   2   8
ATOM      8  S   LIG    1       30.956 -19.537   7.258  0.00  0.00    -0.125 S 
BRANCH   8   9
ATOM      9  C   LIG    1       31.132 -18.966   8.997  0.00  0.00    +0.074 C 
BRANCH   9  10
ATOM     10  C   LIG    1       30.291 -17.731   9.338  0.00  0.00    +0.011 C 
BRANCH  10  12
ATOM     11  C   LIG    1       32.262 -16.160   9.601  0.00  0.00    +0.004 C 
ATOM     12  C   LIG    1       31.013 -16.735  10.251  0.00  0.00    -0.003 C 
ENDBRANCH  10  12
ENDBRANCH   9  10
ENDBRANCH   8   9
ENDBRANCH   2   8
ENDBRANCH   1   5
BRANCH   1  13
ATOM     13  C   LIG    1       24.402 -20.873   5.723  0.00  0.00    -0.030 A 
ATOM     14  C   LIG    1       24.758 -20.600   4.386  0.00  0.00    +0.005 A 
ATOM     15  C   LIG    1       23.979 -19.766   3.581  0.00  0.00    +0.000 A 
ATOM     16  C   LIG    1       22.828 -19.176   4.095  0.00  0.00    +0.000 A 
ATOM     17  C   LIG    1       22.446 -19.445   5.404  0.00  0.00    +0.000 A 
ATOM     18  C   LIG    1       23.221 -20.273   6.206  0.00  0.00    +0.005 A 
ENDBRANCH   1  13
BRANCH   1  19
ATOM     19  S   LIG    1       25.437 -23.529   5.776  0.00  0.00    -0.147 S 
BRANCH  19  20
ATOM     20  C   LIG    1       24.153 -24.586   6.529  0.00  0.00    +0.085 C 
BRANCH  20  21
ATOM     21  C   LIG    1       24.077 -26.033   6.023  0.00  0.00    +0.094 C 
BRANCH  21  22
ATOM     22  N   LIG    1       25.315 -26.780   6.138  0.00  0.00    -0.308 NA
ATOM     23  C   LIG    1       25.952 -27.023   4.855  0.00  0.00    +0.104 C 
ATOM     24  C   LIG    1       25.248 -27.946   7.002  0.00  0.00    +0.104 C 
ENDBRANCH  21  22
ENDBRANCH  20  21
ENDBRANCH  19  20
ENDBRANCH   1  19
TORSDOF 10
ENDMDL
MODEL 3
REMARK VINA RESULT:      -8.0      2.661      7.362
REMARK  Name = *****
REMARK                            x       y       z     vdW  Elec       q    Type
REMARK                         _______ _______ _______ _____ _____    ______ ____
ROOT
ATOM      1  C   LIG    1       25.964 -21.323   6.166  0.00  0.00    +0.106 C 
ENDROOT
BRANCH   1   5
ATOM      2  C   LIG    1       24.999 -25.583   5.996  0.00  0.00    +0.008 A 
ATOM      3  C   LIG    1       24.630 -24.725   4.973  0.00  0.00    +0.015 A 
ATOM      4  C   LIG    1       24.853 -23.336   5.049  0.00  0.00    +0.006 A 
ATOM      5  C   LIG    1       25.569 -22.803   6.157  0.00  0.00    -0.030 A 
ATOM      6  C   LIG    1       25.898 -23.650   7.186  0.00  0.00    +0.006 A 
ATOM      7  C   LIG    1       25.596 -25.018   7.147  0.00  0.00    +0.015 A 
BRANCH   2   8
ATOM      8  S   LIG    1       24.810 -27.358   5.789  0.00  0.00    -0.125 S 
BRANCH   8   9
ATOM      9  C   LIG    1       25.623 -28.070   7.276  0.00  0.00    +0.074 C 
BRANCH   9  10
ATOM     10  C   LIG    1       24.878 -29.265   7.883  0.00  0.00    +0.011 C 
BRANCH  10  12
ATOM     11  C   LIG    1       26.632 -28.919   9.679  0.00  0.00    +0.004 C 
ATOM     12  C   LIG    1       25.572 -29.853   9.116  0.00  0.00    -0.003 C 
ENDBRANCH  10  12
ENDBRANCH   9  10
ENDBRANCH   8   9
ENDBRANCH   2   8
ENDBRANCH   1   5
BRANCH   1  13
ATOM     13  C   LIG    1       24.803 -20.514   5.536  0.00  0.00    -0.030 A 
ATOM     14  C   LIG    1       24.994 -19.856   4.302  0.00  0.00    +0.005 A 
ATOM     15  C   LIG    1       23.965 -19.134   3.695  0.00  0.00    +0.000 A 
ATOM     16  C   LIG    1       22.720 -19.043   4.310  0.00  0.00    +0.000 A 
ATOM     17  C   LIG    1       22.500 -19.698   5.515  0.00  0.00    +0.000 A 
ATOM     18  C   LIG    1       23.524 -20.415   6.121  0.00  0.00    +0.005 A 
ENDBRANCH   1  13
BRANCH   1  19
ATOM     19  S   LIG    1       26.396 -20.684   7.894  0.00  0.00    -0.147 S 
BRANCH  19  20
ATOM     20  C   LIG    1       28.122 -20.094   7.824  0.00  0.00    +0.085 C 
BRANCH  20  21
ATOM     21  C   LIG    1       29.215 -21.170   7.902  0.00  0.00    +0.094 C 
BRANCH  21  22
ATOM     22  N   LIG    1       30.352 -20.818   8.730  0.00  0.00    -0.308 NA
ATOM     23  C   LIG    1       31.079 -19.660   8.234  0.00  0.00    +0.104 C 
ATOM     24  C   LIG    1       31.199 -21.934   9.115  0.00  0.00    +0.104 C 
ENDBRANCH  21  22
ENDBRANCH  20  21
ENDBRANCH  19  20
ENDBRANCH   1  19
TORSDOF 10
ENDMDL
MODEL 4
REMARK VINA RESULT:      -7.8      2.747      7.845
REMARK  Name = *****
REMARK                            x       y       z     vdW  Elec       q    Type
REMARK                         _______ _______ _______ _____ _____    ______ ____
ROOT
ATOM      1  C   LIG    1       25.935 -21.425   6.197  0.00  0.00    +0.106 C 
ENDROOT
BRANCH   1   5
ATOM      2  C   LIG    1       25.038 -25.689   5.851  0.00  0.00    +0.008 A 
ATOM      3  C   LIG    1       24.664 -24.796   4.860  0.00  0.00    +0.015 A 
ATOM      4  C   LIG    1       24.864 -23.409   4.993  0.00  0.00    +0.006 A 
ATOM      5  C   LIG    1       25.564 -22.908   6.126  0.00  0.00    -0.030 A 
ATOM      6  C   LIG    1       25.899 -23.790   7.123  0.00  0.00    +0.006 A 
ATOM      7  C   LIG    1       25.618 -25.160   7.029  0.00  0.00    +0.015 A 
BRANCH   2   8
ATOM      8  S   LIG    1       24.879 -27.457   5.573  0.00  0.00    -0.125 S 
BRANCH   8   9
ATOM      9  C   LIG    1       25.364 -28.208   7.180  0.00  0.00    +0.074 C 
BRANCH   9  10
ATOM     10  C   LIG    1       24.434 -29.333   7.649  0.00  0.00    +0.011 C 
BRANCH  10  12
ATOM     11  C   LIG    1       24.140 -31.402   6.215  0.00  0.00    +0.004 C 
ATOM     12  C   LIG    1       24.955 -30.733   7.312  0.00  0.00    -0.003 C 
ENDBRANCH  10  12
ENDBRANCH   9  10
ENDBRANCH   8   9
ENDBRANCH   2   8
ENDBRANCH   1   5
BRANCH   1  13
ATOM     13  C   LIG    1       24.803 -20.615   5.517  0.00  0.00    -0.030 A 
ATOM     14  C   LIG    1       23.544 -20.505   6.144  0.00  0.00    +0.005 A 
ATOM     15  C   LIG    1       22.507 -19.768   5.571  0.00  0.00    +0.000 A 
ATOM     16  C   LIG    1       22.698 -19.127   4.350  0.00  0.00    +0.000 A 
ATOM     17  C   LIG    1       23.935 -19.204   3.721  0.00  0.00    +0.000 A 
ATOM     18  C   LIG    1       24.967 -19.939   4.290  0.00  0.00    +0.005 A 
ENDBRANCH   1  13
BRANCH   1  19
ATOM     19  S   LIG    1       26.252 -20.825   7.963  0.00  0.00    -0.147 S 
BRANCH  19  20
ATOM     20  C   LIG    1       28.002 -20.310   8.042  0.00  0.00    +0.085 C 
BRANCH  20  21
ATOM     21  C   LIG    1       28.899 -20.761   6.881  0.00  0.00    +0.094 C 
BRANCH  21  22
ATOM     22  N   LIG    1       29.963 -19.835   6.543  0.00  0.00    -0.308 NA
ATOM     23  C   LIG    1       30.958 -19.706   7.595  0.00  0.00    +0.104 C 
ATOM     24  C   LIG    1       29.519 -18.570   5.983  0.00  0.00    +0.104 C 
ENDBRANCH  21  22
ENDBRANCH  20  21
ENDBRANCH  19  20
ENDBRANCH   1  19
TORSDOF 10
ENDMDL
MODEL 5
REMARK VINA RESULT:      -7.5      2.090      4.403
REMARK  Name = *****
REMARK                            x       y       z     vdW  Elec       q    Type
REMARK                         _______ _______ _______ _____ _____    ______ ____
ROOT
ATOM      1  C   LIG    1       25.436 -21.546   6.114  0.00  0.00    +0.106 C 
ENDROOT
BRANCH   1   5
ATOM      2  C   LIG    1       29.490 -20.084   6.847  0.00  0.00    +0.008 A 
ATOM      3  C   LIG    1       28.718 -19.567   5.819  0.00  0.00    +0.015 A 
ATOM      4  C   LIG    1       27.445 -20.085   5.511  0.00  0.00    +0.006 A 
ATOM      5  C   LIG    1       26.883 -21.098   6.338  0.00  0.00    -0.030 A 
ATOM      6  C   LIG    1       27.666 -21.634   7.330  0.00  0.00    +0.006 A 
ATOM      7  C   LIG    1       28.967 -21.176   7.578  0.00  0.00    +0.015 A 
BRANCH   2   8
ATOM      8  S   LIG    1       31.047 -19.299   7.279  0.00  0.00    -0.125 S 
BRANCH   8   9
ATOM      9  C   LIG    1       30.916 -19.014   9.091  0.00  0.00    +0.074 C 
BRANCH   9  10
ATOM     10  C   LIG    1       30.222 -17.700   9.468  0.00  0.00    +0.011 C 
BRANCH  10  12
ATOM     11  C   LIG    1       31.464 -16.524  11.337  0.00  0.00    +0.004 C 
ATOM     12  C   LIG    1       30.272 -17.393  10.968  0.00  0.00    -0.003 C 
ENDBRANCH  10  12
ENDBRANCH   9  10
ENDBRANCH   8   9
ENDBRANCH   2   8
ENDBRANCH   1   5
BRANCH   1  13
ATOM     13  C   LIG    1       25.417 -23.095   6.064  0.00  0.00    -0.030 A 
ATOM     14  C   LIG    1       25.825 -23.839   7.191  0.00  0.00    +0.005 A 
ATOM     15  C   LIG    1       25.803 -25.235   7.189  0.00  0.00    +0.000 A 
ATOM     16  C   LIG    1       25.379 -25.924   6.055  0.00  0.00    +0.000 A 
ATOM     17  C   LIG    1       24.954 -25.214   4.940  0.00  0.00    +0.000 A 
ATOM     18  C   LIG    1       24.978 -23.825   4.940  0.00  0.00    +0.005 A 
ENDBRANCH   1  13
BRANCH   1  19
ATOM     19  S   LIG    1       24.246 -20.881   7.426  0.00  0.00    -0.147 S 
BRANCH  19  20
ATOM     20  C   LIG    1       22.824 -20.162   6.534  0.00  0.00    +0.085 C 
BRANCH  20  21
ATOM     21  C   LIG    1       22.698 -20.522   5.047  0.00  0.00    +0.094 C 
BRANCH  21  22
ATOM     22  N   LIG    1       22.857 -19.404   4.137  0.00  0.00    -0.308 NA
ATOM     23  C   LIG    1       24.227 -19.228   3.688  0.00  0.00    +0.104 C 
ATOM     24  C   LIG    1       22.204 -18.176   4.558  0.00  0.00    +0.104 C 
ENDBRANCH  21  22
ENDBRANCH  20  21
ENDBRANCH  19  20
ENDBRANCH   1  19
TORSDOF 10
ENDMDL
MODEL 6
REMARK VINA RESULT:      -7.5      3.268      7.539
REMARK  Name = *****
REMARK                            x       y       z     vdW  Elec       q    Type
REMARK                         _______ _______ _______ _____ _____    ______ ____
ROOT
ATOM      1  C   LIG    1       25.022 -22.127   7.681  0.00  0.00    +0.106 C 
ENDROOT
BRANCH   1   5
ATOM      2  C   LIG    1       24.864 -26.136   5.947  0.00  0.00    +0.008 A 
ATOM      3  C   LIG    1       26.075 -25.501   6.170  0.00  0.00    +0.015 A 
ATOM      4  C   LIG    1       26.144 -24.176   6.645  0.00  0.00    +0.006 A 
ATOM      5  C   LIG    1       24.946 -23.499   7.007  0.00  0.00    -0.030 A 
ATOM      6  C   LIG    1       23.748 -24.117   6.748  0.00  0.00    +0.006 A 
ATOM      7  C   LIG    1       23.679 -25.402   6.192  0.00  0.00    +0.015 A 
BRANCH   2   8
ATOM      8  S   LIG    1       24.835 -27.867   5.467  0.00  0.00    -0.125 S 
BRANCH   8   9
ATOM      9  C   LIG    1       24.828 -28.774   7.066  0.00  0.00    +0.074 C 
BRANCH   9  10
ATOM     10  C   LIG    1       25.864 -28.267   8.076  0.00  0.00    +0.011 C 
BRANCH  10  12
ATOM     11  C   LIG    1       26.918 -28.591  10.358  0.00  0.00    +0.004 C 
ATOM     12  C   LIG    1       26.087 -29.223   9.252  0.00  0.00    -0.003 C 
ENDBRANCH  10  12
ENDBRANCH   9  10
ENDBRANCH   8   9
ENDBRANCH   2   8
ENDBRANCH   1   5
BRANCH   1  13
ATOM     13  C   LIG    1       26.350 -21.455   7.251  0.00  0.00    -0.030 A 
ATOM     14  C   LIG    1       26.378 -20.616   6.117  0.00  0.00    +0.005 A 
ATOM     15  C   LIG    1       27.551 -19.978   5.710  0.00  0.00    +0.000 A 
ATOM     16  C   LIG    1       28.732 -20.170   6.423  0.00  0.00    +0.000 A 
ATOM     17  C   LIG    1       28.727 -20.976   7.555  0.00  0.00    +0.000 A 
ATOM     18  C   LIG    1       27.560 -21.613   7.958  0.00  0.00    +0.005 A 
ENDBRANCH   1  13
BRANCH   1  19
ATOM     19  S   LIG    1       23.532 -21.028   7.292  0.00  0.00    -0.147 S 
BRANCH  19  20
ATOM     20  C   LIG    1       23.047 -21.386   5.568  0.00  0.00    +0.085 C 
BRANCH  20  21
ATOM     21  C   LIG    1       22.246 -20.294   4.844  0.00  0.00    +0.094 C 
BRANCH  21  22
ATOM     22  N   LIG    1       22.979 -19.066   4.601  0.00  0.00    -0.308 NA
ATOM     23  C   LIG    1       22.113 -17.908   4.458  0.00  0.00    +0.104 C 
ATOM     24  C   LIG    1       24.019 -19.164   3.592  0.00  0.00    +0.104 C 
ENDBRANCH  21  22
ENDBRANCH  20  21
ENDBRANCH  19  20
ENDBRANCH   1  19
TORSDOF 10
ENDMDL
MODEL 7
REMARK VINA RESULT:      -7.4      2.748      8.136
REMARK  Name = *****
REMARK                            x       y       z     vdW  Elec       q    Type
REMARK                         _______ _______ _______ _____ _____    ______ ____
ROOT
ATOM      1  C   LIG    1       25.837 -22.031   6.534  0.00  0.00    +0.106 C 
ENDROOT
BRANCH   1   5
ATOM      2  C   LIG    1       24.689 -26.245   6.351  0.00  0.00    +0.008 A 
ATOM      3  C   LIG    1       26.021 -25.866   6.344  0.00  0.00    +0.015 A 
ATOM      4  C   LIG    1       26.410 -24.513   6.313  0.00  0.00    +0.006 A 
ATOM      5  C   LIG    1       25.417 -23.497   6.395  0.00  0.00    -0.030 A 
ATOM      6  C   LIG    1       24.098 -23.875   6.363  0.00  0.00    +0.006 A 
ATOM      7  C   LIG    1       23.712 -25.221   6.304  0.00  0.00    +0.015 A 
BRANCH   2   8
ATOM      8  S   LIG    1       24.250 -27.979   6.523  0.00  0.00    -0.125 S 
BRANCH   8   9
ATOM      9  C   LIG    1       25.368 -28.841   5.345  0.00  0.00    +0.074 C 
BRANCH   9  10
ATOM     10  C   LIG    1       25.270 -30.371   5.398  0.00  0.00    +0.011 C 
BRANCH  10  12
ATOM     11  C   LIG    1       23.614 -32.174   6.052  0.00  0.00    +0.004 C 
ATOM     12  C   LIG    1       24.300 -30.882   6.468  0.00  0.00    -0.003 C 
ENDBRANCH  10  12
ENDBRANCH   9  10
ENDBRANCH   8   9
ENDBRANCH   2   8
ENDBRANCH   1   5
BRANCH   1  13
ATOM     13  C   LIG    1       24.762 -21.157   5.841  0.00  0.00    -0.030 A 
ATOM     14  C   LIG    1       24.899 -20.825   4.477  0.00  0.00    +0.005 A 
ATOM     15  C   LIG    1       23.941 -20.055   3.815  0.00  0.00    +0.000 A 
ATOM     16  C   LIG    1       22.824 -19.590   4.502  0.00  0.00    +0.000 A 
ATOM     17  C   LIG    1       22.655 -19.920   5.841  0.00  0.00    +0.000 A 
ATOM     18  C   LIG    1       23.610 -20.684   6.502  0.00  0.00    +0.005 A 
ENDBRANCH   1  13
BRANCH   1  19
ATOM     19  S   LIG    1       26.105 -21.506   8.332  0.00  0.00    -0.147 S 
BRANCH  19  20
ATOM     20  C   LIG    1       27.496 -20.323   8.336  0.00  0.00    +0.085 C 
BRANCH  20  21
ATOM     21  C   LIG    1       28.182 -20.071   6.985  0.00  0.00    +0.094 C 
BRANCH  21  22
ATOM     22  N   LIG    1       29.618 -20.271   6.989  0.00  0.00    -0.308 NA
ATOM     23  C   LIG    1       30.091 -20.969   8.173  0.00  0.00    +0.104 C 
ATOM     24  C   LIG    1       30.400 -19.099   6.634  0.00  0.00    +0.104 C 
ENDBRANCH  21  22
ENDBRANCH  20  21
ENDBRANCH  19  20
ENDBRANCH   1  19
TORSDOF 10
ENDMDL
MODEL 8
REMARK VINA RESULT:      -7.3      3.184      6.901
REMARK  Name = *****
REMARK                            x       y       z     vdW  Elec       q    Type
REMARK                         _______ _______ _______ _____ _____    ______ ____
ROOT
ATOM      1  C   LIG    1       25.359 -22.587   7.314  0.00  0.00    +0.106 C 
ENDROOT
BRANCH   1   5
ATOM      2  C   LIG    1       23.084 -19.699   4.949  0.00  0.00    +0.008 A 
ATOM      3  C   LIG    1       22.729 -19.990   6.256  0.00  0.00    +0.015 A 
ATOM      4  C   LIG    1       23.394 -20.981   7.005  0.00  0.00    +0.006 A 
ATOM      5  C   LIG    1       24.529 -21.634   6.448  0.00  0.00    -0.030 A 
ATOM      6  C   LIG    1       24.853 -21.371   5.141  0.00  0.00    +0.006 A 
ATOM      7  C   LIG    1       24.134 -20.449   4.368  0.00  0.00    +0.015 A 
BRANCH   2   8
ATOM      8  S   LIG    1       22.289 -18.338   4.087  0.00  0.00    -0.125 S 
BRANCH   8   9
ATOM      9  C   LIG    1       23.517 -16.972   4.181  0.00  0.00    +0.074 C 
BRANCH   9  10
ATOM     10  C   LIG    1       22.918 -15.622   4.592  0.00  0.00    +0.011 C 
BRANCH  10  12
ATOM     11  C   LIG    1       25.182 -14.862   3.745  0.00  0.00    +0.004 C 
ATOM     12  C   LIG    1       23.813 -14.428   4.245  0.00  0.00    -0.003 C 
ENDBRANCH  10  12
ENDBRANCH   9  10
ENDBRANCH   8   9
ENDBRANCH   2   8
ENDBRANCH   1   5
BRANCH   1  13
ATOM     13  C   LIG    1       25.173 -24.022   6.761  0.00  0.00    -0.030 A 
ATOM     14  C   LIG    1       26.302 -24.836   6.528  0.00  0.00    +0.005 A 
ATOM     15  C   LIG    1       26.172 -26.141   6.048  0.00  0.00    +0.000 A 
ATOM     16  C   LIG    1       24.909 -26.663   5.780  0.00  0.00    +0.000 A 
ATOM     17  C   LIG    1       23.781 -25.888   6.020  0.00  0.00    +0.000 A 
ATOM     18  C   LIG    1       23.910 -24.589   6.495  0.00  0.00    +0.005 A 
ENDBRANCH   1  13
BRANCH   1  19
ATOM     19  S   LIG    1       27.187 -22.107   7.396  0.00  0.00    -0.147 S 
BRANCH  19  20
ATOM     20  C   LIG    1       27.250 -20.330   7.811  0.00  0.00    +0.085 C 
BRANCH  20  21
ATOM     21  C   LIG    1       28.553 -19.595   7.468  0.00  0.00    +0.094 C 
BRANCH  21  22
ATOM     22  N   LIG    1       29.558 -19.624   8.513  0.00  0.00    -0.308 NA
ATOM     23  C   LIG    1       30.051 -18.303   8.865  0.00  0.00    +0.104 C 
ATOM     24  C   LIG    1       30.600 -20.621   8.333  0.00  0.00    +0.104 C 
ENDBRANCH  21  22
ENDBRANCH  20  21
ENDBRANCH  19  20
ENDBRANCH   1  19
TORSDOF 10
ENDMDL
MODEL 9
REMARK VINA RESULT:      -7.2      3.227      7.731
REMARK  Name = *****
REMARK                            x       y       z     vdW  Elec       q    Type
REMARK                         _______ _______ _______ _____ _____    ______ ____
ROOT
ATOM      1  C   LIG    1       24.948 -21.830   7.570  0.00  0.00    +0.106 C 
ENDROOT
BRANCH   1   5
ATOM      2  C   LIG    1       24.874 -25.942   6.089  0.00  0.00    +0.008 A 
ATOM      3  C   LIG    1       23.702 -25.226   6.269  0.00  0.00    +0.015 A 
ATOM      4  C   LIG    1       23.698 -23.933   6.828  0.00  0.00    +0.006 A 
ATOM      5  C   LIG    1       24.935 -23.295   7.123  0.00  0.00    -0.030 A 
ATOM      6  C   LIG    1       26.091 -24.022   6.980  0.00  0.00    +0.006 A 
ATOM      7  C   LIG    1       26.085 -25.341   6.507  0.00  0.00    +0.015 A 
BRANCH   2   8
ATOM      8  S   LIG    1       24.833 -27.532   5.252  0.00  0.00    -0.125 S 
BRANCH   8   9
ATOM      9  C   LIG    1       24.140 -28.681   6.509  0.00  0.00    +0.074 C 
BRANCH   9  10
ATOM     10  C   LIG    1       25.195 -29.530   7.228  0.00  0.00    +0.011 C 
BRANCH  10  12
ATOM     11  C   LIG    1       26.551 -29.873   9.341  0.00  0.00    +0.004 C 
ATOM     12  C   LIG    1       25.676 -28.916   8.546  0.00  0.00    -0.003 C 
ENDBRANCH  10  12
ENDBRANCH   9  10
ENDBRANCH   8   9
ENDBRANCH   2   8
ENDBRANCH   1   5
BRANCH   1  13
ATOM     13  C   LIG    1       26.325 -21.227   7.195  0.00  0.00    -0.030 A 
ATOM     14  C   LIG    1       27.439 -21.447   8.033  0.00  0.00    +0.005 A 
ATOM     15  C   LIG    1       28.699 -20.936   7.718  0.00  0.00    +0.000 A 
ATOM     16  C   LIG    1       28.877 -20.183   6.560  0.00  0.00    +0.000 A 
ATOM     17  C   LIG    1       27.800 -19.969   5.709  0.00  0.00    +0.000 A 
ATOM     18  C   LIG    1       26.545 -20.475   6.023  0.00  0.00    +0.005 A 
ENDBRANCH   1  13
BRANCH   1  19
ATOM     19  S   LIG    1       23.526 -20.821   6.834  0.00  0.00    -0.147 S 
BRANCH  19  20
ATOM     20  C   LIG    1       23.194 -21.507   5.175  0.00  0.00    +0.085 C 
BRANCH  20  21
ATOM     21  C   LIG    1       23.500 -20.589   3.983  0.00  0.00    +0.094 C 
BRANCH  21  22
ATOM     22  N   LIG    1       23.563 -19.177   4.307  0.00  0.00    -0.308 NA
ATOM     23  C   LIG    1       22.262 -18.529   4.281  0.00  0.00    +0.104 C 
ATOM     24  C   LIG    1       24.611 -18.438   3.625  0.00  0.00    +0.104 C 
ENDBRANCH  21  22
ENDBRANCH  20  21
ENDBRANCH  19  20
ENDBRANCH   1  19
TORSDOF 10
ENDMDL
