MODEL 1
REMARK VINA RESULT:      -2.8      0.000      0.000
REMARK  Name = *****
REMARK                            x       y       z     vdW  Elec       q    Type
REMARK                         _______ _______ _______ _____ _____    ______ ____
ROOT
ATOM      1  N   LIG    1       25.112 -17.436   3.199  0.00  0.00    -0.284 N 
ATOM      2  H   LIG    1       25.779 -17.839   2.559  0.00  0.00    +0.155 HD
ATOM      3  C   LIG    1       25.310 -16.071   3.460  0.00  0.00    +0.231 C 
ATOM      4  O   LIG    1       24.865 -15.487   4.431  0.00  0.00    -0.274 OA
ENDROOT
BRANCH   1  11
ATOM      5  C   LIG    1       22.944 -21.572   6.592  0.00  0.00    +0.045 C 
ATOM      6  C   LIG    1       23.566 -20.492   5.748  0.00  0.00    -0.036 A 
ATOM      7  C   LIG    1       24.946 -20.334   5.576  0.00  0.00    +0.025 A 
ATOM      8 BR   LIG    1       26.120 -21.570   6.456  0.00  0.00    -0.050 Br
ATOM      9  C   LIG    1       25.472 -19.280   4.777  0.00  0.00    -0.015 A 
ATOM     10  C   LIG    1       26.977 -19.117   4.709  0.00  0.00    +0.046 C 
ATOM     11  C   LIG    1       24.581 -18.354   4.155  0.00  0.00    +0.040 A 
ATOM     12  C   LIG    1       23.191 -18.484   4.371  0.00  0.00    -0.029 A 
ATOM     13  C   LIG    1       22.114 -17.620   3.767  0.00  0.00    +0.045 C 
ATOM     14  C   LIG    1       22.716 -19.565   5.142  0.00  0.00    +0.009 A 
ENDBRANCH   1  11
BRANCH   3  15
ATOM     15  C   LIG    1       26.215 -15.376   2.373  0.00  0.00    +0.181 C 
BRANCH  15  16
ATOM     16  N   LIG    1       26.701 -13.975   2.707  0.00  0.00    -0.274 NA
BRANCH  16  17
ATOM     17  C   LIG    1       25.691 -12.972   2.243  0.00  0.00    +0.206 C 
BRANCH  17  18
ATOM     18  C   LIG    1       24.458 -12.774   3.126  0.00  0.00    +0.319 C 
ATOM     19  O   LIG    1       24.445 -11.971   4.055  0.00  0.00    -0.250 OA
BRANCH  18  20
ATOM     20  O   LIG    1       23.376 -13.520   2.847  0.00  0.00    -0.480 OA
ATOM     21  H   LIG    1       22.575 -12.956   2.774  0.00  0.00    +0.295 HD
ENDBRANCH  18  20
ENDBRANCH  17  18
ENDBRANCH  16  17
BRANCH  16  22
ATOM     22  C   LIG    1       27.003 -13.888   4.162  0.00  0.00    +0.206 C 
BRANCH  22  23
ATOM     23  C   LIG    1       28.194 -13.015   4.446  0.00  0.00    +0.319 C 
ATOM     24  O   LIG    1       29.151 -12.851   3.692  0.00  0.00    -0.250 OA
BRANCH  23  25
ATOM     25  O   LIG    1       28.278 -12.474   5.689  0.00  0.00    -0.480 OA
ATOM     26  H   LIG    1       29.233 -12.469   5.906  0.00  0.00    +0.295 HD
ENDBRANCH  23  25
ENDBRANCH  22  23
ENDBRANCH  16  22
ENDBRANCH  15  16
ENDBRANCH   3  15
TORSDOF 9
ENDMDL
MODEL 2
REMARK VINA RESULT:      -2.6      3.791      6.992
REMARK  Name = *****
REMARK                            x       y       z     vdW  Elec       q    Type
REMARK                         _______ _______ _______ _____ _____    ______ ____
ROOT
ATOM      1  N   LIG    1       25.165 -17.836   4.005  0.00  0.00    -0.284 N 
ATOM      2  H   LIG    1       26.160 -17.987   4.056  0.00  0.00    +0.155 HD
ATOM      3  C   LIG    1       24.447 -18.892   3.420  0.00  0.00    +0.231 C 
ATOM      4  O   LIG    1       23.329 -18.783   2.951  0.00  0.00    -0.274 OA
ENDROOT
BRANCH   1  11
ATOM      5  C   LIG    1       23.811 -12.228   4.185  0.00  0.00    +0.045 C 
ATOM      6  C   LIG    1       24.208 -13.677   4.087  0.00  0.00    -0.036 A 
ATOM      7  C   LIG    1       25.471 -14.113   3.671  0.00  0.00    +0.025 A 
ATOM      8 BR   LIG    1       26.783 -12.791   3.208  0.00  0.00    -0.050 Br
ATOM      9  C   LIG    1       25.779 -15.499   3.582  0.00  0.00    -0.015 A 
ATOM     10  C   LIG    1       27.136 -15.898   3.038  0.00  0.00    +0.046 C 
ATOM     11  C   LIG    1       24.778 -16.466   3.902  0.00  0.00    +0.040 A 
ATOM     12  C   LIG    1       23.488 -16.025   4.273  0.00  0.00    -0.029 A 
ATOM     13  C   LIG    1       22.331 -16.904   4.674  0.00  0.00    +0.045 C 
ATOM     14  C   LIG    1       23.242 -14.641   4.380  0.00  0.00    +0.009 A 
ENDBRANCH   1  11
BRANCH   3  15
ATOM     15  C   LIG    1       25.269 -20.237   3.395  0.00  0.00    +0.181 C 
BRANCH  15  16
ATOM     16  N   LIG    1       25.124 -21.128   4.617  0.00  0.00    -0.274 NA
BRANCH  16  17
ATOM     17  C   LIG    1       25.637 -20.408   5.824  0.00  0.00    +0.206 C 
BRANCH  17  18
ATOM     18  C   LIG    1       27.156 -20.306   5.975  0.00  0.00    +0.319 C 
ATOM     19  O   LIG    1       27.775 -20.980   6.794  0.00  0.00    -0.250 OA
BRANCH  18  20
ATOM     20  O   LIG    1       27.797 -19.441   5.171  0.00  0.00    -0.480 OA
ATOM     21  H   LIG    1       28.640 -19.147   5.580  0.00  0.00    +0.295 HD
ENDBRANCH  18  20
ENDBRANCH  17  18
ENDBRANCH  16  17
BRANCH  16  22
ATOM     22  C   LIG    1       23.709 -21.571   4.743  0.00  0.00    +0.206 C 
BRANCH  22  23
ATOM     23  C   LIG    1       23.036 -20.991   5.957  0.00  0.00    +0.319 C 
ATOM     24  O   LIG    1       22.971 -21.531   7.059  0.00  0.00    -0.250 OA
BRANCH  23  25
ATOM     25  O   LIG    1       22.332 -19.844   5.781  0.00  0.00    -0.480 OA
ATOM     26  H   LIG    1       21.392 -20.118   5.745  0.00  0.00    +0.295 HD
ENDBRANCH  23  25
ENDBRANCH  22  23
ENDBRANCH  16  22
ENDBRANCH  15  16
ENDBRANCH   3  15
TORSDOF 9
ENDMDL
MODEL 3
REMARK VINA RESULT:      -2.6      3.809      7.632
REMARK  Name = *****
REMARK                            x       y       z     vdW  Elec       q    Type
REMARK                         _______ _______ _______ _____ _____    ______ ____
ROOT
ATOM      1  N   LIG    1       24.866 -16.885   3.995  0.00  0.00    -0.284 N 
ATOM      2  H   LIG    1       24.413 -17.014   4.887  0.00  0.00    +0.155 HD
ATOM      3  C   LIG    1       25.196 -18.079   3.334  0.00  0.00    +0.231 C 
ATOM      4  O   LIG    1       26.029 -18.166   2.452  0.00  0.00    -0.274 OA
ENDROOT
BRANCH   1  11
ATOM      5  C   LIG    1       28.004 -12.157   2.942  0.00  0.00    +0.045 C 
ATOM      6  C   LIG    1       27.135 -13.349   3.240  0.00  0.00    -0.036 A 
ATOM      7  C   LIG    1       25.737 -13.329   3.178  0.00  0.00    +0.025 A 
ATOM      8 BR   LIG    1       24.871 -11.692   2.675  0.00  0.00    -0.050 Br
ATOM      9  C   LIG    1       24.970 -14.486   3.488  0.00  0.00    -0.015 A 
ATOM     10  C   LIG    1       23.459 -14.366   3.488  0.00  0.00    +0.046 C 
ATOM     11  C   LIG    1       25.633 -15.686   3.889  0.00  0.00    +0.040 A 
ATOM     12  C   LIG    1       27.042 -15.690   4.000  0.00  0.00    -0.029 A 
ATOM     13  C   LIG    1       27.900 -16.871   4.374  0.00  0.00    +0.045 C 
ATOM     14  C   LIG    1       27.759 -14.528   3.648  0.00  0.00    +0.009 A 
ENDBRANCH   1  11
BRANCH   3  15
ATOM     15  C   LIG    1       24.394 -19.316   3.892  0.00  0.00    +0.181 C 
BRANCH  15  16
ATOM     16  N   LIG    1       25.228 -20.422   4.519  0.00  0.00    -0.274 NA
BRANCH  16  17
ATOM     17  C   LIG    1       25.989 -19.874   5.686  0.00  0.00    +0.206 C 
BRANCH  17  18
ATOM     18  C   LIG    1       27.293 -20.581   6.054  0.00  0.00    +0.319 C 
ATOM     19  O   LIG    1       27.346 -21.427   6.943  0.00  0.00    -0.250 OA
BRANCH  18  20
ATOM     20  O   LIG    1       28.394 -20.241   5.364  0.00  0.00    -0.480 OA
ATOM     21  H   LIG    1       28.487 -19.264   5.317  0.00  0.00    +0.295 HD
ENDBRANCH  18  20
ENDBRANCH  17  18
ENDBRANCH  16  17
BRANCH  16  22
ATOM     22  C   LIG    1       24.348 -21.571   4.866  0.00  0.00    +0.206 C 
BRANCH  22  23
ATOM     23  C   LIG    1       23.115 -21.140   5.611  0.00  0.00    +0.319 C 
ATOM     24  O   LIG    1       23.098 -20.682   6.752  0.00  0.00    -0.250 OA
BRANCH  23  25
ATOM     25  O   LIG    1       21.919 -21.403   5.026  0.00  0.00    -0.480 OA
ATOM     26  H   LIG    1       21.507 -20.528   4.872  0.00  0.00    +0.295 HD
ENDBRANCH  23  25
ENDBRANCH  22  23
ENDBRANCH  16  22
ENDBRANCH  15  16
ENDBRANCH   3  15
TORSDOF 9
ENDMDL
MODEL 4
REMARK VINA RESULT:      -2.0      1.860      2.864
REMARK  Name = *****
REMARK                            x       y       z     vdW  Elec       q    Type
REMARK                         _______ _______ _______ _____ _____    ______ ____
ROOT
ATOM      1  N   LIG    1       23.609 -16.544   3.299  0.00  0.00    -0.284 N 
ATOM      2  H   LIG    1       23.981 -16.234   2.414  0.00  0.00    +0.155 HD
ATOM      3  C   LIG    1       23.321 -15.507   4.202  0.00  0.00    +0.231 C 
ATOM      4  O   LIG    1       23.205 -15.658   5.404  0.00  0.00    -0.274 OA
ENDROOT
BRANCH   1  11
ATOM      5  C   LIG    1       25.379 -21.569   5.517  0.00  0.00    +0.045 C 
ATOM      6  C   LIG    1       24.860 -20.290   4.918  0.00  0.00    -0.036 A 
ATOM      7  C   LIG    1       23.500 -19.972   4.817  0.00  0.00    +0.025 A 
ATOM      8 BR   LIG    1       22.219 -21.231   5.491  0.00  0.00    -0.050 Br
ATOM      9  C   LIG    1       23.072 -18.752   4.223  0.00  0.00    -0.015 A 
ATOM     10  C   LIG    1       21.584 -18.516   4.066  0.00  0.00    +0.046 C 
ATOM     11  C   LIG    1       24.042 -17.843   3.700  0.00  0.00    +0.040 A 
ATOM     12  C   LIG    1       25.411 -18.188   3.757  0.00  0.00    -0.029 A 
ATOM     13  C   LIG    1       26.561 -17.336   3.288  0.00  0.00    +0.045 C 
ATOM     14  C   LIG    1       25.787 -19.392   4.387  0.00  0.00    +0.009 A 
ENDBRANCH   1  11
BRANCH   3  15
ATOM     15  C   LIG    1       23.205 -14.105   3.491  0.00  0.00    +0.181 C 
BRANCH  15  16
ATOM     16  N   LIG    1       24.512 -13.359   3.273  0.00  0.00    -0.274 NA
BRANCH  16  17
ATOM     17  C   LIG    1       24.334 -11.920   3.643  0.00  0.00    +0.206 C 
BRANCH  17  18
ATOM     18  C   LIG    1       24.065 -11.615   5.117  0.00  0.00    +0.319 C 
ATOM     19  O   LIG    1       22.928 -11.448   5.550  0.00  0.00    -0.250 OA
BRANCH  18  20
ATOM     20  O   LIG    1       25.129 -11.532   5.933  0.00  0.00    -0.480 OA
ATOM     21  H   LIG    1       25.490 -12.425   6.125  0.00  0.00    +0.295 HD
ENDBRANCH  18  20
ENDBRANCH  17  18
ENDBRANCH  16  17
BRANCH  16  22
ATOM     22  C   LIG    1       25.602 -14.039   4.024  0.00  0.00    +0.206 C 
BRANCH  22  23
ATOM     23  C   LIG    1       26.912 -14.003   3.286  0.00  0.00    +0.319 C 
ATOM     24  O   LIG    1       28.006 -13.761   3.791  0.00  0.00    -0.250 OA
BRANCH  23  25
ATOM     25  O   LIG    1       26.860 -14.116   1.934  0.00  0.00    -0.480 OA
ATOM     26  H   LIG    1       27.668 -14.609   1.683  0.00  0.00    +0.295 HD
ENDBRANCH  23  25
ENDBRANCH  22  23
ENDBRANCH  16  22
ENDBRANCH  15  16
ENDBRANCH   3  15
TORSDOF 9
ENDMDL
MODEL 5
REMARK VINA RESULT:      -1.6      3.568      7.180
REMARK  Name = *****
REMARK                            x       y       z     vdW  Elec       q    Type
REMARK                         _______ _______ _______ _____ _____    ______ ____
ROOT
ATOM      1  N   LIG    1       25.206 -17.361   3.176  0.00  0.00    -0.284 N 
ATOM      2  H   LIG    1       24.322 -17.178   2.726  0.00  0.00    +0.155 HD
ATOM      3  C   LIG    1       25.331 -18.658   3.702  0.00  0.00    +0.231 C 
ATOM      4  O   LIG    1       26.133 -18.974   4.560  0.00  0.00    -0.274 OA
ENDROOT
BRANCH   1  11
ATOM      5  C   LIG    1       27.832 -12.523   4.910  0.00  0.00    +0.045 C 
ATOM      6  C   LIG    1       27.089 -13.763   4.488  0.00  0.00    -0.036 A 
ATOM      7  C   LIG    1       25.713 -13.799   4.234  0.00  0.00    +0.025 A 
ATOM      8 BR   LIG    1       24.711 -12.173   4.419  0.00  0.00    -0.050 Br
ATOM      9  C   LIG    1       25.066 -15.008   3.855  0.00  0.00    -0.015 A 
ATOM     10  C   LIG    1       23.561 -14.991   3.683  0.00  0.00    +0.046 C 
ATOM     11  C   LIG    1       25.827 -16.213   3.752  0.00  0.00    +0.040 A 
ATOM     12  C   LIG    1       27.206 -16.185   4.059  0.00  0.00    -0.029 A 
ATOM     13  C   LIG    1       28.158 -17.350   3.969  0.00  0.00    +0.045 C 
ATOM     14  C   LIG    1       27.807 -14.956   4.396  0.00  0.00    +0.009 A 
ENDBRANCH   1  11
BRANCH   3  15
ATOM     15  C   LIG    1       24.281 -19.660   3.087  0.00  0.00    +0.181 C 
BRANCH  15  16
ATOM     16  N   LIG    1       23.444 -20.443   4.085  0.00  0.00    -0.274 NA
BRANCH  16  17
ATOM     17  C   LIG    1       24.265 -21.552   4.664  0.00  0.00    +0.206 C 
BRANCH  17  18
ATOM     18  C   LIG    1       24.684 -21.412   6.128  0.00  0.00    +0.319 C 
ATOM     19  O   LIG    1       23.889 -21.572   7.050  0.00  0.00    -0.250 OA
BRANCH  18  20
ATOM     20  O   LIG    1       25.967 -21.101   6.373  0.00  0.00    -0.480 OA
ATOM     21  H   LIG    1       26.416 -21.832   6.853  0.00  0.00    +0.295 HD
ENDBRANCH  18  20
ENDBRANCH  17  18
ENDBRANCH  16  17
BRANCH  16  22
ATOM     22  C   LIG    1       22.893 -19.512   5.108  0.00  0.00    +0.206 C 
BRANCH  22  23
ATOM     23  C   LIG    1       21.981 -18.478   4.506  0.00  0.00    +0.319 C 
ATOM     24  O   LIG    1       21.094 -18.705   3.685  0.00  0.00    -0.250 OA
BRANCH  23  25
ATOM     25  O   LIG    1       22.251 -17.179   4.792  0.00  0.00    -0.480 OA
ATOM     26  H   LIG    1       22.340 -17.140   5.766  0.00  0.00    +0.295 HD
ENDBRANCH  23  25
ENDBRANCH  22  23
ENDBRANCH  16  22
ENDBRANCH  15  16
ENDBRANCH   3  15
TORSDOF 9
ENDMDL
MODEL 6
REMARK VINA RESULT:      -1.5      1.955      3.199
REMARK  Name = *****
REMARK                            x       y       z     vdW  Elec       q    Type
REMARK                         _______ _______ _______ _____ _____    ______ ____
ROOT
ATOM      1  N   LIG    1       23.657 -16.311   3.403  0.00  0.00    -0.284 N 
ATOM      2  H   LIG    1       24.210 -15.894   2.670  0.00  0.00    +0.155 HD
ATOM      3  C   LIG    1       23.155 -15.397   4.343  0.00  0.00    +0.231 C 
ATOM      4  O   LIG    1       22.778 -15.700   5.460  0.00  0.00    -0.274 OA
ENDROOT
BRANCH   1  11
ATOM      5  C   LIG    1       25.089 -21.568   5.308  0.00  0.00    +0.045 C 
ATOM      6  C   LIG    1       24.659 -20.224   4.783  0.00  0.00    -0.036 A 
ATOM      7  C   LIG    1       23.322 -19.847   4.609  0.00  0.00    +0.025 A 
ATOM      8 BR   LIG    1       21.953 -21.108   5.075  0.00  0.00    -0.050 Br
ATOM      9  C   LIG    1       22.980 -18.567   4.091  0.00  0.00    -0.015 A 
ATOM     10  C   LIG    1       21.517 -18.262   3.845  0.00  0.00    +0.046 C 
ATOM     11  C   LIG    1       24.016 -17.655   3.723  0.00  0.00    +0.040 A 
ATOM     12  C   LIG    1       25.365 -18.056   3.851  0.00  0.00    -0.029 A 
ATOM     13  C   LIG    1       26.575 -17.213   3.544  0.00  0.00    +0.045 C 
ATOM     14  C   LIG    1       25.653 -19.322   4.402  0.00  0.00    +0.009 A 
ENDBRANCH   1  11
BRANCH   3  15
ATOM     15  C   LIG    1       23.172 -13.914   3.808  0.00  0.00    +0.181 C 
BRANCH  15  16
ATOM     16  N   LIG    1       24.470 -13.149   4.010  0.00  0.00    -0.274 NA
BRANCH  16  17
ATOM     17  C   LIG    1       25.430 -13.991   4.789  0.00  0.00    +0.206 C 
BRANCH  17  18
ATOM     18  C   LIG    1       26.527 -13.255   5.560  0.00  0.00    +0.319 C 
ATOM     19  O   LIG    1       27.666 -13.704   5.660  0.00  0.00    -0.250 OA
BRANCH  18  20
ATOM     20  O   LIG    1       26.197 -12.086   6.133  0.00  0.00    -0.480 OA
ATOM     21  H   LIG    1       26.093 -12.192   7.104  0.00  0.00    +0.295 HD
ENDBRANCH  18  20
ENDBRANCH  17  18
ENDBRANCH  16  17
BRANCH  16  22
ATOM     22  C   LIG    1       24.997 -12.710   2.689  0.00  0.00    +0.206 C 
BRANCH  22  23
ATOM     23  C   LIG    1       26.293 -13.387   2.338  0.00  0.00    +0.319 C 
ATOM     24  O   LIG    1       26.400 -14.519   1.870  0.00  0.00    -0.250 OA
BRANCH  23  25
ATOM     25  O   LIG    1       27.437 -12.748   2.693  0.00  0.00    -0.480 OA
ATOM     26  H   LIG    1       27.167 -12.082   3.359  0.00  0.00    +0.295 HD
ENDBRANCH  23  25
ENDBRANCH  22  23
ENDBRANCH  16  22
ENDBRANCH  15  16
ENDBRANCH   3  15
TORSDOF 9
ENDMDL
MODEL 7
REMARK VINA RESULT:      -1.4      3.977      6.871
REMARK  Name = *****
REMARK                            x       y       z     vdW  Elec       q    Type
REMARK                         _______ _______ _______ _____ _____    ______ ____
ROOT
ATOM      1  N   LIG    1       25.174 -18.164   4.314  0.00  0.00    -0.284 N 
ATOM      2  H   LIG    1       25.183 -18.469   5.275  0.00  0.00    +0.155 HD
ATOM      3  C   LIG    1       25.326 -19.198   3.376  0.00  0.00    +0.231 C 
ATOM      4  O   LIG    1       25.686 -19.031   2.225  0.00  0.00    -0.274 OA
ENDROOT
BRANCH   1  11
ATOM      5  C   LIG    1       27.085 -12.914   2.865  0.00  0.00    +0.045 C 
ATOM      6  C   LIG    1       26.533 -14.254   3.273  0.00  0.00    -0.036 A 
ATOM      7  C   LIG    1       25.167 -14.521   3.421  0.00  0.00    +0.025 A 
ATOM      8 BR   LIG    1       23.919 -13.105   3.073  0.00  0.00    -0.050 Br
ATOM      9  C   LIG    1       24.708 -15.805   3.827  0.00  0.00    -0.015 A 
ATOM     10  C   LIG    1       23.222 -15.996   4.053  0.00  0.00    +0.046 C 
ATOM     11  C   LIG    1       25.655 -16.836   4.110  0.00  0.00    +0.040 A 
ATOM     12  C   LIG    1       27.035 -16.550   4.010  0.00  0.00    -0.029 A 
ATOM     13  C   LIG    1       28.162 -17.524   4.237  0.00  0.00    +0.045 C 
ATOM     14  C   LIG    1       27.439 -15.273   3.570  0.00  0.00    +0.009 A 
ENDBRANCH   1  11
BRANCH   3  15
ATOM     15  C   LIG    1       25.020 -20.617   3.989  0.00  0.00    +0.181 C 
BRANCH  15  16
ATOM     16  N   LIG    1       24.910 -20.678   5.505  0.00  0.00    -0.274 NA
BRANCH  16  17
ATOM     17  C   LIG    1       23.535 -21.127   5.888  0.00  0.00    +0.206 C 
BRANCH  17  18
ATOM     18  C   LIG    1       22.362 -20.418   5.210  0.00  0.00    +0.319 C 
ATOM     19  O   LIG    1       22.298 -19.194   5.132  0.00  0.00    -0.250 OA
BRANCH  18  20
ATOM     20  O   LIG    1       21.391 -21.191   4.695  0.00  0.00    -0.480 OA
ATOM     21  H   LIG    1       20.788 -20.660   4.130  0.00  0.00    +0.295 HD
ENDBRANCH  18  20
ENDBRANCH  17  18
ENDBRANCH  16  17
BRANCH  16  22
ATOM     22  C   LIG    1       25.994 -21.543   6.046  0.00  0.00    +0.206 C 
BRANCH  22  23
ATOM     23  C   LIG    1       27.177 -20.745   6.521  0.00  0.00    +0.319 C 
ATOM     24  O   LIG    1       27.119 -19.642   7.062  0.00  0.00    -0.250 OA
BRANCH  23  25
ATOM     25  O   LIG    1       28.408 -21.222   6.206  0.00  0.00    -0.480 OA
ATOM     26  H   LIG    1       29.030 -20.742   6.790  0.00  0.00    +0.295 HD
ENDBRANCH  23  25
ENDBRANCH  22  23
ENDBRANCH  16  22
ENDBRANCH  15  16
ENDBRANCH   3  15
TORSDOF 9
ENDMDL
MODEL 8
REMARK VINA RESULT:      -1.4      3.563      6.892
REMARK  Name = *****
REMARK                            x       y       z     vdW  Elec       q    Type
REMARK                         _______ _______ _______ _____ _____    ______ ____
ROOT
ATOM      1  N   LIG    1       24.553 -17.487   3.320  0.00  0.00    -0.284 N 
ATOM      2  H   LIG    1       23.635 -17.894   3.229  0.00  0.00    +0.155 HD
ATOM      3  C   LIG    1       25.559 -18.398   3.681  0.00  0.00    +0.231 C 
ATOM      4  O   LIG    1       26.625 -18.082   4.173  0.00  0.00    -0.274 OA
ENDROOT
BRANCH   1  11
ATOM      5  C   LIG    1       24.831 -12.125   5.438  0.00  0.00    +0.045 C 
ATOM      6  C   LIG    1       24.800 -13.504   4.834  0.00  0.00    -0.036 A 
ATOM      7  C   LIG    1       25.854 -14.056   4.097  0.00  0.00    +0.025 A 
ATOM      8 BR   LIG    1       27.440 -13.004   3.848  0.00  0.00    -0.050 Br
ATOM      9  C   LIG    1       25.757 -15.360   3.537  0.00  0.00    -0.015 A 
ATOM     10  C   LIG    1       26.900 -15.857   2.676  0.00  0.00    +0.046 C 
ATOM     11  C   LIG    1       24.556 -16.114   3.709  0.00  0.00    +0.040 A 
ATOM     12  C   LIG    1       23.473 -15.535   4.409  0.00  0.00    -0.029 A 
ATOM     13  C   LIG    1       22.155 -16.199   4.711  0.00  0.00    +0.045 C 
ATOM     14  C   LIG    1       23.632 -14.254   4.976  0.00  0.00    +0.009 A 
ENDBRANCH   1  11
BRANCH   3  15
ATOM     15  C   LIG    1       25.137 -19.894   3.419  0.00  0.00    +0.181 C 
BRANCH  15  16
ATOM     16  N   LIG    1       25.288 -20.845   4.595  0.00  0.00    -0.274 NA
BRANCH  16  17
ATOM     17  C   LIG    1       25.962 -20.134   5.728  0.00  0.00    +0.206 C 
BRANCH  17  18
ATOM     18  C   LIG    1       27.389 -20.567   6.063  0.00  0.00    +0.319 C 
ATOM     19  O   LIG    1       27.644 -21.279   7.031  0.00  0.00    -0.250 OA
BRANCH  18  20
ATOM     20  O   LIG    1       28.370 -20.134   5.253  0.00  0.00    -0.480 OA
ATOM     21  H   LIG    1       29.030 -19.608   5.756  0.00  0.00    +0.295 HD
ENDBRANCH  18  20
ENDBRANCH  17  18
ENDBRANCH  16  17
BRANCH  16  22
ATOM     22  C   LIG    1       23.958 -21.409   4.952  0.00  0.00    +0.206 C 
BRANCH  22  23
ATOM     23  C   LIG    1       23.098 -20.420   5.690  0.00  0.00    +0.319 C 
ATOM     24  O   LIG    1       22.505 -19.473   5.178  0.00  0.00    -0.250 OA
BRANCH  23  25
ATOM     25  O   LIG    1       23.088 -20.505   7.045  0.00  0.00    -0.480 OA
ATOM     26  H   LIG    1       22.377 -21.143   7.261  0.00  0.00    +0.295 HD
ENDBRANCH  23  25
ENDBRANCH  22  23
ENDBRANCH  16  22
ENDBRANCH  15  16
ENDBRANCH   3  15
TORSDOF 9
ENDMDL
MODEL 9
REMARK VINA RESULT:      -1.2      2.065      2.878
REMARK  Name = *****
REMARK                            x       y       z     vdW  Elec       q    Type
REMARK                         _______ _______ _______ _____ _____    ______ ____
ROOT
ATOM      1  N   LIG    1       25.179 -17.624   4.394  0.00  0.00    -0.284 N 
ATOM      2  H   LIG    1       24.926 -16.811   4.933  0.00  0.00    +0.155 HD
ATOM      3  C   LIG    1       26.072 -17.366   3.340  0.00  0.00    +0.231 C 
ATOM      4  O   LIG    1       26.229 -18.099   2.382  0.00  0.00    -0.274 OA
ENDROOT
BRANCH   1  11
ATOM      5  C   LIG    1       20.989 -21.571   4.813  0.00  0.00    +0.045 C 
ATOM      6  C   LIG    1       22.047 -20.511   4.653  0.00  0.00    -0.036 A 
ATOM      7  C   LIG    1       21.785 -19.209   4.213  0.00  0.00    +0.025 A 
ATOM      8 BR   LIG    1       19.971 -18.735   3.800  0.00  0.00    -0.050 Br
ATOM      9  C   LIG    1       22.832 -18.257   4.065  0.00  0.00    -0.015 A 
ATOM     10  C   LIG    1       22.487 -16.895   3.499  0.00  0.00    +0.046 C 
ATOM     11  C   LIG    1       24.178 -18.640   4.349  0.00  0.00    +0.040 A 
ATOM     12  C   LIG    1       24.448 -19.970   4.744  0.00  0.00    -0.029 A 
ATOM     13  C   LIG    1       25.797 -20.530   5.114  0.00  0.00    +0.045 C 
ATOM     14  C   LIG    1       23.372 -20.866   4.910  0.00  0.00    +0.009 A 
ENDBRANCH   1  11
BRANCH   3  15
ATOM     15  C   LIG    1       26.824 -15.991   3.512  0.00  0.00    +0.181 C 
BRANCH  15  16
ATOM     16  N   LIG    1       26.082 -14.761   3.015  0.00  0.00    -0.274 NA
BRANCH  16  17
ATOM     17  C   LIG    1       25.138 -14.285   4.075  0.00  0.00    +0.206 C 
BRANCH  17  18
ATOM     18  C   LIG    1       24.268 -13.075   3.733  0.00  0.00    +0.319 C 
ATOM     19  O   LIG    1       23.864 -12.866   2.592  0.00  0.00    -0.250 OA
BRANCH  18  20
ATOM     20  O   LIG    1       23.957 -12.237   4.736  0.00  0.00    -0.480 OA
ATOM     21  H   LIG    1       24.578 -11.476   4.757  0.00  0.00    +0.295 HD
ENDBRANCH  18  20
ENDBRANCH  17  18
ENDBRANCH  16  17
BRANCH  16  22
ATOM     22  C   LIG    1       27.065 -13.729   2.585  0.00  0.00    +0.206 C 
BRANCH  22  23
ATOM     23  C   LIG    1       28.063 -13.407   3.664  0.00  0.00    +0.319 C 
ATOM     24  O   LIG    1       27.783 -13.053   4.807  0.00  0.00    -0.250 OA
BRANCH  23  25
ATOM     25  O   LIG    1       29.371 -13.377   3.303  0.00  0.00    -0.480 OA
ATOM     26  H   LIG    1       29.502 -12.506   2.874  0.00  0.00    +0.295 HD
ENDBRANCH  23  25
ENDBRANCH  22  23
ENDBRANCH  16  22
ENDBRANCH  15  16
ENDBRANCH   3  15
TORSDOF 9
ENDMDL
