MODEL 1
REMARK VINA RESULT:      -4.7      0.000      0.000
REMARK  Name = *****
REMARK                            x       y       z     vdW  Elec       q    Type
REMARK                         _______ _______ _______ _____ _____    ______ ____
ROOT
ATOM      1  C   LIG    1       24.268 -19.794   3.979  0.00  0.00    -0.032 A 
ATOM      2  C   LIG    1       25.634 -19.557   3.769  0.00  0.00    +0.006 A 
ATOM      3  C   LIG    1       26.103 -18.262   3.538  0.00  0.00    +0.013 A 
ATOM      4  C   LIG    1       25.218 -17.176   3.538  0.00  0.00    +0.037 A 
ATOM      5  C   LIG    1       23.852 -17.403   3.721  0.00  0.00    +0.013 A 
ATOM      6  C   LIG    1       23.382 -18.705   3.947  0.00  0.00    +0.006 A 
ENDROOT
BRANCH   4   7
ATOM      7  C   LIG    1       25.719 -15.783   3.343  0.00  0.00    +0.244 C 
ATOM      8  N   LIG    1       24.797 -14.796   3.625  0.00  0.00    -0.309 N 
ATOM      9  H   LIG    1       23.827 -15.066   3.710  0.00  0.00    +0.149 HD
ATOM     10  O   LIG    1       26.856 -15.571   2.946  0.00  0.00    -0.270 OA
BRANCH   8  11
ATOM     11  C   LIG    1       25.071 -13.375   3.491  0.00  0.00    +0.067 C 
ATOM     12  C   LIG    1       24.200 -12.613   4.486  0.00  0.00    +0.027 C 
ATOM     13  C   LIG    1       24.795 -12.909   2.066  0.00  0.00    +0.027 C 
ENDBRANCH   8  11
ENDBRANCH   4   7
BRANCH   1  14
ATOM     14  C   LIG    1       23.772 -21.205   4.230  0.00  0.00    +0.133 C 
BRANCH  14  15
ATOM     15  N   LIG    1       22.640 -21.235   5.178  0.00  0.00    -0.253 NA
ATOM     16  H   LIG    1       21.901 -20.640   4.793  0.00  0.00    +0.141 HD
BRANCH  15  18
ATOM     17  C   LIG    1       24.162 -21.572   6.994  0.00  0.00    +0.120 C 
ATOM     18  N   LIG    1       23.091 -20.717   6.472  0.00  0.00    -0.259 NA
ATOM     19  H   LIG    1       23.477 -19.774   6.363  0.00  0.00    +0.140 HD
ENDBRANCH  15  18
ENDBRANCH  14  15
ENDBRANCH   1  14
TORSDOF 5
ENDMDL
MODEL 2
REMARK VINA RESULT:      -4.5      2.186      6.662
REMARK  Name = *****
REMARK                            x       y       z     vdW  Elec       q    Type
REMARK                         _______ _______ _______ _____ _____    ______ ____
ROOT
ATOM      1  C   LIG    1       25.530 -15.212   3.592  0.00  0.00    -0.032 A 
ATOM      2  C   LIG    1       24.219 -15.535   3.971  0.00  0.00    +0.006 A 
ATOM      3  C   LIG    1       23.803 -16.867   4.029  0.00  0.00    +0.013 A 
ATOM      4  C   LIG    1       24.698 -17.903   3.731  0.00  0.00    +0.037 A 
ATOM      5  C   LIG    1       26.000 -17.593   3.328  0.00  0.00    +0.013 A 
ATOM      6  C   LIG    1       26.413 -16.254   3.266  0.00  0.00    +0.006 A 
ENDROOT
BRANCH   4   7
ATOM      7  C   LIG    1       24.276 -19.331   3.841  0.00  0.00    +0.244 C 
ATOM      8  N   LIG    1       23.630 -19.650   5.018  0.00  0.00    -0.309 N 
ATOM      9  H   LIG    1       23.694 -18.995   5.784  0.00  0.00    +0.149 HD
ATOM     10  O   LIG    1       24.516 -20.131   2.948  0.00  0.00    -0.270 OA
BRANCH   8  11
ATOM     11  C   LIG    1       23.147 -20.983   5.336  0.00  0.00    +0.067 C 
ATOM     12  C   LIG    1       21.709 -21.114   4.841  0.00  0.00    +0.027 C 
ATOM     13  C   LIG    1       23.226 -21.237   6.838  0.00  0.00    +0.027 C 
ENDBRANCH   8  11
ENDBRANCH   4   7
BRANCH   1  14
ATOM     14  C   LIG    1       25.969 -13.762   3.535  0.00  0.00    +0.133 C 
BRANCH  14  15
ATOM     15  N   LIG    1       27.006 -13.536   2.509  0.00  0.00    -0.253 NA
ATOM     16  H   LIG    1       27.060 -14.383   1.936  0.00  0.00    +0.141 HD
BRANCH  15  18
ATOM     17  C   LIG    1       28.049 -12.965   4.586  0.00  0.00    +0.120 C 
ATOM     18  N   LIG    1       28.287 -13.286   3.175  0.00  0.00    -0.259 NA
ATOM     19  H   LIG    1       28.872 -14.127   3.146  0.00  0.00    +0.140 HD
ENDBRANCH  15  18
ENDBRANCH  14  15
ENDBRANCH   1  14
TORSDOF 5
ENDMDL
MODEL 3
REMARK VINA RESULT:      -4.5      1.933      6.736
REMARK  Name = *****
REMARK                            x       y       z     vdW  Elec       q    Type
REMARK                         _______ _______ _______ _____ _____    ______ ____
ROOT
ATOM      1  C   LIG    1       25.200 -15.144   3.655  0.00  0.00    -0.032 A 
ATOM      2  C   LIG    1       23.924 -15.541   4.079  0.00  0.00    +0.006 A 
ATOM      3  C   LIG    1       23.582 -16.894   4.132  0.00  0.00    +0.013 A 
ATOM      4  C   LIG    1       24.518 -17.877   3.783  0.00  0.00    +0.037 A 
ATOM      5  C   LIG    1       25.784 -17.492   3.334  0.00  0.00    +0.013 A 
ATOM      6  C   LIG    1       26.124 -16.132   3.277  0.00  0.00    +0.006 A 
ENDROOT
BRANCH   4   7
ATOM      7  C   LIG    1       24.175 -19.327   3.885  0.00  0.00    +0.244 C 
ATOM      8  N   LIG    1       23.567 -19.691   5.069  0.00  0.00    -0.309 N 
ATOM      9  H   LIG    1       23.607 -19.039   5.840  0.00  0.00    +0.149 HD
ATOM     10  O   LIG    1       24.445 -20.104   2.981  0.00  0.00    -0.270 OA
BRANCH   8  11
ATOM     11  C   LIG    1       23.163 -21.051   5.382  0.00  0.00    +0.067 C 
ATOM     12  C   LIG    1       21.736 -21.264   4.884  0.00  0.00    +0.027 C 
ATOM     13  C   LIG    1       23.253 -21.304   6.884  0.00  0.00    +0.027 C 
ENDBRANCH   8  11
ENDBRANCH   4   7
BRANCH   1  14
ATOM     14  C   LIG    1       25.560 -13.672   3.604  0.00  0.00    +0.133 C 
BRANCH  14  15
ATOM     15  N   LIG    1       25.493 -13.131   2.232  0.00  0.00    -0.253 NA
ATOM     16  H   LIG    1       26.215 -12.408   2.151  0.00  0.00    +0.141 HD
BRANCH  15  18
ATOM     17  C   LIG    1       23.828 -11.667   3.133  0.00  0.00    +0.120 C 
ATOM     18  N   LIG    1       24.165 -12.552   2.014  0.00  0.00    -0.259 NA
ATOM     19  H   LIG    1       24.160 -11.985   1.161  0.00  0.00    +0.140 HD
ENDBRANCH  15  18
ENDBRANCH  14  15
ENDBRANCH   1  14
TORSDOF 5
ENDMDL
MODEL 4
REMARK VINA RESULT:      -4.5      2.376      6.639
REMARK  Name = *****
REMARK                            x       y       z     vdW  Elec       q    Type
REMARK                         _______ _______ _______ _____ _____    ______ ____
ROOT
ATOM      1  C   LIG    1       25.168 -14.455   3.685  0.00  0.00    -0.032 A 
ATOM      2  C   LIG    1       25.721 -15.695   3.336  0.00  0.00    +0.006 A 
ATOM      3  C   LIG    1       25.000 -16.875   3.534  0.00  0.00    +0.013 A 
ATOM      4  C   LIG    1       23.703 -16.835   4.062  0.00  0.00    +0.037 A 
ATOM      5  C   LIG    1       23.151 -15.607   4.436  0.00  0.00    +0.013 A 
ATOM      6  C   LIG    1       23.879 -14.424   4.242  0.00  0.00    +0.006 A 
ENDROOT
BRANCH   4   7
ATOM      7  C   LIG    1       22.907 -18.088   4.228  0.00  0.00    +0.244 C 
ATOM      8  N   LIG    1       23.654 -19.205   4.541  0.00  0.00    -0.309 N 
ATOM      9  H   LIG    1       24.655 -19.156   4.410  0.00  0.00    +0.149 HD
ATOM     10  O   LIG    1       21.695 -18.091   4.072  0.00  0.00    -0.270 OA
BRANCH   8  11
ATOM     11  C   LIG    1       23.084 -20.527   4.733  0.00  0.00    +0.067 C 
ATOM     12  C   LIG    1       23.083 -20.847   6.226  0.00  0.00    +0.027 C 
ATOM     13  C   LIG    1       23.881 -21.572   3.959  0.00  0.00    +0.027 C 
ENDBRANCH   8  11
ENDBRANCH   4   7
BRANCH   1  14
ATOM     14  C   LIG    1       25.960 -13.181   3.464  0.00  0.00    +0.133 C 
BRANCH  14  15
ATOM     15  N   LIG    1       27.102 -13.388   2.551  0.00  0.00    -0.253 NA
ATOM     16  H   LIG    1       26.854 -14.156   1.919  0.00  0.00    +0.141 HD
BRANCH  15  18
ATOM     17  C   LIG    1       28.725 -12.566   4.105  0.00  0.00    +0.120 C 
ATOM     18  N   LIG    1       28.284 -13.738   3.341  0.00  0.00    -0.259 NA
ATOM     19  H   LIG    1       28.057 -14.476   4.014  0.00  0.00    +0.140 HD
ENDBRANCH  15  18
ENDBRANCH  14  15
ENDBRANCH   1  14
TORSDOF 5
ENDMDL
MODEL 5
REMARK VINA RESULT:      -4.3      1.661      1.861
REMARK  Name = *****
REMARK                            x       y       z     vdW  Elec       q    Type
REMARK                         _______ _______ _______ _____ _____    ______ ____
ROOT
ATOM      1  C   LIG    1       24.287 -19.428   3.764  0.00  0.00    -0.032 A 
ATOM      2  C   LIG    1       25.516 -18.880   3.370  0.00  0.00    +0.006 A 
ATOM      3  C   LIG    1       25.696 -17.495   3.331  0.00  0.00    +0.013 A 
ATOM      4  C   LIG    1       24.658 -16.633   3.707  0.00  0.00    +0.037 A 
ATOM      5  C   LIG    1       23.421 -17.167   4.077  0.00  0.00    +0.013 A 
ATOM      6  C   LIG    1       23.240 -18.558   4.111  0.00  0.00    +0.006 A 
ENDROOT
BRANCH   4   7
ATOM      7  C   LIG    1       24.860 -15.154   3.717  0.00  0.00    +0.244 C 
ATOM      8  N   LIG    1       26.178 -14.754   3.629  0.00  0.00    -0.309 N 
ATOM      9  H   LIG    1       26.894 -15.447   3.795  0.00  0.00    +0.149 HD
ATOM     10  O   LIG    1       23.913 -14.388   3.815  0.00  0.00    -0.270 OA
BRANCH   8  11
ATOM     11  C   LIG    1       26.600 -13.364   3.634  0.00  0.00    +0.067 C 
ATOM     12  C   LIG    1       26.088 -12.692   2.363  0.00  0.00    +0.027 C 
ATOM     13  C   LIG    1       28.120 -13.266   3.720  0.00  0.00    +0.027 C 
ENDBRANCH   8  11
ENDBRANCH   4   7
BRANCH   1  14
ATOM     14  C   LIG    1       24.104 -20.933   3.805  0.00  0.00    +0.133 C 
BRANCH  14  15
ATOM     15  N   LIG    1       24.981 -21.572   4.805  0.00  0.00    -0.253 NA
ATOM     16  H   LIG    1       24.661 -22.538   4.922  0.00  0.00    +0.141 HD
BRANCH  15  18
ATOM     17  C   LIG    1       26.194 -20.741   6.693  0.00  0.00    +0.120 C 
ATOM     18  N   LIG    1       24.871 -20.840   6.070  0.00  0.00    -0.259 NA
ATOM     19  H   LIG    1       24.539 -19.886   5.901  0.00  0.00    +0.140 HD
ENDBRANCH  15  18
ENDBRANCH  14  15
ENDBRANCH   1  14
TORSDOF 5
ENDMDL
MODEL 6
REMARK VINA RESULT:      -3.8      2.844      6.808
REMARK  Name = *****
REMARK                            x       y       z     vdW  Elec       q    Type
REMARK                         _______ _______ _______ _____ _____    ______ ____
ROOT
ATOM      1  C   LIG    1       26.031 -13.683   3.387  0.00  0.00    -0.032 A 
ATOM      2  C   LIG    1       24.856 -13.128   3.914  0.00  0.00    +0.006 A 
ATOM      3  C   LIG    1       23.804 -13.950   4.325  0.00  0.00    +0.013 A 
ATOM      4  C   LIG    1       23.917 -15.344   4.238  0.00  0.00    +0.037 A 
ATOM      5  C   LIG    1       25.073 -15.907   3.691  0.00  0.00    +0.013 A 
ATOM      6  C   LIG    1       26.126 -15.079   3.274  0.00  0.00    +0.006 A 
ENDROOT
BRANCH   4   7
ATOM      7  C   LIG    1       22.818 -16.230   4.723  0.00  0.00    +0.244 C 
ATOM      8  N   LIG    1       22.877 -17.527   4.255  0.00  0.00    -0.309 N 
ATOM      9  H   LIG    1       23.486 -17.720   3.472  0.00  0.00    +0.149 HD
ATOM     10  O   LIG    1       21.941 -15.803   5.459  0.00  0.00    -0.270 OA
BRANCH   8  11
ATOM     11  C   LIG    1       21.901 -18.550   4.591  0.00  0.00    +0.067 C 
ATOM     12  C   LIG    1       22.634 -19.869   4.821  0.00  0.00    +0.027 C 
ATOM     13  C   LIG    1       20.870 -18.693   3.476  0.00  0.00    +0.027 C 
ENDBRANCH   8  11
ENDBRANCH   4   7
BRANCH   1  14
ATOM     14  C   LIG    1       27.166 -12.779   2.946  0.00  0.00    +0.133 C 
BRANCH  14  15
ATOM     15  N   LIG    1       28.471 -13.470   2.982  0.00  0.00    -0.253 NA
ATOM     16  H   LIG    1       28.319 -14.392   3.401  0.00  0.00    +0.141 HD
BRANCH  15  18
ATOM     17  C   LIG    1       28.712 -12.205   4.998  0.00  0.00    +0.120 C 
ATOM     18  N   LIG    1       29.401 -12.685   3.797  0.00  0.00    -0.259 NA
ATOM     19  H   LIG    1       30.184 -13.269   4.105  0.00  0.00    +0.140 HD
ENDBRANCH  15  18
ENDBRANCH  14  15
ENDBRANCH   1  14
TORSDOF 5
ENDMDL
MODEL 7
REMARK VINA RESULT:      -3.5      1.506      1.844
REMARK  Name = *****
REMARK                            x       y       z     vdW  Elec       q    Type
REMARK                         _______ _______ _______ _____ _____    ______ ____
ROOT
ATOM      1  C   LIG    1       24.257 -19.300   3.862  0.00  0.00    -0.032 A 
ATOM      2  C   LIG    1       25.611 -19.166   3.521  0.00  0.00    +0.006 A 
ATOM      3  C   LIG    1       26.168 -17.903   3.308  0.00  0.00    +0.013 A 
ATOM      4  C   LIG    1       25.389 -16.749   3.456  0.00  0.00    +0.037 A 
ATOM      5  C   LIG    1       24.033 -16.871   3.771  0.00  0.00    +0.013 A 
ATOM      6  C   LIG    1       23.474 -18.140   3.979  0.00  0.00    +0.006 A 
ENDROOT
BRANCH   4   7
ATOM      7  C   LIG    1       25.991 -15.394   3.281  0.00  0.00    +0.244 C 
ATOM      8  N   LIG    1       26.434 -14.807   4.448  0.00  0.00    -0.309 N 
ATOM      9  H   LIG    1       26.125 -15.205   5.324  0.00  0.00    +0.149 HD
ATOM     10  O   LIG    1       26.052 -14.868   2.179  0.00  0.00    -0.270 OA
BRANCH   8  11
ATOM     11  C   LIG    1       27.040 -13.488   4.507  0.00  0.00    +0.067 C 
ATOM     12  C   LIG    1       28.336 -13.507   3.700  0.00  0.00    +0.027 C 
ATOM     13  C   LIG    1       27.312 -13.087   5.954  0.00  0.00    +0.027 C 
ENDBRANCH   8  11
ENDBRANCH   4   7
BRANCH   1  14
ATOM     14  C   LIG    1       23.664 -20.676   4.092  0.00  0.00    +0.133 C 
BRANCH  14  15
ATOM     15  N   LIG    1       22.459 -20.626   4.943  0.00  0.00    -0.253 NA
ATOM     16  H   LIG    1       22.328 -19.652   5.234  0.00  0.00    +0.141 HD
BRANCH  15  18
ATOM     17  C   LIG    1       23.555 -20.811   7.062  0.00  0.00    +0.120 C 
ATOM     18  N   LIG    1       22.665 -21.485   6.111  0.00  0.00    -0.259 NA
ATOM     19  H   LIG    1       21.775 -21.654   6.590  0.00  0.00    +0.140 HD
ENDBRANCH  15  18
ENDBRANCH  14  15
ENDBRANCH   1  14
TORSDOF 5
ENDMDL
MODEL 8
REMARK VINA RESULT:      -3.1      0.952      1.759
REMARK  Name = *****
REMARK                            x       y       z     vdW  Elec       q    Type
REMARK                         _______ _______ _______ _____ _____    ______ ____
ROOT
ATOM      1  C   LIG    1       24.515 -19.646   3.991  0.00  0.00    -0.032 A 
ATOM      2  C   LIG    1       23.622 -18.567   4.049  0.00  0.00    +0.006 A 
ATOM      3  C   LIG    1       24.075 -17.258   3.864  0.00  0.00    +0.013 A 
ATOM      4  C   LIG    1       25.427 -17.007   3.594  0.00  0.00    +0.037 A 
ATOM      5  C   LIG    1       26.331 -18.072   3.559  0.00  0.00    +0.013 A 
ATOM      6  C   LIG    1       25.874 -19.385   3.750  0.00  0.00    +0.006 A 
ENDROOT
BRANCH   4   7
ATOM      7  C   LIG    1       25.909 -15.616   3.344  0.00  0.00    +0.244 C 
ATOM      8  N   LIG    1       25.072 -14.625   3.815  0.00  0.00    -0.309 N 
ATOM      9  H   LIG    1       24.130 -14.885   4.070  0.00  0.00    +0.149 HD
ATOM     10  O   LIG    1       26.957 -15.408   2.749  0.00  0.00    -0.270 OA
BRANCH   8  11
ATOM     11  C   LIG    1       25.342 -13.205   3.667  0.00  0.00    +0.067 C 
ATOM     12  C   LIG    1       26.553 -12.846   4.524  0.00  0.00    +0.027 C 
ATOM     13  C   LIG    1       24.126 -12.383   4.081  0.00  0.00    +0.027 C 
ENDBRANCH   8  11
ENDBRANCH   4   7
BRANCH   1  14
ATOM     14  C   LIG    1       24.011 -21.062   4.192  0.00  0.00    +0.133 C 
BRANCH  14  15
ATOM     15  N   LIG    1       23.847 -21.395   5.621  0.00  0.00    -0.253 NA
ATOM     16  H   LIG    1       24.357 -22.267   5.793  0.00  0.00    +0.141 HD
BRANCH  15  18
ATOM     17  C   LIG    1       21.634 -21.153   4.744  0.00  0.00    +0.120 C 
ATOM     18  N   LIG    1       22.422 -21.571   5.908  0.00  0.00    -0.259 NA
ATOM     19  H   LIG    1       22.213 -22.559   6.081  0.00  0.00    +0.140 HD
ENDBRANCH  15  18
ENDBRANCH  14  15
ENDBRANCH   1  14
TORSDOF 5
ENDMDL
MODEL 9
REMARK VINA RESULT:      -2.6      2.075      6.438
REMARK  Name = *****
REMARK                            x       y       z     vdW  Elec       q    Type
REMARK                         _______ _______ _______ _____ _____    ______ ____
ROOT
ATOM      1  C   LIG    1       25.479 -14.835   3.668  0.00  0.00    -0.032 A 
ATOM      2  C   LIG    1       26.445 -15.797   3.340  0.00  0.00    +0.006 A 
ATOM      3  C   LIG    1       26.135 -17.159   3.387  0.00  0.00    +0.013 A 
ATOM      4  C   LIG    1       24.846 -17.582   3.739  0.00  0.00    +0.037 A 
ATOM      5  C   LIG    1       23.884 -16.633   4.092  0.00  0.00    +0.013 A 
ATOM      6  C   LIG    1       24.199 -15.266   4.050  0.00  0.00    +0.006 A 
ENDROOT
BRANCH   4   7
ATOM      7  C   LIG    1       24.494 -19.033   3.741  0.00  0.00    +0.244 C 
ATOM      8  N   LIG    1       23.453 -19.369   4.582  0.00  0.00    -0.309 N 
ATOM      9  H   LIG    1       23.171 -18.694   5.279  0.00  0.00    +0.149 HD
ATOM     10  O   LIG    1       25.112 -19.833   3.056  0.00  0.00    -0.270 OA
BRANCH   8  11
ATOM     11  C   LIG    1       22.957 -20.725   4.748  0.00  0.00    +0.067 C 
ATOM     12  C   LIG    1       23.580 -21.324   6.006  0.00  0.00    +0.027 C 
ATOM     13  C   LIG    1       23.293 -21.571   3.524  0.00  0.00    +0.027 C 
ENDBRANCH   8  11
ENDBRANCH   4   7
BRANCH   1  14
ATOM     14  C   LIG    1       25.827 -13.360   3.611  0.00  0.00    +0.133 C 
BRANCH  14  15
ATOM     15  N   LIG    1       26.132 -12.810   4.947  0.00  0.00    -0.253 NA
ATOM     16  H   LIG    1       25.909 -11.810   4.926  0.00  0.00    +0.141 HD
BRANCH  15  18
ATOM     17  C   LIG    1       28.323 -12.885   3.988  0.00  0.00    +0.120 C 
ATOM     18  N   LIG    1       27.555 -13.011   5.230  0.00  0.00    -0.259 NA
ATOM     19  H   LIG    1       27.895 -12.291   5.875  0.00  0.00    +0.140 HD
ENDBRANCH  15  18
ENDBRANCH  14  15
ENDBRANCH   1  14
TORSDOF 5
ENDMDL
