MODEL 1
REMARK VINA RESULT:      -6.2      0.000      0.000
REMARK  Name = *****
REMARK                            x       y       z     vdW  Elec       q    Type
REMARK                         _______ _______ _______ _____ _____    ______ ____
ROOT
ATOM      1  C   LIG    1       20.206 -28.851  13.530  0.00  0.00    +0.011 C 
ATOM      2  C   LIG    1       21.213 -29.173  12.430  0.00  0.00    +0.026 C 
ATOM      3  C   LIG    1       21.046 -30.511  11.641  0.00  0.00    +0.134 C 
ATOM      4  C   LIG    1       22.286 -31.380  12.060  0.00  0.00    +0.010 C 
ATOM      5  C   LIG    1       23.395 -30.324  12.290  0.00  0.00    +0.005 C 
ATOM      6  C   LIG    1       24.143 -29.815  11.023  0.00  0.00    +0.036 C 
ATOM      7  C   LIG    1       24.576 -30.954  10.064  0.00  0.00    +0.153 C 
ATOM      8  C   LIG    1       23.414 -31.929   9.775  0.00  0.00    +0.154 C 
ATOM      9  F   LIG    1       25.504 -31.691  10.782  0.00  0.00    -0.238 F 
ATOM     10  C   LIG    1       25.325 -30.389   8.766  0.00  0.00    +0.047 C 
ATOM     11  C   LIG    1       26.066 -29.091   9.123  0.00  0.00    -0.020 C 
ATOM     12  C   LIG    1       26.164 -28.028   8.306  0.00  0.00    +0.054 C 
ATOM     13  C   LIG    1       25.464 -27.995   7.006  0.00  0.00    +0.179 C 
ATOM     14  C   LIG    1       24.495 -29.082   6.749  0.00  0.00    +0.047 C 
ATOM     15  O   LIG    1       25.627 -27.084   6.210  0.00  0.00    -0.288 OA
ATOM     16  C   LIG    1       26.574 -29.034  10.532  0.00  0.00    +0.194 C 
ATOM     17  F   LIG    1       27.339 -27.928  10.754  0.00  0.00    -0.241 F 
ATOM     18  C   LIG    1       26.393 -31.403   8.282  0.00  0.00    +0.023 C 
ATOM     19  C   LIG    1       24.419 -30.148   7.561  0.00  0.00    -0.009 C 
ATOM     20  C   LIG    1       25.376 -28.976  11.477  0.00  0.00    +0.048 C 
ATOM     21  C   LIG    1       22.022 -32.125  13.400  0.00  0.00    +0.015 C 
ATOM     22  C   LIG    1       22.750 -32.448  11.050  0.00  0.00    +0.044 C 
ATOM     23  C   LIG    1       22.645 -29.192  13.009  0.00  0.00    +0.011 C 
ENDROOT
BRANCH   3  24
ATOM     24  O   LIG    1       21.193 -30.141  10.262  0.00  0.00    -0.380 OA
ATOM     25  H   LIG    1       21.112 -29.167  10.199  0.00  0.00    +0.211 HD
ENDBRANCH   3  24
BRANCH   3  26
ATOM     26  C   LIG    1       19.697 -31.273  11.811  0.00  0.00    +0.190 C 
ATOM     27  O   LIG    1       19.188 -31.512  12.908  0.00  0.00    -0.292 OA
BRANCH  26  28
ATOM     28  C   LIG    1       18.981 -31.724  10.544  0.00  0.00    +0.233 C 
BRANCH  28  29
ATOM     29  O   LIG    1       18.500 -30.599   9.824  0.00  0.00    -0.387 OA
ATOM     30  H   LIG    1       19.114 -30.466   9.077  0.00  0.00    +0.210 HD
ENDBRANCH  28  29
ENDBRANCH  26  28
ENDBRANCH   3  26
BRANCH   8  31
ATOM     31  O   LIG    1       23.874 -33.076   9.047  0.00  0.00    -0.389 OA
ATOM     32  H   LIG    1       24.730 -33.337   9.440  0.00  0.00    +0.210 HD
ENDBRANCH   8  31
TORSDOF 5
ENDMDL
MODEL 2
REMARK VINA RESULT:      -6.1      2.211      6.122
REMARK  Name = *****
REMARK                            x       y       z     vdW  Elec       q    Type
REMARK                         _______ _______ _______ _____ _____    ______ ____
ROOT
ATOM      1  C   LIG    1       23.618 -33.115   6.195  0.00  0.00    +0.011 C 
ATOM      2  C   LIG    1       23.630 -32.351   7.515  0.00  0.00    +0.026 C 
ATOM      3  C   LIG    1       24.494 -31.052   7.612  0.00  0.00    +0.134 C 
ATOM      4  C   LIG    1       25.646 -31.413   8.619  0.00  0.00    +0.010 C 
ATOM      5  C   LIG    1       24.963 -32.403   9.595  0.00  0.00    +0.005 C 
ATOM      6  C   LIG    1       24.118 -31.777  10.741  0.00  0.00    +0.036 C 
ATOM      7  C   LIG    1       24.830 -30.604  11.463  0.00  0.00    +0.153 C 
ATOM      8  C   LIG    1       25.407 -29.582  10.459  0.00  0.00    +0.154 C 
ATOM      9  F   LIG    1       25.932 -31.180  12.075  0.00  0.00    -0.238 F 
ATOM     10  C   LIG    1       23.922 -29.975  12.623  0.00  0.00    +0.047 C 
ATOM     11  C   LIG    1       23.013 -31.066  13.213  0.00  0.00    -0.020 C 
ATOM     12  C   LIG    1       21.742 -30.860  13.602  0.00  0.00    +0.054 C 
ATOM     13  C   LIG    1       21.080 -29.557  13.394  0.00  0.00    +0.179 C 
ATOM     14  C   LIG    1       21.802 -28.573  12.559  0.00  0.00    +0.047 C 
ATOM     15  O   LIG    1       19.966 -29.324  13.836  0.00  0.00    -0.288 OA
ATOM     16  C   LIG    1       23.607 -32.441  13.203  0.00  0.00    +0.194 C 
ATOM     17  F   LIG    1       22.822 -33.341  13.860  0.00  0.00    -0.241 F 
ATOM     18  C   LIG    1       24.815 -29.454  13.777  0.00  0.00    +0.023 C 
ATOM     19  C   LIG    1       23.076 -28.779  12.192  0.00  0.00    -0.009 C 
ATOM     20  C   LIG    1       23.741 -32.901  11.753  0.00  0.00    +0.048 C 
ATOM     21  C   LIG    1       26.812 -32.149   7.897  0.00  0.00    +0.015 C 
ATOM     22  C   LIG    1       26.279 -30.238   9.388  0.00  0.00    +0.044 C 
ATOM     23  C   LIG    1       24.109 -33.272   8.659  0.00  0.00    +0.011 C 
ENDROOT
BRANCH   3  24
ATOM     24  O   LIG    1       23.632 -30.087   8.232  0.00  0.00    -0.380 OA
ATOM     25  H   LIG    1       22.724 -30.230   7.894  0.00  0.00    +0.211 HD
ENDBRANCH   3  24
BRANCH   3  26
ATOM     26  C   LIG    1       25.032 -30.456   6.277  0.00  0.00    +0.190 C 
ATOM     27  O   LIG    1       25.914 -30.992   5.602  0.00  0.00    -0.292 OA
BRANCH  26  28
ATOM     28  C   LIG    1       24.414 -29.150   5.793  0.00  0.00    +0.233 C 
BRANCH  28  29
ATOM     29  O   LIG    1       23.101 -29.378   5.306  0.00  0.00    -0.387 OA
ATOM     30  H   LIG    1       22.786 -28.525   4.950  0.00  0.00    +0.210 HD
ENDBRANCH  28  29
ENDBRANCH  26  28
ENDBRANCH   3  26
BRANCH   8  31
ATOM     31  O   LIG    1       26.225 -28.611  11.126  0.00  0.00    -0.389 OA
ATOM     32  H   LIG    1       25.868 -27.732  10.896  0.00  0.00    +0.210 HD
ENDBRANCH   8  31
TORSDOF 5
ENDMDL
MODEL 3
REMARK VINA RESULT:      -5.8      1.538      2.054
REMARK  Name = *****
REMARK                            x       y       z     vdW  Elec       q    Type
REMARK                         _______ _______ _______ _____ _____    ______ ____
ROOT
ATOM      1  C   LIG    1       20.072 -26.707  13.975  0.00  0.00    +0.011 C 
ATOM      2  C   LIG    1       21.005 -27.582  13.143  0.00  0.00    +0.026 C 
ATOM      3  C   LIG    1       20.713 -29.115  13.068  0.00  0.00    +0.134 C 
ATOM      4  C   LIG    1       21.909 -29.788  13.834  0.00  0.00    +0.010 C 
ATOM      5  C   LIG    1       23.096 -28.838  13.537  0.00  0.00    +0.005 C 
ATOM      6  C   LIG    1       23.820 -29.036  12.174  0.00  0.00    +0.036 C 
ATOM      7  C   LIG    1       24.132 -30.520  11.851  0.00  0.00    +0.153 C 
ATOM      8  C   LIG    1       22.894 -31.421  12.057  0.00  0.00    +0.154 C 
ATOM      9  F   LIG    1       25.038 -30.913  12.823  0.00  0.00    -0.238 F 
ATOM     10  C   LIG    1       24.859 -30.683  10.434  0.00  0.00    +0.047 C 
ATOM     11  C   LIG    1       25.702 -29.431  10.140  0.00  0.00    -0.020 C 
ATOM     12  C   LIG    1       25.835 -28.879   8.921  0.00  0.00    +0.054 C 
ATOM     13  C   LIG    1       25.082 -29.395   7.761  0.00  0.00    +0.179 C 
ATOM     14  C   LIG    1       24.031 -30.396   8.046  0.00  0.00    +0.047 C 
ATOM     15  O   LIG    1       25.272 -28.974   6.632  0.00  0.00    -0.288 OA
ATOM     16  C   LIG    1       26.274 -28.769  11.357  0.00  0.00    +0.194 C 
ATOM     17  F   LIG    1       27.122 -27.752  11.033  0.00  0.00    -0.241 F 
ATOM     18  C   LIG    1       25.834 -31.888  10.469  0.00  0.00    +0.023 C 
ATOM     19  C   LIG    1       23.919 -30.955   9.261  0.00  0.00    -0.009 C 
ATOM     20  C   LIG    1       25.126 -28.184  12.176  0.00  0.00    +0.048 C 
ATOM     21  C   LIG    1       21.655 -29.803  15.369  0.00  0.00    +0.015 C 
ATOM     22  C   LIG    1       22.254 -31.235  13.433  0.00  0.00    +0.044 C 
ATOM     23  C   LIG    1       22.457 -27.446  13.653  0.00  0.00    +0.011 C 
ENDROOT
BRANCH   3  24
ATOM     24  O   LIG    1       20.824 -29.438  11.674  0.00  0.00    -0.380 OA
ATOM     25  H   LIG    1       21.773 -29.417  11.432  0.00  0.00    +0.211 HD
ENDBRANCH   3  24
BRANCH   3  26
ATOM     26  C   LIG    1       19.324 -29.599  13.583  0.00  0.00    +0.190 C 
ATOM     27  O   LIG    1       18.652 -28.976  14.407  0.00  0.00    -0.292 OA
BRANCH  26  28
ATOM     28  C   LIG    1       18.783 -30.906  13.016  0.00  0.00    +0.233 C 
BRANCH  28  29
ATOM     29  O   LIG    1       18.246 -30.695  11.720  0.00  0.00    -0.387 OA
ATOM     30  H   LIG    1       18.117 -31.579  11.327  0.00  0.00    +0.210 HD
ENDBRANCH  28  29
ENDBRANCH  26  28
ENDBRANCH   3  26
BRANCH   8  31
ATOM     31  O   LIG    1       23.244 -32.808  11.944  0.00  0.00    -0.389 OA
ATOM     32  H   LIG    1       22.727 -33.171  11.198  0.00  0.00    +0.210 HD
ENDBRANCH   8  31
TORSDOF 5
ENDMDL
MODEL 4
REMARK VINA RESULT:      -5.3      3.365      5.940
REMARK  Name = *****
REMARK                            x       y       z     vdW  Elec       q    Type
REMARK                         _______ _______ _______ _____ _____    ______ ____
ROOT
ATOM      1  C   LIG    1       24.042 -30.733   7.386  0.00  0.00    +0.011 C 
ATOM      2  C   LIG    1       24.353 -30.137   8.756  0.00  0.00    +0.026 C 
ATOM      3  C   LIG    1       25.535 -30.746   9.578  0.00  0.00    +0.134 C 
ATOM      4  C   LIG    1       24.848 -31.434  10.813  0.00  0.00    +0.010 C 
ATOM      5  C   LIG    1       23.619 -30.531  11.082  0.00  0.00    +0.005 C 
ATOM      6  C   LIG    1       23.875 -29.237  11.908  0.00  0.00    +0.036 C 
ATOM      7  C   LIG    1       24.744 -29.473  13.170  0.00  0.00    +0.153 C 
ATOM      8  C   LIG    1       26.015 -30.288  12.843  0.00  0.00    +0.154 C 
ATOM      9  F   LIG    1       23.979 -30.297  13.980  0.00  0.00    -0.238 F 
ATOM     10  C   LIG    1       25.000 -28.117  13.982  0.00  0.00    +0.047 C 
ATOM     11  C   LIG    1       23.802 -27.172  13.796  0.00  0.00    -0.020 C 
ATOM     12  C   LIG    1       23.906 -25.837  13.670  0.00  0.00    +0.054 C 
ATOM     13  C   LIG    1       25.224 -25.175  13.603  0.00  0.00    +0.179 C 
ATOM     14  C   LIG    1       26.402 -26.059  13.470  0.00  0.00    +0.047 C 
ATOM     15  O   LIG    1       25.334 -23.960  13.595  0.00  0.00    -0.288 OA
ATOM     16  C   LIG    1       22.485 -27.866  13.625  0.00  0.00    +0.194 C 
ATOM     17  F   LIG    1       21.444 -26.986  13.603  0.00  0.00    -0.241 F 
ATOM     18  C   LIG    1       25.110 -28.416  15.499  0.00  0.00    +0.023 C 
ATOM     19  C   LIG    1       26.291 -27.388  13.616  0.00  0.00    -0.009 C 
ATOM     20  C   LIG    1       22.499 -28.613  12.294  0.00  0.00    +0.048 C 
ATOM     21  C   LIG    1       24.348 -32.862  10.453  0.00  0.00    +0.015 C 
ATOM     22  C   LIG    1       25.707 -31.579  12.084  0.00  0.00    +0.044 C 
ATOM     23  C   LIG    1       23.109 -30.218   9.667  0.00  0.00    +0.011 C 
ENDROOT
BRANCH   3  24
ATOM     24  O   LIG    1       26.277 -29.609  10.044  0.00  0.00    -0.380 OA
ATOM     25  H   LIG    1       25.852 -28.802   9.687  0.00  0.00    +0.211 HD
ENDBRANCH   3  24
BRANCH   3  26
ATOM     26  C   LIG    1       26.506 -31.702   8.824  0.00  0.00    +0.190 C 
ATOM     27  O   LIG    1       27.442 -32.288   9.373  0.00  0.00    -0.292 OA
BRANCH  26  28
ATOM     28  C   LIG    1       26.262 -31.919   7.335  0.00  0.00    +0.233 C 
BRANCH  28  29
ATOM     29  O   LIG    1       27.473 -32.272   6.685  0.00  0.00    -0.387 OA
ATOM     30  H   LIG    1       27.800 -31.461   6.251  0.00  0.00    +0.210 HD
ENDBRANCH  28  29
ENDBRANCH  26  28
ENDBRANCH   3  26
BRANCH   8  31
ATOM     31  O   LIG    1       26.708 -30.663  14.041  0.00  0.00    -0.389 OA
ATOM     32  H   LIG    1       26.301 -30.161  14.774  0.00  0.00    +0.210 HD
ENDBRANCH   8  31
TORSDOF 5
ENDMDL
MODEL 5
REMARK VINA RESULT:      -4.8      3.361      6.195
REMARK  Name = *****
REMARK                            x       y       z     vdW  Elec       q    Type
REMARK                         _______ _______ _______ _____ _____    ______ ____
ROOT
ATOM      1  C   LIG    1       25.155 -30.060   5.465  0.00  0.00    +0.011 C 
ATOM      2  C   LIG    1       25.244 -30.221   6.980  0.00  0.00    +0.026 C 
ATOM      3  C   LIG    1       25.961 -31.488   7.550  0.00  0.00    +0.134 C 
ATOM      4  C   LIG    1       24.816 -32.320   8.234  0.00  0.00    +0.010 C 
ATOM      5  C   LIG    1       23.848 -31.228   8.752  0.00  0.00    +0.005 C 
ATOM      6  C   LIG    1       24.215 -30.562  10.111  0.00  0.00    +0.036 C 
ATOM      7  C   LIG    1       24.626 -31.580  11.205  0.00  0.00    +0.153 C 
ATOM      8  C   LIG    1       25.672 -32.589  10.681  0.00  0.00    +0.154 C 
ATOM      9  F   LIG    1       23.484 -32.327  11.444  0.00  0.00    -0.238 F 
ATOM     10  C   LIG    1       25.013 -30.857  12.580  0.00  0.00    +0.047 C 
ATOM     11  C   LIG    1       24.205 -29.556  12.722  0.00  0.00    -0.020 C 
ATOM     12  C   LIG    1       24.691 -28.418  13.247  0.00  0.00    +0.054 C 
ATOM     13  C   LIG    1       26.108 -28.305  13.648  0.00  0.00    +0.179 C 
ATOM     14  C   LIG    1       26.999 -29.417  13.252  0.00  0.00    +0.047 C 
ATOM     15  O   LIG    1       26.538 -27.317  14.221  0.00  0.00    -0.288 OA
ATOM     16  C   LIG    1       22.843 -29.602  12.100  0.00  0.00    +0.194 C 
ATOM     17  F   LIG    1       22.119 -28.480  12.373  0.00  0.00    -0.241 F 
ATOM     18  C   LIG    1       24.638 -31.759  13.783  0.00  0.00    +0.023 C 
ATOM     19  C   LIG    1       26.501 -30.556  12.746  0.00  0.00    -0.009 C 
ATOM     20  C   LIG    1       23.005 -29.700  10.584  0.00  0.00    +0.048 C 
ATOM     21  C   LIG    1       24.064 -33.199   7.194  0.00  0.00    +0.015 C 
ATOM     22  C   LIG    1       25.240 -33.261   9.378  0.00  0.00    +0.044 C 
ATOM     23  C   LIG    1       23.829 -30.213   7.600  0.00  0.00    +0.011 C 
ENDROOT
BRANCH   3  24
ATOM     24  O   LIG    1       26.832 -30.983   8.574  0.00  0.00    -0.380 OA
ATOM     25  H   LIG    1       26.460 -30.137   8.898  0.00  0.00    +0.211 HD
ENDBRANCH   3  24
BRANCH   3  26
ATOM     26  C   LIG    1       26.803 -32.337   6.552  0.00  0.00    +0.190 C 
ATOM     27  O   LIG    1       26.601 -32.352   5.336  0.00  0.00    -0.292 OA
BRANCH  26  28
ATOM     28  C   LIG    1       27.939 -33.174   7.128  0.00  0.00    +0.233 C 
BRANCH  28  29
ATOM     29  O   LIG    1       28.904 -33.450   6.125  0.00  0.00    -0.387 OA
ATOM     30  H   LIG    1       28.477 -34.058   5.491  0.00  0.00    +0.210 HD
ENDBRANCH  28  29
ENDBRANCH  26  28
ENDBRANCH   3  26
BRANCH   8  31
ATOM     31  O   LIG    1       25.899 -33.636  11.635  0.00  0.00    -0.389 OA
ATOM     32  H   LIG    1       26.602 -33.324  12.237  0.00  0.00    +0.210 HD
ENDBRANCH   8  31
TORSDOF 5
ENDMDL
MODEL 6
REMARK VINA RESULT:      -4.6      2.661      6.207
REMARK  Name = *****
REMARK                            x       y       z     vdW  Elec       q    Type
REMARK                         _______ _______ _______ _____ _____    ______ ____
ROOT
ATOM      1  C   LIG    1       22.613 -33.085   8.727  0.00  0.00    +0.011 C 
ATOM      2  C   LIG    1       22.536 -31.987   9.783  0.00  0.00    +0.026 C 
ATOM      3  C   LIG    1       23.737 -30.995   9.911  0.00  0.00    +0.134 C 
ATOM      4  C   LIG    1       24.376 -31.322  11.309  0.00  0.00    +0.010 C 
ATOM      5  C   LIG    1       23.157 -31.752  12.162  0.00  0.00    +0.005 C 
ATOM      6  C   LIG    1       22.307 -30.607  12.786  0.00  0.00    +0.036 C 
ATOM      7  C   LIG    1       23.161 -29.501  13.458  0.00  0.00    +0.153 C 
ATOM      8  C   LIG    1       24.304 -29.023  12.535  0.00  0.00    +0.154 C 
ATOM      9  F   LIG    1       23.788 -30.132  14.521  0.00  0.00    -0.238 F 
ATOM     10  C   LIG    1       22.253 -28.333  14.071  0.00  0.00    +0.047 C 
ATOM     11  C   LIG    1       20.899 -28.913  14.513  0.00  0.00    -0.020 C 
ATOM     12  C   LIG    1       19.724 -28.272  14.380  0.00  0.00    +0.054 C 
ATOM     13  C   LIG    1       19.637 -26.968  13.693  0.00  0.00    +0.179 C 
ATOM     14  C   LIG    1       20.851 -26.512  12.984  0.00  0.00    +0.047 C 
ATOM     15  O   LIG    1       18.598 -26.328  13.658  0.00  0.00    -0.288 OA
ATOM     16  C   LIG    1       20.958 -30.331  14.992  0.00  0.00    +0.194 C 
ATOM     17  F   LIG    1       19.763 -30.749  15.499  0.00  0.00    -0.241 F 
ATOM     18  C   LIG    1       22.926 -27.740  15.335  0.00  0.00    +0.023 C 
ATOM     19  C   LIG    1       22.023 -27.147  13.137  0.00  0.00    -0.009 C 
ATOM     20  C   LIG    1       21.307 -31.229  13.807  0.00  0.00    +0.048 C 
ATOM     21  C   LIG    1       25.362 -32.522  11.209  0.00  0.00    +0.015 C 
ATOM     22  C   LIG    1       25.147 -30.178  11.996  0.00  0.00    +0.044 C 
ATOM     23  C   LIG    1       22.340 -32.608  11.184  0.00  0.00    +0.011 C 
ENDROOT
BRANCH   3  24
ATOM     24  O   LIG    1       23.130 -29.696   9.979  0.00  0.00    -0.380 OA
ATOM     25  H   LIG    1       22.494 -29.619   9.239  0.00  0.00    +0.211 HD
ENDBRANCH   3  24
BRANCH   3  26
ATOM     26  C   LIG    1       24.785 -30.997   8.759  0.00  0.00    +0.190 C 
ATOM     27  O   LIG    1       25.748 -31.766   8.719  0.00  0.00    -0.292 OA
BRANCH  26  28
ATOM     28  C   LIG    1       24.585 -29.997   7.627  0.00  0.00    +0.233 C 
BRANCH  28  29
ATOM     29  O   LIG    1       23.817 -30.580   6.586  0.00  0.00    -0.387 OA
ATOM     30  H   LIG    1       24.455 -30.933   5.936  0.00  0.00    +0.210 HD
ENDBRANCH  28  29
ENDBRANCH  26  28
ENDBRANCH   3  26
BRANCH   8  31
ATOM     31  O   LIG    1       25.197 -28.146  13.236  0.00  0.00    -0.389 OA
ATOM     32  H   LIG    1       25.994 -28.048  12.679  0.00  0.00    +0.210 HD
ENDBRANCH   8  31
TORSDOF 5
ENDMDL
MODEL 7
REMARK VINA RESULT:      -4.5      3.377      5.809
REMARK  Name = *****
REMARK                            x       y       z     vdW  Elec       q    Type
REMARK                         _______ _______ _______ _____ _____    ______ ____
ROOT
ATOM      1  C   LIG    1       24.472 -30.635   6.735  0.00  0.00    +0.011 C 
ATOM      2  C   LIG    1       24.804 -30.487   8.217  0.00  0.00    +0.026 C 
ATOM      3  C   LIG    1       25.450 -31.702   8.957  0.00  0.00    +0.134 C 
ATOM      4  C   LIG    1       24.351 -32.182   9.972  0.00  0.00    +0.010 C 
ATOM      5  C   LIG    1       23.627 -30.868  10.356  0.00  0.00    +0.005 C 
ATOM      6  C   LIG    1       24.303 -29.998  11.455  0.00  0.00    +0.036 C 
ATOM      7  C   LIG    1       24.773 -30.816  12.686  0.00  0.00    +0.153 C 
ATOM      8  C   LIG    1       25.582 -32.063  12.266  0.00  0.00    +0.154 C 
ATOM      9  F   LIG    1       23.609 -31.307  13.253  0.00  0.00    -0.238 F 
ATOM     10  C   LIG    1       25.479 -29.890  13.785  0.00  0.00    +0.047 C 
ATOM     11  C   LIG    1       24.871 -28.478  13.736  0.00  0.00    -0.020 C 
ATOM     12  C   LIG    1       25.576 -27.346  13.907  0.00  0.00    +0.054 C 
ATOM     13  C   LIG    1       27.044 -27.375  14.062  0.00  0.00    +0.179 C 
ATOM     14  C   LIG    1       27.711 -28.671  13.812  0.00  0.00    +0.047 C 
ATOM     15  O   LIG    1       27.683 -26.368  14.323  0.00  0.00    -0.288 OA
ATOM     16  C   LIG    1       23.426 -28.439  13.342  0.00  0.00    +0.194 C 
ATOM     17  F   LIG    1       22.902 -27.185  13.449  0.00  0.00    -0.241 F 
ATOM     18  C   LIG    1       25.214 -30.449  15.205  0.00  0.00    +0.023 C 
ATOM     19  C   LIG    1       26.999 -29.798  13.661  0.00  0.00    -0.009 C 
ATOM     20  C   LIG    1       23.308 -28.877  11.884  0.00  0.00    +0.048 C 
ATOM     21  C   LIG    1       23.328 -33.131   9.283  0.00  0.00    +0.015 C 
ATOM     22  C   LIG    1       24.851 -32.917  11.230  0.00  0.00    +0.044 C 
ATOM     23  C   LIG    1       23.531 -30.126   9.014  0.00  0.00    +0.011 C 
ENDROOT
BRANCH   3  24
ATOM     24  O   LIG    1       26.541 -31.137   9.699  0.00  0.00    -0.380 OA
ATOM     25  H   LIG    1       26.609 -31.616  10.551  0.00  0.00    +0.211 HD
ENDBRANCH   3  24
BRANCH   3  26
ATOM     26  C   LIG    1       25.997 -32.862   8.073  0.00  0.00    +0.190 C 
ATOM     27  O   LIG    1       25.287 -33.535   7.322  0.00  0.00    -0.292 OA
BRANCH  26  28
ATOM     28  C   LIG    1       27.490 -33.157   8.147  0.00  0.00    +0.233 C 
BRANCH  28  29
ATOM     29  O   LIG    1       27.800 -33.824   9.360  0.00  0.00    -0.387 OA
ATOM     30  H   LIG    1       27.048 -34.417   9.550  0.00  0.00    +0.210 HD
ENDBRANCH  28  29
ENDBRANCH  26  28
ENDBRANCH   3  26
BRANCH   8  31
ATOM     31  O   LIG    1       25.844 -32.909  13.394  0.00  0.00    -0.389 OA
ATOM     32  H   LIG    1       25.164 -33.609  13.389  0.00  0.00    +0.210 HD
ENDBRANCH   8  31
TORSDOF 5
ENDMDL
MODEL 8
REMARK VINA RESULT:      -4.5      2.956      6.785
REMARK  Name = *****
REMARK                            x       y       z     vdW  Elec       q    Type
REMARK                         _______ _______ _______ _____ _____    ______ ____
ROOT
ATOM      1  C   LIG    1       25.132 -29.470   7.994  0.00  0.00    +0.011 C 
ATOM      2  C   LIG    1       24.468 -29.520   9.367  0.00  0.00    +0.026 C 
ATOM      3  C   LIG    1       25.361 -29.824  10.612  0.00  0.00    +0.134 C 
ATOM      4  C   LIG    1       24.886 -31.238  11.109  0.00  0.00    +0.010 C 
ATOM      5  C   LIG    1       23.377 -31.244  10.760  0.00  0.00    +0.005 C 
ATOM      6  C   LIG    1       22.427 -30.537  11.771  0.00  0.00    +0.036 C 
ATOM      7  C   LIG    1       22.712 -30.909  13.249  0.00  0.00    +0.153 C 
ATOM      8  C   LIG    1       24.214 -30.789  13.587  0.00  0.00    +0.154 C 
ATOM      9  F   LIG    1       22.423 -32.262  13.337  0.00  0.00    -0.238 F 
ATOM     10  C   LIG    1       21.728 -30.149  14.257  0.00  0.00    +0.047 C 
ATOM     11  C   LIG    1       20.378 -29.896  13.566  0.00  0.00    -0.020 C 
ATOM     12  C   LIG    1       19.644 -28.781  13.728  0.00  0.00    +0.054 C 
ATOM     13  C   LIG    1       20.143 -27.646  14.530  0.00  0.00    +0.179 C 
ATOM     14  C   LIG    1       21.556 -27.712  14.962  0.00  0.00    +0.047 C 
ATOM     15  O   LIG    1       19.446 -26.674  14.773  0.00  0.00    -0.288 OA
ATOM     16  C   LIG    1       19.986 -30.943  12.569  0.00  0.00    +0.194 C 
ATOM     17  F   LIG    1       18.725 -30.745  12.090  0.00  0.00    -0.241 F 
ATOM     18  C   LIG    1       21.444 -31.035  15.497  0.00  0.00    +0.023 C 
ATOM     19  C   LIG    1       22.274 -28.835  14.813  0.00  0.00    -0.009 C 
ATOM     20  C   LIG    1       20.954 -30.877  11.389  0.00  0.00    +0.048 C 
ATOM     21  C   LIG    1       25.586 -32.377  10.313  0.00  0.00    +0.015 C 
ATOM     22  C   LIG    1       25.102 -31.549  12.602  0.00  0.00    +0.044 C 
ATOM     23  C   LIG    1       23.343 -30.579   9.376  0.00  0.00    +0.011 C 
ENDROOT
BRANCH   3  24
ATOM     24  O   LIG    1       24.974 -28.844  11.587  0.00  0.00    -0.380 OA
ATOM     25  H   LIG    1       25.094 -27.957  11.189  0.00  0.00    +0.211 HD
ENDBRANCH   3  24
BRANCH   3  26
ATOM     26  C   LIG    1       26.905 -29.748  10.414  0.00  0.00    +0.190 C 
ATOM     27  O   LIG    1       27.494 -30.278   9.470  0.00  0.00    -0.292 OA
BRANCH  26  28
ATOM     28  C   LIG    1       27.706 -28.962  11.445  0.00  0.00    +0.233 C 
BRANCH  28  29
ATOM     29  O   LIG    1       29.084 -29.284  11.346  0.00  0.00    -0.387 OA
ATOM     30  H   LIG    1       29.185 -29.820  10.536  0.00  0.00    +0.210 HD
ENDBRANCH  28  29
ENDBRANCH  26  28
ENDBRANCH   3  26
BRANCH   8  31
ATOM     31  O   LIG    1       24.491 -31.318  14.892  0.00  0.00    -0.389 OA
ATOM     32  H   LIG    1       23.666 -31.733  15.211  0.00  0.00    +0.210 HD
ENDBRANCH   8  31
TORSDOF 5
ENDMDL
MODEL 9
REMARK VINA RESULT:      -4.3      2.654      5.829
REMARK  Name = *****
REMARK                            x       y       z     vdW  Elec       q    Type
REMARK                         _______ _______ _______ _____ _____    ______ ____
ROOT
ATOM      1  C   LIG    1       26.504 -32.021   6.348  0.00  0.00    +0.011 C 
ATOM      2  C   LIG    1       26.156 -31.834   7.822  0.00  0.00    +0.026 C 
ATOM      3  C   LIG    1       24.651 -31.874   8.239  0.00  0.00    +0.134 C 
ATOM      4  C   LIG    1       24.326 -30.407   8.701  0.00  0.00    +0.010 C 
ATOM      5  C   LIG    1       25.665 -29.925   9.311  0.00  0.00    +0.005 C 
ATOM      6  C   LIG    1       25.954 -30.353  10.779  0.00  0.00    +0.036 C 
ATOM      7  C   LIG    1       24.746 -30.153  11.729  0.00  0.00    +0.153 C 
ATOM      8  C   LIG    1       23.448 -30.741  11.132  0.00  0.00    +0.154 C 
ATOM      9  F   LIG    1       24.545 -28.783  11.766  0.00  0.00    -0.238 F 
ATOM     10  C   LIG    1       25.077 -30.622  13.224  0.00  0.00    +0.047 C 
ATOM     11  C   LIG    1       26.574 -30.420  13.507  0.00  0.00    -0.020 C 
ATOM     12  C   LIG    1       27.326 -31.264  14.236  0.00  0.00    +0.054 C 
ATOM     13  C   LIG    1       26.771 -32.532  14.751  0.00  0.00    +0.179 C 
ATOM     14  C   LIG    1       25.434 -32.920  14.253  0.00  0.00    +0.047 C 
ATOM     15  O   LIG    1       27.408 -33.256  15.500  0.00  0.00    -0.288 OA
ATOM     16  C   LIG    1       27.190 -29.259  12.788  0.00  0.00    +0.194 C 
ATOM     17  F   LIG    1       28.478 -29.041  13.179  0.00  0.00    -0.241 F 
ATOM     18  C   LIG    1       24.300 -29.749  14.242  0.00  0.00    +0.023 C 
ATOM     19  C   LIG    1       24.685 -32.064  13.542  0.00  0.00    -0.009 C 
ATOM     20  C   LIG    1       27.197 -29.564  11.291  0.00  0.00    +0.048 C 
ATOM     21  C   LIG    1       23.977 -29.501   7.485  0.00  0.00    +0.015 C 
ATOM     22  C   LIG    1       23.175 -30.244   9.713  0.00  0.00    +0.044 C 
ATOM     23  C   LIG    1       26.708 -30.484   8.331  0.00  0.00    +0.011 C 
ENDROOT
BRANCH   3  24
ATOM     24  O   LIG    1       24.614 -32.733   9.389  0.00  0.00    -0.380 OA
ATOM     25  H   LIG    1       25.254 -32.387  10.046  0.00  0.00    +0.211 HD
ENDBRANCH   3  24
BRANCH   3  26
ATOM     26  C   LIG    1       23.635 -32.408   7.186  0.00  0.00    +0.190 C 
ATOM     27  O   LIG    1       23.366 -31.812   6.140  0.00  0.00    -0.292 OA
BRANCH  26  28
ATOM     28  C   LIG    1       22.961 -33.744   7.475  0.00  0.00    +0.233 C 
BRANCH  28  29
ATOM     29  O   LIG    1       22.035 -33.606   8.542  0.00  0.00    -0.387 OA
ATOM     30  H   LIG    1       22.472 -33.052   9.216  0.00  0.00    +0.210 HD
ENDBRANCH  28  29
ENDBRANCH  26  28
ENDBRANCH   3  26
BRANCH   8  31
ATOM     31  O   LIG    1       22.309 -30.382  11.926  0.00  0.00    -0.389 OA
ATOM     32  H   LIG    1       22.039 -31.184  12.415  0.00  0.00    +0.210 HD
ENDBRANCH   8  31
TORSDOF 5
ENDMDL
