MODEL 1
REMARK VINA RESULT:      -6.1      0.000      0.000
REMARK  Name = *****
REMARK                            x       y       z     vdW  Elec       q    Type
REMARK                         _______ _______ _______ _____ _____    ______ ____
ROOT
ATOM      1  C   LIG    1       26.560 -16.474   3.497  0.00  0.00    +0.339 C 
ATOM      2  O   LIG    1       27.651 -16.611   4.017  0.00  0.00    -0.245 OA
ENDROOT
BRANCH   1   3
ATOM      3  C   LIG    1       25.870 -15.173   3.342  0.00  0.00    +0.059 A 
ATOM      4  C   LIG    1       24.642 -14.976   3.981  0.00  0.00    +0.017 A 
ATOM      5  C   LIG    1       23.966 -13.760   3.825  0.00  0.00    +0.023 A 
ATOM      6  C   LIG    1       24.520 -12.727   3.061  0.00  0.00    +0.025 A 
ATOM      7  C   LIG    1       25.716 -12.960   2.379  0.00  0.00    +0.023 A 
ATOM      8  C   LIG    1       26.403 -14.165   2.533  0.00  0.00    +0.017 A 
BRANCH   6   9
ATOM      9  N   LIG    1       23.775 -11.575   2.790  0.00  0.00    -0.358 N 
ATOM     10  H   LIG    1       23.964 -11.165   1.881  0.00  0.00    +0.142 HD
ATOM     11  H   LIG    1       22.780 -11.679   2.964  0.00  0.00    +0.142 HD
ENDBRANCH   6   9
ENDBRANCH   1   3
BRANCH   1  12
ATOM     12  O   LIG    1       25.793 -17.451   2.945  0.00  0.00    -0.460 OA
BRANCH  12  13
ATOM     13  C   LIG    1       25.703 -18.658   3.720  0.00  0.00    +0.247 C 
BRANCH  13  14
ATOM     14  C   LIG    1       24.357 -19.358   3.463  0.00  0.00    +0.125 C 
BRANCH  14  15
ATOM     15  N   LIG    1       23.906 -20.243   4.557  0.00  0.00    -0.300 NA
BRANCH  15  17
ATOM     16  C   LIG    1       24.600 -20.810   6.950  0.00  0.00    +0.020 C 
ATOM     17  C   LIG    1       24.994 -20.574   5.494  0.00  0.00    +0.081 C 
ENDBRANCH  15  17
BRANCH  15  18
ATOM     18  C   LIG    1       22.715 -19.669   5.209  0.00  0.00    +0.081 C 
ATOM     19  C   LIG    1       22.155 -18.437   4.504  0.00  0.00    +0.020 C 
ENDBRANCH  15  18
ENDBRANCH  14  15
ENDBRANCH  13  14
ENDBRANCH  12  13
ENDBRANCH   1  12
TORSDOF 8
ENDMDL
MODEL 2
REMARK VINA RESULT:      -5.9      0.461      1.691
REMARK  Name = *****
REMARK                            x       y       z     vdW  Elec       q    Type
REMARK                         _______ _______ _______ _____ _____    ______ ____
ROOT
ATOM      1  C   LIG    1       26.431 -16.418   3.492  0.00  0.00    +0.339 C 
ATOM      2  O   LIG    1       27.571 -16.559   3.890  0.00  0.00    -0.245 OA
ENDROOT
BRANCH   1   3
ATOM      3  C   LIG    1       25.764 -15.106   3.331  0.00  0.00    +0.059 A 
ATOM      4  C   LIG    1       24.546 -14.879   3.981  0.00  0.00    +0.017 A 
ATOM      5  C   LIG    1       23.891 -13.653   3.819  0.00  0.00    +0.023 A 
ATOM      6  C   LIG    1       24.455 -12.638   3.040  0.00  0.00    +0.025 A 
ATOM      7  C   LIG    1       25.640 -12.900   2.348  0.00  0.00    +0.023 A 
ATOM      8  C   LIG    1       26.306 -14.116   2.507  0.00  0.00    +0.017 A 
BRANCH   6   9
ATOM      9  N   LIG    1       23.728 -11.475   2.764  0.00  0.00    -0.358 N 
ATOM     10  H   LIG    1       24.180 -10.623   3.078  0.00  0.00    +0.142 HD
ATOM     11  H   LIG    1       23.408 -11.408   1.803  0.00  0.00    +0.142 HD
ENDBRANCH   6   9
ENDBRANCH   1   3
BRANCH   1  12
ATOM     12  O   LIG    1       25.578 -17.400   3.100  0.00  0.00    -0.460 OA
BRANCH  12  13
ATOM     13  C   LIG    1       25.896 -18.710   3.598  0.00  0.00    +0.247 C 
BRANCH  13  14
ATOM     14  C   LIG    1       24.634 -19.590   3.629  0.00  0.00    +0.125 C 
BRANCH  14  15
ATOM     15  N   LIG    1       23.930 -19.609   4.928  0.00  0.00    -0.300 NA
BRANCH  15  17
ATOM     16  C   LIG    1       22.075 -17.918   4.445  0.00  0.00    +0.020 C 
ATOM     17  C   LIG    1       22.486 -19.348   4.787  0.00  0.00    +0.081 C 
ENDBRANCH  15  17
BRANCH  15  18
ATOM     18  C   LIG    1       24.241 -20.856   5.650  0.00  0.00    +0.081 C 
ATOM     19  C   LIG    1       23.455 -21.035   6.946  0.00  0.00    +0.020 C 
ENDBRANCH  15  18
ENDBRANCH  14  15
ENDBRANCH  13  14
ENDBRANCH  12  13
ENDBRANCH   1  12
TORSDOF 8
ENDMDL
MODEL 3
REMARK VINA RESULT:      -5.2      2.333      2.599
REMARK  Name = *****
REMARK                            x       y       z     vdW  Elec       q    Type
REMARK                         _______ _______ _______ _____ _____    ______ ____
ROOT
ATOM      1  C   LIG    1       25.280 -15.364   3.580  0.00  0.00    +0.339 C 
ATOM      2  O   LIG    1       24.117 -15.221   3.904  0.00  0.00    -0.245 OA
ENDROOT
BRANCH   1   3
ATOM      3  C   LIG    1       26.373 -14.451   3.983  0.00  0.00    +0.059 A 
ATOM      4  C   LIG    1       26.328 -13.855   5.248  0.00  0.00    +0.017 A 
ATOM      5  C   LIG    1       27.341 -12.970   5.634  0.00  0.00    +0.023 A 
ATOM      6  C   LIG    1       28.416 -12.697   4.782  0.00  0.00    +0.025 A 
ATOM      7  C   LIG    1       28.417 -13.250   3.500  0.00  0.00    +0.023 A 
ATOM      8  C   LIG    1       27.416 -14.140   3.106  0.00  0.00    +0.017 A 
BRANCH   6   9
ATOM      9  N   LIG    1       29.343 -11.703   5.114  0.00  0.00    -0.358 N 
ATOM     10  H   LIG    1       28.955 -10.767   5.133  0.00  0.00    +0.142 HD
ATOM     11  H   LIG    1       29.887 -11.911   5.946  0.00  0.00    +0.142 HD
ENDBRANCH   6   9
ENDBRANCH   1   3
BRANCH   1  12
ATOM     12  O   LIG    1       25.799 -16.374   2.832  0.00  0.00    -0.460 OA
BRANCH  12  13
ATOM     13  C   LIG    1       25.986 -17.612   3.537  0.00  0.00    +0.247 C 
BRANCH  13  14
ATOM     14  C   LIG    1       24.802 -18.560   3.274  0.00  0.00    +0.125 C 
BRANCH  14  15
ATOM     15  N   LIG    1       24.875 -19.847   3.996  0.00  0.00    -0.300 NA
BRANCH  15  17
ATOM     16  C   LIG    1       25.932 -20.557   6.212  0.00  0.00    +0.020 C 
ATOM     17  C   LIG    1       26.095 -19.963   4.815  0.00  0.00    +0.081 C 
ENDBRANCH  15  17
BRANCH  15  18
ATOM     18  C   LIG    1       23.630 -20.070   4.752  0.00  0.00    +0.081 C 
ATOM     19  C   LIG    1       22.610 -18.942   4.616  0.00  0.00    +0.020 C 
ENDBRANCH  15  18
ENDBRANCH  14  15
ENDBRANCH  13  14
ENDBRANCH  12  13
ENDBRANCH   1  12
TORSDOF 8
ENDMDL
MODEL 4
REMARK VINA RESULT:      -5.0      2.315      3.118
REMARK  Name = *****
REMARK                            x       y       z     vdW  Elec       q    Type
REMARK                         _______ _______ _______ _____ _____    ______ ____
ROOT
ATOM      1  C   LIG    1       25.220 -15.284   3.571  0.00  0.00    +0.339 C 
ATOM      2  O   LIG    1       24.064 -15.127   3.916  0.00  0.00    -0.245 OA
ENDROOT
BRANCH   1   3
ATOM      3  C   LIG    1       26.333 -14.391   3.964  0.00  0.00    +0.059 A 
ATOM      4  C   LIG    1       26.318 -13.807   5.234  0.00  0.00    +0.017 A 
ATOM      5  C   LIG    1       27.351 -12.940   5.612  0.00  0.00    +0.023 A 
ATOM      6  C   LIG    1       28.415 -12.676   4.744  0.00  0.00    +0.025 A 
ATOM      7  C   LIG    1       28.386 -13.216   3.457  0.00  0.00    +0.023 A 
ATOM      8  C   LIG    1       27.366 -14.087   3.072  0.00  0.00    +0.017 A 
BRANCH   6   9
ATOM      9  N   LIG    1       29.363 -11.699   5.070  0.00  0.00    -0.358 N 
ATOM     10  H   LIG    1       29.265 -10.837   4.544  0.00  0.00    +0.142 HD
ATOM     11  H   LIG    1       29.454 -11.532   6.067  0.00  0.00    +0.142 HD
ENDBRANCH   6   9
ENDBRANCH   1   3
BRANCH   1  12
ATOM     12  O   LIG    1       25.710 -16.293   2.804  0.00  0.00    -0.460 OA
BRANCH  12  13
ATOM     13  C   LIG    1       26.078 -17.478   3.529  0.00  0.00    +0.247 C 
BRANCH  13  14
ATOM     14  C   LIG    1       25.077 -18.611   3.241  0.00  0.00    +0.125 C 
BRANCH  14  15
ATOM     15  N   LIG    1       24.543 -19.279   4.446  0.00  0.00    -0.300 NA
BRANCH  15  17
ATOM     16  C   LIG    1       22.224 -18.206   4.439  0.00  0.00    +0.020 C 
ATOM     17  C   LIG    1       23.083 -19.467   4.382  0.00  0.00    +0.081 C 
ENDBRANCH  15  17
BRANCH  15  18
ATOM     18  C   LIG    1       25.291 -20.523   4.704  0.00  0.00    +0.081 C 
ATOM     19  C   LIG    1       26.283 -20.424   5.860  0.00  0.00    +0.020 C 
ENDBRANCH  15  18
ENDBRANCH  14  15
ENDBRANCH  13  14
ENDBRANCH  12  13
ENDBRANCH   1  12
TORSDOF 8
ENDMDL
MODEL 5
REMARK VINA RESULT:      -4.9      2.238      6.848
REMARK  Name = *****
REMARK                            x       y       z     vdW  Elec       q    Type
REMARK                         _______ _______ _______ _____ _____    ______ ____
ROOT
ATOM      1  C   LIG    1       21.928 -18.083   4.310  0.00  0.00    +0.339 C 
ATOM      2  O   LIG    1       20.967 -18.388   3.630  0.00  0.00    -0.245 OA
ENDROOT
BRANCH   1   3
ATOM      3  C   LIG    1       23.006 -19.022   4.692  0.00  0.00    +0.059 A 
ATOM      4  C   LIG    1       22.833 -19.834   5.817  0.00  0.00    +0.017 A 
ATOM      5  C   LIG    1       23.853 -20.709   6.206  0.00  0.00    +0.023 A 
ATOM      6  C   LIG    1       25.034 -20.806   5.462  0.00  0.00    +0.025 A 
ATOM      7  C   LIG    1       25.219 -19.947   4.377  0.00  0.00    +0.023 A 
ATOM      8  C   LIG    1       24.206 -19.074   3.976  0.00  0.00    +0.017 A 
BRANCH   6   9
ATOM      9  N   LIG    1       26.104 -21.572   5.937  0.00  0.00    -0.358 N 
ATOM     10  H   LIG    1       26.345 -22.357   5.342  0.00  0.00    +0.142 HD
ATOM     11  H   LIG    1       26.918 -21.023   6.197  0.00  0.00    +0.142 HD
ENDBRANCH   6   9
ENDBRANCH   1   3
BRANCH   1  12
ATOM     12  O   LIG    1       22.211 -16.853   4.814  0.00  0.00    -0.460 OA
BRANCH  12  13
ATOM     13  C   LIG    1       22.902 -15.975   3.911  0.00  0.00    +0.247 C 
BRANCH  13  14
ATOM     14  C   LIG    1       23.497 -14.781   4.680  0.00  0.00    +0.125 C 
BRANCH  14  15
ATOM     15  N   LIG    1       24.499 -14.002   3.922  0.00  0.00    -0.300 NA
BRANCH  15  17
ATOM     16  C   LIG    1       24.617 -12.252   2.064  0.00  0.00    +0.020 C 
ATOM     17  C   LIG    1       23.922 -12.791   3.312  0.00  0.00    +0.081 C 
ENDBRANCH  15  17
BRANCH  15  18
ATOM     18  C   LIG    1       25.675 -13.737   4.771  0.00  0.00    +0.081 C 
ATOM     19  C   LIG    1       27.006 -14.093   4.116  0.00  0.00    +0.020 C 
ENDBRANCH  15  18
ENDBRANCH  14  15
ENDBRANCH  13  14
ENDBRANCH  12  13
ENDBRANCH   1  12
TORSDOF 8
ENDMDL
MODEL 6
REMARK VINA RESULT:      -4.9      1.317      6.072
REMARK  Name = *****
REMARK                            x       y       z     vdW  Elec       q    Type
REMARK                         _______ _______ _______ _____ _____    ______ ____
ROOT
ATOM      1  C   LIG    1       26.621 -17.737   3.766  0.00  0.00    +0.339 C 
ATOM      2  O   LIG    1       27.764 -17.925   4.139  0.00  0.00    -0.245 OA
ENDROOT
BRANCH   1   3
ATOM      3  C   LIG    1       25.510 -18.691   3.982  0.00  0.00    +0.059 A 
ATOM      4  C   LIG    1       24.199 -18.276   3.728  0.00  0.00    +0.017 A 
ATOM      5  C   LIG    1       23.136 -19.158   3.951  0.00  0.00    +0.023 A 
ATOM      6  C   LIG    1       23.371 -20.463   4.395  0.00  0.00    +0.025 A 
ATOM      7  C   LIG    1       24.678 -20.845   4.703  0.00  0.00    +0.023 A 
ATOM      8  C   LIG    1       25.747 -19.976   4.478  0.00  0.00    +0.017 A 
BRANCH   6   9
ATOM      9  N   LIG    1       22.300 -21.288   4.755  0.00  0.00    -0.358 N 
ATOM     10  H   LIG    1       22.520 -21.954   5.487  0.00  0.00    +0.142 HD
ATOM     11  H   LIG    1       21.438 -20.785   4.940  0.00  0.00    +0.142 HD
ENDBRANCH   6   9
ENDBRANCH   1   3
BRANCH   1  12
ATOM     12  O   LIG    1       26.144 -16.638   3.124  0.00  0.00    -0.460 OA
BRANCH  12  13
ATOM     13  C   LIG    1       26.779 -15.403   3.491  0.00  0.00    +0.247 C 
BRANCH  13  14
ATOM     14  C   LIG    1       26.352 -14.278   2.531  0.00  0.00    +0.125 C 
BRANCH  14  15
ATOM     15  N   LIG    1       24.967 -13.800   2.723  0.00  0.00    -0.300 NA
BRANCH  15  17
ATOM     16  C   LIG    1       23.407 -14.804   4.481  0.00  0.00    +0.020 C 
ATOM     17  C   LIG    1       24.548 -13.849   4.135  0.00  0.00    +0.081 C 
ENDBRANCH  15  17
BRANCH  15  18
ATOM     18  C   LIG    1       24.802 -12.474   2.101  0.00  0.00    +0.081 C 
ATOM     19  C   LIG    1       23.922 -11.518   2.900  0.00  0.00    +0.020 C 
ENDBRANCH  15  18
ENDBRANCH  14  15
ENDBRANCH  13  14
ENDBRANCH  12  13
ENDBRANCH   1  12
TORSDOF 8
ENDMDL
MODEL 7
REMARK VINA RESULT:      -4.6      1.905      2.922
REMARK  Name = *****
REMARK                            x       y       z     vdW  Elec       q    Type
REMARK                         _______ _______ _______ _____ _____    ______ ____
ROOT
ATOM      1  C   LIG    1       23.222 -15.979   4.488  0.00  0.00    +0.339 C 
ATOM      2  O   LIG    1       22.319 -15.570   5.193  0.00  0.00    -0.245 OA
ENDROOT
BRANCH   1   3
ATOM      3  C   LIG    1       24.363 -15.151   4.035  0.00  0.00    +0.059 A 
ATOM      4  C   LIG    1       25.555 -15.782   3.666  0.00  0.00    +0.017 A 
ATOM      5  C   LIG    1       26.651 -15.012   3.260  0.00  0.00    +0.023 A 
ATOM      6  C   LIG    1       26.558 -13.618   3.188  0.00  0.00    +0.025 A 
ATOM      7  C   LIG    1       25.382 -12.998   3.618  0.00  0.00    +0.023 A 
ATOM      8  C   LIG    1       24.281 -13.756   4.018  0.00  0.00    +0.017 A 
BRANCH   6   9
ATOM      9  N   LIG    1       27.696 -12.849   2.924  0.00  0.00    -0.358 N 
ATOM     10  H   LIG    1       28.558 -13.384   2.898  0.00  0.00    +0.142 HD
ATOM     11  H   LIG    1       27.600 -12.237   2.120  0.00  0.00    +0.142 HD
ENDBRANCH   6   9
ENDBRANCH   1   3
BRANCH   1  12
ATOM     12  O   LIG    1       23.375 -17.244   4.013  0.00  0.00    -0.460 OA
BRANCH  12  13
ATOM     13  C   LIG    1       22.259 -18.116   4.250  0.00  0.00    +0.247 C 
BRANCH  13  14
ATOM     14  C   LIG    1       22.645 -19.214   5.258  0.00  0.00    +0.125 C 
BRANCH  14  15
ATOM     15  N   LIG    1       22.852 -20.550   4.660  0.00  0.00    -0.300 NA
BRANCH  15  17
ATOM     16  C   LIG    1       25.342 -20.106   4.293  0.00  0.00    +0.020 C 
ATOM     17  C   LIG    1       24.001 -20.578   3.737  0.00  0.00    +0.081 C 
ENDBRANCH  15  17
BRANCH  15  18
ATOM     18  C   LIG    1       22.919 -21.570   5.722  0.00  0.00    +0.081 C 
ATOM     19  C   LIG    1       23.460 -21.049   7.051  0.00  0.00    +0.020 C 
ENDBRANCH  15  18
ENDBRANCH  14  15
ENDBRANCH  13  14
ENDBRANCH  12  13
ENDBRANCH   1  12
TORSDOF 8
ENDMDL
MODEL 8
REMARK VINA RESULT:      -4.5      1.973      2.878
REMARK  Name = *****
REMARK                            x       y       z     vdW  Elec       q    Type
REMARK                         _______ _______ _______ _____ _____    ______ ____
ROOT
ATOM      1  C   LIG    1       22.785 -15.878   4.727  0.00  0.00    +0.339 C 
ATOM      2  O   LIG    1       22.126 -15.532   5.689  0.00  0.00    -0.245 OA
ENDROOT
BRANCH   1   3
ATOM      3  C   LIG    1       23.997 -15.173   4.253  0.00  0.00    +0.059 A 
ATOM      4  C   LIG    1       24.025 -13.775   4.283  0.00  0.00    +0.017 A 
ATOM      5  C   LIG    1       25.153 -13.093   3.815  0.00  0.00    +0.023 A 
ATOM      6  C   LIG    1       26.269 -13.794   3.346  0.00  0.00    +0.025 A 
ATOM      7  C   LIG    1       26.204 -15.187   3.264  0.00  0.00    +0.023 A 
ATOM      8  C   LIG    1       25.087 -15.878   3.734  0.00  0.00    +0.017 A 
BRANCH   6   9
ATOM      9  N   LIG    1       27.331 -13.108   2.746  0.00  0.00    -0.358 N 
ATOM     10  H   LIG    1       27.079 -12.196   2.381  0.00  0.00    +0.142 HD
ATOM     11  H   LIG    1       28.172 -13.076   3.314  0.00  0.00    +0.142 HD
ENDBRANCH   6   9
ENDBRANCH   1   3
BRANCH   1  12
ATOM     12  O   LIG    1       22.565 -16.963   3.938  0.00  0.00    -0.460 OA
BRANCH  12  13
ATOM     13  C   LIG    1       22.531 -18.219   4.634  0.00  0.00    +0.247 C 
BRANCH  13  14
ATOM     14  C   LIG    1       23.340 -19.278   3.863  0.00  0.00    +0.125 C 
BRANCH  14  15
ATOM     15  N   LIG    1       23.666 -20.489   4.644  0.00  0.00    -0.300 NA
BRANCH  15  17
ATOM     16  C   LIG    1       26.058 -19.651   4.313  0.00  0.00    +0.020 C 
ATOM     17  C   LIG    1       25.065 -20.497   5.108  0.00  0.00    +0.081 C 
ENDBRANCH  15  17
BRANCH  15  18
ATOM     18  C   LIG    1       22.682 -20.670   5.726  0.00  0.00    +0.081 C 
ATOM     19  C   LIG    1       23.295 -21.085   7.061  0.00  0.00    +0.020 C 
ENDBRANCH  15  18
ENDBRANCH  14  15
ENDBRANCH  13  14
ENDBRANCH  12  13
ENDBRANCH   1  12
TORSDOF 8
ENDMDL
MODEL 9
REMARK VINA RESULT:      -4.1      2.445      7.055
REMARK  Name = *****
REMARK                            x       y       z     vdW  Elec       q    Type
REMARK                         _______ _______ _______ _____ _____    ______ ____
ROOT
ATOM      1  C   LIG    1       25.367 -18.588   3.685  0.00  0.00    +0.339 C 
ATOM      2  O   LIG    1       24.191 -18.868   3.550  0.00  0.00    -0.245 OA
ENDROOT
BRANCH   1   3
ATOM      3  C   LIG    1       26.288 -19.291   4.607  0.00  0.00    +0.059 A 
ATOM      4  C   LIG    1       27.611 -18.851   4.711  0.00  0.00    +0.017 A 
ATOM      5  C   LIG    1       28.500 -19.521   5.560  0.00  0.00    +0.023 A 
ATOM      6  C   LIG    1       28.073 -20.607   6.330  0.00  0.00    +0.025 A 
ATOM      7  C   LIG    1       26.766 -21.073   6.171  0.00  0.00    +0.023 A 
ATOM      8  C   LIG    1       25.869 -20.410   5.333  0.00  0.00    +0.017 A 
BRANCH   6   9
ATOM      9  N   LIG    1       28.998 -21.359   7.062  0.00  0.00    -0.358 N 
ATOM     10  H   LIG    1       29.959 -21.053   6.950  0.00  0.00    +0.142 HD
ATOM     11  H   LIG    1       28.747 -21.484   8.037  0.00  0.00    +0.142 HD
ENDBRANCH   6   9
ENDBRANCH   1   3
BRANCH   1  12
ATOM     12  O   LIG    1       26.057 -17.626   3.017  0.00  0.00    -0.460 OA
BRANCH  12  13
ATOM     13  C   LIG    1       25.672 -16.279   3.333  0.00  0.00    +0.247 C 
BRANCH  13  14
ATOM     14  C   LIG    1       26.909 -15.364   3.365  0.00  0.00    +0.125 C 
BRANCH  14  15
ATOM     15  N   LIG    1       26.690 -14.014   2.805  0.00  0.00    -0.300 NA
BRANCH  15  17
ATOM     16  C   LIG    1       24.831 -12.317   2.362  0.00  0.00    +0.020 C 
ATOM     17  C   LIG    1       25.277 -13.774   2.459  0.00  0.00    +0.081 C 
ENDBRANCH  15  17
BRANCH  15  18
ATOM     18  C   LIG    1       27.260 -12.998   3.708  0.00  0.00    +0.081 C 
ATOM     19  C   LIG    1       28.785 -13.013   3.775  0.00  0.00    +0.020 C 
ENDBRANCH  15  18
ENDBRANCH  14  15
ENDBRANCH  13  14
ENDBRANCH  12  13
ENDBRANCH   1  12
TORSDOF 8
ENDMDL
