MODEL 1
REMARK VINA RESULT:      -8.8      0.000      0.000
REMARK  Name = *****
REMARK                            x       y       z     vdW  Elec       q    Type
REMARK                         _______ _______ _______ _____ _____    ______ ____
ROOT
ATOM      1  O   LIG    1       27.671 -21.417   8.114  0.00  0.00    -0.421 OA
ENDROOT
BRANCH   1   3
ATOM      2  C   LIG    1       29.601 -20.060   7.634  0.00  0.00    +0.101 A 
ATOM      3  C   LIG    1       28.312 -20.476   7.275  0.00  0.00    +0.146 A 
ATOM      4  C   LIG    1       27.686 -19.951   6.143  0.00  0.00    +0.047 A 
ATOM      5  C   LIG    1       28.375 -19.053   5.328  0.00  0.00    +0.004 A 
ATOM      6  C   LIG    1       29.672 -18.662   5.652  0.00  0.00    +0.001 A 
ATOM      7  C   LIG    1       30.283 -19.157   6.808  0.00  0.00    +0.019 A 
BRANCH   2   9
ATOM      8  O   LIG    1       30.883 -19.780   9.629  0.00  0.00    -0.245 OA
ATOM      9  C   LIG    1       30.325 -20.542   8.845  0.00  0.00    +0.340 C 
BRANCH   9  10
ATOM     10  O   LIG    1       30.253 -21.883   9.051  0.00  0.00    -0.477 OA
ATOM     11  H   LIG    1       29.631 -22.149   9.755  0.00  0.00    +0.295 HD
ENDBRANCH   9  10
ENDBRANCH   2   9
ENDBRANCH   1   3
BRANCH   1  12
ATOM     12  C   LIG    1       26.369 -21.292   8.587  0.00  0.00    +0.348 C 
ATOM     13  O   LIG    1       25.950 -20.482   9.389  0.00  0.00    -0.244 OA
BRANCH  12  14
ATOM     14  C   LIG    1       25.497 -22.226   7.831  0.00  0.00    +0.101 A 
ATOM     15  C   LIG    1       24.157 -21.954   7.531  0.00  0.00    +0.131 A 
ATOM     16  C   LIG    1       23.380 -22.906   6.867  0.00  0.00    +0.046 A 
ATOM     17  C   LIG    1       23.941 -24.130   6.495  0.00  0.00    +0.004 A 
ATOM     18  C   LIG    1       25.280 -24.400   6.770  0.00  0.00    +0.001 A 
ATOM     19  C   LIG    1       26.060 -23.449   7.433  0.00  0.00    +0.019 A 
BRANCH  15  20
ATOM     20  O   LIG    1       23.591 -20.754   7.876  0.00  0.00    -0.506 OA
ATOM     21  H   LIG    1       24.283 -20.182   8.255  0.00  0.00    +0.292 HD
ENDBRANCH  15  20
ENDBRANCH  12  14
ENDBRANCH   1  12
TORSDOF 6
ENDMDL
MODEL 2
REMARK VINA RESULT:      -8.6      1.037      6.214
REMARK  Name = *****
REMARK                            x       y       z     vdW  Elec       q    Type
REMARK                         _______ _______ _______ _____ _____    ______ ____
ROOT
ATOM      1  O   LIG    1       26.279 -21.730   6.658  0.00  0.00    -0.421 OA
ENDROOT
BRANCH   1   3
ATOM      2  C   LIG    1       24.068 -22.681   6.677  0.00  0.00    +0.101 A 
ATOM      3  C   LIG    1       25.454 -22.877   6.616  0.00  0.00    +0.146 A 
ATOM      4  C   LIG    1       25.985 -24.166   6.545  0.00  0.00    +0.047 A 
ATOM      5  C   LIG    1       25.128 -25.263   6.470  0.00  0.00    +0.004 A 
ATOM      6  C   LIG    1       23.747 -25.079   6.489  0.00  0.00    +0.001 A 
ATOM      7  C   LIG    1       23.215 -23.791   6.601  0.00  0.00    +0.019 A 
BRANCH   2   9
ATOM      8  O   LIG    1       22.697 -20.880   5.915  0.00  0.00    -0.245 OA
ATOM      9  C   LIG    1       23.420 -21.343   6.792  0.00  0.00    +0.340 C 
BRANCH   9  10
ATOM     10  O   LIG    1       23.630 -20.713   7.977  0.00  0.00    -0.477 OA
ATOM     11  H   LIG    1       24.115 -19.869   7.904  0.00  0.00    +0.295 HD
ENDBRANCH   9  10
ENDBRANCH   2   9
ENDBRANCH   1   3
BRANCH   1  12
ATOM     12  C   LIG    1       27.057 -21.358   7.749  0.00  0.00    +0.348 C 
ATOM     13  O   LIG    1       26.904 -21.684   8.910  0.00  0.00    -0.244 OA
BRANCH  12  14
ATOM     14  C   LIG    1       28.236 -20.601   7.258  0.00  0.00    +0.101 A 
ATOM     15  C   LIG    1       29.502 -20.683   7.848  0.00  0.00    +0.131 A 
ATOM     16  C   LIG    1       30.551 -19.896   7.368  0.00  0.00    +0.046 A 
ATOM     17  C   LIG    1       30.340 -19.030   6.292  0.00  0.00    +0.004 A 
ATOM     18  C   LIG    1       29.088 -18.960   5.684  0.00  0.00    +0.001 A 
ATOM     19  C   LIG    1       28.038 -19.747   6.163  0.00  0.00    +0.019 A 
BRANCH  15  20
ATOM     20  O   LIG    1       29.734 -21.535   8.897  0.00  0.00    -0.506 OA
ATOM     21  H   LIG    1       29.269 -21.193   9.683  0.00  0.00    +0.292 HD
ENDBRANCH  15  20
ENDBRANCH  12  14
ENDBRANCH   1  12
TORSDOF 6
ENDMDL
MODEL 3
REMARK VINA RESULT:      -8.4      1.469      2.484
REMARK  Name = *****
REMARK                            x       y       z     vdW  Elec       q    Type
REMARK                         _______ _______ _______ _____ _____    ______ ____
ROOT
ATOM      1  O   LIG    1       27.631 -21.571   7.154  0.00  0.00    -0.421 OA
ENDROOT
BRANCH   1   3
ATOM      2  C   LIG    1       29.300 -19.921   6.619  0.00  0.00    +0.101 A 
ATOM      3  C   LIG    1       28.897 -21.000   7.417  0.00  0.00    +0.146 A 
ATOM      4  C   LIG    1       29.738 -21.499   8.412  0.00  0.00    +0.047 A 
ATOM      5  C   LIG    1       30.963 -20.878   8.657  0.00  0.00    +0.004 A 
ATOM      6  C   LIG    1       31.358 -19.778   7.897  0.00  0.00    +0.001 A 
ATOM      7  C   LIG    1       30.532 -19.304   6.873  0.00  0.00    +0.019 A 
BRANCH   2   9
ATOM      8  O   LIG    1       28.646 -18.214   5.083  0.00  0.00    -0.245 OA
ATOM      9  C   LIG    1       28.480 -19.351   5.512  0.00  0.00    +0.340 C 
BRANCH   9  10
ATOM     10  O   LIG    1       27.588 -20.218   4.965  0.00  0.00    -0.477 OA
ATOM     11  H   LIG    1       26.691 -19.852   4.847  0.00  0.00    +0.295 HD
ENDBRANCH   9  10
ENDBRANCH   2   9
ENDBRANCH   1   3
BRANCH   1  12
ATOM     12  C   LIG    1       26.561 -21.557   8.043  0.00  0.00    +0.348 C 
ATOM     13  O   LIG    1       26.430 -20.861   9.030  0.00  0.00    -0.244 OA
BRANCH  12  14
ATOM     14  C   LIG    1       25.489 -22.437   7.511  0.00  0.00    +0.101 A 
ATOM     15  C   LIG    1       24.151 -22.040   7.406  0.00  0.00    +0.131 A 
ATOM     16  C   LIG    1       23.187 -22.942   6.951  0.00  0.00    +0.046 A 
ATOM     17  C   LIG    1       23.557 -24.241   6.593  0.00  0.00    +0.004 A 
ATOM     18  C   LIG    1       24.891 -24.636   6.673  0.00  0.00    +0.001 A 
ATOM     19  C   LIG    1       25.858 -23.735   7.127  0.00  0.00    +0.019 A 
BRANCH  15  20
ATOM     20  O   LIG    1       23.768 -20.767   7.741  0.00  0.00    -0.506 OA
ATOM     21  H   LIG    1       23.802 -20.212   6.940  0.00  0.00    +0.292 HD
ENDBRANCH  15  20
ENDBRANCH  12  14
ENDBRANCH   1  12
TORSDOF 6
ENDMDL
MODEL 4
REMARK VINA RESULT:      -8.3      1.967      6.207
REMARK  Name = *****
REMARK                            x       y       z     vdW  Elec       q    Type
REMARK                         _______ _______ _______ _____ _____    ______ ____
ROOT
ATOM      1  O   LIG    1       26.120 -21.273   7.119  0.00  0.00    -0.421 OA
ENDROOT
BRANCH   1   3
ATOM      2  C   LIG    1       24.035 -22.418   6.751  0.00  0.00    +0.101 A 
ATOM      3  C   LIG    1       25.423 -22.488   6.924  0.00  0.00    +0.146 A 
ATOM      4  C   LIG    1       26.077 -23.721   6.929  0.00  0.00    +0.047 A 
ATOM      5  C   LIG    1       25.350 -24.888   6.697  0.00  0.00    +0.004 A 
ATOM      6  C   LIG    1       23.974 -24.829   6.484  0.00  0.00    +0.001 A 
ATOM      7  C   LIG    1       23.314 -23.597   6.519  0.00  0.00    +0.019 A 
BRANCH   2   9
ATOM      8  O   LIG    1       22.532 -20.801   5.842  0.00  0.00    -0.245 OA
ATOM      9  C   LIG    1       23.255 -21.148   6.770  0.00  0.00    +0.340 C 
BRANCH   9  10
ATOM     10  O   LIG    1       23.348 -20.444   7.929  0.00  0.00    -0.477 OA
ATOM     11  H   LIG    1       22.617 -20.604   8.557  0.00  0.00    +0.295 HD
ENDBRANCH   9  10
ENDBRANCH   2   9
ENDBRANCH   1   3
BRANCH   1  12
ATOM     12  C   LIG    1       26.754 -20.558   6.108  0.00  0.00    +0.348 C 
ATOM     13  O   LIG    1       26.261 -20.135   5.081  0.00  0.00    -0.244 OA
BRANCH  12  14
ATOM     14  C   LIG    1       28.136 -20.239   6.546  0.00  0.00    +0.101 A 
ATOM     15  C   LIG    1       28.933 -19.267   5.930  0.00  0.00    +0.131 A 
ATOM     16  C   LIG    1       30.246 -19.062   6.358  0.00  0.00    +0.046 A 
ATOM     17  C   LIG    1       30.765 -19.822   7.409  0.00  0.00    +0.004 A 
ATOM     18  C   LIG    1       29.971 -20.776   8.044  0.00  0.00    +0.001 A 
ATOM     19  C   LIG    1       28.657 -20.982   7.616  0.00  0.00    +0.019 A 
BRANCH  15  20
ATOM     20  O   LIG    1       28.439 -18.502   4.905  0.00  0.00    -0.506 OA
ATOM     21  H   LIG    1       27.685 -17.983   5.241  0.00  0.00    +0.292 HD
ENDBRANCH  15  20
ENDBRANCH  12  14
ENDBRANCH   1  12
TORSDOF 6
ENDMDL
MODEL 5
REMARK VINA RESULT:      -8.3      2.222      5.578
REMARK  Name = *****
REMARK                            x       y       z     vdW  Elec       q    Type
REMARK                         _______ _______ _______ _____ _____    ______ ____
ROOT
ATOM      1  O   LIG    1       27.035 -20.973   6.030  0.00  0.00    -0.421 OA
ENDROOT
BRANCH   1   3
ATOM      2  C   LIG    1       24.986 -20.943   7.291  0.00  0.00    +0.101 A 
ATOM      3  C   LIG    1       25.629 -20.826   6.053  0.00  0.00    +0.146 A 
ATOM      4  C   LIG    1       24.893 -20.600   4.889  0.00  0.00    +0.047 A 
ATOM      5  C   LIG    1       23.511 -20.426   4.970  0.00  0.00    +0.004 A 
ATOM      6  C   LIG    1       22.864 -20.500   6.201  0.00  0.00    +0.001 A 
ATOM      7  C   LIG    1       23.597 -20.766   7.361  0.00  0.00    +0.019 A 
BRANCH   2   9
ATOM      8  O   LIG    1       25.842 -20.370   9.446  0.00  0.00    -0.245 OA
ATOM      9  C   LIG    1       25.691 -21.221   8.575  0.00  0.00    +0.340 C 
BRANCH   9  10
ATOM     10  O   LIG    1       26.086 -22.512   8.735  0.00  0.00    -0.477 OA
ATOM     11  H   LIG    1       25.868 -22.894   9.607  0.00  0.00    +0.295 HD
ENDBRANCH   9  10
ENDBRANCH   2   9
ENDBRANCH   1   3
BRANCH   1  12
ATOM     12  C   LIG    1       27.928 -19.961   5.694  0.00  0.00    +0.348 C 
ATOM     13  O   LIG    1       27.764 -19.071   4.884  0.00  0.00    -0.244 OA
BRANCH  12  14
ATOM     14  C   LIG    1       29.095 -20.032   6.610  0.00  0.00    +0.101 A 
ATOM     15  C   LIG    1       30.175 -19.144   6.549  0.00  0.00    +0.131 A 
ATOM     16  C   LIG    1       31.266 -19.308   7.405  0.00  0.00    +0.046 A 
ATOM     17  C   LIG    1       31.279 -20.356   8.329  0.00  0.00    +0.004 A 
ATOM     18  C   LIG    1       30.197 -21.230   8.412  0.00  0.00    +0.001 A 
ATOM     19  C   LIG    1       29.104 -21.068   7.557  0.00  0.00    +0.019 A 
BRANCH  15  20
ATOM     20  O   LIG    1       30.177 -18.102   5.659  0.00  0.00    -0.506 OA
ATOM     21  H   LIG    1       30.623 -18.392   4.842  0.00  0.00    +0.292 HD
ENDBRANCH  15  20
ENDBRANCH  12  14
ENDBRANCH   1  12
TORSDOF 6
ENDMDL
MODEL 6
REMARK VINA RESULT:      -8.1      1.638      6.113
REMARK  Name = *****
REMARK                            x       y       z     vdW  Elec       q    Type
REMARK                         _______ _______ _______ _____ _____    ______ ____
ROOT
ATOM      1  O   LIG    1       26.169 -21.728   6.549  0.00  0.00    -0.421 OA
ENDROOT
BRANCH   1   3
ATOM      2  C   LIG    1       24.007 -22.777   6.686  0.00  0.00    +0.101 A 
ATOM      3  C   LIG    1       25.395 -22.911   6.549  0.00  0.00    +0.146 A 
ATOM      4  C   LIG    1       25.979 -24.174   6.445  0.00  0.00    +0.047 A 
ATOM      5  C   LIG    1       25.168 -25.309   6.414  0.00  0.00    +0.004 A 
ATOM      6  C   LIG    1       23.783 -25.187   6.509  0.00  0.00    +0.001 A 
ATOM      7  C   LIG    1       23.202 -23.924   6.653  0.00  0.00    +0.019 A 
BRANCH   2   9
ATOM      8  O   LIG    1       23.348 -20.814   7.875  0.00  0.00    -0.245 OA
ATOM      9  C   LIG    1       23.307 -21.470   6.839  0.00  0.00    +0.340 C 
BRANCH   9  10
ATOM     10  O   LIG    1       22.685 -21.026   5.715  0.00  0.00    -0.477 OA
ATOM     11  H   LIG    1       21.712 -20.983   5.784  0.00  0.00    +0.295 HD
ENDBRANCH   9  10
ENDBRANCH   2   9
ENDBRANCH   1   3
BRANCH   1  12
ATOM     12  C   LIG    1       26.855 -21.235   7.654  0.00  0.00    +0.348 C 
ATOM     13  O   LIG    1       26.746 -21.592   8.810  0.00  0.00    -0.244 OA
BRANCH  12  14
ATOM     14  C   LIG    1       27.890 -20.280   7.184  0.00  0.00    +0.101 A 
ATOM     15  C   LIG    1       27.958 -19.805   5.869  0.00  0.00    +0.131 A 
ATOM     16  C   LIG    1       28.995 -18.953   5.484  0.00  0.00    +0.046 A 
ATOM     17  C   LIG    1       29.964 -18.567   6.414  0.00  0.00    +0.004 A 
ATOM     18  C   LIG    1       29.890 -19.016   7.731  0.00  0.00    +0.001 A 
ATOM     19  C   LIG    1       28.853 -19.868   8.118  0.00  0.00    +0.019 A 
BRANCH  15  20
ATOM     20  O   LIG    1       27.011 -20.162   4.945  0.00  0.00    -0.506 OA
ATOM     21  H   LIG    1       26.142 -20.191   5.386  0.00  0.00    +0.292 HD
ENDBRANCH  15  20
ENDBRANCH  12  14
ENDBRANCH   1  12
TORSDOF 6
ENDMDL
MODEL 7
REMARK VINA RESULT:      -8.1      1.977      5.733
REMARK  Name = *****
REMARK                            x       y       z     vdW  Elec       q    Type
REMARK                         _______ _______ _______ _____ _____    ______ ____
ROOT
ATOM      1  O   LIG    1       26.588 -21.136   6.448  0.00  0.00    -0.421 OA
ENDROOT
BRANCH   1   3
ATOM      2  C   LIG    1       24.223 -20.962   6.035  0.00  0.00    +0.101 A 
ATOM      3  C   LIG    1       25.531 -20.625   5.660  0.00  0.00    +0.146 A 
ATOM      4  C   LIG    1       25.765 -19.837   4.533  0.00  0.00    +0.047 A 
ATOM      5  C   LIG    1       24.686 -19.328   3.810  0.00  0.00    +0.004 A 
ATOM      6  C   LIG    1       23.379 -19.622   4.197  0.00  0.00    +0.001 A 
ATOM      7  C   LIG    1       23.146 -20.445   5.302  0.00  0.00    +0.019 A 
BRANCH   2   9
ATOM      8  O   LIG    1       23.064 -21.503   8.052  0.00  0.00    -0.245 OA
ATOM      9  C   LIG    1       23.887 -21.828   7.202  0.00  0.00    +0.340 C 
BRANCH   9  10
ATOM     10  O   LIG    1       24.507 -23.037   7.205  0.00  0.00    -0.477 OA
ATOM     11  H   LIG    1       24.100 -23.700   6.614  0.00  0.00    +0.295 HD
ENDBRANCH   9  10
ENDBRANCH   2   9
ENDBRANCH   1   3
BRANCH   1  12
ATOM     12  C   LIG    1       27.113 -20.501   7.569  0.00  0.00    +0.348 C 
ATOM     13  O   LIG    1       26.592 -20.379   8.660  0.00  0.00    -0.244 OA
BRANCH  12  14
ATOM     14  C   LIG    1       28.517 -20.111   7.281  0.00  0.00    +0.101 A 
ATOM     15  C   LIG    1       29.618 -20.651   7.955  0.00  0.00    +0.131 A 
ATOM     16  C   LIG    1       30.906 -20.193   7.672  0.00  0.00    +0.046 A 
ATOM     17  C   LIG    1       31.099 -19.199   6.711  0.00  0.00    +0.004 A 
ATOM     18  C   LIG    1       30.010 -18.672   6.019  0.00  0.00    +0.001 A 
ATOM     19  C   LIG    1       28.721 -19.129   6.300  0.00  0.00    +0.019 A 
BRANCH  15  20
ATOM     20  O   LIG    1       29.452 -21.637   8.893  0.00  0.00    -0.506 OA
ATOM     21  H   LIG    1       28.497 -21.794   9.012  0.00  0.00    +0.292 HD
ENDBRANCH  15  20
ENDBRANCH  12  14
ENDBRANCH   1  12
TORSDOF 6
ENDMDL
MODEL 8
REMARK VINA RESULT:      -8.0      1.998      5.598
REMARK  Name = *****
REMARK                            x       y       z     vdW  Elec       q    Type
REMARK                         _______ _______ _______ _____ _____    ______ ____
ROOT
ATOM      1  O   LIG    1       27.566 -20.614   6.104  0.00  0.00    -0.421 OA
ENDROOT
BRANCH   1   3
ATOM      2  C   LIG    1       25.438 -20.758   7.219  0.00  0.00    +0.101 A 
ATOM      3  C   LIG    1       26.156 -20.550   6.034  0.00  0.00    +0.146 A 
ATOM      4  C   LIG    1       25.488 -20.317   4.831  0.00  0.00    +0.047 A 
ATOM      5  C   LIG    1       24.096 -20.227   4.821  0.00  0.00    +0.004 A 
ATOM      6  C   LIG    1       23.372 -20.392   6.000  0.00  0.00    +0.001 A 
ATOM      7  C   LIG    1       24.039 -20.665   7.197  0.00  0.00    +0.019 A 
BRANCH   2   9
ATOM      8  O   LIG    1       25.878 -20.357   9.531  0.00  0.00    -0.245 OA
ATOM      9  C   LIG    1       26.071 -21.049   8.537  0.00  0.00    +0.340 C 
BRANCH   9  10
ATOM     10  O   LIG    1       26.814 -22.186   8.568  0.00  0.00    -0.477 OA
ATOM     11  H   LIG    1       26.303 -23.006   8.425  0.00  0.00    +0.295 HD
ENDBRANCH   9  10
ENDBRANCH   2   9
ENDBRANCH   1   3
BRANCH   1  12
ATOM     12  C   LIG    1       28.416 -19.535   5.883  0.00  0.00    +0.348 C 
ATOM     13  O   LIG    1       28.311 -18.675   5.032  0.00  0.00    -0.244 OA
BRANCH  12  14
ATOM     14  C   LIG    1       29.425 -19.493   6.972  0.00  0.00    +0.101 A 
ATOM     15  C   LIG    1       29.895 -20.636   7.629  0.00  0.00    +0.131 A 
ATOM     16  C   LIG    1       30.801 -20.515   8.685  0.00  0.00    +0.046 A 
ATOM     17  C   LIG    1       31.246 -19.252   9.083  0.00  0.00    +0.004 A 
ATOM     18  C   LIG    1       30.800 -18.110   8.418  0.00  0.00    +0.001 A 
ATOM     19  C   LIG    1       29.894 -18.230   7.362  0.00  0.00    +0.019 A 
BRANCH  15  20
ATOM     20  O   LIG    1       29.481 -21.886   7.246  0.00  0.00    -0.506 OA
ATOM     21  H   LIG    1       28.580 -21.816   6.880  0.00  0.00    +0.292 HD
ENDBRANCH  15  20
ENDBRANCH  12  14
ENDBRANCH   1  12
TORSDOF 6
ENDMDL
MODEL 9
REMARK VINA RESULT:      -7.9      1.869      6.028
REMARK  Name = *****
REMARK                            x       y       z     vdW  Elec       q    Type
REMARK                         _______ _______ _______ _____ _____    ______ ____
ROOT
ATOM      1  O   LIG    1       26.558 -22.514   6.887  0.00  0.00    -0.421 OA
ENDROOT
BRANCH   1   3
ATOM      2  C   LIG    1       24.747 -24.069   6.575  0.00  0.00    +0.101 A 
ATOM      3  C   LIG    1       25.166 -22.755   6.822  0.00  0.00    +0.146 A 
ATOM      4  C   LIG    1       24.232 -21.729   6.971  0.00  0.00    +0.047 A 
ATOM      5  C   LIG    1       22.870 -22.025   6.935  0.00  0.00    +0.004 A 
ATOM      6  C   LIG    1       22.440 -23.334   6.730  0.00  0.00    +0.001 A 
ATOM      7  C   LIG    1       23.376 -24.355   6.541  0.00  0.00    +0.019 A 
BRANCH   2   9
ATOM      8  O   LIG    1       26.141 -25.868   7.297  0.00  0.00    -0.245 OA
ATOM      9  C   LIG    1       25.678 -25.215   6.368  0.00  0.00    +0.340 C 
BRANCH   9  10
ATOM     10  O   LIG    1       25.908 -25.527   5.065  0.00  0.00    -0.477 OA
ATOM     11  H   LIG    1       25.741 -26.462   4.839  0.00  0.00    +0.295 HD
ENDBRANCH   9  10
ENDBRANCH   2   9
ENDBRANCH   1   3
BRANCH   1  12
ATOM     12  C   LIG    1       27.182 -21.760   7.876  0.00  0.00    +0.348 C 
ATOM     13  O   LIG    1       27.074 -21.887   9.079  0.00  0.00    -0.244 OA
BRANCH  12  14
ATOM     14  C   LIG    1       28.154 -20.841   7.232  0.00  0.00    +0.101 A 
ATOM     15  C   LIG    1       29.467 -20.669   7.686  0.00  0.00    +0.131 A 
ATOM     16  C   LIG    1       30.308 -19.743   7.066  0.00  0.00    +0.046 A 
ATOM     17  C   LIG    1       29.842 -18.991   5.985  0.00  0.00    +0.004 A 
ATOM     18  C   LIG    1       28.545 -19.173   5.511  0.00  0.00    +0.001 A 
ATOM     19  C   LIG    1       27.702 -20.100   6.130  0.00  0.00    +0.019 A 
BRANCH  15  20
ATOM     20  O   LIG    1       29.947 -21.406   8.738  0.00  0.00    -0.506 OA
ATOM     21  H   LIG    1       30.657 -21.988   8.411  0.00  0.00    +0.292 HD
ENDBRANCH  15  20
ENDBRANCH  12  14
ENDBRANCH   1  12
TORSDOF 6
ENDMDL
