MODEL 1
REMARK VINA RESULT:      20.4      0.000      0.000
REMARK  Name = *****
REMARK                            x       y       z     vdW  Elec       q    Type
REMARK                         _______ _______ _______ _____ _____    ______ ____
ROOT
ATOM      1  C   LIG    1       24.542 -15.741   2.616  0.00  0.00    +0.066 A 
ATOM      2  C   LIG    1       23.376 -16.472   2.809  0.00  0.00    +0.040 A 
ATOM      3  I   LIG    1       21.420 -15.246   1.813  0.00  0.00    -0.042 I 
ATOM      4  C   LIG    1       22.944 -16.779   4.075  0.00  0.00    +0.066 A 
ATOM      5  C   LIG    1       23.195 -15.693   4.948  0.00  0.00    +0.049 A 
ATOM      6  I   LIG    1       23.003 -15.842   7.044  0.00  0.00    -0.041 I 
ATOM      7  C   LIG    1       23.706 -14.429   4.397  0.00  0.00    +0.061 A 
ATOM      8  C   LIG    1       24.358 -14.481   3.138  0.00  0.00    +0.049 A 
ATOM      9  I   LIG    1       25.275 -13.071   1.892  0.00  0.00    -0.041 I 
ENDROOT
BRANCH   4  10
ATOM     10  C   LIG    1       22.234 -18.132   4.197  0.00  0.00    +0.248 C 
ATOM     11  N   LIG    1       22.922 -19.370   4.541  0.00  0.00    -0.298 N 
ATOM     12  C   LIG    1       22.141 -20.567   4.794  0.00  0.00    +0.132 C 
ATOM     13  O   LIG    1       20.996 -18.157   3.970  0.00  0.00    -0.270 OA
BRANCH  11  14
ATOM     14  C   LIG    1       24.144 -19.438   5.310  0.00  0.00    +0.141 C 
BRANCH  14  15
ATOM     15  C   LIG    1       24.119 -20.282   6.605  0.00  0.00    +0.157 C 
BRANCH  15  16
ATOM     16  O   LIG    1       22.803 -20.620   7.058  0.00  0.00    -0.388 OA
ATOM     17  H   LIG    1       22.907 -21.058   7.928  0.00  0.00    +0.210 HD
ENDBRANCH  15  16
BRANCH  15  18
ATOM     18  C   LIG    1       25.027 -21.498   6.589  0.00  0.00    +0.188 C 
BRANCH  18  19
ATOM     19  O   LIG    1       26.312 -21.139   7.062  0.00  0.00    -0.392 OA
ATOM     20  H   LIG    1       26.228 -20.244   7.427  0.00  0.00    +0.209 HD
ENDBRANCH  18  19
ENDBRANCH  15  18
ENDBRANCH  14  15
ENDBRANCH  11  14
ENDBRANCH   4  10
BRANCH   1  23
ATOM     21  C   LIG    1       25.328 -18.695   2.626  0.00  0.00    +0.132 C 
ATOM     22  N   LIG    1       26.261 -17.706   3.069  0.00  0.00    -0.298 N 
ATOM     23  C   LIG    1       25.922 -16.346   3.040  0.00  0.00    +0.248 C 
ATOM     24  O   LIG    1       26.782 -15.461   3.376  0.00  0.00    -0.270 OA
BRANCH  22  25
ATOM     25  C   LIG    1       27.520 -18.304   3.630  0.00  0.00    +0.141 C 
BRANCH  25  26
ATOM     26  C   LIG    1       27.491 -18.847   5.082  0.00  0.00    +0.157 C 
BRANCH  26  27
ATOM     27  O   LIG    1       26.776 -20.080   5.168  0.00  0.00    -0.388 OA
ATOM     28  H   LIG    1       27.082 -20.572   5.943  0.00  0.00    +0.210 HD
ENDBRANCH  26  27
BRANCH  26  29
ATOM     29  C   LIG    1       28.879 -19.156   5.691  0.00  0.00    +0.188 C 
BRANCH  29  30
ATOM     30  O   LIG    1       29.233 -18.117   6.616  0.00  0.00    -0.392 OA
ATOM     31  H   LIG    1       28.765 -18.274   7.453  0.00  0.00    +0.209 HD
ENDBRANCH  29  30
ENDBRANCH  26  29
ENDBRANCH  25  26
ENDBRANCH  22  25
ENDBRANCH   1  23
BRANCH   7  32
ATOM     32  N   LIG    1       23.683 -13.253   5.194  0.00  0.00    -0.283 N 
ATOM     33  H   LIG    1       22.998 -12.560   4.884  0.00  0.00    +0.155 HD
ATOM     34  C   LIG    1       24.730 -12.562   5.770  0.00  0.00    +0.225 C 
ATOM     35  O   LIG    1       24.464 -11.488   6.323  0.00  0.00    -0.275 OA
BRANCH  34  36
ATOM     36  C   LIG    1       26.187 -12.990   5.573  0.00  0.00    +0.126 C 
BRANCH  36  37
ATOM     37  C   LIG    1       26.851 -13.589   6.795  0.00  0.00    +0.170 C 
BRANCH  37  38
ATOM     38  O   LIG    1       28.011 -14.352   6.470  0.00  0.00    -0.394 OA
ATOM     39  H   LIG    1       28.802 -13.798   6.574  0.00  0.00    +0.209 HD
ENDBRANCH  37  38
ENDBRANCH  36  37
BRANCH  36  40
ATOM     40  C   LIG    1       27.049 -11.807   5.131  0.00  0.00    +0.170 C 
BRANCH  40  41
ATOM     41  O   LIG    1       28.275 -12.243   4.566  0.00  0.00    -0.394 OA
ATOM     42  H   LIG    1       28.091 -12.509   3.648  0.00  0.00    +0.209 HD
ENDBRANCH  40  41
ENDBRANCH  36  40
ENDBRANCH  34  36
ENDBRANCH   7  32
TORSDOF 18
ENDMDL
MODEL 2
REMARK VINA RESULT:      21.1      1.807      2.310
REMARK  Name = *****
REMARK                            x       y       z     vdW  Elec       q    Type
REMARK                         _______ _______ _______ _____ _____    ______ ____
ROOT
ATOM      1  C   LIG    1       25.537 -16.257   3.265  0.00  0.00    +0.066 A 
ATOM      2  C   LIG    1       24.172 -16.325   3.013  0.00  0.00    +0.040 A 
ATOM      3  I   LIG    1       23.412 -14.240   1.831  0.00  0.00    -0.042 I 
ATOM      4  C   LIG    1       23.275 -16.447   4.045  0.00  0.00    +0.066 A 
ATOM      5  C   LIG    1       23.704 -15.676   5.152  0.00  0.00    +0.049 A 
ATOM      6  I   LIG    1       22.819 -15.826   7.062  0.00  0.00    -0.041 I 
ATOM      7  C   LIG    1       24.878 -14.803   5.011  0.00  0.00    +0.061 A 
ATOM      8  C   LIG    1       25.793 -15.101   3.967  0.00  0.00    +0.049 A 
ATOM      9  I   LIG    1       27.589 -14.263   3.296  0.00  0.00    -0.041 I 
ENDROOT
BRANCH   4  10
ATOM     10  C   LIG    1       22.030 -17.277   3.714  0.00  0.00    +0.248 C 
ATOM     11  N   LIG    1       21.890 -18.686   4.058  0.00  0.00    -0.298 N 
ATOM     12  C   LIG    1       20.613 -19.343   3.851  0.00  0.00    +0.132 C 
ATOM     13  O   LIG    1       21.097 -16.697   3.099  0.00  0.00    -0.270 OA
BRANCH  11  14
ATOM     14  C   LIG    1       22.572 -19.328   5.159  0.00  0.00    +0.141 C 
BRANCH  14  15
ATOM     15  C   LIG    1       22.606 -20.874   5.166  0.00  0.00    +0.157 C 
BRANCH  15  16
ATOM     16  O   LIG    1       21.325 -21.487   4.978  0.00  0.00    -0.388 OA
ATOM     17  H   LIG    1       20.904 -21.539   5.861  0.00  0.00    +0.210 HD
ENDBRANCH  15  16
BRANCH  15  18
ATOM     18  C   LIG    1       23.654 -21.492   4.259  0.00  0.00    +0.188 C 
BRANCH  18  19
ATOM     19  O   LIG    1       23.222 -21.416   2.913  0.00  0.00    -0.392 OA
ATOM     20  H   LIG    1       22.277 -21.637   2.917  0.00  0.00    +0.209 HD
ENDBRANCH  18  19
ENDBRANCH  15  18
ENDBRANCH  14  15
ENDBRANCH  11  14
ENDBRANCH   4  10
BRANCH   1  23
ATOM     21  C   LIG    1       25.232 -19.188   2.455  0.00  0.00    +0.132 C 
ATOM     22  N   LIG    1       26.108 -18.831   3.527  0.00  0.00    -0.298 N 
ATOM     23  C   LIG    1       26.279 -17.487   3.886  0.00  0.00    +0.248 C 
ATOM     24  O   LIG    1       27.112 -17.166   4.802  0.00  0.00    -0.270 OA
BRANCH  22  25
ATOM     25  C   LIG    1       26.688 -20.026   4.227  0.00  0.00    +0.141 C 
BRANCH  25  26
ATOM     26  C   LIG    1       26.798 -19.989   5.774  0.00  0.00    +0.157 C 
BRANCH  26  27
ATOM     27  O   LIG    1       26.378 -21.222   6.359  0.00  0.00    -0.388 OA
ATOM     28  H   LIG    1       27.068 -21.888   6.230  0.00  0.00    +0.210 HD
ENDBRANCH  26  27
BRANCH  26  29
ATOM     29  C   LIG    1       28.227 -19.763   6.321  0.00  0.00    +0.188 C 
BRANCH  29  30
ATOM     30  O   LIG    1       28.640 -20.922   7.062  0.00  0.00    -0.392 OA
ATOM     31  H   LIG    1       29.534 -20.764   7.410  0.00  0.00    +0.209 HD
ENDBRANCH  29  30
ENDBRANCH  26  29
ENDBRANCH  25  26
ENDBRANCH  22  25
ENDBRANCH   1  23
BRANCH   7  32
ATOM     32  N   LIG    1       25.144 -13.814   5.996  0.00  0.00    -0.283 N 
ATOM     33  H   LIG    1       24.905 -14.104   6.946  0.00  0.00    +0.155 HD
ATOM     34  C   LIG    1       24.975 -12.444   5.933  0.00  0.00    +0.225 C 
ATOM     35  O   LIG    1       25.167 -11.802   6.972  0.00  0.00    -0.275 OA
BRANCH  34  36
ATOM     36  C   LIG    1       24.387 -11.759   4.697  0.00  0.00    +0.126 C 
BRANCH  36  37
ATOM     37  C   LIG    1       23.241 -12.498   4.038  0.00  0.00    +0.170 C 
BRANCH  37  38
ATOM     38  O   LIG    1       23.418 -12.637   2.630  0.00  0.00    -0.394 OA
ATOM     39  H   LIG    1       23.261 -13.561   2.374  0.00  0.00    +0.209 HD
ENDBRANCH  37  38
ENDBRANCH  36  37
BRANCH  36  40
ATOM     40  C   LIG    1       25.458 -11.551   3.626  0.00  0.00    +0.170 C 
BRANCH  40  41
ATOM     41  O   LIG    1       26.640 -12.274   3.930  0.00  0.00    -0.394 OA
ATOM     42  H   LIG    1       27.291 -12.067   3.236  0.00  0.00    +0.209 HD
ENDBRANCH  40  41
ENDBRANCH  36  40
ENDBRANCH  34  36
ENDBRANCH   7  32
TORSDOF 18
ENDMDL
MODEL 3
REMARK VINA RESULT:      21.7      1.790      2.401
REMARK  Name = *****
REMARK                            x       y       z     vdW  Elec       q    Type
REMARK                         _______ _______ _______ _____ _____    ______ ____
ROOT
ATOM      1  C   LIG    1       25.377 -16.194   3.208  0.00  0.00    +0.066 A 
ATOM      2  C   LIG    1       24.014 -16.210   2.931  0.00  0.00    +0.040 A 
ATOM      3  I   LIG    1       23.337 -14.057   1.824  0.00  0.00    -0.042 I 
ATOM      4  C   LIG    1       23.097 -16.347   3.943  0.00  0.00    +0.066 A 
ATOM      5  C   LIG    1       23.530 -15.635   5.088  0.00  0.00    +0.049 A 
ATOM      6  I   LIG    1       22.607 -15.835   6.975  0.00  0.00    -0.041 I 
ATOM      7  C   LIG    1       24.731 -14.793   5.001  0.00  0.00    +0.061 A 
ATOM      8  C   LIG    1       25.655 -15.076   3.961  0.00  0.00    +0.049 A 
ATOM      9  I   LIG    1       27.486 -14.266   3.353  0.00  0.00    -0.041 I 
ENDROOT
BRANCH   4  10
ATOM     10  C   LIG    1       21.833 -17.124   3.558  0.00  0.00    +0.248 C 
ATOM     11  N   LIG    1       21.643 -18.540   3.849  0.00  0.00    -0.298 N 
ATOM     12  C   LIG    1       20.350 -19.148   3.594  0.00  0.00    +0.132 C 
ATOM     13  O   LIG    1       20.931 -16.494   2.947  0.00  0.00    -0.270 OA
BRANCH  11  14
ATOM     14  C   LIG    1       22.282 -19.242   4.939  0.00  0.00    +0.141 C 
BRANCH  14  15
ATOM     15  C   LIG    1       22.851 -20.648   4.638  0.00  0.00    +0.157 C 
BRANCH  15  16
ATOM     16  O   LIG    1       23.442 -20.774   3.340  0.00  0.00    -0.388 OA
ATOM     17  H   LIG    1       24.317 -20.336   3.384  0.00  0.00    +0.210 HD
ENDBRANCH  15  16
BRANCH  15  18
ATOM     18  C   LIG    1       23.758 -21.211   5.717  0.00  0.00    +0.188 C 
BRANCH  18  19
ATOM     19  O   LIG    1       23.283 -20.817   6.991  0.00  0.00    -0.392 OA
ATOM     20  H   LIG    1       23.689 -21.422   7.632  0.00  0.00    +0.209 HD
ENDBRANCH  18  19
ENDBRANCH  15  18
ENDBRANCH  14  15
ENDBRANCH  11  14
ENDBRANCH   4  10
BRANCH   1  23
ATOM     21  C   LIG    1       28.086 -16.332   4.615  0.00  0.00    +0.132 C 
ATOM     22  N   LIG    1       27.328 -17.526   4.406  0.00  0.00    -0.298 N 
ATOM     23  C   LIG    1       26.070 -17.470   3.790  0.00  0.00    +0.248 C 
ATOM     24  O   LIG    1       25.367 -18.532   3.665  0.00  0.00    -0.270 OA
BRANCH  22  25
ATOM     25  C   LIG    1       28.070 -18.766   4.816  0.00  0.00    +0.141 C 
BRANCH  25  26
ATOM     26  C   LIG    1       28.238 -19.055   6.331  0.00  0.00    +0.157 C 
BRANCH  26  27
ATOM     27  O   LIG    1       27.026 -18.819   7.048  0.00  0.00    -0.388 OA
ATOM     28  H   LIG    1       26.685 -17.943   6.817  0.00  0.00    +0.210 HD
ENDBRANCH  26  27
BRANCH  26  29
ATOM     29  C   LIG    1       28.621 -20.512   6.679  0.00  0.00    +0.188 C 
BRANCH  29  30
ATOM     30  O   LIG    1       29.167 -21.150   5.514  0.00  0.00    -0.392 OA
ATOM     31  H   LIG    1       29.494 -20.462   4.909  0.00  0.00    +0.209 HD
ENDBRANCH  29  30
ENDBRANCH  26  29
ENDBRANCH  25  26
ENDBRANCH  22  25
ENDBRANCH   1  23
BRANCH   7  32
ATOM     32  N   LIG    1       25.010 -13.853   6.030  0.00  0.00    -0.283 N 
ATOM     33  H   LIG    1       24.540 -14.059   6.914  0.00  0.00    +0.155 HD
ATOM     34  C   LIG    1       25.148 -12.481   5.952  0.00  0.00    +0.225 C 
ATOM     35  O   LIG    1       25.272 -11.863   7.016  0.00  0.00    -0.275 OA
BRANCH  34  36
ATOM     36  C   LIG    1       24.960 -11.724   4.635  0.00  0.00    +0.126 C 
BRANCH  36  37
ATOM     37  C   LIG    1       23.696 -12.064   3.873  0.00  0.00    +0.170 C 
BRANCH  37  38
ATOM     38  O   LIG    1       23.650 -11.449   2.588  0.00  0.00    -0.394 OA
ATOM     39  H   LIG    1       22.770 -11.061   2.447  0.00  0.00    +0.209 HD
ENDBRANCH  37  38
ENDBRANCH  36  37
BRANCH  36  40
ATOM     40  C   LIG    1       26.133 -11.978   3.687  0.00  0.00    +0.170 C 
BRANCH  40  41
ATOM     41  O   LIG    1       27.307 -12.335   4.400  0.00  0.00    -0.394 OA
ATOM     42  H   LIG    1       27.095 -12.278   5.349  0.00  0.00    +0.209 HD
ENDBRANCH  40  41
ENDBRANCH  36  40
ENDBRANCH  34  36
ENDBRANCH   7  32
TORSDOF 18
ENDMDL
MODEL 4
REMARK VINA RESULT:      22.1      1.453      1.995
REMARK  Name = *****
REMARK                            x       y       z     vdW  Elec       q    Type
REMARK                         _______ _______ _______ _____ _____    ______ ____
ROOT
ATOM      1  C   LIG    1       24.286 -16.769   2.789  0.00  0.00    +0.066 A 
ATOM      2  C   LIG    1       22.982 -17.248   2.813  0.00  0.00    +0.040 A 
ATOM      3  I   LIG    1       21.424 -15.546   1.815  0.00  0.00    -0.042 I 
ATOM      4  C   LIG    1       22.376 -17.571   4.001  0.00  0.00    +0.066 A 
ATOM      5  C   LIG    1       22.759 -16.649   5.006  0.00  0.00    +0.049 A 
ATOM      6  I   LIG    1       22.339 -16.947   7.052  0.00  0.00    -0.041 I 
ATOM      7  C   LIG    1       23.569 -15.479   4.638  0.00  0.00    +0.061 A 
ATOM      8  C   LIG    1       24.315 -15.552   3.432  0.00  0.00    +0.049 A 
ATOM      9  I   LIG    1       25.617 -14.262   2.423  0.00  0.00    -0.041 I 
ENDROOT
BRANCH   4  10
ATOM     10  C   LIG    1       21.396 -18.746   3.920  0.00  0.00    +0.248 C 
ATOM     11  N   LIG    1       21.670 -20.060   4.487  0.00  0.00    -0.298 N 
ATOM     12  C   LIG    1       20.617 -21.059   4.505  0.00  0.00    +0.132 C 
ATOM     13  O   LIG    1       20.310 -18.551   3.314  0.00  0.00    -0.270 OA
BRANCH  11  14
ATOM     14  C   LIG    1       22.557 -20.298   5.604  0.00  0.00    +0.141 C 
BRANCH  14  15
ATOM     15  C   LIG    1       23.834 -21.126   5.331  0.00  0.00    +0.157 C 
BRANCH  15  16
ATOM     16  O   LIG    1       24.155 -21.263   3.943  0.00  0.00    -0.388 OA
ATOM     17  H   LIG    1       23.352 -21.015   3.440  0.00  0.00    +0.210 HD
ENDBRANCH  15  16
BRANCH  15  18
ATOM     18  C   LIG    1       25.047 -20.709   6.142  0.00  0.00    +0.188 C 
BRANCH  18  19
ATOM     19  O   LIG    1       26.144 -21.542   5.819  0.00  0.00    -0.392 OA
ATOM     20  H   LIG    1       25.912 -21.990   4.991  0.00  0.00    +0.209 HD
ENDBRANCH  18  19
ENDBRANCH  15  18
ENDBRANCH  14  15
ENDBRANCH  11  14
ENDBRANCH   4  10
BRANCH   1  23
ATOM     21  C   LIG    1       27.143 -15.907   3.453  0.00  0.00    +0.132 C 
ATOM     22  N   LIG    1       26.780 -17.289   3.518  0.00  0.00    -0.298 N 
ATOM     23  C   LIG    1       25.465 -17.691   3.246  0.00  0.00    +0.248 C 
ATOM     24  O   LIG    1       25.129 -18.920   3.369  0.00  0.00    -0.270 OA
BRANCH  22  25
ATOM     25  C   LIG    1       27.952 -18.186   3.794  0.00  0.00    +0.141 C 
BRANCH  25  26
ATOM     26  C   LIG    1       28.926 -17.794   4.936  0.00  0.00    +0.157 C 
BRANCH  26  27
ATOM     27  O   LIG    1       28.571 -16.539   5.520  0.00  0.00    -0.388 OA
ATOM     28  H   LIG    1       28.520 -15.868   4.826  0.00  0.00    +0.210 HD
ENDBRANCH  26  27
BRANCH  26  29
ATOM     29  C   LIG    1       28.968 -18.781   6.125  0.00  0.00    +0.188 C 
BRANCH  29  30
ATOM     30  O   LIG    1       27.703 -19.452   6.230  0.00  0.00    -0.392 OA
ATOM     31  H   LIG    1       27.396 -19.676   5.335  0.00  0.00    +0.209 HD
ENDBRANCH  29  30
ENDBRANCH  26  29
ENDBRANCH  25  26
ENDBRANCH  22  25
ENDBRANCH   1  23
BRANCH   7  32
ATOM     32  N   LIG    1       23.711 -14.403   5.555  0.00  0.00    -0.283 N 
ATOM     33  H   LIG    1       22.847 -14.163   6.045  0.00  0.00    +0.155 HD
ATOM     34  C   LIG    1       24.449 -13.242   5.440  0.00  0.00    +0.225 C 
ATOM     35  O   LIG    1       24.316 -12.394   6.331  0.00  0.00    -0.275 OA
BRANCH  34  36
ATOM     36  C   LIG    1       25.249 -12.916   4.175  0.00  0.00    +0.126 C 
BRANCH  36  37
ATOM     37  C   LIG    1       26.718 -12.627   4.402  0.00  0.00    +0.170 C 
BRANCH  37  38
ATOM     38  O   LIG    1       27.293 -13.467   5.401  0.00  0.00    -0.394 OA
ATOM     39  H   LIG    1       27.531 -12.931   6.176  0.00  0.00    +0.209 HD
ENDBRANCH  37  38
ENDBRANCH  36  37
BRANCH  36  40
ATOM     40  C   LIG    1       24.662 -11.700   3.456  0.00  0.00    +0.170 C 
BRANCH  40  41
ATOM     41  O   LIG    1       23.321 -11.463   3.852  0.00  0.00    -0.394 OA
ATOM     42  H   LIG    1       23.072 -10.584   3.514  0.00  0.00    +0.209 HD
ENDBRANCH  40  41
ENDBRANCH  36  40
ENDBRANCH  34  36
ENDBRANCH   7  32
TORSDOF 18
ENDMDL
