MODEL 1
REMARK VINA RESULT:      -8.4      0.000      0.000
REMARK  Name = *****
REMARK                            x       y       z     vdW  Elec       q    Type
REMARK                         _______ _______ _______ _____ _____    ______ ____
ROOT
ATOM      1  C   LIG    1       24.488 -20.778   6.055  0.00  0.00    +0.121 A 
ATOM      2  C   LIG    1       25.694 -20.413   5.444  0.00  0.00    +0.054 A 
ATOM      3  C   LIG    1       26.883 -20.303   6.191  0.00  0.00    -0.014 A 
ATOM      4  C   LIG    1       26.846 -20.572   7.575  0.00  0.00    -0.017 A 
ATOM      5  C   LIG    1       28.015 -20.477   8.339  0.00  0.00    +0.013 A 
ATOM      6  C   LIG    1       29.235 -20.094   7.760  0.00  0.00    -0.033 A 
ATOM      7  C   LIG    1       29.269 -19.827   6.385  0.00  0.00    +0.005 A 
ATOM      8  C   LIG    1       25.636 -20.925   8.179  0.00  0.00    +0.012 A 
ATOM      9  C   LIG    1       28.109 -19.934   5.610  0.00  0.00    +0.009 A 
ATOM     10  C   LIG    1       24.466 -21.026   7.426  0.00  0.00    +0.046 A 
ENDROOT
BRANCH   1  12
ATOM     11  C   LIG    1       22.545 -19.724   5.199  0.00  0.00    +0.277 C 
ATOM     12  O   LIG    1       23.402 -20.862   5.225  0.00  0.00    -0.495 OA
ENDBRANCH   1  12
BRANCH   6  13
ATOM     13  C   LIG    1       30.480 -19.922   8.619  0.00  0.00    +0.124 C 
ATOM     14  C   LIG    1       31.533 -19.080   7.890  0.00  0.00    +0.024 C 
BRANCH  13  15
ATOM     15  C   LIG    1       31.101 -21.241   9.095  0.00  0.00    +0.312 C 
ATOM     16  O   LIG    1       30.801 -21.791  10.143  0.00  0.00    -0.250 OA
BRANCH  15  17
ATOM     17  O   LIG    1       31.972 -21.819   8.233  0.00  0.00    -0.480 OA
ATOM     18  H   LIG    1       31.559 -22.376   7.544  0.00  0.00    +0.295 HD
ENDBRANCH  15  17
ENDBRANCH  13  15
ENDBRANCH   6  13
TORSDOF 4
ENDMDL
MODEL 2
REMARK VINA RESULT:      -8.3      1.293      1.705
REMARK  Name = *****
REMARK                            x       y       z     vdW  Elec       q    Type
REMARK                         _______ _______ _______ _____ _____    ______ ____
ROOT
ATOM      1  C   LIG    1       24.458 -21.264   6.613  0.00  0.00    +0.121 A 
ATOM      2  C   LIG    1       25.462 -20.560   5.938  0.00  0.00    +0.054 A 
ATOM      3  C   LIG    1       26.789 -20.552   6.412  0.00  0.00    -0.014 A 
ATOM      4  C   LIG    1       27.098 -21.273   7.585  0.00  0.00    -0.017 A 
ATOM      5  C   LIG    1       28.410 -21.287   8.073  0.00  0.00    +0.013 A 
ATOM      6  C   LIG    1       29.434 -20.575   7.430  0.00  0.00    -0.033 A 
ATOM      7  C   LIG    1       29.125 -19.860   6.266  0.00  0.00    +0.005 A 
ATOM      8  C   LIG    1       26.087 -21.964   8.258  0.00  0.00    +0.012 A 
ATOM      9  C   LIG    1       27.820 -19.852   5.761  0.00  0.00    +0.009 A 
ATOM     10  C   LIG    1       24.778 -21.959   7.778  0.00  0.00    +0.046 A 
ENDROOT
BRANCH   1  12
ATOM     11  C   LIG    1       22.819 -19.941   5.526  0.00  0.00    +0.277 C 
ATOM     12  O   LIG    1       23.210 -21.206   6.051  0.00  0.00    -0.495 OA
ENDBRANCH   1  12
BRANCH   6  13
ATOM     13  C   LIG    1       30.839 -20.540   8.017  0.00  0.00    +0.124 C 
ATOM     14  C   LIG    1       31.031 -21.667   9.038  0.00  0.00    +0.024 C 
BRANCH  13  15
ATOM     15  C   LIG    1       31.224 -19.194   8.642  0.00  0.00    +0.312 C 
ATOM     16  O   LIG    1       31.705 -18.267   8.010  0.00  0.00    -0.250 OA
BRANCH  15  17
ATOM     17  O   LIG    1       30.928 -19.057   9.957  0.00  0.00    -0.480 OA
ATOM     18  H   LIG    1       30.846 -19.898  10.450  0.00  0.00    +0.295 HD
ENDBRANCH  15  17
ENDBRANCH  13  15
ENDBRANCH   6  13
TORSDOF 4
ENDMDL
MODEL 3
REMARK VINA RESULT:      -8.2      1.779      6.275
REMARK  Name = *****
REMARK                            x       y       z     vdW  Elec       q    Type
REMARK                         _______ _______ _______ _____ _____    ______ ____
ROOT
ATOM      1  C   LIG    1       30.613 -19.358   7.179  0.00  0.00    +0.121 A 
ATOM      2  C   LIG    1       29.850 -20.289   7.895  0.00  0.00    +0.054 A 
ATOM      3  C   LIG    1       28.543 -20.622   7.488  0.00  0.00    -0.014 A 
ATOM      4  C   LIG    1       28.008 -20.004   6.339  0.00  0.00    -0.017 A 
ATOM      5  C   LIG    1       26.714 -20.323   5.910  0.00  0.00    +0.013 A 
ATOM      6  C   LIG    1       25.917 -21.236   6.615  0.00  0.00    -0.033 A 
ATOM      7  C   LIG    1       26.451 -21.850   7.756  0.00  0.00    +0.005 A 
ATOM      8  C   LIG    1       28.773 -19.068   5.638  0.00  0.00    +0.012 A 
ATOM      9  C   LIG    1       27.748 -21.550   8.185  0.00  0.00    +0.009 A 
ATOM     10  C   LIG    1       30.064 -18.745   6.055  0.00  0.00    +0.046 A 
ENDROOT
BRANCH   1  12
ATOM     11  C   LIG    1       31.989 -18.071   8.619  0.00  0.00    +0.277 C 
ATOM     12  O   LIG    1       31.872 -19.123   7.664  0.00  0.00    -0.495 OA
ENDBRANCH   1  12
BRANCH   6  13
ATOM     13  C   LIG    1       24.485 -21.515   6.178  0.00  0.00    +0.124 C 
ATOM     14  C   LIG    1       23.485 -20.908   7.168  0.00  0.00    +0.024 C 
BRANCH  13  15
ATOM     15  C   LIG    1       24.173 -23.000   5.962  0.00  0.00    +0.312 C 
ATOM     16  O   LIG    1       23.381 -23.632   6.646  0.00  0.00    -0.250 OA
BRANCH  15  17
ATOM     17  O   LIG    1       24.782 -23.576   4.898  0.00  0.00    -0.480 OA
ATOM     18  H   LIG    1       25.735 -23.760   5.021  0.00  0.00    +0.295 HD
ENDBRANCH  15  17
ENDBRANCH  13  15
ENDBRANCH   6  13
TORSDOF 4
ENDMDL
MODEL 4
REMARK VINA RESULT:      -8.2      1.526      6.509
REMARK  Name = *****
REMARK                            x       y       z     vdW  Elec       q    Type
REMARK                         _______ _______ _______ _____ _____    ______ ____
ROOT
ATOM      1  C   LIG    1       29.837 -19.768   6.685  0.00  0.00    +0.121 A 
ATOM      2  C   LIG    1       29.119 -20.500   7.637  0.00  0.00    +0.054 A 
ATOM      3  C   LIG    1       27.740 -20.743   7.478  0.00  0.00    -0.014 A 
ATOM      4  C   LIG    1       27.086 -20.236   6.336  0.00  0.00    -0.017 A 
ATOM      5  C   LIG    1       25.718 -20.469   6.151  0.00  0.00    +0.013 A 
ATOM      6  C   LIG    1       24.966 -21.183   7.096  0.00  0.00    -0.033 A 
ATOM      7  C   LIG    1       25.618 -21.684   8.230  0.00  0.00    +0.005 A 
ATOM      8  C   LIG    1       27.809 -19.497   5.396  0.00  0.00    +0.012 A 
ATOM      9  C   LIG    1       26.988 -21.471   8.417  0.00  0.00    +0.009 A 
ATOM     10  C   LIG    1       29.173 -19.262   5.569  0.00  0.00    +0.046 A 
ENDROOT
BRANCH   1  12
ATOM     11  C   LIG    1       31.499 -18.814   8.081  0.00  0.00    +0.277 C 
ATOM     12  O   LIG    1       31.173 -19.606   6.942  0.00  0.00    -0.495 OA
ENDBRANCH   1  12
BRANCH   6  13
ATOM     13  C   LIG    1       23.465 -21.362   6.917  0.00  0.00    +0.124 C 
ATOM     14  C   LIG    1       23.090 -22.848   6.909  0.00  0.00    +0.024 C 
BRANCH  13  15
ATOM     15  C   LIG    1       22.895 -20.672   5.672  0.00  0.00    +0.312 C 
ATOM     16  O   LIG    1       22.542 -19.503   5.647  0.00  0.00    -0.250 OA
BRANCH  15  17
ATOM     17  O   LIG    1       22.869 -21.428   4.547  0.00  0.00    -0.480 OA
ATOM     18  H   LIG    1       22.808 -22.391   4.701  0.00  0.00    +0.295 HD
ENDBRANCH  15  17
ENDBRANCH  13  15
ENDBRANCH   6  13
TORSDOF 4
ENDMDL
MODEL 5
REMARK VINA RESULT:      -8.1      4.628      5.942
REMARK  Name = *****
REMARK                            x       y       z     vdW  Elec       q    Type
REMARK                         _______ _______ _______ _____ _____    ______ ____
ROOT
ATOM      1  C   LIG    1       24.674 -27.207   5.994  0.00  0.00    +0.121 A 
ATOM      2  C   LIG    1       23.738 -26.185   6.192  0.00  0.00    +0.054 A 
ATOM      3  C   LIG    1       24.150 -24.856   6.413  0.00  0.00    -0.014 A 
ATOM      4  C   LIG    1       25.530 -24.564   6.430  0.00  0.00    -0.017 A 
ATOM      5  C   LIG    1       25.966 -23.250   6.641  0.00  0.00    +0.013 A 
ATOM      6  C   LIG    1       25.054 -22.207   6.862  0.00  0.00    -0.033 A 
ATOM      7  C   LIG    1       23.684 -22.499   6.845  0.00  0.00    +0.005 A 
ATOM      8  C   LIG    1       26.457 -25.592   6.242  0.00  0.00    +0.012 A 
ATOM      9  C   LIG    1       23.237 -23.806   6.620  0.00  0.00    +0.009 A 
ATOM     10  C   LIG    1       26.033 -26.904   6.027  0.00  0.00    +0.046 A 
ENDROOT
BRANCH   1  12
ATOM     11  C   LIG    1       25.097 -29.520   5.690  0.00  0.00    +0.277 C 
ATOM     12  O   LIG    1       24.153 -28.456   5.778  0.00  0.00    -0.495 OA
ENDBRANCH   1  12
BRANCH   6  13
ATOM     13  C   LIG    1       25.547 -20.798   7.164  0.00  0.00    +0.124 C 
ATOM     14  C   LIG    1       26.479 -20.297   6.055  0.00  0.00    +0.024 C 
BRANCH  13  15
ATOM     15  C   LIG    1       26.231 -20.652   8.529  0.00  0.00    +0.312 C 
ATOM     16  O   LIG    1       25.733 -21.026   9.579  0.00  0.00    -0.250 OA
BRANCH  15  17
ATOM     17  O   LIG    1       27.485 -20.139   8.500  0.00  0.00    -0.480 OA
ATOM     18  H   LIG    1       27.602 -19.376   7.900  0.00  0.00    +0.295 HD
ENDBRANCH  15  17
ENDBRANCH  13  15
ENDBRANCH   6  13
TORSDOF 4
ENDMDL
MODEL 6
REMARK VINA RESULT:      -7.9      1.738      6.182
REMARK  Name = *****
REMARK                            x       y       z     vdW  Elec       q    Type
REMARK                         _______ _______ _______ _____ _____    ______ ____
ROOT
ATOM      1  C   LIG    1       29.870 -19.897   6.864  0.00  0.00    +0.121 A 
ATOM      2  C   LIG    1       29.027 -19.479   5.826  0.00  0.00    +0.054 A 
ATOM      3  C   LIG    1       27.696 -19.933   5.745  0.00  0.00    -0.014 A 
ATOM      4  C   LIG    1       27.216 -20.819   6.733  0.00  0.00    -0.017 A 
ATOM      5  C   LIG    1       25.894 -21.279   6.679  0.00  0.00    +0.013 A 
ATOM      6  C   LIG    1       25.031 -20.894   5.642  0.00  0.00    -0.033 A 
ATOM      7  C   LIG    1       25.510 -20.014   4.663  0.00  0.00    +0.005 A 
ATOM      8  C   LIG    1       28.067 -21.239   7.758  0.00  0.00    +0.012 A 
ATOM      9  C   LIG    1       26.824 -19.536   4.716  0.00  0.00    +0.009 A 
ATOM     10  C   LIG    1       29.384 -20.784   7.823  0.00  0.00    +0.046 A 
ENDROOT
BRANCH   1  12
ATOM     11  C   LIG    1       31.567 -18.725   8.033  0.00  0.00    +0.277 C 
ATOM     12  O   LIG    1       31.139 -19.382   6.843  0.00  0.00    -0.495 OA
ENDBRANCH   1  12
BRANCH   6  13
ATOM     13  C   LIG    1       23.621 -21.462   5.557  0.00  0.00    +0.124 C 
ATOM     14  C   LIG    1       22.603 -20.353   5.268  0.00  0.00    +0.024 C 
BRANCH  13  15
ATOM     15  C   LIG    1       23.190 -22.260   6.793  0.00  0.00    +0.312 C 
ATOM     16  O   LIG    1       23.006 -21.759   7.892  0.00  0.00    -0.250 OA
BRANCH  15  17
ATOM     17  O   LIG    1       22.947 -23.576   6.582  0.00  0.00    -0.480 OA
ATOM     18  H   LIG    1       22.618 -24.063   7.364  0.00  0.00    +0.295 HD
ENDBRANCH  15  17
ENDBRANCH  13  15
ENDBRANCH   6  13
TORSDOF 4
ENDMDL
MODEL 7
REMARK VINA RESULT:      -7.6      1.916      6.190
REMARK  Name = *****
REMARK                            x       y       z     vdW  Elec       q    Type
REMARK                         _______ _______ _______ _____ _____    ______ ____
ROOT
ATOM      1  C   LIG    1       30.992 -19.408   7.681  0.00  0.00    +0.121 A 
ATOM      2  C   LIG    1       29.943 -19.082   6.813  0.00  0.00    +0.054 A 
ATOM      3  C   LIG    1       28.783 -19.879   6.745  0.00  0.00    -0.014 A 
ATOM      4  C   LIG    1       28.689 -21.019   7.571  0.00  0.00    -0.017 A 
ATOM      5  C   LIG    1       27.544 -21.824   7.526  0.00  0.00    +0.013 A 
ATOM      6  C   LIG    1       26.484 -21.535   6.654  0.00  0.00    -0.033 A 
ATOM      7  C   LIG    1       26.580 -20.403   5.834  0.00  0.00    +0.005 A 
ATOM      8  C   LIG    1       29.746 -21.342   8.425  0.00  0.00    +0.012 A 
ATOM      9  C   LIG    1       27.713 -19.583   5.882  0.00  0.00    +0.009 A 
ATOM     10  C   LIG    1       30.889 -20.545   8.480  0.00  0.00    +0.046 A 
ENDROOT
BRANCH   1  12
ATOM     11  C   LIG    1       32.156 -17.650   8.766  0.00  0.00    +0.277 C 
ATOM     12  O   LIG    1       32.062 -18.553   7.667  0.00  0.00    -0.495 OA
ENDBRANCH   1  12
BRANCH   6  13
ATOM     13  C   LIG    1       25.280 -22.463   6.564  0.00  0.00    +0.124 C 
ATOM     14  C   LIG    1       25.622 -23.854   7.109  0.00  0.00    +0.024 C 
BRANCH  13  15
ATOM     15  C   LIG    1       24.684 -22.583   5.157  0.00  0.00    +0.312 C 
ATOM     16  O   LIG    1       24.136 -21.662   4.572  0.00  0.00    -0.250 OA
BRANCH  15  17
ATOM     17  O   LIG    1       24.866 -23.780   4.548  0.00  0.00    -0.480 OA
ATOM     18  H   LIG    1       25.733 -23.890   4.110  0.00  0.00    +0.295 HD
ENDBRANCH  15  17
ENDBRANCH  13  15
ENDBRANCH   6  13
TORSDOF 4
ENDMDL
MODEL 8
REMARK VINA RESULT:      -7.6      1.510      2.431
REMARK  Name = *****
REMARK                            x       y       z     vdW  Elec       q    Type
REMARK                         _______ _______ _______ _____ _____    ______ ____
ROOT
ATOM      1  C   LIG    1       23.954 -20.400   5.353  0.00  0.00    +0.121 A 
ATOM      2  C   LIG    1       24.470 -20.699   6.620  0.00  0.00    +0.054 A 
ATOM      3  C   LIG    1       25.850 -20.602   6.884  0.00  0.00    -0.014 A 
ATOM      4  C   LIG    1       26.715 -20.194   5.847  0.00  0.00    -0.017 A 
ATOM      5  C   LIG    1       28.091 -20.083   6.086  0.00  0.00    +0.013 A 
ATOM      6  C   LIG    1       28.640 -20.394   7.338  0.00  0.00    -0.033 A 
ATOM      7  C   LIG    1       27.779 -20.799   8.366  0.00  0.00    +0.005 A 
ATOM      8  C   LIG    1       26.193 -19.909   4.583  0.00  0.00    +0.012 A 
ATOM      9  C   LIG    1       26.401 -20.898   8.143  0.00  0.00    +0.009 A 
ATOM     10  C   LIG    1       24.825 -20.012   4.336  0.00  0.00    +0.046 A 
ENDROOT
BRANCH   1  12
ATOM     11  C   LIG    1       21.932 -19.434   4.581  0.00  0.00    +0.277 C 
ATOM     12  O   LIG    1       22.596 -20.520   5.220  0.00  0.00    -0.495 OA
ENDBRANCH   1  12
BRANCH   6  13
ATOM     13  C   LIG    1       30.146 -20.341   7.559  0.00  0.00    +0.124 C 
ATOM     14  C   LIG    1       30.574 -21.334   8.645  0.00  0.00    +0.024 C 
BRANCH  13  15
ATOM     15  C   LIG    1       30.683 -18.943   7.887  0.00  0.00    +0.312 C 
ATOM     16  O   LIG    1       30.040 -18.093   8.483  0.00  0.00    -0.250 OA
BRANCH  15  17
ATOM     17  O   LIG    1       31.972 -18.717   7.535  0.00  0.00    -0.480 OA
ATOM     18  H   LIG    1       32.598 -19.421   7.796  0.00  0.00    +0.295 HD
ENDBRANCH  15  17
ENDBRANCH  13  15
ENDBRANCH   6  13
TORSDOF 4
ENDMDL
MODEL 9
REMARK VINA RESULT:      -7.6      1.253      2.193
REMARK  Name = *****
REMARK                            x       y       z     vdW  Elec       q    Type
REMARK                         _______ _______ _______ _____ _____    ______ ____
ROOT
ATOM      1  C   LIG    1       23.942 -21.342   5.870  0.00  0.00    +0.121 A 
ATOM      2  C   LIG    1       24.536 -21.242   7.135  0.00  0.00    +0.054 A 
ATOM      3  C   LIG    1       25.853 -20.766   7.283  0.00  0.00    -0.014 A 
ATOM      4  C   LIG    1       26.574 -20.385   6.131  0.00  0.00    -0.017 A 
ATOM      5  C   LIG    1       27.883 -19.903   6.252  0.00  0.00    +0.013 A 
ATOM      6  C   LIG    1       28.513 -19.810   7.502  0.00  0.00    -0.033 A 
ATOM      7  C   LIG    1       27.795 -20.189   8.644  0.00  0.00    +0.005 A 
ATOM      8  C   LIG    1       25.977 -20.499   4.873  0.00  0.00    +0.012 A 
ATOM      9  C   LIG    1       26.481 -20.657   8.536  0.00  0.00    +0.009 A 
ATOM     10  C   LIG    1       24.673 -20.975   4.742  0.00  0.00    +0.046 A 
ENDROOT
BRANCH   1  12
ATOM     11  C   LIG    1       22.412 -23.005   6.586  0.00  0.00    +0.277 C 
ATOM     12  O   LIG    1       22.654 -21.807   5.853  0.00  0.00    -0.495 OA
ENDBRANCH   1  12
BRANCH   6  13
ATOM     13  C   LIG    1       29.962 -19.354   7.608  0.00  0.00    +0.124 C 
ATOM     14  C   LIG    1       30.532 -19.026   6.223  0.00  0.00    +0.024 C 
BRANCH  13  15
ATOM     15  C   LIG    1       30.880 -20.347   8.330  0.00  0.00    +0.312 C 
ATOM     16  O   LIG    1       31.781 -20.010   9.084  0.00  0.00    -0.250 OA
BRANCH  15  17
ATOM     17  O   LIG    1       30.588 -21.656   8.141  0.00  0.00    -0.480 OA
ATOM     18  H   LIG    1       30.859 -22.247   8.872  0.00  0.00    +0.295 HD
ENDBRANCH  15  17
ENDBRANCH  13  15
ENDBRANCH   6  13
TORSDOF 4
ENDMDL
