MODEL 1
REMARK VINA RESULT:      -7.9      0.000      0.000
REMARK  Name = *****
REMARK                            x       y       z     vdW  Elec       q    Type
REMARK                         _______ _______ _______ _____ _____    ______ ____
ROOT
ATOM      1  C   LIG    1       24.075 -26.190   5.555  0.00  0.00    +0.044 C 
ATOM      2  C   LIG    1       25.280 -26.122   6.456  0.00  0.00    -0.050 C 
ATOM      3  C   LIG    1       25.902 -25.003   6.886  0.00  0.00    +0.003 C 
ENDROOT
BRANCH   2   4
ATOM      4  C   LIG    1       25.793 -27.426   6.843  0.00  0.00    +0.003 C 
ATOM      5  C   LIG    1       25.020 -28.400   7.349  0.00  0.00    +0.004 C 
BRANCH   5   6
ATOM      6  C   LIG    1       25.509 -29.709   7.768  0.00  0.00    -0.043 C 
ATOM      7  C   LIG    1       25.889 -29.844   9.260  0.00  0.00    -0.010 C 
ATOM      8  C   LIG    1       26.727 -28.651   9.778  0.00  0.00    +0.016 C 
ATOM      9  C   LIG    1       24.597 -29.923  10.104  0.00  0.00    +0.016 C 
ATOM     10  C   LIG    1       26.744 -31.117   9.504  0.00  0.00    +0.011 C 
ATOM     11  C   LIG    1       26.175 -32.339   8.801  0.00  0.00    +0.005 C 
ATOM     12  C   LIG    1       26.119 -32.108   7.297  0.00  0.00    +0.031 C 
ATOM     13  C   LIG    1       25.640 -30.733   6.887  0.00  0.00    -0.069 C 
ATOM     14  C   LIG    1       25.356 -30.637   5.405  0.00  0.00    +0.039 C 
ENDBRANCH   5   6
ENDBRANCH   2   4
BRANCH   3  15
ATOM     15  C   LIG    1       25.526 -23.649   6.567  0.00  0.00    +0.001 C 
ATOM     16  C   LIG    1       24.592 -22.955   7.242  0.00  0.00    +0.003 C 
BRANCH  16  17
ATOM     17  C   LIG    1       24.214 -21.594   6.902  0.00  0.00    -0.052 C 
ATOM     18  C   LIG    1       24.921 -20.523   7.326  0.00  0.00    +0.004 C 
ATOM     19  C   LIG    1       22.952 -21.411   6.096  0.00  0.00    +0.043 C 
BRANCH  18  20
ATOM     20  C   LIG    1       26.214 -20.541   8.077  0.00  0.00    +0.183 C 
BRANCH  20  21
ATOM     21  O   LIG    1       25.931 -20.514   9.471  0.00  0.00    -0.391 OA
ATOM     22  H   LIG    1       25.562 -19.637   9.670  0.00  0.00    +0.210 HD
ENDBRANCH  20  21
ENDBRANCH  18  20
ENDBRANCH  16  17
ENDBRANCH   3  15
TORSDOF 6
ENDMDL
MODEL 2
REMARK VINA RESULT:      -7.7      5.827      9.146
REMARK  Name = *****
REMARK                            x       y       z     vdW  Elec       q    Type
REMARK                         _______ _______ _______ _____ _____    ______ ____
ROOT
ATOM      1  C   LIG    1       29.841 -19.826   6.473  0.00  0.00    +0.044 C 
ATOM      2  C   LIG    1       28.914 -19.506   7.618  0.00  0.00    -0.050 C 
ATOM      3  C   LIG    1       29.218 -18.792   8.723  0.00  0.00    +0.003 C 
ENDROOT
BRANCH   2   4
ATOM      4  C   LIG    1       27.586 -20.077   7.471  0.00  0.00    +0.003 C 
ATOM      5  C   LIG    1       27.042 -20.377   6.280  0.00  0.00    +0.004 C 
BRANCH   5   6
ATOM      6  C   LIG    1       25.704 -20.928   6.099  0.00  0.00    -0.043 C 
ATOM      7  C   LIG    1       25.286 -22.033   7.094  0.00  0.00    -0.010 C 
ATOM      8  C   LIG    1       26.391 -23.094   7.315  0.00  0.00    +0.016 C 
ATOM      9  C   LIG    1       24.966 -21.387   8.461  0.00  0.00    +0.016 C 
ATOM     10  C   LIG    1       24.038 -22.802   6.582  0.00  0.00    +0.011 C 
ATOM     11  C   LIG    1       22.958 -21.869   6.061  0.00  0.00    +0.005 C 
ATOM     12  C   LIG    1       23.489 -21.037   4.902  0.00  0.00    +0.031 C 
ATOM     13  C   LIG    1       24.891 -20.503   5.098  0.00  0.00    -0.069 C 
ATOM     14  C   LIG    1       25.274 -19.482   4.051  0.00  0.00    +0.039 C 
ENDBRANCH   5   6
ENDBRANCH   2   4
BRANCH   3  15
ATOM     15  C   LIG    1       30.493 -18.188   9.018  0.00  0.00    +0.001 C 
ATOM     16  C   LIG    1       30.667 -17.224   9.939  0.00  0.00    +0.003 C 
BRANCH  16  17
ATOM     17  C   LIG    1       31.957 -16.616  10.219  0.00  0.00    -0.052 C 
ATOM     18  C   LIG    1       32.294 -16.175  11.451  0.00  0.00    +0.004 C 
ATOM     19  C   LIG    1       32.900 -16.437   9.055  0.00  0.00    +0.043 C 
BRANCH  18  20
ATOM     20  C   LIG    1       31.498 -16.329  12.708  0.00  0.00    +0.183 C 
BRANCH  20  21
ATOM     21  O   LIG    1       31.835 -15.267  13.593  0.00  0.00    -0.391 OA
ATOM     22  H   LIG    1       32.805 -15.240  13.649  0.00  0.00    +0.210 HD
ENDBRANCH  20  21
ENDBRANCH  18  20
ENDBRANCH  16  17
ENDBRANCH   3  15
TORSDOF 6
ENDMDL
MODEL 3
REMARK VINA RESULT:      -7.6      0.576      2.163
REMARK  Name = *****
REMARK                            x       y       z     vdW  Elec       q    Type
REMARK                         _______ _______ _______ _____ _____    ______ ____
ROOT
ATOM      1  C   LIG    1       24.229 -26.348   5.346  0.00  0.00    +0.044 C 
ATOM      2  C   LIG    1       25.314 -26.240   6.385  0.00  0.00    -0.050 C 
ATOM      3  C   LIG    1       25.832 -25.101   6.893  0.00  0.00    +0.003 C 
ENDROOT
BRANCH   2   4
ATOM      4  C   LIG    1       25.834 -27.525   6.822  0.00  0.00    +0.003 C 
ATOM      5  C   LIG    1       25.067 -28.480   7.372  0.00  0.00    +0.004 C 
BRANCH   5   6
ATOM      6  C   LIG    1       25.563 -29.769   7.842  0.00  0.00    -0.043 C 
ATOM      7  C   LIG    1       25.156 -30.999   7.000  0.00  0.00    -0.010 C 
ATOM      8  C   LIG    1       23.659 -30.993   6.609  0.00  0.00    +0.016 C 
ATOM      9  C   LIG    1       25.989 -31.017   5.699  0.00  0.00    +0.016 C 
ATOM     10  C   LIG    1       25.397 -32.317   7.785  0.00  0.00    +0.011 C 
ATOM     11  C   LIG    1       26.753 -32.340   8.471  0.00  0.00    +0.005 C 
ATOM     12  C   LIG    1       26.867 -31.191   9.463  0.00  0.00    +0.031 C 
ATOM     13  C   LIG    1       26.317 -29.872   8.966  0.00  0.00    -0.069 C 
ATOM     14  C   LIG    1       26.680 -28.715   9.869  0.00  0.00    +0.039 C 
ENDBRANCH   5   6
ENDBRANCH   2   4
BRANCH   3  15
ATOM     15  C   LIG    1       25.437 -23.760   6.540  0.00  0.00    +0.001 C 
ATOM     16  C   LIG    1       24.639 -22.991   7.302  0.00  0.00    +0.003 C 
BRANCH  16  17
ATOM     17  C   LIG    1       24.240 -21.645   6.929  0.00  0.00    -0.052 C 
ATOM     18  C   LIG    1       24.932 -20.553   7.322  0.00  0.00    +0.004 C 
ATOM     19  C   LIG    1       22.973 -21.502   6.122  0.00  0.00    +0.043 C 
BRANCH  18  20
ATOM     20  C   LIG    1       26.227 -20.532   8.069  0.00  0.00    +0.183 C 
BRANCH  20  21
ATOM     21  O   LIG    1       25.948 -20.485   9.463  0.00  0.00    -0.391 OA
ATOM     22  H   LIG    1       25.874 -21.405   9.771  0.00  0.00    +0.210 HD
ENDBRANCH  20  21
ENDBRANCH  18  20
ENDBRANCH  16  17
ENDBRANCH   3  15
TORSDOF 6
ENDMDL
MODEL 4
REMARK VINA RESULT:      -7.5      5.809      9.371
REMARK  Name = *****
REMARK                            x       y       z     vdW  Elec       q    Type
REMARK                         _______ _______ _______ _____ _____    ______ ____
ROOT
ATOM      1  C   LIG    1       30.396 -21.308   8.563  0.00  0.00    +0.044 C 
ATOM      2  C   LIG    1       29.658 -20.092   8.069  0.00  0.00    -0.050 C 
ATOM      3  C   LIG    1       29.819 -18.822   8.502  0.00  0.00    +0.003 C 
ENDROOT
BRANCH   2   4
ATOM      4  C   LIG    1       28.666 -20.385   7.048  0.00  0.00    +0.003 C 
ATOM      5  C   LIG    1       27.343 -20.371   7.281  0.00  0.00    +0.004 C 
BRANCH   5   6
ATOM      6  C   LIG    1       26.326 -20.683   6.284  0.00  0.00    -0.043 C 
ATOM      7  C   LIG    1       25.348 -21.823   6.649  0.00  0.00    -0.010 C 
ATOM      8  C   LIG    1       26.061 -23.059   7.247  0.00  0.00    +0.016 C 
ATOM      9  C   LIG    1       24.336 -21.303   7.694  0.00  0.00    +0.016 C 
ATOM     10  C   LIG    1       24.583 -22.324   5.394  0.00  0.00    +0.011 C 
ATOM     11  C   LIG    1       24.057 -21.180   4.544  0.00  0.00    +0.005 C 
ATOM     12  C   LIG    1       25.206 -20.306   4.059  0.00  0.00    +0.031 C 
ATOM     13  C   LIG    1       26.265 -20.022   5.100  0.00  0.00    -0.069 C 
ATOM     14  C   LIG    1       27.240 -18.954   4.659  0.00  0.00    +0.039 C 
ENDBRANCH   5   6
ENDBRANCH   2   4
BRANCH   3  15
ATOM     15  C   LIG    1       30.740 -18.384   9.520  0.00  0.00    +0.001 C 
ATOM     16  C   LIG    1       30.594 -17.244  10.218  0.00  0.00    +0.003 C 
BRANCH  16  17
ATOM     17  C   LIG    1       31.537 -16.809  11.235  0.00  0.00    -0.052 C 
ATOM     18  C   LIG    1       32.541 -15.946  10.964  0.00  0.00    +0.004 C 
ATOM     19  C   LIG    1       31.390 -17.409  12.612  0.00  0.00    +0.043 C 
BRANCH  18  20
ATOM     20  C   LIG    1       32.783 -15.227   9.676  0.00  0.00    +0.183 C 
BRANCH  20  21
ATOM     21  O   LIG    1       32.851 -16.184   8.626  0.00  0.00    -0.391 OA
ATOM     22  H   LIG    1       31.936 -16.411   8.387  0.00  0.00    +0.210 HD
ENDBRANCH  20  21
ENDBRANCH  18  20
ENDBRANCH  16  17
ENDBRANCH   3  15
TORSDOF 6
ENDMDL
MODEL 5
REMARK VINA RESULT:      -7.5      1.264      1.758
REMARK  Name = *****
REMARK                            x       y       z     vdW  Elec       q    Type
REMARK                         _______ _______ _______ _____ _____    ______ ____
ROOT
ATOM      1  C   LIG    1       24.051 -25.851   5.766  0.00  0.00    +0.044 C 
ATOM      2  C   LIG    1       25.349 -25.982   6.520  0.00  0.00    -0.050 C 
ATOM      3  C   LIG    1       26.134 -24.971   6.951  0.00  0.00    +0.003 C 
ENDROOT
BRANCH   2   4
ATOM      4  C   LIG    1       25.754 -27.358   6.749  0.00  0.00    +0.003 C 
ATOM      5  C   LIG    1       24.972 -28.264   7.359  0.00  0.00    +0.004 C 
BRANCH   5   6
ATOM      6  C   LIG    1       25.360 -29.645   7.624  0.00  0.00    -0.043 C 
ATOM      7  C   LIG    1       25.742 -29.972   9.085  0.00  0.00    -0.010 C 
ATOM      8  C   LIG    1       26.677 -28.913   9.715  0.00  0.00    +0.016 C 
ATOM      9  C   LIG    1       24.456 -30.043   9.939  0.00  0.00    +0.016 C 
ATOM     10  C   LIG    1       26.496 -31.327   9.174  0.00  0.00    +0.011 C 
ATOM     11  C   LIG    1       25.825 -32.416   8.352  0.00  0.00    +0.005 C 
ATOM     12  C   LIG    1       25.774 -32.018   6.884  0.00  0.00    +0.031 C 
ATOM     13  C   LIG    1       25.402 -30.573   6.634  0.00  0.00    -0.069 C 
ATOM     14  C   LIG    1       25.113 -30.292   5.177  0.00  0.00    +0.039 C 
ENDBRANCH   5   6
ENDBRANCH   2   4
BRANCH   3  15
ATOM     15  C   LIG    1       25.877 -23.564   6.776  0.00  0.00    +0.001 C 
ATOM     16  C   LIG    1       25.495 -22.746   7.773  0.00  0.00    +0.003 C 
BRANCH  16  17
ATOM     17  C   LIG    1       25.228 -21.330   7.581  0.00  0.00    -0.052 C 
ATOM     18  C   LIG    1       24.106 -20.885   6.975  0.00  0.00    +0.004 C 
ATOM     19  C   LIG    1       26.291 -20.361   8.037  0.00  0.00    +0.043 C 
BRANCH  18  20
ATOM     20  C   LIG    1       22.942 -21.709   6.523  0.00  0.00    +0.183 C 
BRANCH  20  21
ATOM     21  O   LIG    1       23.124 -22.039   5.151  0.00  0.00    -0.391 OA
ATOM     22  H   LIG    1       23.656 -21.328   4.755  0.00  0.00    +0.210 HD
ENDBRANCH  20  21
ENDBRANCH  18  20
ENDBRANCH  16  17
ENDBRANCH   3  15
TORSDOF 6
ENDMDL
MODEL 6
REMARK VINA RESULT:      -7.2      1.448      2.832
REMARK  Name = *****
REMARK                            x       y       z     vdW  Elec       q    Type
REMARK                         _______ _______ _______ _____ _____    ______ ____
ROOT
ATOM      1  C   LIG    1       25.178 -25.670   4.610  0.00  0.00    +0.044 C 
ATOM      2  C   LIG    1       25.686 -25.894   6.010  0.00  0.00    -0.050 C 
ATOM      3  C   LIG    1       25.935 -24.944   6.937  0.00  0.00    +0.003 C 
ENDROOT
BRANCH   2   4
ATOM      4  C   LIG    1       25.941 -27.290   6.323  0.00  0.00    +0.003 C 
ATOM      5  C   LIG    1       25.287 -27.960   7.285  0.00  0.00    +0.004 C 
BRANCH   5   6
ATOM      6  C   LIG    1       25.537 -29.353   7.638  0.00  0.00    -0.043 C 
ATOM      7  C   LIG    1       24.982 -30.410   6.658  0.00  0.00    -0.010 C 
ATOM      8  C   LIG    1       23.530 -30.114   6.213  0.00  0.00    +0.016 C 
ATOM      9  C   LIG    1       25.871 -30.444   5.395  0.00  0.00    +0.016 C 
ATOM     10  C   LIG    1       24.959 -31.819   7.311  0.00  0.00    +0.011 C 
ATOM     11  C   LIG    1       26.252 -32.137   8.043  0.00  0.00    +0.005 C 
ATOM     12  C   LIG    1       26.498 -31.123   9.152  0.00  0.00    +0.031 C 
ATOM     13  C   LIG    1       26.201 -29.689   8.774  0.00  0.00    -0.069 C 
ATOM     14  C   LIG    1       26.699 -28.702   9.805  0.00  0.00    +0.039 C 
ENDBRANCH   5   6
ENDBRANCH   2   4
BRANCH   3  15
ATOM     15  C   LIG    1       25.754 -23.524   6.765  0.00  0.00    +0.001 C 
ATOM     16  C   LIG    1       25.324 -22.702   7.739  0.00  0.00    +0.003 C 
BRANCH  16  17
ATOM     17  C   LIG    1       25.136 -21.274   7.548  0.00  0.00    -0.052 C 
ATOM     18  C   LIG    1       24.103 -20.772   6.836  0.00  0.00    +0.004 C 
ATOM     19  C   LIG    1       26.183 -20.358   8.132  0.00  0.00    +0.043 C 
BRANCH  18  20
ATOM     20  C   LIG    1       22.962 -21.539   6.247  0.00  0.00    +0.183 C 
BRANCH  20  21
ATOM     21  O   LIG    1       23.156 -21.636   4.842  0.00  0.00    -0.391 OA
ATOM     22  H   LIG    1       22.555 -22.329   4.518  0.00  0.00    +0.210 HD
ENDBRANCH  20  21
ENDBRANCH  18  20
ENDBRANCH  16  17
ENDBRANCH   3  15
TORSDOF 6
ENDMDL
MODEL 7
REMARK VINA RESULT:      -7.0      4.623      8.003
REMARK  Name = *****
REMARK                            x       y       z     vdW  Elec       q    Type
REMARK                         _______ _______ _______ _____ _____    ______ ____
ROOT
ATOM      1  C   LIG    1       29.561 -21.833   7.989  0.00  0.00    +0.044 C 
ATOM      2  C   LIG    1       28.414 -20.858   8.044  0.00  0.00    -0.050 C 
ATOM      3  C   LIG    1       28.504 -19.514   8.144  0.00  0.00    +0.003 C 
ENDROOT
BRANCH   2   4
ATOM      4  C   LIG    1       27.107 -21.492   8.012  0.00  0.00    +0.003 C 
ATOM      5  C   LIG    1       26.521 -21.913   6.879  0.00  0.00    +0.004 C 
BRANCH   5   6
ATOM      6  C   LIG    1       25.201 -22.531   6.812  0.00  0.00    -0.043 C 
ATOM      7  C   LIG    1       23.997 -21.565   6.881  0.00  0.00    -0.010 C 
ATOM      8  C   LIG    1       24.147 -20.494   7.988  0.00  0.00    +0.016 C 
ATOM      9  C   LIG    1       23.857 -20.835   5.527  0.00  0.00    +0.016 C 
ATOM     10  C   LIG    1       22.684 -22.333   7.192  0.00  0.00    +0.011 C 
ATOM     11  C   LIG    1       22.539 -23.592   6.353  0.00  0.00    +0.005 C 
ATOM     12  C   LIG    1       23.697 -24.543   6.618  0.00  0.00    +0.031 C 
ATOM     13  C   LIG    1       25.052 -23.877   6.717  0.00  0.00    -0.069 C 
ATOM     14  C   LIG    1       26.189 -24.873   6.721  0.00  0.00    +0.039 C 
ENDBRANCH   5   6
ENDBRANCH   2   4
BRANCH   3  15
ATOM     15  C   LIG    1       29.724 -18.749   8.211  0.00  0.00    +0.001 C 
ATOM     16  C   LIG    1       30.262 -18.302   9.360  0.00  0.00    +0.003 C 
BRANCH  16  17
ATOM     17  C   LIG    1       31.487 -17.522   9.412  0.00  0.00    -0.052 C 
ATOM     18  C   LIG    1       31.751 -16.661  10.419  0.00  0.00    +0.004 C 
ATOM     19  C   LIG    1       32.445 -17.666   8.254  0.00  0.00    +0.043 C 
BRANCH  18  20
ATOM     20  C   LIG    1       30.936 -16.449  11.655  0.00  0.00    +0.183 C 
BRANCH  20  21
ATOM     21  O   LIG    1       31.714 -15.715  12.593  0.00  0.00    -0.391 OA
ATOM     22  H   LIG    1       32.515 -16.237  12.769  0.00  0.00    +0.210 HD
ENDBRANCH  20  21
ENDBRANCH  18  20
ENDBRANCH  16  17
ENDBRANCH   3  15
TORSDOF 6
ENDMDL
MODEL 8
REMARK VINA RESULT:      -7.0      1.108      2.494
REMARK  Name = *****
REMARK                            x       y       z     vdW  Elec       q    Type
REMARK                         _______ _______ _______ _____ _____    ______ ____
ROOT
ATOM      1  C   LIG    1       26.340 -25.924   5.923  0.00  0.00    +0.044 C 
ATOM      2  C   LIG    1       24.910 -26.099   6.366  0.00  0.00    -0.050 C 
ATOM      3  C   LIG    1       23.991 -25.122   6.522  0.00  0.00    +0.003 C 
ENDROOT
BRANCH   2   4
ATOM      4  C   LIG    1       24.558 -27.476   6.669  0.00  0.00    +0.003 C 
ATOM      5  C   LIG    1       25.396 -28.335   7.271  0.00  0.00    +0.004 C 
BRANCH   5   6
ATOM      6  C   LIG    1       25.080 -29.728   7.566  0.00  0.00    -0.043 C 
ATOM      7  C   LIG    1       24.645 -30.593   6.362  0.00  0.00    -0.010 C 
ATOM      8  C   LIG    1       23.617 -29.883   5.450  0.00  0.00    +0.016 C 
ATOM      9  C   LIG    1       25.888 -30.930   5.508  0.00  0.00    +0.016 C 
ATOM     10  C   LIG    1       23.972 -31.910   6.836  0.00  0.00    +0.011 C 
ATOM     11  C   LIG    1       24.748 -32.585   7.954  0.00  0.00    +0.005 C 
ATOM     12  C   LIG    1       24.850 -31.664   9.162  0.00  0.00    +0.031 C 
ATOM     13  C   LIG    1       25.146 -30.218   8.830  0.00  0.00    -0.069 C 
ATOM     14  C   LIG    1       25.490 -29.401  10.055  0.00  0.00    +0.039 C 
ENDBRANCH   5   6
ENDBRANCH   2   4
BRANCH   3  15
ATOM     15  C   LIG    1       24.200 -23.716   6.286  0.00  0.00    +0.001 C 
ATOM     16  C   LIG    1       23.645 -22.743   7.031  0.00  0.00    +0.003 C 
BRANCH  16  17
ATOM     17  C   LIG    1       23.856 -21.329   6.775  0.00  0.00    -0.052 C 
ATOM     18  C   LIG    1       24.857 -20.632   7.357  0.00  0.00    +0.004 C 
ATOM     19  C   LIG    1       22.867 -20.639   5.867  0.00  0.00    +0.043 C 
BRANCH  18  20
ATOM     20  C   LIG    1       25.942 -21.179   8.228  0.00  0.00    +0.183 C 
BRANCH  20  21
ATOM     21  O   LIG    1       25.932 -20.476   9.464  0.00  0.00    -0.391 OA
ATOM     22  H   LIG    1       25.775 -21.133  10.164  0.00  0.00    +0.210 HD
ENDBRANCH  20  21
ENDBRANCH  18  20
ENDBRANCH  16  17
ENDBRANCH   3  15
TORSDOF 6
ENDMDL
MODEL 9
REMARK VINA RESULT:      -6.9      1.584      1.907
REMARK  Name = *****
REMARK                            x       y       z     vdW  Elec       q    Type
REMARK                         _______ _______ _______ _____ _____    ______ ____
ROOT
ATOM      1  C   LIG    1       26.074 -24.946   6.540  0.00  0.00    +0.044 C 
ATOM      2  C   LIG    1       24.636 -25.396   6.527  0.00  0.00    -0.050 C 
ATOM      3  C   LIG    1       23.544 -24.602   6.568  0.00  0.00    +0.003 C 
ENDROOT
BRANCH   2   4
ATOM      4  C   LIG    1       24.477 -26.840   6.496  0.00  0.00    +0.003 C 
ATOM      5  C   LIG    1       25.335 -27.688   7.086  0.00  0.00    +0.004 C 
BRANCH   5   6
ATOM      6  C   LIG    1       25.215 -29.141   7.052  0.00  0.00    -0.043 C 
ATOM      7  C   LIG    1       25.278 -29.858   8.419  0.00  0.00    -0.010 C 
ATOM      8  C   LIG    1       26.417 -29.331   9.324  0.00  0.00    +0.016 C 
ATOM      9  C   LIG    1       23.941 -29.645   9.163  0.00  0.00    +0.016 C 
ATOM     10  C   LIG    1       25.532 -31.380   8.240  0.00  0.00    +0.011 C 
ATOM     11  C   LIG    1       24.655 -31.987   7.157  0.00  0.00    +0.005 C 
ATOM     12  C   LIG    1       24.926 -31.318   5.817  0.00  0.00    +0.031 C 
ATOM     13  C   LIG    1       25.079 -29.815   5.882  0.00  0.00    -0.069 C 
ATOM     14  C   LIG    1       25.088 -29.173   4.513  0.00  0.00    +0.039 C 
ENDBRANCH   5   6
ENDBRANCH   2   4
BRANCH   3  15
ATOM     15  C   LIG    1       23.546 -23.162   6.626  0.00  0.00    +0.001 C 
ATOM     16  C   LIG    1       24.039 -22.376   5.653  0.00  0.00    +0.003 C 
BRANCH  16  17
ATOM     17  C   LIG    1       24.044 -20.925   5.730  0.00  0.00    -0.052 C 
ATOM     18  C   LIG    1       25.169 -20.221   5.985  0.00  0.00    +0.004 C 
ATOM     19  C   LIG    1       22.718 -20.223   5.570  0.00  0.00    +0.043 C 
BRANCH  18  20
ATOM     20  C   LIG    1       26.557 -20.761   6.110  0.00  0.00    +0.183 C 
BRANCH  20  21
ATOM     21  O   LIG    1       27.356 -20.209   5.071  0.00  0.00    -0.391 OA
ATOM     22  H   LIG    1       26.805 -20.183   4.270  0.00  0.00    +0.210 HD
ENDBRANCH  20  21
ENDBRANCH  18  20
ENDBRANCH  16  17
ENDBRANCH   3  15
TORSDOF 6
ENDMDL
