MODEL 1
REMARK VINA RESULT:      -7.6      0.000      0.000
REMARK  Name = *****
REMARK                            x       y       z     vdW  Elec       q    Type
REMARK                         _______ _______ _______ _____ _____    ______ ____
ROOT
ATOM      1  C   LIG    1       27.386 -21.806   7.656  0.00  0.00    +0.231 C 
ATOM      2  N   LIG    1       26.580 -22.234   6.610  0.00  0.00    -0.284 N 
ATOM      3  H   LIG    1       26.837 -21.850   5.710  0.00  0.00    +0.155 HD
ATOM      4  O   LIG    1       27.033 -21.788   8.837  0.00  0.00    -0.274 OA
ENDROOT
BRANCH   2   5
ATOM      5  C   LIG    1       25.244 -22.718   6.728  0.00  0.00    +0.039 A 
ATOM      6  C   LIG    1       25.043 -24.119   6.607  0.00  0.00    -0.029 A 
ATOM      7  C   LIG    1       26.165 -25.107   6.409  0.00  0.00    +0.045 C 
ATOM      8  C   LIG    1       23.735 -24.642   6.583  0.00  0.00    +0.005 A 
ATOM      9  C   LIG    1       22.631 -23.813   6.704  0.00  0.00    +0.001 A 
ATOM     10  C   LIG    1       22.822 -22.454   6.901  0.00  0.00    +0.005 A 
ATOM     11  C   LIG    1       24.115 -21.894   6.970  0.00  0.00    -0.029 A 
ATOM     12  C   LIG    1       24.161 -20.444   7.383  0.00  0.00    +0.045 C 
ENDBRANCH   2   5
BRANCH   1  13
ATOM     13  C   LIG    1       28.788 -21.312   7.234  0.00  0.00    +0.180 C 
BRANCH  13  14
ATOM     14  N   LIG    1       29.467 -20.406   8.205  0.00  0.00    -0.294 NA
BRANCH  14  16
ATOM     15  C   LIG    1       31.037 -22.094   9.248  0.00  0.00    +0.020 C 
ATOM     16  C   LIG    1       30.857 -20.779   8.502  0.00  0.00    +0.081 C 
ENDBRANCH  14  16
BRANCH  14  17
ATOM     17  C   LIG    1       29.377 -18.989   7.782  0.00  0.00    +0.081 C 
ATOM     18  C   LIG    1       29.752 -18.731   6.321  0.00  0.00    +0.020 C 
ENDBRANCH  14  17
ENDBRANCH  13  14
ENDBRANCH   1  13
TORSDOF 5
ENDMDL
MODEL 2
REMARK VINA RESULT:      -7.5      0.524      2.116
REMARK  Name = *****
REMARK                            x       y       z     vdW  Elec       q    Type
REMARK                         _______ _______ _______ _____ _____    ______ ____
ROOT
ATOM      1  C   LIG    1       27.430 -21.739   7.562  0.00  0.00    +0.231 C 
ATOM      2  N   LIG    1       26.736 -22.228   6.465  0.00  0.00    -0.284 N 
ATOM      3  H   LIG    1       27.110 -21.926   5.574  0.00  0.00    +0.155 HD
ATOM      4  O   LIG    1       26.942 -21.615   8.687  0.00  0.00    -0.274 OA
ENDROOT
BRANCH   2   5
ATOM      5  C   LIG    1       25.378 -22.665   6.459  0.00  0.00    +0.039 A 
ATOM      6  C   LIG    1       24.378 -21.686   6.214  0.00  0.00    -0.029 A 
ATOM      7  C   LIG    1       24.684 -20.239   5.919  0.00  0.00    +0.045 C 
ATOM      8  C   LIG    1       23.016 -22.030   6.326  0.00  0.00    +0.005 A 
ATOM      9  C   LIG    1       22.628 -23.322   6.646  0.00  0.00    +0.001 A 
ATOM     10  C   LIG    1       23.598 -24.300   6.809  0.00  0.00    +0.005 A 
ATOM     11  C   LIG    1       24.971 -24.008   6.668  0.00  0.00    -0.029 A 
ATOM     12  C   LIG    1       25.883 -25.208   6.679  0.00  0.00    +0.045 C 
ENDBRANCH   2   5
BRANCH   1  13
ATOM     13  C   LIG    1       28.888 -21.319   7.273  0.00  0.00    +0.180 C 
BRANCH  13  14
ATOM     14  N   LIG    1       29.473 -20.334   8.228  0.00  0.00    -0.294 NA
BRANCH  14  16
ATOM     15  C   LIG    1       31.051 -22.067   9.182  0.00  0.00    +0.020 C 
ATOM     16  C   LIG    1       30.842 -20.653   8.656  0.00  0.00    +0.081 C 
ENDBRANCH  14  16
BRANCH  14  17
ATOM     17  C   LIG    1       29.390 -18.951   7.704  0.00  0.00    +0.081 C 
ATOM     18  C   LIG    1       29.530 -18.832   6.184  0.00  0.00    +0.020 C 
ENDBRANCH  14  17
ENDBRANCH  13  14
ENDBRANCH   1  13
TORSDOF 5
ENDMDL
MODEL 3
REMARK VINA RESULT:      -7.4      1.664      2.603
REMARK  Name = *****
REMARK                            x       y       z     vdW  Elec       q    Type
REMARK                         _______ _______ _______ _____ _____    ______ ____
ROOT
ATOM      1  C   LIG    1       27.668 -20.528   7.315  0.00  0.00    +0.231 C 
ATOM      2  N   LIG    1       27.030 -21.023   6.186  0.00  0.00    -0.284 N 
ATOM      3  H   LIG    1       27.545 -20.878   5.327  0.00  0.00    +0.155 HD
ATOM      4  O   LIG    1       27.085 -20.211   8.353  0.00  0.00    -0.274 OA
ENDROOT
BRANCH   2   5
ATOM      5  C   LIG    1       25.628 -21.248   6.047  0.00  0.00    +0.039 A 
ATOM      6  C   LIG    1       24.925 -20.436   5.118  0.00  0.00    -0.029 A 
ATOM      7  C   LIG    1       25.589 -19.395   4.252  0.00  0.00    +0.045 C 
ATOM      8  C   LIG    1       23.521 -20.520   5.032  0.00  0.00    +0.005 A 
ATOM      9  C   LIG    1       22.808 -21.408   5.824  0.00  0.00    +0.001 A 
ATOM     10  C   LIG    1       23.496 -22.259   6.676  0.00  0.00    +0.005 A 
ATOM     11  C   LIG    1       24.904 -22.234   6.765  0.00  0.00    -0.029 A 
ATOM     12  C   LIG    1       25.511 -23.346   7.582  0.00  0.00    +0.045 C 
ENDBRANCH   2   5
BRANCH   1  13
ATOM     13  C   LIG    1       29.198 -20.366   7.176  0.00  0.00    +0.180 C 
BRANCH  13  14
ATOM     14  N   LIG    1       29.892 -19.790   8.364  0.00  0.00    -0.294 NA
BRANCH  14  16
ATOM     15  C   LIG    1       31.006 -21.917   9.161  0.00  0.00    +0.020 C 
ATOM     16  C   LIG    1       31.147 -20.469   8.714  0.00  0.00    +0.081 C 
ENDBRANCH  14  16
BRANCH  14  17
ATOM     17  C   LIG    1       30.101 -18.331   8.217  0.00  0.00    +0.081 C 
ATOM     18  C   LIG    1       30.263 -17.570   9.535  0.00  0.00    +0.020 C 
ENDBRANCH  14  17
ENDBRANCH  13  14
ENDBRANCH   1  13
TORSDOF 5
ENDMDL
MODEL 4
REMARK VINA RESULT:      -7.2      1.773      2.677
REMARK  Name = *****
REMARK                            x       y       z     vdW  Elec       q    Type
REMARK                         _______ _______ _______ _____ _____    ______ ____
ROOT
ATOM      1  C   LIG    1       27.273 -20.743   7.208  0.00  0.00    +0.231 C 
ATOM      2  N   LIG    1       26.660 -21.060   6.004  0.00  0.00    -0.284 N 
ATOM      3  H   LIG    1       27.278 -21.016   5.204  0.00  0.00    +0.155 HD
ATOM      4  O   LIG    1       26.671 -20.325   8.199  0.00  0.00    -0.274 OA
ENDROOT
BRANCH   2   5
ATOM      5  C   LIG    1       25.265 -20.965   5.724  0.00  0.00    +0.039 A 
ATOM      6  C   LIG    1       24.861 -20.040   4.725  0.00  0.00    -0.029 A 
ATOM      7  C   LIG    1       25.827 -19.201   3.927  0.00  0.00    +0.045 C 
ATOM      8  C   LIG    1       23.490 -19.807   4.496  0.00  0.00    +0.005 A 
ATOM      9  C   LIG    1       22.519 -20.487   5.215  0.00  0.00    +0.001 A 
ATOM     10  C   LIG    1       22.906 -21.449   6.136  0.00  0.00    +0.005 A 
ATOM     11  C   LIG    1       24.267 -21.741   6.368  0.00  0.00    -0.029 A 
ATOM     12  C   LIG    1       24.520 -22.939   7.248  0.00  0.00    +0.045 C 
ENDBRANCH   2   5
BRANCH   1  13
ATOM     13  C   LIG    1       28.807 -20.923   7.222  0.00  0.00    +0.180 C 
BRANCH  13  14
ATOM     14  N   LIG    1       29.558 -19.958   8.077  0.00  0.00    -0.294 NA
BRANCH  14  16
ATOM     15  C   LIG    1       30.911 -21.826   9.118  0.00  0.00    +0.020 C 
ATOM     16  C   LIG    1       30.883 -20.435   8.499  0.00  0.00    +0.081 C 
ENDBRANCH  14  16
BRANCH  14  17
ATOM     17  C   LIG    1       29.653 -18.625   7.438  0.00  0.00    +0.081 C 
ATOM     18  C   LIG    1       29.658 -18.645   5.908  0.00  0.00    +0.020 C 
ENDBRANCH  14  17
ENDBRANCH  13  14
ENDBRANCH   1  13
TORSDOF 5
ENDMDL
MODEL 5
REMARK VINA RESULT:      -7.1      2.001      3.328
REMARK  Name = *****
REMARK                            x       y       z     vdW  Elec       q    Type
REMARK                         _______ _______ _______ _____ _____    ______ ____
ROOT
ATOM      1  C   LIG    1       26.667 -21.046   7.166  0.00  0.00    +0.231 C 
ATOM      2  N   LIG    1       26.046 -21.471   5.999  0.00  0.00    -0.284 N 
ATOM      3  H   LIG    1       26.689 -21.786   5.284  0.00  0.00    +0.155 HD
ATOM      4  O   LIG    1       26.162 -20.258   7.968  0.00  0.00    -0.274 OA
ENDROOT
BRANCH   2   5
ATOM      5  C   LIG    1       24.751 -21.079   5.550  0.00  0.00    +0.039 A 
ATOM      6  C   LIG    1       24.682 -20.049   4.575  0.00  0.00    -0.029 A 
ATOM      7  C   LIG    1       25.896 -19.392   3.969  0.00  0.00    +0.045 C 
ATOM      8  C   LIG    1       23.430 -19.530   4.189  0.00  0.00    +0.005 A 
ATOM      9  C   LIG    1       22.252 -20.027   4.727  0.00  0.00    +0.001 A 
ATOM     10  C   LIG    1       22.310 -21.087   5.619  0.00  0.00    +0.005 A 
ATOM     11  C   LIG    1       23.539 -21.662   6.003  0.00  0.00    -0.029 A 
ATOM     12  C   LIG    1       23.426 -22.923   6.821  0.00  0.00    +0.045 C 
ENDBRANCH   2   5
BRANCH   1  13
ATOM     13  C   LIG    1       28.084 -21.618   7.391  0.00  0.00    +0.180 C 
BRANCH  13  14
ATOM     14  N   LIG    1       29.204 -20.770   6.890  0.00  0.00    -0.294 NA
BRANCH  14  16
ATOM     15  C   LIG    1       29.631 -18.449   5.975  0.00  0.00    +0.020 C 
ATOM     16  C   LIG    1       28.787 -19.717   5.953  0.00  0.00    +0.081 C 
ENDBRANCH  14  16
BRANCH  14  17
ATOM     17  C   LIG    1       29.999 -20.204   8.004  0.00  0.00    +0.081 C 
ATOM     18  C   LIG    1       30.909 -21.207   8.717  0.00  0.00    +0.020 C 
ENDBRANCH  14  17
ENDBRANCH  13  14
ENDBRANCH   1  13
TORSDOF 5
ENDMDL
MODEL 6
REMARK VINA RESULT:      -7.0      1.149      6.275
REMARK  Name = *****
REMARK                            x       y       z     vdW  Elec       q    Type
REMARK                         _______ _______ _______ _____ _____    ______ ____
ROOT
ATOM      1  C   LIG    1       27.126 -21.447   8.124  0.00  0.00    +0.231 C 
ATOM      2  N   LIG    1       28.378 -21.591   7.543  0.00  0.00    -0.284 N 
ATOM      3  H   LIG    1       28.664 -22.553   7.415  0.00  0.00    +0.155 HD
ATOM      4  O   LIG    1       26.764 -20.446   8.744  0.00  0.00    -0.274 OA
ENDROOT
BRANCH   2   5
ATOM      5  C   LIG    1       29.425 -20.623   7.560  0.00  0.00    +0.039 A 
ATOM      6  C   LIG    1       30.514 -20.854   8.443  0.00  0.00    -0.029 A 
ATOM      7  C   LIG    1       30.634 -22.079   9.314  0.00  0.00    +0.045 C 
ATOM      8  C   LIG    1       31.511 -19.872   8.601  0.00  0.00    +0.005 A 
ATOM      9  C   LIG    1       31.466 -18.684   7.886  0.00  0.00    +0.001 A 
ATOM     10  C   LIG    1       30.448 -18.486   6.965  0.00  0.00    +0.005 A 
ATOM     11  C   LIG    1       29.451 -19.460   6.747  0.00  0.00    -0.029 A 
ATOM     12  C   LIG    1       28.535 -19.185   5.582  0.00  0.00    +0.045 C 
ENDBRANCH   2   5
BRANCH   1  13
ATOM     13  C   LIG    1       26.194 -22.670   7.966  0.00  0.00    +0.180 C 
BRANCH  13  14
ATOM     14  N   LIG    1       25.192 -22.573   6.865  0.00  0.00    -0.294 NA
BRANCH  14  16
ATOM     15  C   LIG    1       23.923 -24.719   6.430  0.00  0.00    +0.020 C 
ATOM     16  C   LIG    1       25.072 -23.793   6.054  0.00  0.00    +0.081 C 
ENDBRANCH  14  16
BRANCH  14  17
ATOM     17  C   LIG    1       23.868 -22.140   7.370  0.00  0.00    +0.081 C 
ATOM     18  C   LIG    1       23.394 -20.783   6.846  0.00  0.00    +0.020 C 
ENDBRANCH  14  17
ENDBRANCH  13  14
ENDBRANCH   1  13
TORSDOF 5
ENDMDL
MODEL 7
REMARK VINA RESULT:      -6.9      2.060      2.612
REMARK  Name = *****
REMARK                            x       y       z     vdW  Elec       q    Type
REMARK                         _______ _______ _______ _____ _____    ______ ____
ROOT
ATOM      1  C   LIG    1       28.138 -20.879   6.819  0.00  0.00    +0.231 C 
ATOM      2  N   LIG    1       27.067 -20.051   6.512  0.00  0.00    -0.284 N 
ATOM      3  H   LIG    1       27.225 -19.076   6.732  0.00  0.00    +0.155 HD
ATOM      4  O   LIG    1       28.035 -22.087   7.039  0.00  0.00    -0.274 OA
ENDROOT
BRANCH   2   5
ATOM      5  C   LIG    1       25.704 -20.455   6.397  0.00  0.00    +0.039 A 
ATOM      6  C   LIG    1       25.022 -20.805   7.593  0.00  0.00    -0.029 A 
ATOM      7  C   LIG    1       25.649 -20.726   8.962  0.00  0.00    +0.045 C 
ATOM      8  C   LIG    1       23.718 -21.335   7.529  0.00  0.00    +0.005 A 
ATOM      9  C   LIG    1       23.071 -21.498   6.314  0.00  0.00    +0.001 A 
ATOM     10  C   LIG    1       23.700 -21.085   5.150  0.00  0.00    +0.005 A 
ATOM     11  C   LIG    1       24.990 -20.513   5.172  0.00  0.00    -0.029 A 
ATOM     12  C   LIG    1       25.455 -19.938   3.858  0.00  0.00    +0.045 C 
ENDBRANCH   2   5
BRANCH   1  13
ATOM     13  C   LIG    1       29.506 -20.166   6.899  0.00  0.00    +0.180 C 
BRANCH  13  14
ATOM     14  N   LIG    1       29.939 -19.762   8.268  0.00  0.00    -0.294 NA
BRANCH  14  16
ATOM     15  C   LIG    1       30.996 -21.883   9.156  0.00  0.00    +0.020 C 
ATOM     16  C   LIG    1       31.163 -20.430   8.732  0.00  0.00    +0.081 C 
ENDBRANCH  14  16
BRANCH  14  17
ATOM     17  C   LIG    1       30.059 -18.291   8.390  0.00  0.00    +0.081 C 
ATOM     18  C   LIG    1       30.257 -17.779   9.819  0.00  0.00    +0.020 C 
ENDBRANCH  14  17
ENDBRANCH  13  14
ENDBRANCH   1  13
TORSDOF 5
ENDMDL
MODEL 8
REMARK VINA RESULT:      -6.9      0.999      2.885
REMARK  Name = *****
REMARK                            x       y       z     vdW  Elec       q    Type
REMARK                         _______ _______ _______ _____ _____    ______ ____
ROOT
ATOM      1  C   LIG    1       26.458 -20.984   8.166  0.00  0.00    +0.231 C 
ATOM      2  N   LIG    1       25.951 -21.414   6.947  0.00  0.00    -0.284 N 
ATOM      3  H   LIG    1       26.175 -20.803   6.172  0.00  0.00    +0.155 HD
ATOM      4  O   LIG    1       25.985 -21.299   9.259  0.00  0.00    -0.274 OA
ENDROOT
BRANCH   2   5
ATOM      5  C   LIG    1       24.830 -22.276   6.764  0.00  0.00    +0.039 A 
ATOM      6  C   LIG    1       23.562 -21.666   6.568  0.00  0.00    -0.029 A 
ATOM      7  C   LIG    1       23.357 -20.174   6.500  0.00  0.00    +0.045 C 
ATOM      8  C   LIG    1       22.401 -22.462   6.513  0.00  0.00    +0.005 A 
ATOM      9  C   LIG    1       22.474 -23.843   6.620  0.00  0.00    +0.001 A 
ATOM     10  C   LIG    1       23.716 -24.449   6.731  0.00  0.00    +0.005 A 
ATOM     11  C   LIG    1       24.906 -23.692   6.752  0.00  0.00    -0.029 A 
ATOM     12  C   LIG    1       26.177 -24.501   6.679  0.00  0.00    +0.045 C 
ENDBRANCH   2   5
BRANCH   1  13
ATOM     13  C   LIG    1       27.672 -20.034   8.064  0.00  0.00    +0.180 C 
BRANCH  13  14
ATOM     14  N   LIG    1       28.835 -20.561   7.294  0.00  0.00    -0.294 NA
BRANCH  14  16
ATOM     15  C   LIG    1       29.443 -18.580   5.842  0.00  0.00    +0.020 C 
ATOM     16  C   LIG    1       28.951 -20.018   5.933  0.00  0.00    +0.081 C 
ENDBRANCH  14  16
BRANCH  14  17
ATOM     17  C   LIG    1       30.104 -20.394   8.041  0.00  0.00    +0.081 C 
ATOM     18  C   LIG    1       30.584 -21.646   8.778  0.00  0.00    +0.020 C 
ENDBRANCH  14  17
ENDBRANCH  13  14
ENDBRANCH   1  13
TORSDOF 5
ENDMDL
MODEL 9
REMARK VINA RESULT:      -6.8      1.733      2.224
REMARK  Name = *****
REMARK                            x       y       z     vdW  Elec       q    Type
REMARK                         _______ _______ _______ _____ _____    ______ ____
ROOT
ATOM      1  C   LIG    1       27.388 -20.751   7.159  0.00  0.00    +0.231 C 
ATOM      2  N   LIG    1       26.694 -21.260   6.070  0.00  0.00    -0.284 N 
ATOM      3  H   LIG    1       27.281 -21.476   5.274  0.00  0.00    +0.155 HD
ATOM      4  O   LIG    1       26.879 -20.048   8.034  0.00  0.00    -0.274 OA
ENDROOT
BRANCH   2   5
ATOM      5  C   LIG    1       25.309 -21.063   5.793  0.00  0.00    +0.039 A 
ATOM      6  C   LIG    1       24.376 -21.769   6.598  0.00  0.00    -0.029 A 
ATOM      7  C   LIG    1       24.774 -22.667   7.743  0.00  0.00    +0.045 C 
ATOM      8  C   LIG    1       23.002 -21.718   6.290  0.00  0.00    +0.005 A 
ATOM      9  C   LIG    1       22.536 -20.964   5.224  0.00  0.00    +0.001 A 
ATOM     10  C   LIG    1       23.433 -20.209   4.483  0.00  0.00    +0.005 A 
ATOM     11  C   LIG    1       24.812 -20.202   4.782  0.00  0.00    -0.029 A 
ATOM     12  C   LIG    1       25.624 -19.187   4.018  0.00  0.00    +0.045 C 
ENDBRANCH   2   5
BRANCH   1  13
ATOM     13  C   LIG    1       28.891 -21.108   7.195  0.00  0.00    +0.180 C 
BRANCH  13  14
ATOM     14  N   LIG    1       29.802 -19.999   7.602  0.00  0.00    -0.294 NA
BRANCH  14  16
ATOM     15  C   LIG    1       30.816 -21.862   8.983  0.00  0.00    +0.020 C 
ATOM     16  C   LIG    1       30.851 -20.402   8.550  0.00  0.00    +0.081 C 
ENDBRANCH  14  16
BRANCH  14  17
ATOM     17  C   LIG    1       30.387 -19.315   6.425  0.00  0.00    +0.081 C 
ATOM     18  C   LIG    1       29.426 -18.385   5.681  0.00  0.00    +0.020 C 
ENDBRANCH  14  17
ENDBRANCH  13  14
ENDBRANCH   1  13
TORSDOF 5
ENDMDL
