MODEL 1
REMARK VINA RESULT:       7.3      0.000      0.000
REMARK  Name = *****
REMARK                            x       y       z     vdW  Elec       q    Type
REMARK                         _______ _______ _______ _____ _____    ______ ____
ROOT
ATOM      1  C   LIG    1       26.338 -17.085   3.815  0.00  0.00    +0.188 C 
ATOM      2  C   LIG    1       26.443 -18.255   4.593  0.00  0.00    +0.123 C 
ATOM      3  N   LIG    1       25.307 -19.099   4.849  0.00  0.00    -0.208 NA
ATOM      4  C   LIG    1       25.464 -20.173   5.563  0.00  0.00    +0.236 C 
ATOM      5  N   LIG    1       26.689 -20.511   6.077  0.00  0.00    -0.293 N 
ATOM      6  C   LIG    1       27.838 -19.804   5.870  0.00  0.00    +0.141 C 
ATOM      7  N   LIG    1       28.952 -20.273   6.376  0.00  0.00    -0.265 NA
ATOM      8  C   LIG    1       28.512 -21.563   6.992  0.00  0.00    +0.165 C 
ATOM      9  C   LIG    1       26.975 -21.524   7.061  0.00  0.00    +0.150 C 
ATOM     10  C   LIG    1       27.727 -18.566   5.100  0.00  0.00    +0.046 C 
ATOM     11  C   LIG    1       28.848 -17.763   4.891  0.00  0.00    +0.017 C 
ATOM     12  C   LIG    1       28.721 -16.608   4.132  0.00  0.00    +0.050 C 
ATOM     13  C   LIG    1       27.484 -16.285   3.567  0.00  0.00    +0.164 C 
ENDROOT
BRANCH   1  15
ATOM     14  C   LIG    1       24.286 -15.871   3.918  0.00  0.00    +0.277 C 
ATOM     15  O   LIG    1       25.205 -16.646   3.170  0.00  0.00    -0.489 OA
ENDBRANCH   1  15
BRANCH   4  16
ATOM     16  N   LIG    1       24.371 -20.958   5.840  0.00  0.00    -0.176 NA
ATOM     17  C   LIG    1       23.159 -20.694   5.494  0.00  0.00    +0.226 C 
BRANCH  17  18
ATOM     18  C   LIG    1       22.464 -19.672   4.691  0.00  0.00    +0.073 A 
ATOM     19  C   LIG    1       22.230 -18.384   5.092  0.00  0.00    +0.129 A 
ATOM     20  N   LIG    1       21.504 -17.485   4.370  0.00  0.00    -0.222 NA
ATOM     21  C   LIG    1       21.020 -17.901   3.195  0.00  0.00    +0.212 A 
ATOM     22  N   LIG    1       21.241 -19.110   2.679  0.00  0.00    -0.222 NA
ATOM     23  C   LIG    1       21.974 -19.965   3.433  0.00  0.00    +0.129 A 
BRANCH  21  24
ATOM     24  N   LIG    1       20.142 -17.075   2.522  0.00  0.00    -0.328 N 
ATOM     25  H   LIG    1       20.554 -16.155   2.435  0.00  0.00    +0.145 HD
ATOM     26  H   LIG    1       19.237 -17.118   2.978  0.00  0.00    +0.145 HD
ENDBRANCH  21  24
ENDBRANCH  17  18
BRANCH  17  27
ATOM     27  O   LIG    1       22.240 -21.571   5.949  0.00  0.00    -0.492 OA
ATOM     28  H   LIG    1       22.429 -21.734   6.886  0.00  0.00    +0.294 HD
ENDBRANCH  17  27
ENDBRANCH   4  16
BRANCH  13  29
ATOM     29  O   LIG    1       27.291 -15.162   2.802  0.00  0.00    -0.488 OA
BRANCH  29  30
ATOM     30  C   LIG    1       28.287 -14.138   2.880  0.00  0.00    +0.230 C 
BRANCH  30  31
ATOM     31  C   LIG    1       27.818 -13.156   3.949  0.00  0.00    +0.056 C 
BRANCH  31  32
ATOM     32  C   LIG    1       26.388 -13.430   4.425  0.00  0.00    +0.088 C 
BRANCH  32  33
ATOM     33  N   LIG    1       25.479 -12.289   4.208  0.00  0.00    -0.298 NA
ATOM     34  C   LIG    1       25.482 -11.766   2.824  0.00  0.00    +0.112 C 
ATOM     35  C   LIG    1       24.800 -12.699   1.814  0.00  0.00    +0.175 C 
ATOM     36  O   LIG    1       23.441 -12.954   2.189  0.00  0.00    -0.377 OA
ATOM     37  C   LIG    1       23.370 -13.515   3.506  0.00  0.00    +0.175 C 
ATOM     38  C   LIG    1       24.077 -12.628   4.549  0.00  0.00    +0.112 C 
ENDBRANCH  32  33
ENDBRANCH  31  32
ENDBRANCH  30  31
ENDBRANCH  29  30
ENDBRANCH  13  29
TORSDOF 10
ENDMDL
