MODEL 1
REMARK VINA RESULT:      29.1      0.000      0.000
REMARK  Name = *****
REMARK                            x       y       z     vdW  Elec       q    Type
REMARK                         _______ _______ _______ _____ _____    ______ ____
ROOT
ATOM      1  C   LIG    1       26.798 -14.644   3.480  0.00  0.00    +0.118 A 
ATOM      2  C   LIG    1       27.018 -15.902   2.921  0.00  0.00    +0.144 A 
ATOM      3  N   LIG    1       26.381 -17.006   3.332  0.00  0.00    -0.209 NA
ATOM      4  C   LIG    1       25.480 -16.864   4.321  0.00  0.00    +0.184 A 
ATOM      5  N   LIG    1       25.218 -15.708   4.959  0.00  0.00    -0.209 NA
ATOM      6  C   LIG    1       25.880 -14.623   4.533  0.00  0.00    +0.144 A 
ENDROOT
BRANCH   4   7
ATOM      7  C   LIG    1       24.688 -18.052   4.707  0.00  0.00    +0.139 A 
ATOM      8  C   LIG    1       25.131 -19.181   5.473  0.00  0.00    +0.050 A 
ATOM      9  C   LIG    1       24.022 -20.011   5.575  0.00  0.00    +0.159 A 
ATOM     10  N   LIG    1       23.940 -21.196   6.214  0.00  0.00    -0.236 NA
ATOM     11  C   LIG    1       25.099 -21.566   6.798  0.00  0.00    +0.113 A 
ATOM     12  C   LIG    1       26.282 -20.837   6.774  0.00  0.00    +0.020 A 
ATOM     13  N   LIG    1       23.026 -19.387   4.883  0.00  0.00    -0.241 N 
ATOM     14  C   LIG    1       26.312 -19.615   6.101  0.00  0.00    +0.015 A 
ATOM     15  N   LIG    1       23.382 -18.186   4.375  0.00  0.00    -0.165 NA
BRANCH  13  16
ATOM     16  C   LIG    1       21.677 -19.897   4.681  0.00  0.00    +0.183 C 
BRANCH  16  17
ATOM     17  C   LIG    1       20.865 -18.993   3.792  0.00  0.00    +0.009 A 
ATOM     18  C   LIG    1       20.862 -17.613   4.003  0.00  0.00    +0.128 A 
ATOM     19  F   LIG    1       21.591 -17.083   4.996  0.00  0.00    -0.205 F 
ATOM     20  C   LIG    1       20.122 -16.756   3.190  0.00  0.00    +0.039 A 
ATOM     21  C   LIG    1       19.368 -17.278   2.142  0.00  0.00    +0.003 A 
ATOM     22  C   LIG    1       19.359 -18.653   1.911  0.00  0.00    +0.001 A 
ATOM     23  C   LIG    1       20.108 -19.505   2.726  0.00  0.00    +0.008 A 
ENDBRANCH  16  17
ENDBRANCH  13  16
ENDBRANCH   4   7
BRANCH   1  25
ATOM     24  C   LIG    1       28.273 -12.729   3.935  0.00  0.00    +0.407 C 
ATOM     25  N   LIG    1       27.468 -13.449   3.052  0.00  0.00    -0.234 N 
ATOM     26  C   LIG    1       26.883 -12.776   1.896  0.00  0.00    +0.142 C 
ATOM     27  O   LIG    1       28.583 -13.080   5.066  0.00  0.00    -0.226 OA
BRANCH  24  29
ATOM     28  C   LIG    1       28.562 -11.448   1.948  0.00  0.00    +0.282 C 
ATOM     29  O   LIG    1       28.714 -11.570   3.361  0.00  0.00    -0.453 OA
ENDBRANCH  24  29
ENDBRANCH   1  25
BRANCH   2  30
ATOM     30  N   LIG    1       27.983 -16.127   1.931  0.00  0.00    -0.342 N 
ATOM     31  H   LIG    1       28.626 -16.852   2.259  0.00  0.00    +0.144 HD
ATOM     32  H   LIG    1       28.471 -15.244   1.807  0.00  0.00    +0.144 HD
ENDBRANCH   2  30
BRANCH   6  33
ATOM     33  N   LIG    1       25.585 -13.447   5.234  0.00  0.00    -0.342 N 
ATOM     34  H   LIG    1       26.439 -13.127   5.681  0.00  0.00    +0.144 HD
ATOM     35  H   LIG    1       24.831 -13.599   5.897  0.00  0.00    +0.144 HD
ENDBRANCH   6  33
TORSDOF 7
ENDMDL
