MODEL 1
REMARK VINA RESULT:      -7.0      0.000      0.000
REMARK  Name = *****
REMARK                            x       y       z     vdW  Elec       q    Type
REMARK                         _______ _______ _______ _____ _____    ______ ____
ROOT
ATOM      1  C   LIG    1       25.454 -23.129   6.449  0.00  0.00    +0.190 C 
ATOM      2  N   LIG    1       24.609 -22.513   5.662  0.00  0.00    -0.077 NA
ENDROOT
BRANCH   1   3
ATOM      3  C   LIG    1       25.552 -24.575   6.214  0.00  0.00    +0.107 A 
ATOM      4  N   LIG    1       25.965 -25.467   7.198  0.00  0.00    -0.223 NA
ATOM      5  C   LIG    1       25.937 -26.698   6.752  0.00  0.00    +0.156 A 
ATOM      6  S   LIG    1       25.443 -26.877   5.120  0.00  0.00    -0.060 S 
ATOM      7  C   LIG    1       25.249 -25.181   5.005  0.00  0.00    +0.078 A 
BRANCH   5   8
ATOM      8  N   LIG    1       26.288 -27.758   7.493  0.00  0.00    -0.338 N 
ATOM      9  H   LIG    1       25.535 -28.376   7.774  0.00  0.00    +0.144 HD
ATOM     10  H   LIG    1       27.030 -27.650   8.172  0.00  0.00    +0.144 HD
ENDBRANCH   5   8
ENDBRANCH   1   3
BRANCH   1  13
ATOM     11  N   LIG    1       27.562 -22.111   7.289  0.00  0.00    -0.297 N 
ATOM     12  H   LIG    1       27.898 -22.362   6.362  0.00  0.00    +0.150 HD
ATOM     13  C   LIG    1       26.267 -22.474   7.587  0.00  0.00    +0.268 C 
ATOM     14  O   LIG    1       25.789 -22.271   8.694  0.00  0.00    -0.268 OA
BRANCH  11  20
ATOM     15  C   LIG    1       30.819 -22.235   8.833  0.00  0.00    +0.032 C 
ATOM     16  C   LIG    1       29.931 -21.460   7.890  0.00  0.00    +0.129 C 
ATOM     17  N   LIG    1       29.987 -19.993   8.107  0.00  0.00    -0.146 N 
ATOM     18  C   LIG    1       28.585 -19.866   8.103  0.00  0.00    +0.259 C 
ATOM     19  O   LIG    1       27.880 -18.905   7.952  0.00  0.00    -0.272 OA
ATOM     20  C   LIG    1       28.427 -21.427   8.267  0.00  0.00    +0.183 C 
BRANCH  17  21
ATOM     21  S   LIG    1       30.957 -18.887   7.360  0.00  0.00    +0.169 S 
ATOM     22  O   LIG    1       32.113 -19.554   6.823  0.00  0.00    -0.126 OA
ATOM     23  O   LIG    1       31.090 -17.756   8.258  0.00  0.00    -0.126 OA
BRANCH  21  24
ATOM     24  O   LIG    1       30.052 -18.347   6.151  0.00  0.00    -0.238 OA
ATOM     25  H   LIG    1       29.204 -18.834   6.177  0.00  0.00    +0.246 HD
ENDBRANCH  21  24
ENDBRANCH  17  21
ENDBRANCH  11  20
ENDBRANCH   1  13
BRANCH   2  26
ATOM     26  O   LIG    1       24.406 -21.148   5.908  0.00  0.00    -0.376 OA
BRANCH  26  27
ATOM     27  C   LIG    1       24.215 -20.448   4.663  0.00  0.00    +0.228 C 
ATOM     28  C   LIG    1       23.017 -19.498   4.766  0.00  0.00    +0.070 C 
ATOM     29  C   LIG    1       23.940 -21.517   3.598  0.00  0.00    +0.070 C 
BRANCH  27  30
ATOM     30  C   LIG    1       25.486 -19.688   4.246  0.00  0.00    +0.351 C 
ATOM     31  O   LIG    1       25.543 -18.672   3.568  0.00  0.00    -0.246 OA
BRANCH  30  32
ATOM     32  O   LIG    1       26.624 -20.225   4.742  0.00  0.00    -0.478 OA
ATOM     33  H   LIG    1       27.023 -19.517   5.289  0.00  0.00    +0.295 HD
ENDBRANCH  30  32
ENDBRANCH  27  30
ENDBRANCH  26  27
ENDBRANCH   2  26
TORSDOF 10
ENDMDL
MODEL 2
REMARK VINA RESULT:      -6.8      2.535      4.547
REMARK  Name = *****
REMARK                            x       y       z     vdW  Elec       q    Type
REMARK                         _______ _______ _______ _____ _____    ______ ____
ROOT
ATOM      1  C   LIG    1       25.784 -22.555   6.515  0.00  0.00    +0.190 C 
ATOM      2  N   LIG    1       25.535 -23.784   6.139  0.00  0.00    -0.077 NA
ENDROOT
BRANCH   1   3
ATOM      3  C   LIG    1       25.217 -21.527   5.633  0.00  0.00    +0.107 A 
ATOM      4  N   LIG    1       26.002 -20.572   4.995  0.00  0.00    -0.223 NA
ATOM      5  C   LIG    1       25.266 -19.794   4.242  0.00  0.00    +0.156 A 
ATOM      6  S   LIG    1       23.584 -20.126   4.264  0.00  0.00    -0.060 S 
ATOM      7  C   LIG    1       23.863 -21.410   5.358  0.00  0.00    +0.078 A 
BRANCH   5   8
ATOM      8  N   LIG    1       25.766 -18.786   3.515  0.00  0.00    -0.338 N 
ATOM      9  H   LIG    1       26.377 -18.141   4.005  0.00  0.00    +0.144 HD
ATOM     10  H   LIG    1       25.184 -18.366   2.802  0.00  0.00    +0.144 HD
ENDBRANCH   5   8
ENDBRANCH   1   3
BRANCH   1  13
ATOM     11  N   LIG    1       27.966 -21.861   7.487  0.00  0.00    -0.297 N 
ATOM     12  H   LIG    1       28.288 -22.009   6.534  0.00  0.00    +0.150 HD
ATOM     13  C   LIG    1       26.640 -22.142   7.733  0.00  0.00    +0.268 C 
ATOM     14  O   LIG    1       26.170 -22.054   8.858  0.00  0.00    -0.268 OA
BRANCH  11  20
ATOM     15  C   LIG    1       31.249 -22.383   8.887  0.00  0.00    +0.032 C 
ATOM     16  C   LIG    1       30.371 -21.415   8.131  0.00  0.00    +0.129 C 
ATOM     17  N   LIG    1       30.489 -20.018   8.617  0.00  0.00    -0.146 N 
ATOM     18  C   LIG    1       29.092 -19.844   8.677  0.00  0.00    +0.259 C 
ATOM     19  O   LIG    1       28.423 -18.849   8.728  0.00  0.00    -0.272 OA
ATOM     20  C   LIG    1       28.878 -21.403   8.551  0.00  0.00    +0.183 C 
BRANCH  17  21
ATOM     21  S   LIG    1       31.485 -18.825   8.063  0.00  0.00    +0.169 S 
ATOM     22  O   LIG    1       32.040 -19.220   6.796  0.00  0.00    -0.126 OA
ATOM     23  O   LIG    1       32.336 -18.428   9.167  0.00  0.00    -0.126 OA
BRANCH  21  24
ATOM     24  O   LIG    1       30.496 -17.581   7.839  0.00  0.00    -0.238 OA
ATOM     25  H   LIG    1       30.418 -17.110   8.692  0.00  0.00    +0.246 HD
ENDBRANCH  21  24
ENDBRANCH  17  21
ENDBRANCH  11  20
ENDBRANCH   1  13
BRANCH   2  26
ATOM     26  O   LIG    1       26.134 -24.802   6.892  0.00  0.00    -0.376 OA
BRANCH  26  27
ATOM     27  C   LIG    1       25.657 -26.087   6.447  0.00  0.00    +0.228 C 
ATOM     28  C   LIG    1       24.143 -26.041   6.215  0.00  0.00    +0.070 C 
ATOM     29  C   LIG    1       25.982 -27.085   7.563  0.00  0.00    +0.070 C 
BRANCH  27  30
ATOM     30  C   LIG    1       26.394 -26.549   5.177  0.00  0.00    +0.351 C 
ATOM     31  O   LIG    1       25.960 -26.538   4.034  0.00  0.00    -0.246 OA
BRANCH  30  32
ATOM     32  O   LIG    1       27.660 -26.963   5.407  0.00  0.00    -0.478 OA
ATOM     33  H   LIG    1       27.607 -27.509   6.219  0.00  0.00    +0.295 HD
ENDBRANCH  30  32
ENDBRANCH  27  30
ENDBRANCH  26  27
ENDBRANCH   2  26
TORSDOF 10
ENDMDL
MODEL 3
REMARK VINA RESULT:      -6.5      6.503      8.755
REMARK  Name = *****
REMARK                            x       y       z     vdW  Elec       q    Type
REMARK                         _______ _______ _______ _____ _____    ______ ____
ROOT
ATOM      1  C   LIG    1       25.083 -30.135   6.286  0.00  0.00    +0.190 C 
ATOM      2  N   LIG    1       24.918 -29.094   5.508  0.00  0.00    -0.077 NA
ENDROOT
BRANCH   1   3
ATOM      3  C   LIG    1       25.604 -31.324   5.600  0.00  0.00    +0.107 A 
ATOM      4  N   LIG    1       25.229 -31.665   4.304  0.00  0.00    -0.223 NA
ATOM      5  C   LIG    1       25.854 -32.745   3.909  0.00  0.00    +0.156 A 
ATOM      6  S   LIG    1       26.911 -33.447   5.062  0.00  0.00    -0.060 S 
ATOM      7  C   LIG    1       26.505 -32.210   6.171  0.00  0.00    +0.078 A 
BRANCH   5   8
ATOM      8  N   LIG    1       25.678 -33.296   2.700  0.00  0.00    -0.338 N 
ATOM      9  H   LIG    1       25.745 -34.306   2.655  0.00  0.00    +0.144 HD
ATOM     10  H   LIG    1       26.033 -32.807   1.888  0.00  0.00    +0.144 HD
ENDBRANCH   5   8
ENDBRANCH   1   3
BRANCH   1  13
ATOM     11  N   LIG    1       25.638 -29.643   8.660  0.00  0.00    -0.297 N 
ATOM     12  H   LIG    1       26.498 -29.289   8.249  0.00  0.00    +0.150 HD
ATOM     13  C   LIG    1       24.730 -30.201   7.788  0.00  0.00    +0.268 C 
ATOM     14  O   LIG    1       23.692 -30.709   8.190  0.00  0.00    -0.268 OA
BRANCH  11  20
ATOM     15  C   LIG    1       25.282 -31.710  11.595  0.00  0.00    +0.032 C 
ATOM     16  C   LIG    1       26.154 -30.689  10.905  0.00  0.00    +0.129 C 
ATOM     17  N   LIG    1       26.659 -29.637  11.822  0.00  0.00    -0.146 N 
ATOM     18  C   LIG    1       26.294 -28.596  10.946  0.00  0.00    +0.259 C 
ATOM     19  O   LIG    1       26.645 -27.449  10.895  0.00  0.00    -0.272 OA
ATOM     20  C   LIG    1       25.396 -29.591  10.113  0.00  0.00    +0.183 C 
BRANCH  17  21
ATOM     21  S   LIG    1       28.083 -29.606  12.654  0.00  0.00    +0.169 S 
ATOM     22  O   LIG    1       29.179 -29.674  11.724  0.00  0.00    -0.126 OA
ATOM     23  O   LIG    1       27.963 -30.551  13.747  0.00  0.00    -0.126 OA
BRANCH  21  24
ATOM     24  O   LIG    1       28.079 -28.163  13.357  0.00  0.00    -0.238 OA
ATOM     25  H   LIG    1       28.530 -28.255  14.220  0.00  0.00    +0.246 HD
ENDBRANCH  21  24
ENDBRANCH  17  21
ENDBRANCH  11  20
ENDBRANCH   1  13
BRANCH   2  26
ATOM     26  O   LIG    1       24.334 -27.963   6.093  0.00  0.00    -0.376 OA
BRANCH  26  27
ATOM     27  C   LIG    1       25.155 -26.804   5.847  0.00  0.00    +0.228 C 
ATOM     28  C   LIG    1       26.023 -27.022   4.604  0.00  0.00    +0.070 C 
ATOM     29  C   LIG    1       26.047 -26.631   7.081  0.00  0.00    +0.070 C 
BRANCH  27  30
ATOM     30  C   LIG    1       24.300 -25.532   5.705  0.00  0.00    +0.351 C 
ATOM     31  O   LIG    1       23.443 -25.136   6.481  0.00  0.00    -0.246 OA
BRANCH  30  32
ATOM     32  O   LIG    1       24.602 -24.798   4.610  0.00  0.00    -0.478 OA
ATOM     33  H   LIG    1       25.499 -25.090   4.345  0.00  0.00    +0.295 HD
ENDBRANCH  30  32
ENDBRANCH  27  30
ENDBRANCH  26  27
ENDBRANCH   2  26
TORSDOF 10
ENDMDL
MODEL 4
REMARK VINA RESULT:      -6.5      1.696      2.394
REMARK  Name = *****
REMARK                            x       y       z     vdW  Elec       q    Type
REMARK                         _______ _______ _______ _____ _____    ______ ____
ROOT
ATOM      1  C   LIG    1       25.084 -22.088   6.017  0.00  0.00    +0.190 C 
ATOM      2  N   LIG    1       23.913 -21.522   6.166  0.00  0.00    -0.077 NA
ENDROOT
BRANCH   1   3
ATOM      3  C   LIG    1       25.069 -23.550   6.157  0.00  0.00    +0.107 A 
ATOM      4  N   LIG    1       26.219 -24.324   6.038  0.00  0.00    -0.223 NA
ATOM      5  C   LIG    1       25.948 -25.590   6.237  0.00  0.00    +0.156 A 
ATOM      6  S   LIG    1       24.302 -25.950   6.551  0.00  0.00    -0.060 S 
ATOM      7  C   LIG    1       23.925 -24.287   6.416  0.00  0.00    +0.078 A 
BRANCH   5   8
ATOM      8  N   LIG    1       26.874 -26.558   6.180  0.00  0.00    -0.338 N 
ATOM      9  H   LIG    1       27.301 -26.715   5.274  0.00  0.00    +0.144 HD
ATOM     10  H   LIG    1       26.740 -27.389   6.741  0.00  0.00    +0.144 HD
ENDBRANCH   5   8
ENDBRANCH   1   3
BRANCH   1  13
ATOM     11  N   LIG    1       27.420 -21.564   6.690  0.00  0.00    -0.297 N 
ATOM     12  H   LIG    1       27.181 -22.145   7.489  0.00  0.00    +0.150 HD
ATOM     13  C   LIG    1       26.417 -21.348   5.771  0.00  0.00    +0.268 C 
ATOM     14  O   LIG    1       26.586 -20.616   4.806  0.00  0.00    -0.268 OA
BRANCH  11  20
ATOM     15  C   LIG    1       29.140 -18.631   5.486  0.00  0.00    +0.032 C 
ATOM     16  C   LIG    1       28.763 -19.421   6.716  0.00  0.00    +0.129 C 
ATOM     17  N   LIG    1       29.879 -19.563   7.683  0.00  0.00    -0.146 N 
ATOM     18  C   LIG    1       29.674 -20.949   7.827  0.00  0.00    +0.259 C 
ATOM     19  O   LIG    1       30.038 -21.717   8.675  0.00  0.00    -0.272 OA
ATOM     20  C   LIG    1       28.758 -20.962   6.542  0.00  0.00    +0.183 C 
BRANCH  17  21
ATOM     21  S   LIG    1       30.237 -18.604   8.977  0.00  0.00    +0.169 S 
ATOM     22  O   LIG    1       29.043 -18.376   9.744  0.00  0.00    -0.126 OA
ATOM     23  O   LIG    1       31.039 -17.501   8.486  0.00  0.00    -0.126 OA
BRANCH  21  24
ATOM     24  O   LIG    1       31.254 -19.498   9.840  0.00  0.00    -0.238 OA
ATOM     25  H   LIG    1       32.117 -19.039   9.847  0.00  0.00    +0.246 HD
ENDBRANCH  21  24
ENDBRANCH  17  21
ENDBRANCH  11  20
ENDBRANCH   1  13
BRANCH   2  26
ATOM     26  O   LIG    1       23.887 -20.122   6.137  0.00  0.00    -0.376 OA
BRANCH  26  27
ATOM     27  C   LIG    1       23.095 -19.669   5.020  0.00  0.00    +0.228 C 
ATOM     28  C   LIG    1       22.373 -18.365   5.374  0.00  0.00    +0.070 C 
ATOM     29  C   LIG    1       22.069 -20.772   4.736  0.00  0.00    +0.070 C 
BRANCH  27  30
ATOM     30  C   LIG    1       23.956 -19.495   3.757  0.00  0.00    +0.351 C 
ATOM     31  O   LIG    1       24.483 -18.464   3.366  0.00  0.00    -0.246 OA
BRANCH  30  32
ATOM     32  O   LIG    1       24.148 -20.645   3.071  0.00  0.00    -0.478 OA
ATOM     33  H   LIG    1       23.373 -21.205   3.288  0.00  0.00    +0.295 HD
ENDBRANCH  30  32
ENDBRANCH  27  30
ENDBRANCH  26  27
ENDBRANCH   2  26
TORSDOF 10
ENDMDL
MODEL 5
REMARK VINA RESULT:      -6.4      1.141      1.791
REMARK  Name = *****
REMARK                            x       y       z     vdW  Elec       q    Type
REMARK                         _______ _______ _______ _____ _____    ______ ____
ROOT
ATOM      1  C   LIG    1       25.582 -23.116   6.152  0.00  0.00    +0.190 C 
ATOM      2  N   LIG    1       25.030 -22.390   5.213  0.00  0.00    -0.077 NA
ENDROOT
BRANCH   1   3
ATOM      3  C   LIG    1       25.358 -24.560   6.008  0.00  0.00    +0.107 A 
ATOM      4  N   LIG    1       26.357 -25.435   5.594  0.00  0.00    -0.223 NA
ATOM      5  C   LIG    1       25.918 -26.668   5.578  0.00  0.00    +0.156 A 
ATOM      6  S   LIG    1       24.275 -26.869   6.025  0.00  0.00    -0.060 S 
ATOM      7  C   LIG    1       24.145 -25.181   6.263  0.00  0.00    +0.078 A 
BRANCH   5   8
ATOM      8  N   LIG    1       26.673 -27.714   5.216  0.00  0.00    -0.338 N 
ATOM      9  H   LIG    1       27.456 -27.510   4.605  0.00  0.00    +0.144 HD
ATOM     10  H   LIG    1       26.222 -28.604   5.052  0.00  0.00    +0.144 HD
ENDBRANCH   5   8
ENDBRANCH   1   3
BRANCH   1  13
ATOM     11  N   LIG    1       27.670 -22.198   7.143  0.00  0.00    -0.297 N 
ATOM     12  H   LIG    1       28.032 -22.368   6.209  0.00  0.00    +0.150 HD
ATOM     13  C   LIG    1       26.363 -22.572   7.368  0.00  0.00    +0.268 C 
ATOM     14  O   LIG    1       25.852 -22.464   8.473  0.00  0.00    -0.268 OA
BRANCH  11  20
ATOM     15  C   LIG    1       31.059 -22.014   8.363  0.00  0.00    +0.032 C 
ATOM     16  C   LIG    1       29.934 -21.234   7.727  0.00  0.00    +0.129 C 
ATOM     17  N   LIG    1       29.746 -19.888   8.324  0.00  0.00    -0.146 N 
ATOM     18  C   LIG    1       28.354 -20.061   8.453  0.00  0.00    +0.259 C 
ATOM     19  O   LIG    1       27.472 -19.262   8.615  0.00  0.00    -0.272 OA
ATOM     20  C   LIG    1       28.508 -21.612   8.205  0.00  0.00    +0.183 C 
BRANCH  17  21
ATOM     21  S   LIG    1       30.397 -18.454   7.833  0.00  0.00    +0.169 S 
ATOM     22  O   LIG    1       30.228 -17.475   8.873  0.00  0.00    -0.126 OA
ATOM     23  O   LIG    1       29.927 -18.208   6.484  0.00  0.00    -0.126 OA
BRANCH  21  24
ATOM     24  O   LIG    1       31.959 -18.784   7.670  0.00  0.00    -0.238 OA
ATOM     25  H   LIG    1       32.054 -19.757   7.654  0.00  0.00    +0.246 HD
ENDBRANCH  21  24
ENDBRANCH  17  21
ENDBRANCH  11  20
ENDBRANCH   1  13
BRANCH   2  26
ATOM     26  O   LIG    1       25.132 -21.000   5.355  0.00  0.00    -0.376 OA
BRANCH  26  27
ATOM     27  C   LIG    1       24.297 -20.344   4.381  0.00  0.00    +0.228 C 
ATOM     28  C   LIG    1       23.914 -21.321   3.264  0.00  0.00    +0.070 C 
ATOM     29  C   LIG    1       25.124 -19.191   3.801  0.00  0.00    +0.070 C 
BRANCH  27  30
ATOM     30  C   LIG    1       23.043 -19.737   5.035  0.00  0.00    +0.351 C 
ATOM     31  O   LIG    1       22.278 -18.924   4.537  0.00  0.00    -0.246 OA
BRANCH  30  32
ATOM     32  O   LIG    1       22.791 -20.221   6.273  0.00  0.00    -0.478 OA
ATOM     33  H   LIG    1       21.815 -20.284   6.329  0.00  0.00    +0.295 HD
ENDBRANCH  30  32
ENDBRANCH  27  30
ENDBRANCH  26  27
ENDBRANCH   2  26
TORSDOF 10
ENDMDL
MODEL 6
REMARK VINA RESULT:      -6.2      2.862      5.073
REMARK  Name = *****
REMARK                            x       y       z     vdW  Elec       q    Type
REMARK                         _______ _______ _______ _____ _____    ______ ____
ROOT
ATOM      1  C   LIG    1       24.772 -21.111   5.613  0.00  0.00    +0.190 C 
ATOM      2  N   LIG    1       24.390 -22.228   6.179  0.00  0.00    -0.077 NA
ENDROOT
BRANCH   1   3
ATOM      3  C   LIG    1       23.668 -20.260   5.153  0.00  0.00    +0.107 A 
ATOM      4  N   LIG    1       23.822 -18.898   4.914  0.00  0.00    -0.223 NA
ATOM      5  C   LIG    1       22.704 -18.373   4.482  0.00  0.00    +0.156 A 
ATOM      6  S   LIG    1       21.382 -19.457   4.356  0.00  0.00    -0.060 S 
ATOM      7  C   LIG    1       22.384 -20.725   4.917  0.00  0.00    +0.078 A 
BRANCH   5   8
ATOM      8  N   LIG    1       22.571 -17.075   4.176  0.00  0.00    -0.338 N 
ATOM      9  H   LIG    1       22.793 -16.416   4.914  0.00  0.00    +0.144 HD
ATOM     10  H   LIG    1       21.812 -16.796   3.566  0.00  0.00    +0.144 HD
ENDBRANCH   5   8
ENDBRANCH   1   3
BRANCH   1  13
ATOM     11  N   LIG    1       27.128 -20.912   6.386  0.00  0.00    -0.297 N 
ATOM     12  H   LIG    1       26.739 -21.288   7.248  0.00  0.00    +0.150 HD
ATOM     13  C   LIG    1       26.235 -20.684   5.363  0.00  0.00    +0.268 C 
ATOM     14  O   LIG    1       26.594 -20.180   4.308  0.00  0.00    -0.268 OA
BRANCH  11  20
ATOM     15  C   LIG    1       29.434 -18.382   5.252  0.00  0.00    +0.032 C 
ATOM     16  C   LIG    1       28.891 -19.100   6.463  0.00  0.00    +0.129 C 
ATOM     17  N   LIG    1       29.946 -19.494   7.430  0.00  0.00    -0.146 N 
ATOM     18  C   LIG    1       29.453 -20.809   7.542  0.00  0.00    +0.259 C 
ATOM     19  O   LIG    1       29.642 -21.654   8.374  0.00  0.00    -0.272 OA
ATOM     20  C   LIG    1       28.563 -20.602   6.255  0.00  0.00    +0.183 C 
BRANCH  17  21
ATOM     21  S   LIG    1       30.488 -18.660   8.745  0.00  0.00    +0.169 S 
ATOM     22  O   LIG    1       29.397 -18.450   9.658  0.00  0.00    -0.126 OA
ATOM     23  O   LIG    1       31.282 -17.551   8.253  0.00  0.00    -0.126 OA
BRANCH  21  24
ATOM     24  O   LIG    1       31.551 -19.659   9.415  0.00  0.00    -0.238 OA
ATOM     25  H   LIG    1       31.217 -20.570   9.290  0.00  0.00    +0.246 HD
ENDBRANCH  21  24
ENDBRANCH  17  21
ENDBRANCH  11  20
ENDBRANCH   1  13
BRANCH   2  26
ATOM     26  O   LIG    1       25.405 -23.120   6.550  0.00  0.00    -0.376 OA
BRANCH  26  27
ATOM     27  C   LIG    1       24.956 -24.478   6.366  0.00  0.00    +0.228 C 
ATOM     28  C   LIG    1       23.468 -24.597   6.709  0.00  0.00    +0.070 C 
ATOM     29  C   LIG    1       25.782 -25.345   7.322  0.00  0.00    +0.070 C 
BRANCH  27  30
ATOM     30  C   LIG    1       25.231 -24.969   4.933  0.00  0.00    +0.351 C 
ATOM     31  O   LIG    1       25.763 -26.021   4.609  0.00  0.00    -0.246 OA
BRANCH  30  32
ATOM     32  O   LIG    1       24.779 -24.126   3.977  0.00  0.00    -0.478 OA
ATOM     33  H   LIG    1       24.805 -23.236   4.387  0.00  0.00    +0.295 HD
ENDBRANCH  30  32
ENDBRANCH  27  30
ENDBRANCH  26  27
ENDBRANCH   2  26
TORSDOF 10
ENDMDL
MODEL 7
REMARK VINA RESULT:      -5.6      7.053      9.835
REMARK  Name = *****
REMARK                            x       y       z     vdW  Elec       q    Type
REMARK                         _______ _______ _______ _____ _____    ______ ____
ROOT
ATOM      1  C   LIG    1       24.191 -29.587   7.008  0.00  0.00    +0.190 C 
ATOM      2  N   LIG    1       23.952 -30.527   6.129  0.00  0.00    -0.077 NA
ENDROOT
BRANCH   1   3
ATOM      3  C   LIG    1       24.634 -28.314   6.425  0.00  0.00    +0.107 A 
ATOM      4  N   LIG    1       23.863 -27.158   6.479  0.00  0.00    -0.223 NA
ATOM      5  C   LIG    1       24.492 -26.154   5.919  0.00  0.00    +0.156 A 
ATOM      6  S   LIG    1       26.032 -26.525   5.264  0.00  0.00    -0.060 S 
ATOM      7  C   LIG    1       25.846 -28.147   5.772  0.00  0.00    +0.078 A 
BRANCH   5   8
ATOM      8  N   LIG    1       23.976 -24.921   5.831  0.00  0.00    -0.338 N 
ATOM      9  H   LIG    1       24.610 -24.156   6.033  0.00  0.00    +0.144 HD
ATOM     10  H   LIG    1       23.019 -24.773   6.125  0.00  0.00    +0.144 HD
ENDBRANCH   5   8
ENDBRANCH   1   3
BRANCH   1  13
ATOM     11  N   LIG    1       25.205 -29.374   9.269  0.00  0.00    -0.297 N 
ATOM     12  H   LIG    1       26.020 -29.088   8.732  0.00  0.00    +0.150 HD
ATOM     13  C   LIG    1       24.095 -29.744   8.542  0.00  0.00    +0.268 C 
ATOM     14  O   LIG    1       23.086 -30.160   9.091  0.00  0.00    -0.268 OA
BRANCH  11  20
ATOM     15  C   LIG    1       25.359 -31.637  12.074  0.00  0.00    +0.032 C 
ATOM     16  C   LIG    1       26.103 -30.568  11.310  0.00  0.00    +0.129 C 
ATOM     17  N   LIG    1       26.772 -29.580  12.192  0.00  0.00    -0.146 N 
ATOM     18  C   LIG    1       26.266 -28.483  11.467  0.00  0.00    +0.259 C 
ATOM     19  O   LIG    1       26.612 -27.334  11.432  0.00  0.00    -0.272 OA
ATOM     20  C   LIG    1       25.225 -29.422  10.742  0.00  0.00    +0.183 C 
BRANCH  17  21
ATOM     21  S   LIG    1       28.322 -29.600  12.757  0.00  0.00    +0.169 S 
ATOM     22  O   LIG    1       29.233 -29.624  11.645  0.00  0.00    -0.126 OA
ATOM     23  O   LIG    1       28.384 -30.602  13.803  0.00  0.00    -0.126 OA
BRANCH  21  24
ATOM     24  O   LIG    1       28.463 -28.197  13.524  0.00  0.00    -0.238 OA
ATOM     25  H   LIG    1       28.837 -27.552  12.890  0.00  0.00    +0.246 HD
ENDBRANCH  21  24
ENDBRANCH  17  21
ENDBRANCH  11  20
ENDBRANCH   1  13
BRANCH   2  26
ATOM     26  O   LIG    1       23.618 -31.789   6.638  0.00  0.00    -0.376 OA
BRANCH  26  27
ATOM     27  C   LIG    1       24.375 -32.809   5.955  0.00  0.00    +0.228 C 
ATOM     28  C   LIG    1       23.496 -33.524   4.925  0.00  0.00    +0.070 C 
ATOM     29  C   LIG    1       24.835 -33.803   7.027  0.00  0.00    +0.070 C 
BRANCH  27  30
ATOM     30  C   LIG    1       25.634 -32.222   5.291  0.00  0.00    +0.351 C 
ATOM     31  O   LIG    1       25.831 -32.080   4.094  0.00  0.00    -0.246 OA
BRANCH  30  32
ATOM     32  O   LIG    1       26.566 -31.802   6.177  0.00  0.00    -0.478 OA
ATOM     33  H   LIG    1       26.173 -31.015   6.608  0.00  0.00    +0.295 HD
ENDBRANCH  30  32
ENDBRANCH  27  30
ENDBRANCH  26  27
ENDBRANCH   2  26
TORSDOF 10
ENDMDL
MODEL 8
REMARK VINA RESULT:      -5.4      8.722     10.397
REMARK  Name = *****
REMARK                            x       y       z     vdW  Elec       q    Type
REMARK                         _______ _______ _______ _____ _____    ______ ____
ROOT
ATOM      1  C   LIG    1       24.774 -30.562   8.092  0.00  0.00    +0.190 C 
ATOM      2  N   LIG    1       23.566 -30.993   8.353  0.00  0.00    -0.077 NA
ENDROOT
BRANCH   1   3
ATOM      3  C   LIG    1       25.465 -31.310   7.034  0.00  0.00    +0.107 A 
ATOM      4  N   LIG    1       26.625 -32.042   7.270  0.00  0.00    -0.223 NA
ATOM      5  C   LIG    1       27.026 -32.641   6.177  0.00  0.00    +0.156 A 
ATOM      6  S   LIG    1       26.067 -32.352   4.785  0.00  0.00    -0.060 S 
ATOM      7  C   LIG    1       25.036 -31.355   5.717  0.00  0.00    +0.078 A 
BRANCH   5   8
ATOM      8  N   LIG    1       28.120 -33.412   6.120  0.00  0.00    -0.338 N 
ATOM      9  H   LIG    1       27.973 -34.379   5.853  0.00  0.00    +0.144 HD
ATOM     10  H   LIG    1       28.854 -33.263   6.801  0.00  0.00    +0.144 HD
ENDBRANCH   5   8
ENDBRANCH   1   3
BRANCH   1  13
ATOM     11  N   LIG    1       25.690 -29.576  10.184  0.00  0.00    -0.297 N 
ATOM     12  H   LIG    1       25.281 -30.409  10.600  0.00  0.00    +0.150 HD
ATOM     13  C   LIG    1       25.500 -29.415   8.829  0.00  0.00    +0.268 C 
ATOM     14  O   LIG    1       25.901 -28.419   8.245  0.00  0.00    -0.268 OA
BRANCH  11  20
ATOM     15  C   LIG    1       25.354 -27.376  13.022  0.00  0.00    +0.032 C 
ATOM     16  C   LIG    1       26.037 -28.616  12.498  0.00  0.00    +0.129 C 
ATOM     17  N   LIG    1       27.482 -28.671  12.831  0.00  0.00    -0.146 N 
ATOM     18  C   LIG    1       27.848 -29.000  11.511  0.00  0.00    +0.259 C 
ATOM     19  O   LIG    1       28.857 -29.476  11.068  0.00  0.00    -0.272 OA
ATOM     20  C   LIG    1       26.417 -28.582  10.994  0.00  0.00    +0.183 C 
BRANCH  17  21
ATOM     21  S   LIG    1       28.203 -29.388  14.131  0.00  0.00    +0.169 S 
ATOM     22  O   LIG    1       28.106 -30.817  14.000  0.00  0.00    -0.126 OA
ATOM     23  O   LIG    1       27.724 -28.706  15.318  0.00  0.00    -0.126 OA
BRANCH  21  24
ATOM     24  O   LIG    1       29.741 -28.950  13.999  0.00  0.00    -0.238 OA
ATOM     25  H   LIG    1       30.094 -28.837  14.904  0.00  0.00    +0.246 HD
ENDBRANCH  21  24
ENDBRANCH  17  21
ENDBRANCH  11  20
ENDBRANCH   1  13
BRANCH   2  26
ATOM     26  O   LIG    1       22.899 -30.375   9.419  0.00  0.00    -0.376 OA
BRANCH  26  27
ATOM     27  C   LIG    1       22.274 -31.374  10.251  0.00  0.00    +0.228 C 
ATOM     28  C   LIG    1       22.123 -32.689   9.480  0.00  0.00    +0.070 C 
ATOM     29  C   LIG    1       20.891 -30.829  10.625  0.00  0.00    +0.070 C 
BRANCH  27  30
ATOM     30  C   LIG    1       23.061 -31.588  11.556  0.00  0.00    +0.351 C 
ATOM     31  O   LIG    1       22.612 -31.577  12.692  0.00  0.00    -0.246 OA
BRANCH  30  32
ATOM     32  O   LIG    1       24.373 -31.850  11.359  0.00  0.00    -0.478 OA
ATOM     33  H   LIG    1       24.781 -30.981  11.161  0.00  0.00    +0.295 HD
ENDBRANCH  30  32
ENDBRANCH  27  30
ENDBRANCH  26  27
ENDBRANCH   2  26
TORSDOF 10
ENDMDL
MODEL 9
REMARK VINA RESULT:      -5.4      7.674     10.609
REMARK  Name = *****
REMARK                            x       y       z     vdW  Elec       q    Type
REMARK                         _______ _______ _______ _____ _____    ______ ____
ROOT
ATOM      1  C   LIG    1       22.079 -30.910  11.222  0.00  0.00    +0.190 C 
ATOM      2  N   LIG    1       22.404 -30.460  12.407  0.00  0.00    -0.077 NA
ENDROOT
BRANCH   1   3
ATOM      3  C   LIG    1       20.656 -31.236  11.069  0.00  0.00    +0.107 A 
ATOM      4  N   LIG    1       19.834 -30.590  10.151  0.00  0.00    -0.223 NA
ATOM      5  C   LIG    1       18.622 -31.082  10.186  0.00  0.00    +0.156 A 
ATOM      6  S   LIG    1       18.366 -32.329  11.335  0.00  0.00    -0.060 S 
ATOM      7  C   LIG    1       20.003 -32.203  11.817  0.00  0.00    +0.078 A 
BRANCH   5   8
ATOM      8  N   LIG    1       17.626 -30.641   9.405  0.00  0.00    -0.338 N 
ATOM      9  H   LIG    1       16.698 -30.657   9.812  0.00  0.00    +0.144 HD
ATOM     10  H   LIG    1       17.662 -30.843   8.414  0.00  0.00    +0.144 HD
ENDBRANCH   5   8
ENDBRANCH   1   3
BRANCH   1  13
ATOM     11  N   LIG    1       23.742 -30.063   9.577  0.00  0.00    -0.297 N 
ATOM     12  H   LIG    1       23.499 -29.167   9.991  0.00  0.00    +0.150 HD
ATOM     13  C   LIG    1       23.059 -31.160  10.055  0.00  0.00    +0.268 C 
ATOM     14  O   LIG    1       23.237 -32.274   9.581  0.00  0.00    -0.268 OA
BRANCH  11  20
ATOM     15  C   LIG    1       24.168 -30.989   6.118  0.00  0.00    +0.032 C 
ATOM     16  C   LIG    1       24.186 -29.841   7.097  0.00  0.00    +0.129 C 
ATOM     17  N   LIG    1       25.329 -28.916   6.893  0.00  0.00    -0.146 N 
ATOM     18  C   LIG    1       25.665 -28.914   8.261  0.00  0.00    +0.259 C 
ATOM     19  O   LIG    1       26.338 -28.158   8.906  0.00  0.00    -0.272 OA
ATOM     20  C   LIG    1       24.747 -30.174   8.504  0.00  0.00    +0.183 C 
BRANCH  17  21
ATOM     21  S   LIG    1       25.377 -27.537   5.989  0.00  0.00    +0.169 S 
ATOM     22  O   LIG    1       24.398 -26.608   6.486  0.00  0.00    -0.126 OA
ATOM     23  O   LIG    1       25.397 -27.936   4.596  0.00  0.00    -0.126 OA
BRANCH  21  24
ATOM     24  O   LIG    1       26.846 -26.953   6.269  0.00  0.00    -0.238 OA
ATOM     25  H   LIG    1       26.991 -26.211   5.649  0.00  0.00    +0.246 HD
ENDBRANCH  21  24
ENDBRANCH  17  21
ENDBRANCH  11  20
ENDBRANCH   1  13
BRANCH   2  26
ATOM     26  O   LIG    1       23.766 -30.224  12.636  0.00  0.00    -0.376 OA
BRANCH  26  27
ATOM     27  C   LIG    1       23.943 -28.939  13.264  0.00  0.00    +0.228 C 
ATOM     28  C   LIG    1       24.088 -29.103  14.780  0.00  0.00    +0.070 C 
ATOM     29  C   LIG    1       22.687 -28.120  12.946  0.00  0.00    +0.070 C 
BRANCH  27  30
ATOM     30  C   LIG    1       25.151 -28.189  12.674  0.00  0.00    +0.351 C 
ATOM     31  O   LIG    1       25.623 -27.134  13.072  0.00  0.00    -0.246 OA
BRANCH  30  32
ATOM     32  O   LIG    1       25.731 -28.832  11.635  0.00  0.00    -0.478 OA
ATOM     33  H   LIG    1       26.350 -28.180  11.244  0.00  0.00    +0.295 HD
ENDBRANCH  30  32
ENDBRANCH  27  30
ENDBRANCH  26  27
ENDBRANCH   2  26
TORSDOF 10
ENDMDL
