MODEL 1
REMARK VINA RESULT:      -7.5      0.000      0.000
REMARK  Name = *****
REMARK                            x       y       z     vdW  Elec       q    Type
REMARK                         _______ _______ _______ _____ _____    ______ ____
ROOT
ATOM      1  C   LIG    1       25.017 -20.845   7.066  0.00  0.00    +0.161 C 
ENDROOT
BRANCH   1   2
ATOM      2  C   LIG    1       26.526 -20.702   6.957  0.00  0.00    -0.014 A 
ATOM      3  C   LIG    1       27.406 -21.206   7.922  0.00  0.00    +0.055 A 
ATOM      4  C   LIG    1       28.776 -21.007   7.782  0.00  0.00    +0.159 A 
ATOM      5  C   LIG    1       29.292 -20.290   6.702  0.00  0.00    +0.158 A 
ATOM      6  C   LIG    1       28.439 -19.770   5.746  0.00  0.00    +0.049 A 
ATOM      7  C   LIG    1       27.062 -19.978   5.873  0.00  0.00    +0.010 A 
BRANCH   4   8
ATOM      8  O   LIG    1       29.623 -21.517   8.723  0.00  0.00    -0.503 OA
ATOM      9  H   LIG    1       30.232 -20.780   8.931  0.00  0.00    +0.292 HD
ENDBRANCH   4   8
BRANCH   5  10
ATOM     10  O   LIG    1       30.646 -20.121   6.637  0.00  0.00    -0.503 OA
ATOM     11  H   LIG    1       30.822 -19.260   6.217  0.00  0.00    +0.292 HD
ENDBRANCH   5  10
ENDBRANCH   1   2
BRANCH   1  12
ATOM     12  O   LIG    1       24.671 -21.280   8.384  0.00  0.00    -0.386 OA
ATOM     13  H   LIG    1       25.168 -20.735   9.015  0.00  0.00    +0.210 HD
ENDBRANCH   1  12
BRANCH   1  14
ATOM     14  C   LIG    1       24.274 -21.678   5.950  0.00  0.00    +0.087 C 
BRANCH  14  16
ATOM     15  C   LIG    1       22.669 -19.746   5.306  0.00  0.00    +0.005 C 
ATOM     16  C   LIG    1       23.765 -20.703   4.850  0.00  0.00    +0.018 C 
ENDBRANCH  14  16
BRANCH  14  17
ATOM     17  N   LIG    1       24.990 -22.797   5.302  0.00  0.00    -0.308 NA
ATOM     18  H   LIG    1       25.984 -22.580   5.243  0.00  0.00    +0.122 HD
BRANCH  17  19
ATOM     19  C   LIG    1       24.804 -24.127   5.898  0.00  0.00    +0.048 C 
ATOM     20  C   LIG    1       23.451 -24.136   6.619  0.00  0.00    +0.024 C 
ATOM     21  C   LIG    1       25.909 -24.528   6.877  0.00  0.00    +0.024 C 
ENDBRANCH  17  19
ENDBRANCH  14  17
ENDBRANCH   1  14
TORSDOF 8
ENDMDL
MODEL 2
REMARK VINA RESULT:      -7.4      2.116      5.285
REMARK  Name = *****
REMARK                            x       y       z     vdW  Elec       q    Type
REMARK                         _______ _______ _______ _____ _____    ______ ____
ROOT
ATOM      1  C   LIG    1       26.167 -21.311   7.584  0.00  0.00    +0.161 C 
ENDROOT
BRANCH   1   2
ATOM      2  C   LIG    1       25.446 -22.576   7.151  0.00  0.00    -0.014 A 
ATOM      3  C   LIG    1       24.051 -22.666   7.075  0.00  0.00    +0.055 A 
ATOM      4  C   LIG    1       23.452 -23.866   6.709  0.00  0.00    +0.159 A 
ATOM      5  C   LIG    1       24.220 -24.998   6.435  0.00  0.00    +0.158 A 
ATOM      6  C   LIG    1       25.599 -24.937   6.520  0.00  0.00    +0.049 A 
ATOM      7  C   LIG    1       26.208 -23.729   6.873  0.00  0.00    +0.010 A 
BRANCH   4   8
ATOM      8  O   LIG    1       22.092 -23.934   6.624  0.00  0.00    -0.503 OA
ATOM      9  H   LIG    1       21.839 -23.152   6.094  0.00  0.00    +0.292 HD
ENDBRANCH   4   8
BRANCH   5  10
ATOM     10  O   LIG    1       23.563 -26.148   6.096  0.00  0.00    -0.503 OA
ATOM     11  H   LIG    1       24.161 -26.898   6.267  0.00  0.00    +0.292 HD
ENDBRANCH   5  10
ENDBRANCH   1   2
BRANCH   1  12
ATOM     12  O   LIG    1       25.409 -20.652   8.603  0.00  0.00    -0.386 OA
ATOM     13  H   LIG    1       25.319 -21.268   9.349  0.00  0.00    +0.210 HD
ENDBRANCH   1  12
BRANCH   1  14
ATOM     14  C   LIG    1       26.644 -20.312   6.459  0.00  0.00    +0.087 C 
BRANCH  14  16
ATOM     15  C   LIG    1       28.879 -21.150   7.470  0.00  0.00    +0.005 C 
ATOM     16  C   LIG    1       28.187 -20.145   6.555  0.00  0.00    +0.018 C 
ENDBRANCH  14  16
BRANCH  14  17
ATOM     17  N   LIG    1       26.281 -20.598   5.054  0.00  0.00    -0.308 NA
ATOM     18  H   LIG    1       26.249 -21.607   4.907  0.00  0.00    +0.122 HD
BRANCH  17  19
ATOM     19  C   LIG    1       25.045 -19.981   4.558  0.00  0.00    +0.048 C 
ATOM     20  C   LIG    1       24.218 -21.070   3.865  0.00  0.00    +0.024 C 
ATOM     21  C   LIG    1       25.277 -18.820   3.587  0.00  0.00    +0.024 C 
ENDBRANCH  17  19
ENDBRANCH  14  17
ENDBRANCH   1  14
TORSDOF 8
ENDMDL
MODEL 3
REMARK VINA RESULT:      -7.4      3.334      5.228
REMARK  Name = *****
REMARK                            x       y       z     vdW  Elec       q    Type
REMARK                         _______ _______ _______ _____ _____    ______ ____
ROOT
ATOM      1  C   LIG    1       23.283 -23.294   6.892  0.00  0.00    +0.161 C 
ENDROOT
BRANCH   1   2
ATOM      2  C   LIG    1       24.168 -24.456   6.474  0.00  0.00    -0.014 A 
ATOM      3  C   LIG    1       23.653 -25.687   6.051  0.00  0.00    +0.055 A 
ATOM      4  C   LIG    1       24.520 -26.723   5.719  0.00  0.00    +0.159 A 
ATOM      5  C   LIG    1       25.902 -26.565   5.821  0.00  0.00    +0.158 A 
ATOM      6  C   LIG    1       26.432 -25.363   6.252  0.00  0.00    +0.049 A 
ATOM      7  C   LIG    1       25.567 -24.312   6.573  0.00  0.00    +0.010 A 
BRANCH   4   8
ATOM      8  O   LIG    1       24.003 -27.913   5.295  0.00  0.00    -0.503 OA
ATOM      9  H   LIG    1       24.198 -28.539   6.021  0.00  0.00    +0.292 HD
ENDBRANCH   4   8
BRANCH   5  10
ATOM     10  O   LIG    1       26.692 -27.632   5.493  0.00  0.00    -0.503 OA
ATOM     11  H   LIG    1       26.128 -28.425   5.463  0.00  0.00    +0.292 HD
ENDBRANCH   5  10
ENDBRANCH   1   2
BRANCH   1  12
ATOM     12  O   LIG    1       21.923 -23.582   6.555  0.00  0.00    -0.386 OA
ATOM     13  H   LIG    1       21.731 -23.150   5.707  0.00  0.00    +0.210 HD
ENDBRANCH   1  12
BRANCH   1  14
ATOM     14  C   LIG    1       23.712 -21.842   6.443  0.00  0.00    +0.087 C 
BRANCH  14  16
ATOM     15  C   LIG    1       22.659 -19.740   5.353  0.00  0.00    +0.005 C 
ATOM     16  C   LIG    1       22.608 -21.255   5.518  0.00  0.00    +0.018 C 
ENDBRANCH  14  16
BRANCH  14  17
ATOM     17  N   LIG    1       24.043 -20.845   7.484  0.00  0.00    -0.308 NA
ATOM     18  H   LIG    1       23.603 -21.110   8.365  0.00  0.00    +0.122 HD
BRANCH  17  19
ATOM     19  C   LIG    1       25.469 -20.573   7.701  0.00  0.00    +0.048 C 
ATOM     20  C   LIG    1       26.174 -20.635   6.341  0.00  0.00    +0.024 C 
ATOM     21  C   LIG    1       26.145 -21.542   8.673  0.00  0.00    +0.024 C 
ENDBRANCH  17  19
ENDBRANCH  14  17
ENDBRANCH   1  14
TORSDOF 8
ENDMDL
MODEL 4
REMARK VINA RESULT:      -7.4      2.218      3.167
REMARK  Name = *****
REMARK                            x       y       z     vdW  Elec       q    Type
REMARK                         _______ _______ _______ _____ _____    ______ ____
ROOT
ATOM      1  C   LIG    1       28.278 -20.955   6.340  0.00  0.00    +0.161 C 
ENDROOT
BRANCH   1   2
ATOM      2  C   LIG    1       29.344 -20.344   7.233  0.00  0.00    -0.014 A 
ATOM      3  C   LIG    1       30.257 -21.115   7.961  0.00  0.00    +0.055 A 
ATOM      4  C   LIG    1       31.184 -20.493   8.791  0.00  0.00    +0.159 A 
ATOM      5  C   LIG    1       31.207 -19.105   8.930  0.00  0.00    +0.158 A 
ATOM      6  C   LIG    1       30.304 -18.325   8.232  0.00  0.00    +0.049 A 
ATOM      7  C   LIG    1       29.378 -18.943   7.385  0.00  0.00    +0.010 A 
BRANCH   4   8
ATOM      8  O   LIG    1       32.077 -21.258   9.483  0.00  0.00    -0.503 OA
ATOM      9  H   LIG    1       32.950 -21.001   9.125  0.00  0.00    +0.292 HD
ENDBRANCH   4   8
BRANCH   5  10
ATOM     10  O   LIG    1       32.135 -18.564   9.774  0.00  0.00    -0.503 OA
ATOM     11  H   LIG    1       31.673 -17.957  10.380  0.00  0.00    +0.292 HD
ENDBRANCH   5  10
ENDBRANCH   1   2
BRANCH   1  12
ATOM     12  O   LIG    1       27.919 -20.024   5.315  0.00  0.00    -0.386 OA
ATOM     13  H   LIG    1       27.106 -20.347   4.894  0.00  0.00    +0.210 HD
ENDBRANCH   1  12
BRANCH   1  14
ATOM     14  C   LIG    1       27.011 -21.592   7.034  0.00  0.00    +0.087 C 
BRANCH  14  16
ATOM     15  C   LIG    1       25.865 -20.483   9.078  0.00  0.00    +0.005 C 
ATOM     16  C   LIG    1       26.103 -20.449   7.572  0.00  0.00    +0.018 C 
ENDBRANCH  14  16
BRANCH  14  17
ATOM     17  N   LIG    1       26.179 -22.540   6.263  0.00  0.00    -0.308 NA
ATOM     18  H   LIG    1       26.761 -23.041   5.593  0.00  0.00    +0.122 HD
BRANCH  17  19
ATOM     19  C   LIG    1       25.381 -23.496   7.042  0.00  0.00    +0.048 C 
ATOM     20  C   LIG    1       25.837 -24.910   6.666  0.00  0.00    +0.024 C 
ATOM     21  C   LIG    1       23.872 -23.369   6.821  0.00  0.00    +0.024 C 
ENDBRANCH  17  19
ENDBRANCH  14  17
ENDBRANCH   1  14
TORSDOF 8
ENDMDL
MODEL 5
REMARK VINA RESULT:      -7.2      2.378      5.130
REMARK  Name = *****
REMARK                            x       y       z     vdW  Elec       q    Type
REMARK                         _______ _______ _______ _____ _____    ______ ____
ROOT
ATOM      1  C   LIG    1       25.577 -21.752   7.357  0.00  0.00    +0.161 C 
ENDROOT
BRANCH   1   2
ATOM      2  C   LIG    1       25.204 -23.167   6.946  0.00  0.00    -0.014 A 
ATOM      3  C   LIG    1       26.157 -24.125   6.581  0.00  0.00    +0.055 A 
ATOM      4  C   LIG    1       25.746 -25.391   6.176  0.00  0.00    +0.159 A 
ATOM      5  C   LIG    1       24.392 -25.720   6.106  0.00  0.00    +0.158 A 
ATOM      6  C   LIG    1       23.434 -24.783   6.446  0.00  0.00    +0.049 A 
ATOM      7  C   LIG    1       23.840 -23.513   6.868  0.00  0.00    +0.010 A 
BRANCH   4   8
ATOM      8  O   LIG    1       26.687 -26.320   5.838  0.00  0.00    -0.503 OA
ATOM      9  H   LIG    1       26.325 -26.757   5.040  0.00  0.00    +0.292 HD
ENDBRANCH   4   8
BRANCH   5  10
ATOM     10  O   LIG    1       24.062 -26.978   5.686  0.00  0.00    -0.503 OA
ATOM     11  H   LIG    1       23.114 -26.981   5.462  0.00  0.00    +0.292 HD
ENDBRANCH   5  10
ENDBRANCH   1   2
BRANCH   1  12
ATOM     12  O   LIG    1       24.703 -21.311   8.400  0.00  0.00    -0.386 OA
ATOM     13  H   LIG    1       24.034 -20.733   8.000  0.00  0.00    +0.210 HD
ENDBRANCH   1  12
BRANCH   1  14
ATOM     14  C   LIG    1       25.736 -20.671   6.218  0.00  0.00    +0.087 C 
BRANCH  14  16
ATOM     15  C   LIG    1       27.960 -20.326   7.504  0.00  0.00    +0.005 C 
ATOM     16  C   LIG    1       27.216 -20.195   6.179  0.00  0.00    +0.018 C 
ENDBRANCH  14  16
BRANCH  14  17
ATOM     17  N   LIG    1       25.310 -21.017   4.845  0.00  0.00    -0.308 NA
ATOM     18  H   LIG    1       25.239 -22.030   4.753  0.00  0.00    +0.122 HD
BRANCH  17  19
ATOM     19  C   LIG    1       24.077 -20.383   4.362  0.00  0.00    +0.048 C 
ATOM     20  C   LIG    1       24.460 -19.069   3.671  0.00  0.00    +0.024 C 
ATOM     21  C   LIG    1       23.051 -20.102   5.463  0.00  0.00    +0.024 C 
ENDBRANCH  17  19
ENDBRANCH  14  17
ENDBRANCH   1  14
TORSDOF 8
ENDMDL
MODEL 6
REMARK VINA RESULT:      -7.2      1.616      2.244
REMARK  Name = *****
REMARK                            x       y       z     vdW  Elec       q    Type
REMARK                         _______ _______ _______ _____ _____    ______ ____
ROOT
ATOM      1  C   LIG    1       26.041 -20.376   4.660  0.00  0.00    +0.161 C 
ENDROOT
BRANCH   1   2
ATOM      2  C   LIG    1       27.059 -20.084   5.749  0.00  0.00    -0.014 A 
ATOM      3  C   LIG    1       28.300 -19.491   5.486  0.00  0.00    +0.055 A 
ATOM      4  C   LIG    1       29.204 -19.287   6.524  0.00  0.00    +0.159 A 
ATOM      5  C   LIG    1       28.903 -19.683   7.827  0.00  0.00    +0.158 A 
ATOM      6  C   LIG    1       27.690 -20.285   8.106  0.00  0.00    +0.049 A 
ATOM      7  C   LIG    1       26.771 -20.481   7.070  0.00  0.00    +0.010 A 
BRANCH   4   8
ATOM      8  O   LIG    1       30.404 -18.694   6.256  0.00  0.00    -0.503 OA
ATOM      9  H   LIG    1       30.364 -17.835   6.722  0.00  0.00    +0.292 HD
ENDBRANCH   4   8
BRANCH   5  10
ATOM     10  O   LIG    1       29.845 -19.464   8.793  0.00  0.00    -0.503 OA
ATOM     11  H   LIG    1       29.958 -20.291   9.296  0.00  0.00    +0.292 HD
ENDBRANCH   5  10
ENDBRANCH   1   2
BRANCH   1  12
ATOM     12  O   LIG    1       25.781 -19.184   3.914  0.00  0.00    -0.386 OA
ATOM     13  H   LIG    1       26.634 -18.763   3.723  0.00  0.00    +0.210 HD
ENDBRANCH   1  12
BRANCH   1  14
ATOM     14  C   LIG    1       24.712 -21.120   5.074  0.00  0.00    +0.087 C 
BRANCH  14  16
ATOM     15  C   LIG    1       22.600 -19.628   5.250  0.00  0.00    +0.005 C 
ATOM     16  C   LIG    1       23.512 -20.451   4.346  0.00  0.00    +0.018 C 
ENDBRANCH  14  16
BRANCH  14  17
ATOM     17  N   LIG    1       24.628 -22.584   4.886  0.00  0.00    -0.308 NA
ATOM     18  H   LIG    1       25.443 -22.910   4.367  0.00  0.00    +0.122 HD
BRANCH  17  19
ATOM     19  C   LIG    1       24.452 -23.393   6.099  0.00  0.00    +0.048 C 
ATOM     20  C   LIG    1       23.735 -22.530   7.142  0.00  0.00    +0.024 C 
ATOM     21  C   LIG    1       25.762 -23.923   6.686  0.00  0.00    +0.024 C 
ENDBRANCH  17  19
ENDBRANCH  14  17
ENDBRANCH   1  14
TORSDOF 8
ENDMDL
MODEL 7
REMARK VINA RESULT:      -7.2      1.396      3.181
REMARK  Name = *****
REMARK                            x       y       z     vdW  Elec       q    Type
REMARK                         _______ _______ _______ _____ _____    ______ ____
ROOT
ATOM      1  C   LIG    1       26.580 -21.112   7.525  0.00  0.00    +0.161 C 
ENDROOT
BRANCH   1   2
ATOM      2  C   LIG    1       27.982 -20.550   7.358  0.00  0.00    -0.014 A 
ATOM      3  C   LIG    1       28.299 -19.576   6.404  0.00  0.00    +0.055 A 
ATOM      4  C   LIG    1       29.611 -19.132   6.277  0.00  0.00    +0.159 A 
ATOM      5  C   LIG    1       30.629 -19.659   7.073  0.00  0.00    +0.158 A 
ATOM      6  C   LIG    1       30.340 -20.634   8.010  0.00  0.00    +0.049 A 
ATOM      7  C   LIG    1       29.021 -21.074   8.153  0.00  0.00    +0.010 A 
BRANCH   4   8
ATOM      8  O   LIG    1       29.903 -18.171   5.353  0.00  0.00    -0.503 OA
ATOM      9  H   LIG    1       29.357 -17.403   5.616  0.00  0.00    +0.292 HD
ENDBRANCH   4   8
BRANCH   5  10
ATOM     10  O   LIG    1       31.897 -19.186   6.882  0.00  0.00    -0.503 OA
ATOM     11  H   LIG    1       32.410 -19.364   7.691  0.00  0.00    +0.292 HD
ENDBRANCH   5  10
ENDBRANCH   1   2
BRANCH   1  12
ATOM     12  O   LIG    1       26.365 -21.464   8.895  0.00  0.00    -0.386 OA
ATOM     13  H   LIG    1       25.689 -22.160   8.918  0.00  0.00    +0.210 HD
ENDBRANCH   1  12
BRANCH   1  14
ATOM     14  C   LIG    1       26.121 -22.255   6.538  0.00  0.00    +0.087 C 
BRANCH  14  16
ATOM     15  C   LIG    1       24.409 -24.199   6.616  0.00  0.00    +0.005 C 
ATOM     16  C   LIG    1       25.474 -23.403   7.363  0.00  0.00    +0.018 C 
ENDBRANCH  14  16
BRANCH  14  17
ATOM     17  N   LIG    1       25.222 -21.907   5.416  0.00  0.00    -0.308 NA
ATOM     18  H   LIG    1       24.425 -22.543   5.407  0.00  0.00    +0.122 HD
BRANCH  17  19
ATOM     19  C   LIG    1       24.754 -20.517   5.358  0.00  0.00    +0.048 C 
ATOM     20  C   LIG    1       23.293 -20.490   5.821  0.00  0.00    +0.024 C 
ATOM     21  C   LIG    1       24.862 -19.884   3.969  0.00  0.00    +0.024 C 
ENDBRANCH  17  19
ENDBRANCH  14  17
ENDBRANCH   1  14
TORSDOF 8
ENDMDL
MODEL 8
REMARK VINA RESULT:      -7.2      0.888      2.499
REMARK  Name = *****
REMARK                            x       y       z     vdW  Elec       q    Type
REMARK                         _______ _______ _______ _____ _____    ______ ____
ROOT
ATOM      1  C   LIG    1       25.615 -21.124   7.058  0.00  0.00    +0.161 C 
ENDROOT
BRANCH   1   2
ATOM      2  C   LIG    1       27.112 -20.864   7.045  0.00  0.00    -0.014 A 
ATOM      3  C   LIG    1       27.983 -21.407   7.996  0.00  0.00    +0.055 A 
ATOM      4  C   LIG    1       29.339 -21.097   7.951  0.00  0.00    +0.159 A 
ATOM      5  C   LIG    1       29.847 -20.232   6.982  0.00  0.00    +0.158 A 
ATOM      6  C   LIG    1       29.001 -19.671   6.043  0.00  0.00    +0.049 A 
ATOM      7  C   LIG    1       27.639 -19.989   6.073  0.00  0.00    +0.010 A 
BRANCH   4   8
ATOM      8  O   LIG    1       30.179 -21.646   8.876  0.00  0.00    -0.503 OA
ATOM      9  H   LIG    1       29.624 -22.288   9.362  0.00  0.00    +0.292 HD
ENDBRANCH   4   8
BRANCH   5  10
ATOM     10  O   LIG    1       31.186 -19.961   7.007  0.00  0.00    -0.503 OA
ATOM     11  H   LIG    1       31.319 -19.065   6.650  0.00  0.00    +0.292 HD
ENDBRANCH   5  10
ENDBRANCH   1   2
BRANCH   1  12
ATOM     12  O   LIG    1       25.177 -21.335   8.403  0.00  0.00    -0.386 OA
ATOM     13  H   LIG    1       24.713 -22.188   8.432  0.00  0.00    +0.210 HD
ENDBRANCH   1  12
BRANCH   1  14
ATOM     14  C   LIG    1       25.048 -22.216   6.069  0.00  0.00    +0.087 C 
BRANCH  14  16
ATOM     15  C   LIG    1       22.860 -23.432   6.742  0.00  0.00    +0.005 C 
ATOM     16  C   LIG    1       24.374 -23.345   6.899  0.00  0.00    +0.018 C 
ENDBRANCH  14  16
BRANCH  14  17
ATOM     17  N   LIG    1       24.121 -21.793   4.998  0.00  0.00    -0.308 NA
ATOM     18  H   LIG    1       23.228 -22.273   5.108  0.00  0.00    +0.122 HD
BRANCH  17  19
ATOM     19  C   LIG    1       23.898 -20.348   4.856  0.00  0.00    +0.048 C 
ATOM     20  C   LIG    1       22.391 -20.090   4.967  0.00  0.00    +0.024 C 
ATOM     21  C   LIG    1       24.422 -19.765   3.542  0.00  0.00    +0.024 C 
ENDBRANCH  17  19
ENDBRANCH  14  17
ENDBRANCH   1  14
TORSDOF 8
ENDMDL
MODEL 9
REMARK VINA RESULT:      -7.1      2.245      3.394
REMARK  Name = *****
REMARK                            x       y       z     vdW  Elec       q    Type
REMARK                         _______ _______ _______ _____ _____    ______ ____
ROOT
ATOM      1  C   LIG    1       28.026 -20.459   5.821  0.00  0.00    +0.161 C 
ENDROOT
BRANCH   1   2
ATOM      2  C   LIG    1       29.155 -20.168   6.795  0.00  0.00    -0.014 A 
ATOM      3  C   LIG    1       29.573 -21.085   7.766  0.00  0.00    +0.055 A 
ATOM      4  C   LIG    1       30.587 -20.741   8.654  0.00  0.00    +0.159 A 
ATOM      5  C   LIG    1       31.185 -19.482   8.610  0.00  0.00    +0.158 A 
ATOM      6  C   LIG    1       30.776 -18.554   7.669  0.00  0.00    +0.049 A 
ATOM      7  C   LIG    1       29.767 -18.899   6.764  0.00  0.00    +0.010 A 
BRANCH   4   8
ATOM      8  O   LIG    1       30.994 -21.652   9.586  0.00  0.00    -0.503 OA
ATOM      9  H   LIG    1       31.575 -22.266   9.093  0.00  0.00    +0.292 HD
ENDBRANCH   4   8
BRANCH   5  10
ATOM     10  O   LIG    1       32.164 -19.208   9.523  0.00  0.00    -0.503 OA
ATOM     11  H   LIG    1       31.854 -18.477  10.087  0.00  0.00    +0.292 HD
ENDBRANCH   5  10
ENDBRANCH   1   2
BRANCH   1  12
ATOM     12  O   LIG    1       27.718 -19.276   5.078  0.00  0.00    -0.386 OA
ATOM     13  H   LIG    1       28.541 -18.959   4.672  0.00  0.00    +0.210 HD
ENDBRANCH   1  12
BRANCH   1  14
ATOM     14  C   LIG    1       26.730 -21.162   6.383  0.00  0.00    +0.087 C 
BRANCH  14  16
ATOM     15  C   LIG    1       25.857 -21.142   8.823  0.00  0.00    +0.005 C 
ATOM     16  C   LIG    1       26.181 -20.328   7.575  0.00  0.00    +0.018 C 
ENDBRANCH  14  16
BRANCH  14  17
ATOM     17  N   LIG    1       25.618 -21.453   5.452  0.00  0.00    -0.308 NA
ATOM     18  H   LIG    1       25.231 -22.374   5.658  0.00  0.00    +0.122 HD
BRANCH  17  19
ATOM     19  C   LIG    1       24.539 -20.460   5.388  0.00  0.00    +0.048 C 
ATOM     20  C   LIG    1       23.228 -21.162   5.759  0.00  0.00    +0.024 C 
ATOM     21  C   LIG    1       24.392 -19.790   4.020  0.00  0.00    +0.024 C 
ENDBRANCH  17  19
ENDBRANCH  14  17
ENDBRANCH   1  14
TORSDOF 8
ENDMDL
