MODEL 1
REMARK VINA RESULT:      -4.9      0.000      0.000
REMARK  Name = *****
REMARK                            x       y       z     vdW  Elec       q    Type
REMARK                         _______ _______ _______ _____ _____    ______ ____
ROOT
ATOM      1  N   LIG    1       25.588 -17.059   3.081  0.00  0.00    -0.119 NA
ATOM      2  C   LIG    1       25.961 -16.013   3.744  0.00  0.00    +0.159 C 
ENDROOT
BRANCH   2   3
ATOM      3  C   LIG    1       25.387 -14.672   3.486  0.00  0.00    +0.033 A 
ATOM      4  C   LIG    1       26.194 -13.696   2.873  0.00  0.00    +0.051 A 
ATOM      5 CL   LIG    1       27.829 -13.994   2.387  0.00  0.00    -0.083 Cl
ATOM      6  C   LIG    1       25.684 -12.420   2.599  0.00  0.00    +0.021 A 
ATOM      7  C   LIG    1       24.374 -12.099   2.939  0.00  0.00    +0.003 A 
ATOM      8  C   LIG    1       23.570 -13.054   3.553  0.00  0.00    +0.021 A 
ATOM      9  C   LIG    1       24.064 -14.337   3.828  0.00  0.00    +0.051 A 
ATOM     10 CL   LIG    1       22.971 -15.404   4.642  0.00  0.00    -0.083 Cl
ENDBRANCH   2   3
BRANCH   1  11
ATOM     11  N   LIG    1       26.224 -18.218   3.413  0.00  0.00    -0.155 N 
ATOM     12  H   LIG    1       27.235 -18.315   3.354  0.00  0.00    +0.292 HD
BRANCH  11  15
ATOM     13  N   LIG    1       26.222 -20.274   4.508  0.00  0.00    -0.128 NA
ATOM     14  H   LIG    1       25.538 -21.006   4.719  0.00  0.00    +0.306 HD
ATOM     15  C   LIG    1       25.601 -19.330   3.890  0.00  0.00    +0.400 C 
BRANCH  15  16
ATOM     16  N   LIG    1       24.265 -19.347   3.675  0.00  0.00    -0.288 N 
ATOM     17  H   LIG    1       24.098 -19.068   2.707  0.00  0.00    +0.255 HD
ATOM     18  H   LIG    1       23.731 -18.788   4.323  0.00  0.00    +0.255 HD
ENDBRANCH  15  16
ENDBRANCH  11  15
ENDBRANCH   1  11
TORSDOF 4
ENDMDL
MODEL 2
REMARK VINA RESULT:      -4.8      0.063      2.611
REMARK  Name = *****
REMARK                            x       y       z     vdW  Elec       q    Type
REMARK                         _______ _______ _______ _____ _____    ______ ____
ROOT
ATOM      1  N   LIG    1       25.696 -17.037   3.013  0.00  0.00    -0.119 NA
ATOM      2  C   LIG    1       25.885 -16.036   3.810  0.00  0.00    +0.159 C 
ENDROOT
BRANCH   2   3
ATOM      3  C   LIG    1       25.390 -14.675   3.496  0.00  0.00    +0.033 A 
ATOM      4  C   LIG    1       24.063 -14.345   3.823  0.00  0.00    +0.051 A 
ATOM      5 CL   LIG    1       22.979 -15.453   4.596  0.00  0.00    -0.083 Cl
ATOM      6  C   LIG    1       23.561 -13.065   3.557  0.00  0.00    +0.021 A 
ATOM      7  C   LIG    1       24.368 -12.105   2.954  0.00  0.00    +0.003 A 
ATOM      8  C   LIG    1       25.681 -12.424   2.618  0.00  0.00    +0.021 A 
ATOM      9  C   LIG    1       26.198 -13.700   2.886  0.00  0.00    +0.051 A 
ATOM     10 CL   LIG    1       27.827 -13.972   2.367  0.00  0.00    -0.083 Cl
ENDBRANCH   2   3
BRANCH   1  11
ATOM     11  N   LIG    1       26.232 -18.221   3.426  0.00  0.00    -0.155 N 
ATOM     12  H   LIG    1       27.236 -18.370   3.479  0.00  0.00    +0.292 HD
BRANCH  11  15
ATOM     13  N   LIG    1       24.236 -19.403   3.638  0.00  0.00    -0.128 NA
ATOM     14  H   LIG    1       23.926 -20.269   4.086  0.00  0.00    +0.306 HD
ATOM     15  C   LIG    1       25.503 -19.292   3.843  0.00  0.00    +0.400 C 
BRANCH  15  16
ATOM     16  N   LIG    1       26.231 -20.241   4.475  0.00  0.00    -0.288 N 
ATOM     17  H   LIG    1       27.191 -20.181   4.134  0.00  0.00    +0.255 HD
ATOM     18  H   LIG    1       25.861 -21.176   4.390  0.00  0.00    +0.255 HD
ENDBRANCH  15  16
ENDBRANCH  11  15
ENDBRANCH   1  11
TORSDOF 4
ENDMDL
MODEL 3
REMARK VINA RESULT:      -4.4      3.131      6.041
REMARK  Name = *****
REMARK                            x       y       z     vdW  Elec       q    Type
REMARK                         _______ _______ _______ _____ _____    ______ ____
ROOT
ATOM      1  N   LIG    1       25.353 -17.337   3.846  0.00  0.00    -0.119 NA
ATOM      2  C   LIG    1       25.261 -18.607   3.623  0.00  0.00    +0.159 C 
ENDROOT
BRANCH   2   3
ATOM      3  C   LIG    1       24.581 -19.524   4.567  0.00  0.00    +0.033 A 
ATOM      4  C   LIG    1       25.365 -20.340   5.403  0.00  0.00    +0.051 A 
ATOM      5 CL   LIG    1       27.097 -20.310   5.393  0.00  0.00    -0.083 Cl
ATOM      6  C   LIG    1       24.762 -21.210   6.320  0.00  0.00    +0.021 A 
ATOM      7  C   LIG    1       23.375 -21.285   6.408  0.00  0.00    +0.003 A 
ATOM      8  C   LIG    1       22.589 -20.489   5.580  0.00  0.00    +0.021 A 
ATOM      9  C   LIG    1       23.180 -19.609   4.663  0.00  0.00    +0.051 A 
ATOM     10 CL   LIG    1       22.082 -18.720   3.662  0.00  0.00    -0.083 Cl
ENDBRANCH   2   3
BRANCH   1  11
ATOM     11  N   LIG    1       26.030 -16.625   2.900  0.00  0.00    -0.155 N 
ATOM     12  H   LIG    1       26.087 -16.932   1.933  0.00  0.00    +0.292 HD
BRANCH  11  15
ATOM     13  N   LIG    1       26.317 -14.343   2.529  0.00  0.00    -0.128 NA
ATOM     14  H   LIG    1       26.960 -13.612   2.842  0.00  0.00    +0.306 HD
ATOM     15  C   LIG    1       26.649 -15.434   3.128  0.00  0.00    +0.400 C 
BRANCH  15  16
ATOM     16  N   LIG    1       27.633 -15.494   4.055  0.00  0.00    -0.288 N 
ATOM     17  H   LIG    1       27.209 -15.358   4.973  0.00  0.00    +0.255 HD
ATOM     18  H   LIG    1       28.394 -14.851   3.896  0.00  0.00    +0.255 HD
ENDBRANCH  15  16
ENDBRANCH  11  15
ENDBRANCH   1  11
TORSDOF 4
ENDMDL
MODEL 4
REMARK VINA RESULT:      -4.4      2.900      6.275
REMARK  Name = *****
REMARK                            x       y       z     vdW  Elec       q    Type
REMARK                         _______ _______ _______ _____ _____    ______ ____
ROOT
ATOM      1  N   LIG    1       25.559 -17.230   3.914  0.00  0.00    -0.119 NA
ATOM      2  C   LIG    1       25.077 -18.361   3.513  0.00  0.00    +0.159 C 
ENDROOT
BRANCH   2   3
ATOM      3  C   LIG    1       24.550 -19.371   4.460  0.00  0.00    +0.033 A 
ATOM      4  C   LIG    1       23.157 -19.494   4.612  0.00  0.00    +0.051 A 
ATOM      5 CL   LIG    1       22.023 -18.529   3.729  0.00  0.00    -0.083 Cl
ATOM      6  C   LIG    1       22.617 -20.447   5.486  0.00  0.00    +0.021 A 
ATOM      7  C   LIG    1       23.455 -21.279   6.222  0.00  0.00    +0.003 A 
ATOM      8  C   LIG    1       24.835 -21.160   6.086  0.00  0.00    +0.021 A 
ATOM      9  C   LIG    1       25.388 -20.215   5.210  0.00  0.00    +0.051 A 
ATOM     10 CL   LIG    1       27.118 -20.143   5.181  0.00  0.00    -0.083 Cl
ENDBRANCH   2   3
BRANCH   1  11
ATOM     11  N   LIG    1       26.031 -16.414   2.928  0.00  0.00    -0.155 N 
ATOM     12  H   LIG    1       26.349 -16.776   2.034  0.00  0.00    +0.292 HD
BRANCH  11  15
ATOM     13  N   LIG    1       26.682 -14.321   2.140  0.00  0.00    -0.128 NA
ATOM     14  H   LIG    1       26.616 -13.351   2.458  0.00  0.00    +0.306 HD
ATOM     15  C   LIG    1       26.085 -15.056   3.013  0.00  0.00    +0.400 C 
BRANCH  15  16
ATOM     16  N   LIG    1       25.440 -14.545   4.086  0.00  0.00    -0.288 N 
ATOM     17  H   LIG    1       25.802 -13.605   4.254  0.00  0.00    +0.255 HD
ATOM     18  H   LIG    1       25.490 -15.118   4.915  0.00  0.00    +0.255 HD
ENDBRANCH  15  16
ENDBRANCH  11  15
ENDBRANCH   1  11
TORSDOF 4
ENDMDL
MODEL 5
REMARK VINA RESULT:      -3.9      1.608      2.122
REMARK  Name = *****
REMARK                            x       y       z     vdW  Elec       q    Type
REMARK                         _______ _______ _______ _____ _____    ______ ____
ROOT
ATOM      1  N   LIG    1       25.625 -17.495   3.179  0.00  0.00    -0.119 NA
ATOM      2  C   LIG    1       25.207 -16.350   3.610  0.00  0.00    +0.159 C 
ENDROOT
BRANCH   2   3
ATOM      3  C   LIG    1       26.034 -15.125   3.518  0.00  0.00    +0.033 A 
ATOM      4  C   LIG    1       27.393 -15.197   3.873  0.00  0.00    +0.051 A 
ATOM      5 CL   LIG    1       28.154 -16.662   4.399  0.00  0.00    -0.083 Cl
ATOM      6  C   LIG    1       28.214 -14.065   3.786  0.00  0.00    +0.021 A 
ATOM      7  C   LIG    1       27.691 -12.850   3.355  0.00  0.00    +0.003 A 
ATOM      8  C   LIG    1       26.345 -12.765   3.009  0.00  0.00    +0.021 A 
ATOM      9  C   LIG    1       25.514 -13.892   3.085  0.00  0.00    +0.051 A 
ATOM     10 CL   LIG    1       23.853 -13.627   2.675  0.00  0.00    -0.083 Cl
ENDBRANCH   2   3
BRANCH   1  11
ATOM     11  N   LIG    1       24.762 -18.537   3.356  0.00  0.00    -0.155 N 
ATOM     12  H   LIG    1       23.786 -18.481   3.079  0.00  0.00    +0.292 HD
BRANCH  11  15
ATOM     13  N   LIG    1       26.289 -20.007   4.322  0.00  0.00    -0.128 NA
ATOM     14  H   LIG    1       26.302 -20.991   4.601  0.00  0.00    +0.306 HD
ATOM     15  C   LIG    1       25.112 -19.749   3.867  0.00  0.00    +0.400 C 
BRANCH  15  16
ATOM     16  N   LIG    1       24.107 -20.655   3.873  0.00  0.00    -0.288 N 
ATOM     17  H   LIG    1       24.309 -21.345   4.598  0.00  0.00    +0.255 HD
ATOM     18  H   LIG    1       23.933 -21.090   2.980  0.00  0.00    +0.255 HD
ENDBRANCH  15  16
ENDBRANCH  11  15
ENDBRANCH   1  11
TORSDOF 4
ENDMDL
MODEL 6
REMARK VINA RESULT:      -3.8      3.068      6.525
REMARK  Name = *****
REMARK                            x       y       z     vdW  Elec       q    Type
REMARK                         _______ _______ _______ _____ _____    ______ ____
ROOT
ATOM      1  N   LIG    1       26.082 -17.123   3.945  0.00  0.00    -0.119 NA
ATOM      2  C   LIG    1       26.175 -18.367   3.606  0.00  0.00    +0.159 C 
ENDROOT
BRANCH   2   3
ATOM      3  C   LIG    1       26.120 -19.460   4.604  0.00  0.00    +0.033 A 
ATOM      4  C   LIG    1       24.933 -20.203   4.730  0.00  0.00    +0.051 A 
ATOM      5 CL   LIG    1       23.530 -19.910   3.758  0.00  0.00    -0.083 Cl
ATOM      6  C   LIG    1       24.845 -21.255   5.652  0.00  0.00    +0.021 A 
ATOM      7  C   LIG    1       25.930 -21.572   6.461  0.00  0.00    +0.003 A 
ATOM      8  C   LIG    1       27.108 -20.838   6.350  0.00  0.00    +0.021 A 
ATOM      9  C   LIG    1       27.212 -19.787   5.428  0.00  0.00    +0.051 A 
ATOM     10 CL   LIG    1       28.716 -18.929   5.436  0.00  0.00    -0.083 Cl
ENDBRANCH   2   3
BRANCH   1  11
ATOM     11  N   LIG    1       26.175 -16.229   2.919  0.00  0.00    -0.155 N 
ATOM     12  H   LIG    1       25.713 -16.382   2.026  0.00  0.00    +0.292 HD
BRANCH  11  15
ATOM     13  N   LIG    1       26.649 -14.080   2.155  0.00  0.00    -0.128 NA
ATOM     14  H   LIG    1       27.300 -13.329   2.398  0.00  0.00    +0.306 HD
ATOM     15  C   LIG    1       26.842 -15.044   2.988  0.00  0.00    +0.400 C 
BRANCH  15  16
ATOM     16  N   LIG    1       27.711 -14.960   4.021  0.00  0.00    -0.288 N 
ATOM     17  H   LIG    1       28.641 -15.191   3.669  0.00  0.00    +0.255 HD
ATOM     18  H   LIG    1       27.464 -15.523   4.821  0.00  0.00    +0.255 HD
ENDBRANCH  15  16
ENDBRANCH  11  15
ENDBRANCH   1  11
TORSDOF 4
ENDMDL
MODEL 7
REMARK VINA RESULT:      -3.8      4.513      5.993
REMARK  Name = *****
REMARK                            x       y       z     vdW  Elec       q    Type
REMARK                         _______ _______ _______ _____ _____    ______ ____
ROOT
ATOM      1  N   LIG    1       24.712 -19.953   4.963  0.00  0.00    -0.119 NA
ATOM      2  C   LIG    1       25.894 -20.477   4.943  0.00  0.00    +0.159 C 
ENDROOT
BRANCH   2   3
ATOM      3  C   LIG    1       27.115 -19.673   5.184  0.00  0.00    +0.033 A 
ATOM      4  C   LIG    1       28.038 -20.115   6.149  0.00  0.00    +0.051 A 
ATOM      5 CL   LIG    1       27.822 -21.571   7.062  0.00  0.00    -0.083 Cl
ATOM      6  C   LIG    1       29.212 -19.392   6.396  0.00  0.00    +0.021 A 
ATOM      7  C   LIG    1       29.475 -18.220   5.695  0.00  0.00    +0.003 A 
ATOM      8  C   LIG    1       28.565 -17.768   4.744  0.00  0.00    +0.021 A 
ATOM      9  C   LIG    1       27.389 -18.486   4.482  0.00  0.00    +0.051 A 
ATOM     10 CL   LIG    1       26.325 -17.780   3.312  0.00  0.00    -0.083 Cl
ENDBRANCH   2   3
BRANCH   1  11
ATOM     11  N   LIG    1       23.687 -20.813   4.698  0.00  0.00    -0.155 N 
ATOM     12  H   LIG    1       23.850 -21.780   4.429  0.00  0.00    +0.292 HD
BRANCH  11  15
ATOM     13  N   LIG    1       21.933 -19.284   4.787  0.00  0.00    -0.128 NA
ATOM     14  H   LIG    1       20.920 -19.318   4.929  0.00  0.00    +0.306 HD
ATOM     15  C   LIG    1       22.368 -20.496   4.806  0.00  0.00    +0.400 C 
BRANCH  15  16
ATOM     16  N   LIG    1       21.551 -21.569   4.914  0.00  0.00    -0.288 N 
ATOM     17  H   LIG    1       22.096 -22.404   4.697  0.00  0.00    +0.255 HD
ATOM     18  H   LIG    1       20.713 -21.513   4.355  0.00  0.00    +0.255 HD
ENDBRANCH  15  16
ENDBRANCH  11  15
ENDBRANCH   1  11
TORSDOF 4
ENDMDL
MODEL 8
REMARK VINA RESULT:      -3.7      1.605      2.662
REMARK  Name = *****
REMARK                            x       y       z     vdW  Elec       q    Type
REMARK                         _______ _______ _______ _____ _____    ______ ____
ROOT
ATOM      1  N   LIG    1       25.618 -17.496   3.217  0.00  0.00    -0.119 NA
ATOM      2  C   LIG    1       25.212 -16.326   3.591  0.00  0.00    +0.159 C 
ENDROOT
BRANCH   2   3
ATOM      3  C   LIG    1       26.086 -15.132   3.525  0.00  0.00    +0.033 A 
ATOM      4  C   LIG    1       25.537 -13.915   3.083  0.00  0.00    +0.051 A 
ATOM      5 CL   LIG    1       23.875 -13.740   2.628  0.00  0.00    -0.083 Cl
ATOM      6  C   LIG    1       26.325 -12.759   3.020  0.00  0.00    +0.021 A 
ATOM      7  C   LIG    1       27.667 -12.803   3.385  0.00  0.00    +0.003 A 
ATOM      8  C   LIG    1       28.223 -14.005   3.815  0.00  0.00    +0.021 A 
ATOM      9  C   LIG    1       27.444 -15.168   3.889  0.00  0.00    +0.051 A 
ATOM     10 CL   LIG    1       28.279 -16.599   4.391  0.00  0.00    -0.083 Cl
ENDBRANCH   2   3
BRANCH   1  11
ATOM     11  N   LIG    1       24.710 -18.503   3.360  0.00  0.00    -0.155 N 
ATOM     12  H   LIG    1       23.736 -18.394   3.089  0.00  0.00    +0.292 HD
BRANCH  11  15
ATOM     13  N   LIG    1       26.168 -20.069   4.281  0.00  0.00    -0.128 NA
ATOM     14  H   LIG    1       26.139 -21.062   4.524  0.00  0.00    +0.306 HD
ATOM     15  C   LIG    1       25.006 -19.746   3.828  0.00  0.00    +0.400 C 
BRANCH  15  16
ATOM     16  N   LIG    1       23.965 -20.611   3.793  0.00  0.00    -0.288 N 
ATOM     17  H   LIG    1       23.324 -20.303   3.061  0.00  0.00    +0.255 HD
ATOM     18  H   LIG    1       23.493 -20.731   4.677  0.00  0.00    +0.255 HD
ENDBRANCH  15  16
ENDBRANCH  11  15
ENDBRANCH   1  11
TORSDOF 4
ENDMDL
MODEL 9
REMARK VINA RESULT:      -3.7      3.026      6.103
REMARK  Name = *****
REMARK                            x       y       z     vdW  Elec       q    Type
REMARK                         _______ _______ _______ _____ _____    ______ ____
ROOT
ATOM      1  N   LIG    1       26.148 -17.000   3.846  0.00  0.00    -0.119 NA
ATOM      2  C   LIG    1       26.283 -18.243   3.514  0.00  0.00    +0.159 C 
ENDROOT
BRANCH   2   3
ATOM      3  C   LIG    1       26.154 -19.339   4.501  0.00  0.00    +0.033 A 
ATOM      4  C   LIG    1       27.247 -19.633   5.335  0.00  0.00    +0.051 A 
ATOM      5 CL   LIG    1       28.740 -18.757   5.275  0.00  0.00    -0.083 Cl
ATOM      6  C   LIG    1       27.161 -20.652   6.292  0.00  0.00    +0.021 A 
ATOM      7  C   LIG    1       25.992 -21.395   6.422  0.00  0.00    +0.003 A 
ATOM      8  C   LIG    1       24.906 -21.119   5.595  0.00  0.00    +0.021 A 
ATOM      9  C   LIG    1       24.977 -20.097   4.638  0.00  0.00    +0.051 A 
ATOM     10 CL   LIG    1       23.572 -19.901   3.646  0.00  0.00    -0.083 Cl
ENDBRANCH   2   3
BRANCH   1  11
ATOM     11  N   LIG    1       26.321 -16.103   2.833  0.00  0.00    -0.155 N 
ATOM     12  H   LIG    1       26.024 -16.300   1.881  0.00  0.00    +0.292 HD
BRANCH  11  15
ATOM     13  N   LIG    1       26.771 -13.942   2.088  0.00  0.00    -0.128 NA
ATOM     14  H   LIG    1       27.287 -13.127   2.431  0.00  0.00    +0.306 HD
ATOM     15  C   LIG    1       26.853 -14.860   2.989  0.00  0.00    +0.400 C 
BRANCH  15  16
ATOM     16  N   LIG    1       27.462 -14.666   4.181  0.00  0.00    -0.288 N 
ATOM     17  H   LIG    1       28.320 -15.218   4.191  0.00  0.00    +0.255 HD
ATOM     18  H   LIG    1       26.881 -14.864   4.983  0.00  0.00    +0.255 HD
ENDBRANCH  15  16
ENDBRANCH  11  15
ENDBRANCH   1  11
TORSDOF 4
ENDMDL
