MODEL 1
REMARK VINA RESULT:      -4.6      0.000      0.000
REMARK  Name = *****
REMARK                            x       y       z     vdW  Elec       q    Type
REMARK                         _______ _______ _______ _____ _____    ______ ____
ROOT
ATOM      1  O   LIG    1       26.638 -20.098   3.963  0.00  0.00    -0.287 OA
ATOM      2  C   LIG    1       25.763 -19.243   3.953  0.00  0.00    +0.193 C 
ATOM      3  C   LIG    1       24.352 -19.555   4.224  0.00  0.00    +0.064 A 
ATOM      4  C   LIG    1       23.422 -18.519   4.193  0.00  0.00    +0.139 A 
ATOM      5  C   LIG    1       22.077 -18.786   4.445  0.00  0.00    +0.047 A 
ATOM      6  C   LIG    1       21.667 -20.090   4.729  0.00  0.00    +0.004 A 
ATOM      7  C   LIG    1       22.602 -21.128   4.760  0.00  0.00    +0.001 A 
ATOM      8  O   LIG    1       23.763 -17.218   3.921  0.00  0.00    -0.455 OA
ATOM      9  C   LIG    1       25.093 -16.927   3.656  0.00  0.00    +0.139 C 
ATOM     10  C   LIG    1       23.948 -20.862   4.508  0.00  0.00    +0.015 A 
ATOM     11  C   LIG    1       26.080 -17.835   3.665  0.00  0.00    +0.098 C 
ENDROOT
BRANCH   9  12
ATOM     12  C   LIG    1       25.356 -15.500   3.382  0.00  0.00    +0.017 A 
ATOM     13  C   LIG    1       24.395 -14.513   3.645  0.00  0.00    +0.011 A 
ATOM     14  C   LIG    1       24.666 -13.166   3.389  0.00  0.00    +0.001 A 
ATOM     15  C   LIG    1       25.904 -12.789   2.871  0.00  0.00    +0.000 A 
ATOM     16  C   LIG    1       26.871 -13.758   2.613  0.00  0.00    +0.001 A 
ATOM     17  C   LIG    1       26.601 -15.104   2.870  0.00  0.00    +0.011 A 
ENDBRANCH   9  12
TORSDOF 1
ENDMDL
MODEL 2
REMARK VINA RESULT:      -4.3      1.259      2.489
REMARK  Name = *****
REMARK                            x       y       z     vdW  Elec       q    Type
REMARK                         _______ _______ _______ _____ _____    ______ ____
ROOT
ATOM      1  O   LIG    1       21.603 -16.943   4.818  0.00  0.00    -0.287 OA
ATOM      2  C   LIG    1       22.754 -17.092   4.430  0.00  0.00    +0.193 C 
ATOM      3  C   LIG    1       23.345 -18.419   4.202  0.00  0.00    +0.064 A 
ATOM      4  C   LIG    1       24.663 -18.494   3.760  0.00  0.00    +0.139 A 
ATOM      5  C   LIG    1       25.249 -19.739   3.535  0.00  0.00    +0.047 A 
ATOM      6  C   LIG    1       24.512 -20.905   3.753  0.00  0.00    +0.004 A 
ATOM      7  C   LIG    1       23.190 -20.827   4.196  0.00  0.00    +0.001 A 
ATOM      8  O   LIG    1       25.436 -17.386   3.526  0.00  0.00    -0.455 OA
ATOM      9  C   LIG    1       24.881 -16.135   3.753  0.00  0.00    +0.139 C 
ATOM     10  C   LIG    1       22.602 -19.582   4.422  0.00  0.00    +0.015 A 
ATOM     11  C   LIG    1       23.622 -15.933   4.169  0.00  0.00    +0.098 C 
ENDROOT
BRANCH   9  12
ATOM     12  C   LIG    1       25.792 -15.009   3.467  0.00  0.00    +0.017 A 
ATOM     13  C   LIG    1       25.343 -13.846   2.823  0.00  0.00    +0.011 A 
ATOM     14  C   LIG    1       26.218 -12.786   2.570  0.00  0.00    +0.001 A 
ATOM     15  C   LIG    1       27.552 -12.873   2.964  0.00  0.00    +0.000 A 
ATOM     16  C   LIG    1       28.010 -14.017   3.613  0.00  0.00    +0.001 A 
ATOM     17  C   LIG    1       27.135 -15.076   3.867  0.00  0.00    +0.011 A 
ENDBRANCH   9  12
TORSDOF 1
ENDMDL
MODEL 3
REMARK VINA RESULT:      -4.2      1.414      1.741
REMARK  Name = *****
REMARK                            x       y       z     vdW  Elec       q    Type
REMARK                         _______ _______ _______ _____ _____    ______ ____
ROOT
ATOM      1  O   LIG    1       28.196 -19.805   5.328  0.00  0.00    -0.287 OA
ATOM      2  C   LIG    1       27.324 -19.135   4.791  0.00  0.00    +0.193 C 
ATOM      3  C   LIG    1       26.000 -19.682   4.460  0.00  0.00    +0.064 A 
ATOM      4  C   LIG    1       25.067 -18.847   3.850  0.00  0.00    +0.139 A 
ATOM      5  C   LIG    1       23.803 -19.339   3.525  0.00  0.00    +0.047 A 
ATOM      6  C   LIG    1       23.478 -20.667   3.812  0.00  0.00    +0.004 A 
ATOM      7  C   LIG    1       24.415 -21.502   4.424  0.00  0.00    +0.001 A 
ATOM      8  O   LIG    1       25.327 -17.536   3.544  0.00  0.00    -0.455 OA
ATOM      9  C   LIG    1       26.580 -17.024   3.848  0.00  0.00    +0.139 C 
ATOM     10  C   LIG    1       25.680 -21.011   4.750  0.00  0.00    +0.015 A 
ATOM     11  C   LIG    1       27.557 -17.725   4.442  0.00  0.00    +0.098 C 
ENDROOT
BRANCH   9  12
ATOM     12  C   LIG    1       26.757 -15.604   3.484  0.00  0.00    +0.017 A 
ATOM     13  C   LIG    1       25.849 -14.942   2.644  0.00  0.00    +0.011 A 
ATOM     14  C   LIG    1       26.028 -13.595   2.319  0.00  0.00    +0.001 A 
ATOM     15  C   LIG    1       27.114 -12.891   2.835  0.00  0.00    +0.000 A 
ATOM     16  C   LIG    1       28.018 -13.531   3.679  0.00  0.00    +0.001 A 
ATOM     17  C   LIG    1       27.839 -14.878   4.004  0.00  0.00    +0.011 A 
ENDBRANCH   9  12
TORSDOF 1
ENDMDL
MODEL 4
REMARK VINA RESULT:      -4.1      1.286      6.333
REMARK  Name = *****
REMARK                            x       y       z     vdW  Elec       q    Type
REMARK                         _______ _______ _______ _____ _____    ______ ____
ROOT
ATOM      1  O   LIG    1       22.830 -13.833   4.579  0.00  0.00    -0.287 OA
ATOM      2  C   LIG    1       23.602 -14.735   4.281  0.00  0.00    +0.193 C 
ATOM      3  C   LIG    1       24.972 -14.479   3.811  0.00  0.00    +0.064 A 
ATOM      4  C   LIG    1       25.782 -15.567   3.494  0.00  0.00    +0.139 A 
ATOM      5  C   LIG    1       27.085 -15.353   3.045  0.00  0.00    +0.047 A 
ATOM      6  C   LIG    1       27.573 -14.051   2.917  0.00  0.00    +0.004 A 
ATOM      7  C   LIG    1       26.758 -12.962   3.236  0.00  0.00    +0.001 A 
ATOM      8  O   LIG    1       25.361 -16.867   3.601  0.00  0.00    -0.455 OA
ATOM      9  C   LIG    1       24.065 -17.107   4.034  0.00  0.00    +0.139 C 
ATOM     10  C   LIG    1       25.454 -13.174   3.684  0.00  0.00    +0.015 A 
ATOM     11  C   LIG    1       23.195 -16.146   4.377  0.00  0.00    +0.098 C 
ENDROOT
BRANCH   9  12
ATOM     12  C   LIG    1       23.712 -18.538   4.120  0.00  0.00    +0.017 A 
ATOM     13  C   LIG    1       24.543 -19.533   3.584  0.00  0.00    +0.011 A 
ATOM     14  C   LIG    1       24.197 -20.883   3.684  0.00  0.00    +0.001 A 
ATOM     15  C   LIG    1       23.018 -21.256   4.326  0.00  0.00    +0.000 A 
ATOM     16  C   LIG    1       22.187 -20.280   4.872  0.00  0.00    +0.001 A 
ATOM     17  C   LIG    1       22.533 -18.930   4.773  0.00  0.00    +0.011 A 
ENDBRANCH   9  12
TORSDOF 1
ENDMDL
MODEL 5
REMARK VINA RESULT:      -4.1      1.369      5.898
REMARK  Name = *****
REMARK                            x       y       z     vdW  Elec       q    Type
REMARK                         _______ _______ _______ _____ _____    ______ ____
ROOT
ATOM      1  O   LIG    1       27.608 -15.659   2.946  0.00  0.00    -0.287 OA
ATOM      2  C   LIG    1       26.446 -15.813   3.295  0.00  0.00    +0.193 C 
ATOM      3  C   LIG    1       25.542 -14.680   3.548  0.00  0.00    +0.064 A 
ATOM      4  C   LIG    1       24.233 -14.948   3.942  0.00  0.00    +0.139 A 
ATOM      5  C   LIG    1       23.354 -13.894   4.189  0.00  0.00    +0.047 A 
ATOM      6  C   LIG    1       23.789 -12.575   4.040  0.00  0.00    +0.004 A 
ATOM      7  C   LIG    1       25.102 -12.309   3.644  0.00  0.00    +0.001 A 
ATOM      8  O   LIG    1       23.748 -16.220   4.104  0.00  0.00    -0.455 OA
ATOM      9  C   LIG    1       24.605 -17.286   3.876  0.00  0.00    +0.139 C 
ATOM     10  C   LIG    1       25.983 -13.363   3.397  0.00  0.00    +0.015 A 
ATOM     11  C   LIG    1       25.881 -17.158   3.484  0.00  0.00    +0.098 C 
ENDROOT
BRANCH   9  12
ATOM     12  C   LIG    1       23.985 -18.612   4.072  0.00  0.00    +0.017 A 
ATOM     13  C   LIG    1       24.671 -19.797   3.763  0.00  0.00    +0.011 A 
ATOM     14  C   LIG    1       24.071 -21.043   3.965  0.00  0.00    +0.001 A 
ATOM     15  C   LIG    1       22.781 -21.120   4.485  0.00  0.00    +0.000 A 
ATOM     16  C   LIG    1       22.091 -19.953   4.806  0.00  0.00    +0.001 A 
ATOM     17  C   LIG    1       22.690 -18.708   4.605  0.00  0.00    +0.011 A 
ENDBRANCH   9  12
TORSDOF 1
ENDMDL
MODEL 6
REMARK VINA RESULT:      -2.5      1.251      5.764
REMARK  Name = *****
REMARK                            x       y       z     vdW  Elec       q    Type
REMARK                         _______ _______ _______ _____ _____    ______ ____
ROOT
ATOM      1  O   LIG    1       27.513 -16.385   3.481  0.00  0.00    -0.287 OA
ATOM      2  C   LIG    1       26.304 -16.470   3.647  0.00  0.00    +0.193 C 
ATOM      3  C   LIG    1       25.422 -15.293   3.635  0.00  0.00    +0.064 A 
ATOM      4  C   LIG    1       24.056 -15.482   3.833  0.00  0.00    +0.139 A 
ATOM      5  C   LIG    1       23.196 -14.384   3.827  0.00  0.00    +0.047 A 
ATOM      6  C   LIG    1       23.707 -13.100   3.621  0.00  0.00    +0.004 A 
ATOM      7  C   LIG    1       25.077 -12.914   3.422  0.00  0.00    +0.001 A 
ATOM      8  O   LIG    1       23.495 -16.716   4.038  0.00  0.00    -0.455 OA
ATOM      9  C   LIG    1       24.330 -17.824   4.060  0.00  0.00    +0.139 C 
ATOM     10  C   LIG    1       25.939 -14.011   3.429  0.00  0.00    +0.015 A 
ATOM     11  C   LIG    1       25.657 -17.772   3.873  0.00  0.00    +0.098 C 
ENDROOT
BRANCH   9  12
ATOM     12  C   LIG    1       23.629 -19.104   4.282  0.00  0.00    +0.017 A 
ATOM     13  C   LIG    1       22.253 -19.151   4.553  0.00  0.00    +0.011 A 
ATOM     14  C   LIG    1       21.605 -20.373   4.750  0.00  0.00    +0.001 A 
ATOM     15  C   LIG    1       22.324 -21.564   4.673  0.00  0.00    +0.000 A 
ATOM     16  C   LIG    1       23.688 -21.535   4.395  0.00  0.00    +0.001 A 
ATOM     17  C   LIG    1       24.336 -20.313   4.197  0.00  0.00    +0.011 A 
ENDBRANCH   9  12
TORSDOF 1
ENDMDL
MODEL 7
REMARK VINA RESULT:      -2.2      2.672      5.847
REMARK  Name = *****
REMARK                            x       y       z     vdW  Elec       q    Type
REMARK                         _______ _______ _______ _____ _____    ______ ____
ROOT
ATOM      1  O   LIG    1       26.856 -16.835   3.250  0.00  0.00    -0.287 OA
ATOM      2  C   LIG    1       26.453 -17.807   3.875  0.00  0.00    +0.193 C 
ATOM      3  C   LIG    1       27.326 -18.593   4.760  0.00  0.00    +0.064 A 
ATOM      4  C   LIG    1       26.783 -19.685   5.433  0.00  0.00    +0.139 A 
ATOM      5  C   LIG    1       27.587 -20.449   6.278  0.00  0.00    +0.047 A 
ATOM      6  C   LIG    1       28.932 -20.116   6.447  0.00  0.00    +0.004 A 
ATOM      7  C   LIG    1       29.475 -19.020   5.772  0.00  0.00    +0.001 A 
ATOM      8  O   LIG    1       25.469 -20.060   5.308  0.00  0.00    -0.455 OA
ATOM      9  C   LIG    1       24.651 -19.324   4.465  0.00  0.00    +0.139 C 
ATOM     10  C   LIG    1       28.671 -18.255   4.925  0.00  0.00    +0.015 A 
ATOM     11  C   LIG    1       25.054 -18.249   3.772  0.00  0.00    +0.098 C 
ENDROOT
BRANCH   9  12
ATOM     12  C   LIG    1       23.256 -19.805   4.405  0.00  0.00    +0.017 A 
ATOM     13  C   LIG    1       22.892 -21.065   4.905  0.00  0.00    +0.011 A 
ATOM     14  C   LIG    1       21.565 -21.499   4.849  0.00  0.00    +0.001 A 
ATOM     15  C   LIG    1       20.584 -20.677   4.297  0.00  0.00    +0.000 A 
ATOM     16  C   LIG    1       20.929 -19.420   3.806  0.00  0.00    +0.001 A 
ATOM     17  C   LIG    1       22.255 -18.985   3.863  0.00  0.00    +0.011 A 
ENDBRANCH   9  12
TORSDOF 1
ENDMDL
MODEL 8
REMARK VINA RESULT:      -1.8      3.037      5.064
REMARK  Name = *****
REMARK                            x       y       z     vdW  Elec       q    Type
REMARK                         _______ _______ _______ _____ _____    ______ ____
ROOT
ATOM      1  O   LIG    1       23.778 -17.400   3.328  0.00  0.00    -0.287 OA
ATOM      2  C   LIG    1       24.014 -18.422   3.959  0.00  0.00    +0.193 C 
ATOM      3  C   LIG    1       22.983 -19.433   4.236  0.00  0.00    +0.064 A 
ATOM      4  C   LIG    1       23.339 -20.568   4.961  0.00  0.00    +0.139 A 
ATOM      5  C   LIG    1       22.382 -21.543   5.239  0.00  0.00    +0.047 A 
ATOM      6  C   LIG    1       21.070 -21.379   4.790  0.00  0.00    +0.004 A 
ATOM      7  C   LIG    1       20.715 -20.240   4.062  0.00  0.00    +0.001 A 
ATOM      8  O   LIG    1       24.610 -20.785   5.428  0.00  0.00    -0.455 OA
ATOM      9  C   LIG    1       25.579 -19.825   5.175  0.00  0.00    +0.139 C 
ATOM     10  C   LIG    1       21.672 -19.264   3.783  0.00  0.00    +0.015 A 
ATOM     11  C   LIG    1       25.361 -18.698   4.482  0.00  0.00    +0.098 C 
ENDROOT
BRANCH   9  12
ATOM     12  C   LIG    1       26.913 -20.156   5.714  0.00  0.00    +0.017 A 
ATOM     13  C   LIG    1       27.108 -21.252   6.569  0.00  0.00    +0.011 A 
ATOM     14  C   LIG    1       28.381 -21.556   7.062  0.00  0.00    +0.001 A 
ATOM     15  C   LIG    1       29.474 -20.771   6.701  0.00  0.00    +0.000 A 
ATOM     16  C   LIG    1       29.298 -19.686   5.845  0.00  0.00    +0.001 A 
ATOM     17  C   LIG    1       28.027 -19.383   5.352  0.00  0.00    +0.011 A 
ENDBRANCH   9  12
TORSDOF 1
ENDMDL
