MODEL 1
REMARK VINA RESULT:      -5.1      0.000      0.000
REMARK  Name = *****
REMARK                            x       y       z     vdW  Elec       q    Type
REMARK                         _______ _______ _______ _____ _____    ______ ____
ROOT
ATOM      1  C   LIG    1       26.157 -20.167   5.277  0.00  0.00    -0.014 A 
ATOM      2  C   LIG    1       25.335 -20.716   6.275  0.00  0.00    +0.055 A 
ATOM      3  C   LIG    1       23.958 -20.753   6.089  0.00  0.00    +0.159 A 
ATOM      4  C   LIG    1       23.375 -20.247   4.932  0.00  0.00    +0.158 A 
ATOM      5  C   LIG    1       24.165 -19.687   3.938  0.00  0.00    +0.049 A 
ATOM      6  C   LIG    1       25.552 -19.649   4.115  0.00  0.00    +0.010 A 
ENDROOT
BRANCH   3   7
ATOM      7  O   LIG    1       23.170 -21.305   7.061  0.00  0.00    -0.503 OA
ATOM      8  H   LIG    1       22.657 -20.550   7.414  0.00  0.00    +0.292 HD
ENDBRANCH   3   7
BRANCH   4   9
ATOM      9  O   LIG    1       22.015 -20.326   4.813  0.00  0.00    -0.503 OA
ATOM     10  H   LIG    1       21.651 -20.580   5.679  0.00  0.00    +0.292 HD
ENDBRANCH   4   9
BRANCH   1  11
ATOM     11  C   LIG    1       27.662 -20.136   5.465  0.00  0.00    +0.158 C 
BRANCH  11  12
ATOM     12  O   LIG    1       28.193 -18.913   4.937  0.00  0.00    -0.386 OA
ATOM     13  H   LIG    1       29.133 -19.119   4.753  0.00  0.00    +0.210 HD
ENDBRANCH  11  12
BRANCH  11  14
ATOM     14  C   LIG    1       28.111 -20.274   6.941  0.00  0.00    +0.114 C 
BRANCH  14  15
ATOM     15  N   LIG    1       29.401 -20.985   7.060  0.00  0.00    -0.327 NA
ATOM     16  H   LIG    1       29.333 -21.860   6.536  0.00  0.00    +0.118 HD
ATOM     17  H   LIG    1       30.116 -20.439   6.577  0.00  0.00    +0.118 HD
ENDBRANCH  14  15
ENDBRANCH  11  14
ENDBRANCH   1  11
TORSDOF 6
ENDMDL
MODEL 2
REMARK VINA RESULT:      -5.0      1.588      2.346
REMARK  Name = *****
REMARK                            x       y       z     vdW  Elec       q    Type
REMARK                         _______ _______ _______ _____ _____    ______ ____
ROOT
ATOM      1  C   LIG    1       25.781 -20.575   6.157  0.00  0.00    -0.014 A 
ATOM      2  C   LIG    1       25.472 -20.492   4.789  0.00  0.00    +0.055 A 
ATOM      3  C   LIG    1       24.166 -20.701   4.364  0.00  0.00    +0.159 A 
ATOM      4  C   LIG    1       23.154 -21.001   5.270  0.00  0.00    +0.158 A 
ATOM      5  C   LIG    1       23.437 -21.103   6.625  0.00  0.00    +0.049 A 
ATOM      6  C   LIG    1       24.748 -20.891   7.062  0.00  0.00    +0.010 A 
ENDROOT
BRANCH   3   7
ATOM      7  O   LIG    1       23.875 -20.600   3.032  0.00  0.00    -0.503 OA
ATOM      8  H   LIG    1       24.622 -21.052   2.587  0.00  0.00    +0.292 HD
ENDBRANCH   3   7
BRANCH   4   9
ATOM      9  O   LIG    1       21.890 -21.185   4.782  0.00  0.00    -0.503 OA
ATOM     10  H   LIG    1       21.400 -21.735   5.417  0.00  0.00    +0.292 HD
ENDBRANCH   4   9
BRANCH   1  11
ATOM     11  C   LIG    1       27.202 -20.334   6.631  0.00  0.00    +0.158 C 
BRANCH  11  12
ATOM     12  O   LIG    1       27.787 -21.570   7.061  0.00  0.00    -0.386 OA
ATOM     13  H   LIG    1       27.124 -22.248   6.816  0.00  0.00    +0.210 HD
ENDBRANCH  11  12
BRANCH  11  14
ATOM     14  C   LIG    1       28.120 -19.698   5.559  0.00  0.00    +0.114 C 
BRANCH  14  15
ATOM     15  N   LIG    1       29.274 -19.004   6.164  0.00  0.00    -0.327 NA
ATOM     16  H   LIG    1       29.451 -19.418   7.082  0.00  0.00    +0.118 HD
ATOM     17  H   LIG    1       30.106 -19.217   5.611  0.00  0.00    +0.118 HD
ENDBRANCH  14  15
ENDBRANCH  11  14
ENDBRANCH   1  11
TORSDOF 6
ENDMDL
MODEL 3
REMARK VINA RESULT:      -4.8      2.716      5.030
REMARK  Name = *****
REMARK                            x       y       z     vdW  Elec       q    Type
REMARK                         _______ _______ _______ _____ _____    ______ ____
ROOT
ATOM      1  C   LIG    1       25.511 -20.587   5.526  0.00  0.00    -0.014 A 
ATOM      2  C   LIG    1       26.509 -19.727   5.038  0.00  0.00    +0.055 A 
ATOM      3  C   LIG    1       27.798 -19.806   5.552  0.00  0.00    +0.159 A 
ATOM      4  C   LIG    1       28.118 -20.719   6.551  0.00  0.00    +0.158 A 
ATOM      5  C   LIG    1       27.147 -21.570   7.058  0.00  0.00    +0.049 A 
ATOM      6  C   LIG    1       25.848 -21.499   6.545  0.00  0.00    +0.010 A 
ENDROOT
BRANCH   3   7
ATOM      7  O   LIG    1       28.764 -18.975   5.056  0.00  0.00    -0.503 OA
ATOM      8  H   LIG    1       29.604 -19.437   5.256  0.00  0.00    +0.292 HD
ENDBRANCH   3   7
BRANCH   4   9
ATOM      9  O   LIG    1       29.409 -20.749   7.002  0.00  0.00    -0.503 OA
ATOM     10  H   LIG    1       29.505 -21.521   7.587  0.00  0.00    +0.292 HD
ENDBRANCH   4   9
BRANCH   1  11
ATOM     11  C   LIG    1       24.105 -20.517   4.960  0.00  0.00    +0.158 C 
BRANCH  11  12
ATOM     12  O   LIG    1       24.105 -20.971   3.600  0.00  0.00    -0.386 OA
ATOM     13  H   LIG    1       23.462 -20.383   3.150  0.00  0.00    +0.210 HD
ENDBRANCH  11  12
BRANCH  11  14
ATOM     14  C   LIG    1       23.067 -21.343   5.758  0.00  0.00    +0.114 C 
BRANCH  14  15
ATOM     15  N   LIG    1       21.814 -21.534   5.000  0.00  0.00    -0.327 NA
ATOM     16  H   LIG    1       21.859 -22.441   4.531  0.00  0.00    +0.118 HD
ATOM     17  H   LIG    1       21.043 -21.615   5.664  0.00  0.00    +0.118 HD
ENDBRANCH  14  15
ENDBRANCH  11  14
ENDBRANCH   1  11
TORSDOF 6
ENDMDL
MODEL 4
REMARK VINA RESULT:      -4.7      2.436      5.047
REMARK  Name = *****
REMARK                            x       y       z     vdW  Elec       q    Type
REMARK                         _______ _______ _______ _____ _____    ______ ____
ROOT
ATOM      1  C   LIG    1       25.440 -20.709   5.697  0.00  0.00    -0.014 A 
ATOM      2  C   LIG    1       26.298 -19.785   5.078  0.00  0.00    +0.055 A 
ATOM      3  C   LIG    1       27.638 -19.736   5.447  0.00  0.00    +0.159 A 
ATOM      4  C   LIG    1       28.145 -20.582   6.427  0.00  0.00    +0.158 A 
ATOM      5  C   LIG    1       27.314 -21.494   7.062  0.00  0.00    +0.049 A 
ATOM      6  C   LIG    1       25.965 -21.552   6.695  0.00  0.00    +0.010 A 
ENDROOT
BRANCH   3   7
ATOM      7  O   LIG    1       28.467 -18.844   4.825  0.00  0.00    -0.503 OA
ATOM      8  H   LIG    1       27.859 -18.246   4.343  0.00  0.00    +0.292 HD
ENDBRANCH   3   7
BRANCH   4   9
ATOM      9  O   LIG    1       29.475 -20.486   6.731  0.00  0.00    -0.503 OA
ATOM     10  H   LIG    1       29.891 -19.898   6.077  0.00  0.00    +0.292 HD
ENDBRANCH   4   9
BRANCH   1  11
ATOM     11  C   LIG    1       23.979 -20.778   5.291  0.00  0.00    +0.158 C 
BRANCH  11  12
ATOM     12  O   LIG    1       23.148 -20.427   6.405  0.00  0.00    -0.386 OA
ATOM     13  H   LIG    1       23.743 -19.927   7.001  0.00  0.00    +0.210 HD
ENDBRANCH  11  12
BRANCH  11  14
ATOM     14  C   LIG    1       23.619 -19.864   4.095  0.00  0.00    +0.114 C 
BRANCH  14  15
ATOM     15  N   LIG    1       22.638 -18.825   4.472  0.00  0.00    -0.327 NA
ATOM     16  H   LIG    1       22.484 -18.882   5.481  0.00  0.00    +0.118 HD
ATOM     17  H   LIG    1       23.062 -17.910   4.318  0.00  0.00    +0.118 HD
ENDBRANCH  14  15
ENDBRANCH  11  14
ENDBRANCH   1  11
TORSDOF 6
ENDMDL
MODEL 5
REMARK VINA RESULT:      -4.4      6.436      8.025
REMARK  Name = *****
REMARK                            x       y       z     vdW  Elec       q    Type
REMARK                         _______ _______ _______ _____ _____    ______ ____
ROOT
ATOM      1  C   LIG    1       25.362 -13.847   3.923  0.00  0.00    -0.014 A 
ATOM      2  C   LIG    1       26.134 -13.302   4.962  0.00  0.00    +0.055 A 
ATOM      3  C   LIG    1       27.503 -13.133   4.787  0.00  0.00    +0.159 A 
ATOM      4  C   LIG    1       28.127 -13.502   3.601  0.00  0.00    +0.158 A 
ATOM      5  C   LIG    1       27.388 -14.055   2.564  0.00  0.00    +0.049 A 
ATOM      6  C   LIG    1       26.009 -14.227   2.731  0.00  0.00    +0.010 A 
ENDROOT
BRANCH   3   7
ATOM      7  O   LIG    1       28.240 -12.585   5.800  0.00  0.00    -0.503 OA
ATOM      8  H   LIG    1       27.759 -12.840   6.614  0.00  0.00    +0.292 HD
ENDBRANCH   3   7
BRANCH   4   9
ATOM      9  O   LIG    1       29.475 -13.297   3.494  0.00  0.00    -0.503 OA
ATOM     10  H   LIG    1       29.638 -12.339   3.543  0.00  0.00    +0.292 HD
ENDBRANCH   4   9
BRANCH   1  11
ATOM     11  C   LIG    1       23.865 -14.022   4.101  0.00  0.00    +0.158 C 
BRANCH  11  12
ATOM     12  O   LIG    1       23.178 -13.529   2.944  0.00  0.00    -0.386 OA
ATOM     13  H   LIG    1       23.830 -12.941   2.509  0.00  0.00    +0.210 HD
ENDBRANCH  11  12
BRANCH  11  14
ATOM     14  C   LIG    1       23.432 -15.488   4.348  0.00  0.00    +0.114 C 
BRANCH  14  15
ATOM     15  N   LIG    1       22.341 -15.580   5.340  0.00  0.00    -0.327 NA
ATOM     16  H   LIG    1       22.734 -15.395   6.265  0.00  0.00    +0.118 HD
ATOM     17  H   LIG    1       21.686 -14.816   5.171  0.00  0.00    +0.118 HD
ENDBRANCH  14  15
ENDBRANCH  11  14
ENDBRANCH   1  11
TORSDOF 6
ENDMDL
MODEL 6
REMARK VINA RESULT:      -3.9      6.668      7.900
REMARK  Name = *****
REMARK                            x       y       z     vdW  Elec       q    Type
REMARK                         _______ _______ _______ _____ _____    ______ ____
ROOT
ATOM      1  C   LIG    1       25.033 -13.377   4.165  0.00  0.00    -0.014 A 
ATOM      2  C   LIG    1       24.873 -14.660   3.615  0.00  0.00    +0.055 A 
ATOM      3  C   LIG    1       25.940 -15.550   3.622  0.00  0.00    +0.159 A 
ATOM      4  C   LIG    1       27.172 -15.191   4.158  0.00  0.00    +0.158 A 
ATOM      5  C   LIG    1       27.359 -13.925   4.694  0.00  0.00    +0.049 A 
ATOM      6  C   LIG    1       26.290 -13.024   4.694  0.00  0.00    +0.010 A 
ENDROOT
BRANCH   3   7
ATOM      7  O   LIG    1       25.766 -16.802   3.099  0.00  0.00    -0.503 OA
ATOM      8  H   LIG    1       26.043 -16.713   2.164  0.00  0.00    +0.292 HD
ENDBRANCH   3   7
BRANCH   4   9
ATOM      9  O   LIG    1       28.174 -16.122   4.140  0.00  0.00    -0.503 OA
ATOM     10  H   LIG    1       27.874 -16.877   3.604  0.00  0.00    +0.292 HD
ENDBRANCH   4   9
BRANCH   1  11
ATOM     11  C   LIG    1       23.869 -12.404   4.175  0.00  0.00    +0.158 C 
BRANCH  11  12
ATOM     12  O   LIG    1       23.901 -11.619   5.374  0.00  0.00    -0.386 OA
ATOM     13  H   LIG    1       24.584 -10.939   5.198  0.00  0.00    +0.210 HD
ENDBRANCH  11  12
BRANCH  11  14
ATOM     14  C   LIG    1       23.843 -11.447   2.957  0.00  0.00    +0.114 C 
BRANCH  14  15
ATOM     15  N   LIG    1       24.600 -11.993   1.812  0.00  0.00    -0.327 NA
ATOM     16  H   LIG    1       23.973 -12.592   1.271  0.00  0.00    +0.118 HD
ATOM     17  H   LIG    1       24.838 -11.222   1.186  0.00  0.00    +0.118 HD
ENDBRANCH  14  15
ENDBRANCH  11  14
ENDBRANCH   1  11
TORSDOF 6
ENDMDL
MODEL 7
REMARK VINA RESULT:      -3.8      5.057      6.284
REMARK  Name = *****
REMARK                            x       y       z     vdW  Elec       q    Type
REMARK                         _______ _______ _______ _____ _____    ______ ____
ROOT
ATOM      1  C   LIG    1       25.763 -15.971   3.340  0.00  0.00    -0.014 A 
ATOM      2  C   LIG    1       26.498 -14.866   2.879  0.00  0.00    +0.055 A 
ATOM      3  C   LIG    1       25.972 -13.586   3.010  0.00  0.00    +0.159 A 
ATOM      4  C   LIG    1       24.723 -13.377   3.583  0.00  0.00    +0.158 A 
ATOM      5  C   LIG    1       23.971 -14.453   4.034  0.00  0.00    +0.049 A 
ATOM      6  C   LIG    1       24.494 -15.745   3.909  0.00  0.00    +0.010 A 
ENDROOT
BRANCH   3   7
ATOM      7  O   LIG    1       26.706 -12.518   2.573  0.00  0.00    -0.503 OA
ATOM      8  H   LIG    1       27.273 -12.888   1.866  0.00  0.00    +0.292 HD
ENDBRANCH   3   7
BRANCH   4   9
ATOM      9  O   LIG    1       24.273 -12.090   3.689  0.00  0.00    -0.503 OA
ATOM     10  H   LIG    1       24.549 -11.609   2.889  0.00  0.00    +0.292 HD
ENDBRANCH   4   9
BRANCH   1  11
ATOM     11  C   LIG    1       26.335 -17.370   3.214  0.00  0.00    +0.158 C 
BRANCH  11  12
ATOM     12  O   LIG    1       27.535 -17.476   3.991  0.00  0.00    -0.386 OA
ATOM     13  H   LIG    1       28.197 -16.960   3.484  0.00  0.00    +0.210 HD
ENDBRANCH  11  12
BRANCH  11  14
ATOM     14  C   LIG    1       25.359 -18.488   3.655  0.00  0.00    +0.114 C 
BRANCH  14  15
ATOM     15  N   LIG    1       26.068 -19.744   3.975  0.00  0.00    -0.327 NA
ATOM     16  H   LIG    1       26.957 -19.747   3.470  0.00  0.00    +0.118 HD
ATOM     17  H   LIG    1       26.324 -19.727   4.963  0.00  0.00    +0.118 HD
ENDBRANCH  14  15
ENDBRANCH  11  14
ENDBRANCH   1  11
TORSDOF 6
ENDMDL
MODEL 8
REMARK VINA RESULT:      -3.7      5.232      6.414
REMARK  Name = *****
REMARK                            x       y       z     vdW  Elec       q    Type
REMARK                         _______ _______ _______ _____ _____    ______ ____
ROOT
ATOM      1  C   LIG    1       26.150 -15.503   3.792  0.00  0.00    -0.014 A 
ATOM      2  C   LIG    1       27.111 -14.670   4.389  0.00  0.00    +0.055 A 
ATOM      3  C   LIG    1       26.724 -13.450   4.931  0.00  0.00    +0.159 A 
ATOM      4  C   LIG    1       25.398 -13.032   4.886  0.00  0.00    +0.158 A 
ATOM      5  C   LIG    1       24.433 -13.830   4.290  0.00  0.00    +0.049 A 
ATOM      6  C   LIG    1       24.813 -15.061   3.745  0.00  0.00    +0.010 A 
ENDROOT
BRANCH   3   7
ATOM      7  O   LIG    1       27.666 -12.656   5.524  0.00  0.00    -0.503 OA
ATOM      8  H   LIG    1       27.158 -11.893   5.866  0.00  0.00    +0.292 HD
ENDBRANCH   3   7
BRANCH   4   9
ATOM      9  O   LIG    1       25.088 -11.824   5.449  0.00  0.00    -0.503 OA
ATOM     10  H   LIG    1       24.563 -11.318   4.804  0.00  0.00    +0.292 HD
ENDBRANCH   4   9
BRANCH   1  11
ATOM     11  C   LIG    1       26.562 -16.842   3.210  0.00  0.00    +0.158 C 
BRANCH  11  12
ATOM     12  O   LIG    1       27.729 -17.327   3.887  0.00  0.00    -0.386 OA
ATOM     13  H   LIG    1       28.179 -17.886   3.220  0.00  0.00    +0.210 HD
ENDBRANCH  11  12
BRANCH  11  14
ATOM     14  C   LIG    1       25.458 -17.925   3.289  0.00  0.00    +0.114 C 
BRANCH  14  15
ATOM     15  N   LIG    1       25.972 -19.196   3.838  0.00  0.00    -0.327 NA
ATOM     16  H   LIG    1       26.987 -19.118   3.930  0.00  0.00    +0.118 HD
ATOM     17  H   LIG    1       25.625 -19.300   4.792  0.00  0.00    +0.118 HD
ENDBRANCH  14  15
ENDBRANCH  11  14
ENDBRANCH   1  11
TORSDOF 6
ENDMDL
MODEL 9
REMARK VINA RESULT:      -3.6      6.553      7.058
REMARK  Name = *****
REMARK                            x       y       z     vdW  Elec       q    Type
REMARK                         _______ _______ _______ _____ _____    ______ ____
ROOT
ATOM      1  C   LIG    1       27.140 -13.829   4.041  0.00  0.00    -0.014 A 
ATOM      2  C   LIG    1       26.138 -12.933   4.450  0.00  0.00    +0.055 A 
ATOM      3  C   LIG    1       24.805 -13.325   4.404  0.00  0.00    +0.159 A 
ATOM      4  C   LIG    1       24.442 -14.589   3.952  0.00  0.00    +0.158 A 
ATOM      5  C   LIG    1       25.413 -15.486   3.530  0.00  0.00    +0.049 A 
ATOM      6  C   LIG    1       26.757 -15.101   3.575  0.00  0.00    +0.010 A 
ENDROOT
BRANCH   3   7
ATOM      7  O   LIG    1       23.840 -12.450   4.821  0.00  0.00    -0.503 OA
ATOM      8  H   LIG    1       23.042 -12.714   4.318  0.00  0.00    +0.292 HD
ENDBRANCH   3   7
BRANCH   4   9
ATOM      9  O   LIG    1       23.113 -14.910   3.944  0.00  0.00    -0.503 OA
ATOM     10  H   LIG    1       23.033 -15.865   4.115  0.00  0.00    +0.292 HD
ENDBRANCH   4   9
BRANCH   1  11
ATOM     11  C   LIG    1       28.599 -13.414   4.101  0.00  0.00    +0.158 C 
BRANCH  11  12
ATOM     12  O   LIG    1       29.198 -13.556   2.807  0.00  0.00    -0.386 OA
ATOM     13  H   LIG    1       29.933 -14.188   2.950  0.00  0.00    +0.210 HD
ENDBRANCH  11  12
BRANCH  11  14
ATOM     14  C   LIG    1       28.817 -11.961   4.591  0.00  0.00    +0.114 C 
BRANCH  14  15
ATOM     15  N   LIG    1       29.149 -11.909   6.029  0.00  0.00    -0.327 NA
ATOM     16  H   LIG    1       28.967 -10.961   6.366  0.00  0.00    +0.118 HD
ATOM     17  H   LIG    1       28.490 -12.503   6.535  0.00  0.00    +0.118 HD
ENDBRANCH  14  15
ENDBRANCH  11  14
ENDBRANCH   1  11
TORSDOF 6
ENDMDL
