MODEL 1
REMARK VINA RESULT:       1.4      0.000      0.000
REMARK  Name = *****
REMARK                            x       y       z     vdW  Elec       q    Type
REMARK                         _______ _______ _______ _____ _____    ______ ____
ROOT
ATOM      1  C   LIG    1       24.202 -15.838   3.668  0.00  0.00    +0.162 C 
ENDROOT
BRANCH   1   7
ATOM      2  C   LIG    1       29.058 -11.749   5.324  0.00  0.00    +0.007 C 
ATOM      3  C   LIG    1       28.138 -12.779   4.675  0.00  0.00    -0.010 C 
ATOM      4  C   LIG    1       26.581 -12.472   4.770  0.00  0.00    +0.037 C 
ATOM      5  C   LIG    1       25.751 -12.948   3.531  0.00  0.00    +0.185 C 
ATOM      6  N   LIG    1       26.325 -14.318   3.151  0.00  0.00    -0.287 N 
ATOM      7  C   LIG    1       25.734 -15.605   3.302  0.00  0.00    +0.235 C 
ATOM      8  O   LIG    1       26.431 -16.605   3.052  0.00  0.00    -0.274 OA
ATOM      9  C   LIG    1       27.836 -14.330   2.840  0.00  0.00    +0.109 C 
ATOM     10  C   LIG    1       28.608 -13.075   3.264  0.00  0.00    +0.022 C 
BRANCH   5  11
ATOM     11  C   LIG    1       24.229 -12.395   3.334  0.00  0.00    +0.326 C 
ATOM     12  O   LIG    1       23.458 -11.970   4.190  0.00  0.00    -0.249 OA
BRANCH  11  13
ATOM     13  O   LIG    1       23.890 -12.184   2.059  0.00  0.00    -0.479 OA
ATOM     14  H   LIG    1       23.472 -13.000   1.686  0.00  0.00    +0.295 HD
ENDBRANCH  11  13
ENDBRANCH   5  11
ENDBRANCH   1   7
BRANCH   1  15
ATOM     15  N   LIG    1       23.890 -17.163   4.288  0.00  0.00    -0.178 NA
ATOM     16  H   LIG    1       23.960 -17.216   5.298  0.00  0.00    +0.149 HD
BRANCH  15  17
ATOM     17  S   LIG    1       24.189 -18.637   3.541  0.00  0.00    +0.061 S 
ATOM     18  O   LIG    1       25.343 -18.588   2.790  0.00  0.00    -0.153 OA
ATOM     19  O   LIG    1       22.886 -18.965   2.867  0.00  0.00    -0.153 OA
BRANCH  17  20
ATOM     20  C   LIG    1       24.296 -19.767   4.902  0.00  0.00    +0.126 A 
ATOM     21  C   LIG    1       25.582 -20.058   5.421  0.00  0.00    +0.057 A 
ATOM     22  N   LIG    1       26.728 -19.510   4.870  0.00  0.00    -0.342 N 
ATOM     23  H   LIG    1       26.588 -18.565   4.505  0.00  0.00    +0.146 HD
ATOM     24  C   LIG    1       28.083 -19.741   5.296  0.00  0.00    +0.105 C 
ATOM     25  C   LIG    1       28.194 -20.991   6.150  0.00  0.00    +0.007 C 
ATOM     26  C   LIG    1       26.979 -21.325   7.062  0.00  0.00    +0.041 C 
ATOM     27  C   LIG    1       29.475 -20.956   6.984  0.00  0.00    +0.009 C 
ATOM     28  C   LIG    1       25.640 -20.990   6.462  0.00  0.00    -0.024 A 
ATOM     29  C   LIG    1       24.457 -21.571   6.978  0.00  0.00    +0.005 A 
ATOM     30  C   LIG    1       23.204 -21.275   6.432  0.00  0.00    +0.002 A 
ATOM     31  C   LIG    1       23.135 -20.377   5.373  0.00  0.00    +0.030 A 
ENDBRANCH  17  20
ENDBRANCH  15  17
ENDBRANCH   1  15
BRANCH   1  32
ATOM     32  C   LIG    1       23.589 -14.796   4.754  0.00  0.00    +0.033 C 
BRANCH  32  33
ATOM     33  C   LIG    1       22.453 -15.441   5.836  0.00  0.00    +0.039 C 
BRANCH  33  34
ATOM     34  C   LIG    1       21.107 -16.316   5.365  0.00  0.00    +0.196 C 
BRANCH  34  35
ATOM     35  N   LIG    1       21.207 -17.361   4.233  0.00  0.00    -0.276 N 
ATOM     36  H   LIG    1       22.120 -17.792   4.109  0.00  0.00    +0.258 HD
BRANCH  35  37
ATOM     37  C   LIG    1       20.239 -18.044   3.500  0.00  0.00    +0.376 C 
ATOM     38  N   LIG    1       19.565 -17.768   2.439  0.00  0.00    -0.130 NA
ATOM     39  H   LIG    1       19.766 -16.856   2.054  0.00  0.00    +0.306 HD
BRANCH  37  40
ATOM     40  N   LIG    1       19.801 -19.232   4.007  0.00  0.00    -0.289 N 
ATOM     41  H   LIG    1       19.110 -19.577   3.327  0.00  0.00    +0.255 HD
ATOM     42  H   LIG    1       20.505 -19.962   4.034  0.00  0.00    +0.255 HD
ENDBRANCH  37  40
ENDBRANCH  35  37
ENDBRANCH  34  35
ENDBRANCH  33  34
ENDBRANCH  32  33
ENDBRANCH   1  32
TORSDOF 12
ENDMDL
