MODEL 1
REMARK VINA RESULT:      -8.8      0.000      0.000
REMARK  Name = *****
REMARK                            x       y       z     vdW  Elec       q    Type
REMARK                         _______ _______ _______ _____ _____    ______ ____
ROOT
ATOM      1  C   LIG    1       27.567 -19.997   6.432  0.00  0.00    +0.144 C 
ENDROOT
BRANCH   1   2
ATOM      2  C   LIG    1       26.246 -20.832   6.467  0.00  0.00    -0.003 C 
ATOM      3  C   LIG    1       26.567 -22.322   6.822  0.00  0.00    +0.012 C 
ATOM      4  C   LIG    1       25.300 -23.195   6.799  0.00  0.00    -0.007 C 
ATOM      5  C   LIG    1       24.689 -23.155   5.395  0.00  0.00    +0.038 C 
ATOM      6  C   LIG    1       24.327 -21.708   5.028  0.00  0.00    +0.067 C 
ATOM      7  C   LIG    1       23.315 -21.159   6.045  0.00  0.00    +0.038 C 
ATOM      8  C   LIG    1       23.922 -21.196   7.456  0.00  0.00    -0.007 C 
ATOM      9  C   LIG    1       24.290 -22.643   7.816  0.00  0.00    +0.007 C 
ATOM     10  C   LIG    1       25.593 -20.834   5.056  0.00  0.00    +0.043 C 
ATOM     11  C   LIG    1       25.192 -20.326   7.490  0.00  0.00    +0.012 C 
BRANCH   6  12
ATOM     12  O   LIG    1       23.778 -21.676   3.718  0.00  0.00    -0.389 OA
ATOM     13  H   LIG    1       23.935 -20.790   3.347  0.00  0.00    +0.210 HD
ENDBRANCH   6  12
ENDBRANCH   1   2
BRANCH   1  16
ATOM     14  C   LIG    1       31.063 -20.452   8.094  0.00  0.00    +0.179 C 
ATOM     15  N   LIG    1       29.741 -19.930   7.692  0.00  0.00    -0.281 N 
ATOM     16  C   LIG    1       28.837 -20.713   6.998  0.00  0.00    +0.234 C 
ATOM     17  O   LIG    1       29.093 -21.893   6.749  0.00  0.00    -0.274 OA
ATOM     18  C   LIG    1       29.636 -18.529   7.984  0.00  0.00    +0.081 C 
ATOM     19  C   LIG    1       30.936 -18.049   8.556  0.00  0.00    +0.014 C 
ATOM     20  C   LIG    1       29.689 -18.036   9.401  0.00  0.00    +0.028 C 
ATOM     21  C   LIG    1       31.893 -19.211   8.516  0.00  0.00    +0.043 C 
BRANCH  14  23
ATOM     22  N   LIG    1       30.908 -22.217  10.049  0.00  0.00    -0.195 NA
ATOM     23  C   LIG    1       30.988 -21.417   9.210  0.00  0.00    +0.085 C 
ENDBRANCH  14  23
ENDBRANCH   1  16
BRANCH   1  24
ATOM     24  N   LIG    1       27.935 -19.526   5.074  0.00  0.00    -0.320 NA
ATOM     25  H   LIG    1       28.616 -20.152   4.654  0.00  0.00    +0.119 HD
ATOM     26  H   LIG    1       28.392 -18.616   5.159  0.00  0.00    +0.119 HD
ENDBRANCH   1  24
TORSDOF 5
ENDMDL
MODEL 2
REMARK VINA RESULT:      -8.4      1.002      1.751
REMARK  Name = *****
REMARK                            x       y       z     vdW  Elec       q    Type
REMARK                         _______ _______ _______ _____ _____    ______ ____
ROOT
ATOM      1  C   LIG    1       27.719 -19.822   6.451  0.00  0.00    +0.144 C 
ENDROOT
BRANCH   1   2
ATOM      2  C   LIG    1       26.403 -20.667   6.459  0.00  0.00    -0.003 C 
ATOM      3  C   LIG    1       25.564 -20.335   7.738  0.00  0.00    +0.012 C 
ATOM      4  C   LIG    1       24.293 -21.197   7.821  0.00  0.00    -0.007 C 
ATOM      5  C   LIG    1       24.692 -22.675   7.877  0.00  0.00    +0.038 C 
ATOM      6  C   LIG    1       25.488 -23.046   6.617  0.00  0.00    +0.067 C 
ATOM      7  C   LIG    1       24.623 -22.795   5.372  0.00  0.00    +0.038 C 
ATOM      8  C   LIG    1       24.218 -21.313   5.309  0.00  0.00    -0.007 C 
ATOM      9  C   LIG    1       23.431 -20.944   6.574  0.00  0.00    +0.007 C 
ATOM     10  C   LIG    1       26.756 -22.180   6.531  0.00  0.00    +0.043 C 
ATOM     11  C   LIG    1       25.485 -20.441   5.227  0.00  0.00    +0.012 C 
BRANCH   6  12
ATOM     12  O   LIG    1       25.870 -24.413   6.684  0.00  0.00    -0.389 OA
ATOM     13  H   LIG    1       26.787 -24.485   6.367  0.00  0.00    +0.210 HD
ENDBRANCH   6  12
ENDBRANCH   1   2
BRANCH   1  16
ATOM     14  C   LIG    1       31.175 -20.298   8.188  0.00  0.00    +0.179 C 
ATOM     15  N   LIG    1       29.852 -19.783   7.780  0.00  0.00    -0.281 N 
ATOM     16  C   LIG    1       28.989 -20.542   7.011  0.00  0.00    +0.234 C 
ATOM     17  O   LIG    1       29.283 -21.698   6.696  0.00  0.00    -0.274 OA
ATOM     18  C   LIG    1       29.703 -18.406   8.155  0.00  0.00    +0.081 C 
ATOM     19  C   LIG    1       30.972 -17.933   8.795  0.00  0.00    +0.014 C 
ATOM     20  C   LIG    1       29.702 -18.003   9.601  0.00  0.00    +0.028 C 
ATOM     21  C   LIG    1       31.960 -19.067   8.712  0.00  0.00    +0.043 C 
BRANCH  14  23
ATOM     22  N   LIG    1       31.005 -22.185  10.025  0.00  0.00    -0.195 NA
ATOM     23  C   LIG    1       31.092 -21.333   9.240  0.00  0.00    +0.085 C 
ENDBRANCH  14  23
ENDBRANCH   1  16
BRANCH   1  24
ATOM     24  N   LIG    1       28.092 -19.320   5.106  0.00  0.00    -0.320 NA
ATOM     25  H   LIG    1       29.062 -19.544   4.901  0.00  0.00    +0.119 HD
ATOM     26  H   LIG    1       28.027 -18.300   5.113  0.00  0.00    +0.119 HD
ENDBRANCH   1  24
TORSDOF 5
ENDMDL
MODEL 3
REMARK VINA RESULT:      -6.7      1.938      3.202
REMARK  Name = *****
REMARK                            x       y       z     vdW  Elec       q    Type
REMARK                         _______ _______ _______ _____ _____    ______ ____
ROOT
ATOM      1  C   LIG    1       26.689 -21.753   8.091  0.00  0.00    +0.144 C 
ENDROOT
BRANCH   1   2
ATOM      2  C   LIG    1       25.582 -22.291   7.126  0.00  0.00    -0.003 C 
ATOM      3  C   LIG    1       24.167 -21.899   7.667  0.00  0.00    +0.012 C 
ATOM      4  C   LIG    1       23.045 -22.470   6.783  0.00  0.00    -0.007 C 
ATOM      5  C   LIG    1       23.148 -23.998   6.767  0.00  0.00    +0.038 C 
ATOM      6  C   LIG    1       24.514 -24.420   6.205  0.00  0.00    +0.067 C 
ATOM      7  C   LIG    1       24.670 -23.879   4.775  0.00  0.00    +0.038 C 
ATOM      8  C   LIG    1       24.568 -22.345   4.785  0.00  0.00    -0.007 C 
ATOM      9  C   LIG    1       23.204 -21.927   5.354  0.00  0.00    +0.007 C 
ATOM     10  C   LIG    1       25.637 -23.844   7.086  0.00  0.00    +0.043 C 
ATOM     11  C   LIG    1       25.687 -21.763   5.669  0.00  0.00    +0.012 C 
BRANCH   6  12
ATOM     12  O   LIG    1       24.611 -25.837   6.209  0.00  0.00    -0.389 OA
ATOM     13  H   LIG    1       24.289 -26.164   5.351  0.00  0.00    +0.210 HD
ENDBRANCH   6  12
ENDBRANCH   1   2
BRANCH   1  16
ATOM     14  C   LIG    1       29.521 -19.096   7.765  0.00  0.00    +0.179 C 
ATOM     15  N   LIG    1       28.770 -20.347   7.993  0.00  0.00    -0.281 N 
ATOM     16  C   LIG    1       27.449 -20.476   7.604  0.00  0.00    +0.234 C 
ATOM     17  O   LIG    1       26.882 -19.562   7.000  0.00  0.00    -0.274 OA
ATOM     18  C   LIG    1       29.543 -21.271   8.772  0.00  0.00    +0.081 C 
ATOM     19  C   LIG    1       30.846 -20.629   9.142  0.00  0.00    +0.014 C 
ATOM     20  C   LIG    1       30.828 -21.834   8.239  0.00  0.00    +0.028 C 
ATOM     21  C   LIG    1       30.804 -19.214   8.630  0.00  0.00    +0.043 C 
BRANCH  14  23
ATOM     22  N   LIG    1       30.144 -18.669   5.236  0.00  0.00    -0.195 NA
ATOM     23  C   LIG    1       29.881 -18.889   6.346  0.00  0.00    +0.085 C 
ENDBRANCH  14  23
ENDBRANCH   1  16
BRANCH   1  24
ATOM     24  N   LIG    1       26.187 -21.437   9.451  0.00  0.00    -0.320 NA
ATOM     25  H   LIG    1       25.172 -21.483   9.474  0.00  0.00    +0.119 HD
ATOM     26  H   LIG    1       26.438 -20.471   9.672  0.00  0.00    +0.119 HD
ENDBRANCH   1  24
TORSDOF 5
ENDMDL
MODEL 4
REMARK VINA RESULT:      -6.7      2.313      6.536
REMARK  Name = *****
REMARK                            x       y       z     vdW  Elec       q    Type
REMARK                         _______ _______ _______ _____ _____    ______ ____
ROOT
ATOM      1  C   LIG    1       27.572 -20.649   5.997  0.00  0.00    +0.144 C 
ENDROOT
BRANCH   1   2
ATOM      2  C   LIG    1       28.692 -20.078   6.927  0.00  0.00    -0.003 C 
ATOM      3  C   LIG    1       29.484 -18.955   6.180  0.00  0.00    +0.012 C 
ATOM      4  C   LIG    1       30.642 -18.413   7.035  0.00  0.00    -0.007 C 
ATOM      5  C   LIG    1       31.611 -19.558   7.350  0.00  0.00    +0.038 C 
ATOM      6  C   LIG    1       30.873 -20.665   8.118  0.00  0.00    +0.067 C 
ATOM      7  C   LIG    1       30.311 -20.093   9.429  0.00  0.00    +0.038 C 
ATOM      8  C   LIG    1       29.338 -18.943   9.120  0.00  0.00    -0.007 C 
ATOM      9  C   LIG    1       30.076 -17.843   8.344  0.00  0.00    +0.007 C 
ATOM     10  C   LIG    1       29.712 -21.203   7.265  0.00  0.00    +0.043 C 
ATOM     11  C   LIG    1       28.174 -19.475   8.262  0.00  0.00    +0.012 C 
BRANCH   6  12
ATOM     12  O   LIG    1       31.772 -21.731   8.391  0.00  0.00    -0.389 OA
ATOM     13  H   LIG    1       31.480 -22.170   9.209  0.00  0.00    +0.210 HD
ENDBRANCH   6  12
ENDBRANCH   1   2
BRANCH   1  16
ATOM     14  C   LIG    1       23.734 -20.788   6.658  0.00  0.00    +0.179 C 
ATOM     15  N   LIG    1       25.059 -20.693   6.013  0.00  0.00    -0.281 N 
ATOM     16  C   LIG    1       26.219 -20.997   6.700  0.00  0.00    +0.234 C 
ATOM     17  O   LIG    1       26.168 -21.415   7.860  0.00  0.00    -0.274 OA
ATOM     18  C   LIG    1       24.947 -20.118   4.703  0.00  0.00    +0.081 C 
ATOM     19  C   LIG    1       23.516 -19.756   4.447  0.00  0.00    +0.014 C 
ATOM     20  C   LIG    1       24.183 -20.823   3.620  0.00  0.00    +0.028 C 
ATOM     21  C   LIG    1       22.752 -20.048   5.712  0.00  0.00    +0.043 C 
BRANCH  14  23
ATOM     22  N   LIG    1       22.961 -23.293   6.966  0.00  0.00    -0.195 NA
ATOM     23  C   LIG    1       23.290 -22.183   6.862  0.00  0.00    +0.085 C 
ENDBRANCH  14  23
ENDBRANCH   1  16
BRANCH   1  24
ATOM     24  N   LIG    1       27.227 -19.754   4.866  0.00  0.00    -0.320 NA
ATOM     25  H   LIG    1       26.279 -19.934   4.548  0.00  0.00    +0.119 HD
ATOM     26  H   LIG    1       27.842 -19.973   4.080  0.00  0.00    +0.119 HD
ENDBRANCH   1  24
TORSDOF 5
ENDMDL
MODEL 5
REMARK VINA RESULT:      -6.4      2.382      6.439
REMARK  Name = *****
REMARK                            x       y       z     vdW  Elec       q    Type
REMARK                         _______ _______ _______ _____ _____    ______ ____
ROOT
ATOM      1  C   LIG    1       26.450 -20.630   7.852  0.00  0.00    +0.144 C 
ENDROOT
BRANCH   1   2
ATOM      2  C   LIG    1       27.950 -20.199   7.745  0.00  0.00    -0.003 C 
ATOM      3  C   LIG    1       28.334 -19.296   8.964  0.00  0.00    +0.012 C 
ATOM      4  C   LIG    1       29.783 -18.792   8.862  0.00  0.00    -0.007 C 
ATOM      5  C   LIG    1       29.937 -17.964   7.583  0.00  0.00    +0.038 C 
ATOM      6  C   LIG    1       29.603 -18.832   6.360  0.00  0.00    +0.067 C 
ATOM      7  C   LIG    1       30.556 -20.036   6.310  0.00  0.00    +0.038 C 
ATOM      8  C   LIG    1       30.407 -20.872   7.592  0.00  0.00    -0.007 C 
ATOM      9  C   LIG    1       30.733 -19.999   8.812  0.00  0.00    +0.007 C 
ATOM     10  C   LIG    1       28.155 -19.340   6.465  0.00  0.00    +0.043 C 
ATOM     11  C   LIG    1       28.957 -21.380   7.704  0.00  0.00    +0.012 C 
BRANCH   6  12
ATOM     12  O   LIG    1       29.730 -18.053   5.178  0.00  0.00    -0.389 OA
ATOM     13  H   LIG    1       29.616 -18.644   4.414  0.00  0.00    +0.210 HD
ENDBRANCH   6  12
ENDBRANCH   1   2
BRANCH   1  16
ATOM     14  C   LIG    1       24.372 -23.757   6.807  0.00  0.00    +0.179 C 
ATOM     15  N   LIG    1       24.828 -22.372   7.046  0.00  0.00    -0.281 N 
ATOM     16  C   LIG    1       26.133 -22.095   7.409  0.00  0.00    +0.234 C 
ATOM     17  O   LIG    1       26.968 -23.001   7.484  0.00  0.00    -0.274 OA
ATOM     18  C   LIG    1       23.724 -21.457   6.998  0.00  0.00    +0.081 C 
ATOM     19  C   LIG    1       22.459 -22.227   6.771  0.00  0.00    +0.014 C 
ATOM     20  C   LIG    1       22.950 -21.258   5.728  0.00  0.00    +0.028 C 
ATOM     21  C   LIG    1       22.823 -23.689   6.776  0.00  0.00    +0.043 C 
BRANCH  14  23
ATOM     22  N   LIG    1       25.282 -24.821   4.570  0.00  0.00    -0.195 NA
ATOM     23  C   LIG    1       24.882 -24.322   5.540  0.00  0.00    +0.085 C 
ENDBRANCH  14  23
ENDBRANCH   1  16
BRANCH   1  24
ATOM     24  N   LIG    1       25.887 -20.484   9.217  0.00  0.00    -0.320 NA
ATOM     25  H   LIG    1       25.376 -19.609   9.297  0.00  0.00    +0.119 HD
ATOM     26  H   LIG    1       26.661 -20.429   9.882  0.00  0.00    +0.119 HD
ENDBRANCH   1  24
TORSDOF 5
ENDMDL
MODEL 6
REMARK VINA RESULT:      -6.4      1.625      2.608
REMARK  Name = *****
REMARK                            x       y       z     vdW  Elec       q    Type
REMARK                         _______ _______ _______ _____ _____    ______ ____
ROOT
ATOM      1  C   LIG    1       26.680 -21.596   8.097  0.00  0.00    +0.144 C 
ENDROOT
BRANCH   1   2
ATOM      2  C   LIG    1       25.513 -22.152   7.216  0.00  0.00    -0.003 C 
ATOM      3  C   LIG    1       25.726 -23.680   6.953  0.00  0.00    +0.012 C 
ATOM      4  C   LIG    1       24.636 -24.253   6.032  0.00  0.00    -0.007 C 
ATOM      5  C   LIG    1       24.682 -23.522   4.686  0.00  0.00    +0.038 C 
ATOM      6  C   LIG    1       24.440 -22.020   4.903  0.00  0.00    +0.067 C 
ATOM      7  C   LIG    1       23.064 -21.812   5.554  0.00  0.00    +0.038 C 
ATOM      8  C   LIG    1       23.011 -22.543   6.905  0.00  0.00    -0.007 C 
ATOM      9  C   LIG    1       23.262 -24.042   6.685  0.00  0.00    +0.007 C 
ATOM     10  C   LIG    1       25.527 -21.448   5.829  0.00  0.00    +0.043 C 
ATOM     11  C   LIG    1       24.100 -21.977   7.836  0.00  0.00    +0.012 C 
BRANCH   6  12
ATOM     12  O   LIG    1       24.503 -21.346   3.654  0.00  0.00    -0.389 OA
ATOM     13  H   LIG    1       23.710 -20.787   3.573  0.00  0.00    +0.210 HD
ENDBRANCH   6  12
ENDBRANCH   1   2
BRANCH   1  16
ATOM     14  C   LIG    1       29.491 -18.945   7.586  0.00  0.00    +0.179 C 
ATOM     15  N   LIG    1       28.749 -20.181   7.906  0.00  0.00    -0.281 N 
ATOM     16  C   LIG    1       27.434 -20.355   7.517  0.00  0.00    +0.234 C 
ATOM     17  O   LIG    1       26.865 -19.498   6.835  0.00  0.00    -0.274 OA
ATOM     18  C   LIG    1       29.523 -21.031   8.765  0.00  0.00    +0.081 C 
ATOM     19  C   LIG    1       30.815 -20.348   9.095  0.00  0.00    +0.014 C 
ATOM     20  C   LIG    1       30.818 -21.622   8.292  0.00  0.00    +0.028 C 
ATOM     21  C   LIG    1       30.765 -18.979   8.470  0.00  0.00    +0.043 C 
BRANCH  14  23
ATOM     22  N   LIG    1       30.157 -18.713   5.043  0.00  0.00    -0.195 NA
ATOM     23  C   LIG    1       29.864 -18.848   6.159  0.00  0.00    +0.085 C 
ENDBRANCH  14  23
ENDBRANCH   1  16
BRANCH   1  24
ATOM     24  N   LIG    1       26.259 -21.215   9.467  0.00  0.00    -0.320 NA
ATOM     25  H   LIG    1       25.641 -21.921   9.857  0.00  0.00    +0.119 HD
ATOM     26  H   LIG    1       25.714 -20.353   9.410  0.00  0.00    +0.119 HD
ENDBRANCH   1  24
TORSDOF 5
ENDMDL
MODEL 7
REMARK VINA RESULT:      -6.3      9.327     11.434
REMARK  Name = *****
REMARK                            x       y       z     vdW  Elec       q    Type
REMARK                         _______ _______ _______ _____ _____    ______ ____
ROOT
ATOM      1  C   LIG    1       26.628 -32.440   8.995  0.00  0.00    +0.144 C 
ENDROOT
BRANCH   1   2
ATOM      2  C   LIG    1       25.930 -32.525   7.598  0.00  0.00    -0.003 C 
ATOM      3  C   LIG    1       27.001 -32.430   6.461  0.00  0.00    +0.012 C 
ATOM      4  C   LIG    1       26.350 -32.439   5.067  0.00  0.00    -0.007 C 
ATOM      5  C   LIG    1       25.411 -31.234   4.946  0.00  0.00    +0.038 C 
ATOM      6  C   LIG    1       24.322 -31.314   6.027  0.00  0.00    +0.067 C 
ATOM      7  C   LIG    1       23.518 -32.612   5.850  0.00  0.00    +0.038 C 
ATOM      8  C   LIG    1       24.455 -33.825   5.972  0.00  0.00    -0.007 C 
ATOM      9  C   LIG    1       25.547 -33.737   4.895  0.00  0.00    +0.007 C 
ATOM     10  C   LIG    1       24.974 -31.311   7.420  0.00  0.00    +0.043 C 
ATOM     11  C   LIG    1       25.114 -33.825   7.364  0.00  0.00    +0.012 C 
BRANCH   6  12
ATOM     12  O   LIG    1       23.466 -30.185   5.920  0.00  0.00    -0.389 OA
ATOM     13  H   LIG    1       23.462 -29.727   6.778  0.00  0.00    +0.210 HD
ENDBRANCH   6  12
ENDBRANCH   1   2
BRANCH   1  16
ATOM     14  C   LIG    1       25.380 -30.052  11.810  0.00  0.00    +0.179 C 
ATOM     15  N   LIG    1       26.009 -30.601  10.591  0.00  0.00    -0.281 N 
ATOM     16  C   LIG    1       25.745 -31.888  10.161  0.00  0.00    +0.234 C 
ATOM     17  O   LIG    1       24.925 -32.591  10.757  0.00  0.00    -0.274 OA
ATOM     18  C   LIG    1       26.988 -29.691  10.069  0.00  0.00    +0.081 C 
ATOM     19  C   LIG    1       27.082 -28.500  10.975  0.00  0.00    +0.014 C 
ATOM     20  C   LIG    1       26.582 -28.337   9.563  0.00  0.00    +0.028 C 
ATOM     21  C   LIG    1       26.174 -28.762  12.147  0.00  0.00    +0.043 C 
BRANCH  14  23
ATOM     22  N   LIG    1       22.809 -29.537  11.514  0.00  0.00    -0.195 NA
ATOM     23  C   LIG    1       23.948 -29.735  11.628  0.00  0.00    +0.085 C 
ENDBRANCH  14  23
ENDBRANCH   1  16
BRANCH   1  24
ATOM     24  N   LIG    1       27.165 -33.739   9.469  0.00  0.00    -0.320 NA
ATOM     25  H   LIG    1       27.894 -33.590  10.161  0.00  0.00    +0.119 HD
ATOM     26  H   LIG    1       27.608 -34.213   8.679  0.00  0.00    +0.119 HD
ENDBRANCH   1  24
TORSDOF 5
ENDMDL
MODEL 8
REMARK VINA RESULT:      -6.3      2.072      6.746
REMARK  Name = *****
REMARK                            x       y       z     vdW  Elec       q    Type
REMARK                         _______ _______ _______ _____ _____    ______ ____
ROOT
ATOM      1  C   LIG    1       27.331 -20.714   7.327  0.00  0.00    +0.144 C 
ENDROOT
BRANCH   1   2
ATOM      2  C   LIG    1       28.677 -20.048   7.766  0.00  0.00    -0.003 C 
ATOM      3  C   LIG    1       29.239 -19.166   6.602  0.00  0.00    +0.012 C 
ATOM      4  C   LIG    1       30.600 -18.548   6.967  0.00  0.00    -0.007 C 
ATOM      5  C   LIG    1       31.602 -19.672   7.247  0.00  0.00    +0.038 C 
ATOM      6  C   LIG    1       31.098 -20.539   8.411  0.00  0.00    +0.067 C 
ATOM      7  C   LIG    1       30.939 -19.667   9.667  0.00  0.00    +0.038 C 
ATOM      8  C   LIG    1       29.934 -18.537   9.393  0.00  0.00    -0.007 C 
ATOM      9  C   LIG    1       30.437 -17.679   8.223  0.00  0.00    +0.007 C 
ATOM     10  C   LIG    1       29.735 -21.152   8.049  0.00  0.00    +0.043 C 
ATOM     11  C   LIG    1       28.568 -19.146   9.025  0.00  0.00    +0.012 C 
BRANCH   6  12
ATOM     12  O   LIG    1       32.023 -21.589   8.654  0.00  0.00    -0.389 OA
ATOM     13  H   LIG    1       32.095 -21.711   9.617  0.00  0.00    +0.210 HD
ENDBRANCH   6  12
ENDBRANCH   1   2
BRANCH   1  16
ATOM     14  C   LIG    1       24.972 -20.477   4.234  0.00  0.00    +0.179 C 
ATOM     15  N   LIG    1       25.501 -20.586   5.609  0.00  0.00    -0.281 N 
ATOM     16  C   LIG    1       26.835 -20.354   5.889  0.00  0.00    +0.234 C 
ATOM     17  O   LIG    1       27.607 -19.990   4.998  0.00  0.00    -0.274 OA
ATOM     18  C   LIG    1       24.499 -21.094   6.501  0.00  0.00    +0.081 C 
ATOM     19  C   LIG    1       23.256 -21.396   5.721  0.00  0.00    +0.014 C 
ATOM     20  C   LIG    1       23.245 -20.314   6.769  0.00  0.00    +0.028 C 
ATOM     21  C   LIG    1       23.569 -21.138   4.271  0.00  0.00    +0.043 C 
BRANCH  14  23
ATOM     22  N   LIG    1       24.835 -17.972   3.416  0.00  0.00    -0.195 NA
ATOM     23  C   LIG    1       24.863 -19.079   3.767  0.00  0.00    +0.085 C 
ENDBRANCH  14  23
ENDBRANCH   1  16
BRANCH   1  24
ATOM     24  N   LIG    1       27.352 -22.195   7.395  0.00  0.00    -0.320 NA
ATOM     25  H   LIG    1       26.495 -22.580   7.008  0.00  0.00    +0.119 HD
ATOM     26  H   LIG    1       27.376 -22.474   8.378  0.00  0.00    +0.119 HD
ENDBRANCH   1  24
TORSDOF 5
ENDMDL
MODEL 9
REMARK VINA RESULT:      -6.2      1.394      2.190
REMARK  Name = *****
REMARK                            x       y       z     vdW  Elec       q    Type
REMARK                         _______ _______ _______ _____ _____    ______ ____
ROOT
ATOM      1  C   LIG    1       26.752 -21.092   8.410  0.00  0.00    +0.144 C 
ENDROOT
BRANCH   1   2
ATOM      2  C   LIG    1       25.692 -21.236   7.268  0.00  0.00    -0.003 C 
ATOM      3  C   LIG    1       24.336 -20.597   7.717  0.00  0.00    +0.012 C 
ATOM      4  C   LIG    1       23.243 -20.779   6.649  0.00  0.00    -0.007 C 
ATOM      5  C   LIG    1       23.016 -22.275   6.415  0.00  0.00    +0.038 C 
ATOM      6  C   LIG    1       24.321 -22.930   5.937  0.00  0.00    +0.067 C 
ATOM      7  C   LIG    1       24.777 -22.269   4.628  0.00  0.00    +0.038 C 
ATOM      8  C   LIG    1       25.007 -20.766   4.856  0.00  0.00    -0.007 C 
ATOM      9  C   LIG    1       23.703 -20.117   5.342  0.00  0.00    +0.007 C 
ATOM     10  C   LIG    1       25.415 -22.744   7.003  0.00  0.00    +0.043 C 
ATOM     11  C   LIG    1       26.099 -20.573   5.925  0.00  0.00    +0.012 C 
BRANCH   6  12
ATOM     12  O   LIG    1       24.108 -24.321   5.739  0.00  0.00    -0.389 OA
ATOM     13  H   LIG    1       23.743 -24.446   4.846  0.00  0.00    +0.210 HD
ENDBRANCH   6  12
ENDBRANCH   1   2
BRANCH   1  16
ATOM     14  C   LIG    1       30.485 -20.485   7.470  0.00  0.00    +0.179 C 
ATOM     15  N   LIG    1       29.122 -20.351   8.024  0.00  0.00    -0.281 N 
ATOM     16  C   LIG    1       28.229 -21.406   8.005  0.00  0.00    +0.234 C 
ATOM     17  O   LIG    1       28.574 -22.510   7.575  0.00  0.00    -0.274 OA
ATOM     18  C   LIG    1       28.858 -18.993   8.405  0.00  0.00    +0.081 C 
ATOM     19  C   LIG    1       30.047 -18.148   8.061  0.00  0.00    +0.014 C 
ATOM     20  C   LIG    1       29.648 -18.338   9.501  0.00  0.00    +0.028 C 
ATOM     21  C   LIG    1       31.034 -19.038   7.354  0.00  0.00    +0.043 C 
BRANCH  14  23
ATOM     22  N   LIG    1       32.042 -21.928   9.038  0.00  0.00    -0.195 NA
ATOM     23  C   LIG    1       31.376 -21.300   8.321  0.00  0.00    +0.085 C 
ENDBRANCH  14  23
ENDBRANCH   1  16
BRANCH   1  24
ATOM     24  N   LIG    1       26.775 -19.746   9.031  0.00  0.00    -0.320 NA
ATOM     25  H   LIG    1       26.043 -19.161   8.636  0.00  0.00    +0.119 HD
ATOM     26  H   LIG    1       27.662 -19.297   8.797  0.00  0.00    +0.119 HD
ENDBRANCH   1  24
TORSDOF 5
ENDMDL
