MODEL 1
REMARK VINA RESULT:      -9.4      0.000      0.000
REMARK  Name = *****
REMARK                            x       y       z     vdW  Elec       q    Type
REMARK                         _______ _______ _______ _____ _____    ______ ____
ROOT
ATOM      1  C   LIG    1       30.359 -20.846   8.469  0.00  0.00    +0.101 A 
ATOM      2  C   LIG    1       30.951 -19.615   8.176  0.00  0.00    +0.131 A 
ATOM      3  C   LIG    1       30.239 -18.638   7.487  0.00  0.00    +0.047 A 
ATOM      4  C   LIG    1       28.924 -18.891   7.079  0.00  0.00    +0.012 A 
ATOM      5  C   LIG    1       28.280 -20.109   7.360  0.00  0.00    -0.014 A 
ATOM      6  C   LIG    1       29.027 -21.072   8.066  0.00  0.00    +0.027 A 
ENDROOT
BRANCH   5   7
ATOM      7  C   LIG    1       26.885 -20.376   6.921  0.00  0.00    +0.018 A 
ATOM      8  C   LIG    1       25.834 -20.606   7.835  0.00  0.00    +0.134 A 
ATOM      9  F   LIG    1       26.069 -20.621   9.156  0.00  0.00    -0.205 F 
ATOM     10  C   LIG    1       24.523 -20.839   7.422  0.00  0.00    +0.077 A 
ATOM     11  C   LIG    1       24.235 -20.859   6.069  0.00  0.00    +0.126 A 
ATOM     12  F   LIG    1       22.980 -21.086   5.662  0.00  0.00    -0.205 F 
ATOM     13  C   LIG    1       25.233 -20.648   5.129  0.00  0.00    +0.039 A 
ATOM     14  C   LIG    1       26.544 -20.403   5.552  0.00  0.00    +0.014 A 
ENDBRANCH   5   7
BRANCH   1  16
ATOM     15  O   LIG    1       30.654 -22.395  10.256  0.00  0.00    -0.245 OA
ATOM     16  C   LIG    1       31.052 -21.959   9.185  0.00  0.00    +0.340 C 
BRANCH  16  17
ATOM     17  O   LIG    1       32.140 -22.458   8.566  0.00  0.00    -0.477 OA
ATOM     18  H   LIG    1       32.001 -22.568   7.599  0.00  0.00    +0.295 HD
ENDBRANCH  16  17
ENDBRANCH   1  16
BRANCH   2  19
ATOM     19  O   LIG    1       32.242 -19.357   8.563  0.00  0.00    -0.506 OA
ATOM     20  H   LIG    1       32.241 -19.122   9.510  0.00  0.00    +0.292 HD
ENDBRANCH   2  19
TORSDOF 4
ENDMDL
MODEL 2
REMARK VINA RESULT:      -9.4      1.583      1.818
REMARK  Name = *****
REMARK                            x       y       z     vdW  Elec       q    Type
REMARK                         _______ _______ _______ _____ _____    ______ ____
ROOT
ATOM      1  C   LIG    1       30.082 -21.124   8.165  0.00  0.00    +0.101 A 
ATOM      2  C   LIG    1       30.476 -20.078   7.327  0.00  0.00    +0.131 A 
ATOM      3  C   LIG    1       29.558 -19.480   6.469  0.00  0.00    +0.047 A 
ATOM      4  C   LIG    1       28.233 -19.933   6.440  0.00  0.00    +0.012 A 
ATOM      5  C   LIG    1       27.785 -20.974   7.272  0.00  0.00    -0.014 A 
ATOM      6  C   LIG    1       28.738 -21.550   8.135  0.00  0.00    +0.027 A 
ENDROOT
BRANCH   5   7
ATOM      7  C   LIG    1       26.379 -21.455   7.236  0.00  0.00    +0.018 A 
ATOM      8  C   LIG    1       26.046 -22.807   7.009  0.00  0.00    +0.134 A 
ATOM      9  F   LIG    1       27.006 -23.718   6.784  0.00  0.00    -0.205 F 
ATOM     10  C   LIG    1       24.728 -23.259   6.993  0.00  0.00    +0.077 A 
ATOM     11  C   LIG    1       23.701 -22.354   7.195  0.00  0.00    +0.126 A 
ATOM     12  F   LIG    1       22.431 -22.778   7.178  0.00  0.00    -0.205 F 
ATOM     13  C   LIG    1       23.973 -21.011   7.413  0.00  0.00    +0.039 A 
ATOM     14  C   LIG    1       25.301 -20.568   7.440  0.00  0.00    +0.014 A 
ENDBRANCH   5   7
BRANCH   1  16
ATOM     15  O   LIG    1       30.725 -22.013  10.281  0.00  0.00    -0.245 OA
ATOM     16  C   LIG    1       31.001 -21.836   9.102  0.00  0.00    +0.340 C 
BRANCH  16  17
ATOM     17  O   LIG    1       32.151 -22.282   8.559  0.00  0.00    -0.477 OA
ATOM     18  H   LIG    1       32.806 -22.552   9.241  0.00  0.00    +0.295 HD
ENDBRANCH  16  17
ENDBRANCH   1  16
BRANCH   2  19
ATOM     19  O   LIG    1       31.772 -19.631   7.339  0.00  0.00    -0.506 OA
ATOM     20  H   LIG    1       32.273 -20.108   6.649  0.00  0.00    +0.292 HD
ENDBRANCH   2  19
TORSDOF 4
ENDMDL
MODEL 3
REMARK VINA RESULT:      -9.3      1.149      2.397
REMARK  Name = *****
REMARK                            x       y       z     vdW  Elec       q    Type
REMARK                         _______ _______ _______ _____ _____    ______ ____
ROOT
ATOM      1  C   LIG    1       30.267 -18.989   8.492  0.00  0.00    +0.101 A 
ATOM      2  C   LIG    1       30.998 -20.158   8.719  0.00  0.00    +0.131 A 
ATOM      3  C   LIG    1       30.447 -21.401   8.421  0.00  0.00    +0.047 A 
ATOM      4  C   LIG    1       29.152 -21.482   7.897  0.00  0.00    +0.012 A 
ATOM      5  C   LIG    1       28.381 -20.335   7.640  0.00  0.00    -0.014 A 
ATOM      6  C   LIG    1       28.972 -19.093   7.945  0.00  0.00    +0.027 A 
ENDROOT
BRANCH   5   7
ATOM      7  C   LIG    1       27.003 -20.424   7.087  0.00  0.00    +0.018 A 
ATOM      8  C   LIG    1       25.868 -20.599   7.906  0.00  0.00    +0.134 A 
ATOM      9  F   LIG    1       25.998 -20.722   9.236  0.00  0.00    -0.205 F 
ATOM     10  C   LIG    1       24.576 -20.664   7.388  0.00  0.00    +0.077 A 
ATOM     11  C   LIG    1       24.392 -20.568   6.020  0.00  0.00    +0.126 A 
ATOM     12  F   LIG    1       23.154 -20.634   5.511  0.00  0.00    -0.205 F 
ATOM     13  C   LIG    1       25.475 -20.405   5.169  0.00  0.00    +0.039 A 
ATOM     14  C   LIG    1       26.768 -20.328   5.699  0.00  0.00    +0.014 A 
ENDBRANCH   5   7
BRANCH   1  16
ATOM     15  O   LIG    1       30.120 -16.814   9.456  0.00  0.00    -0.245 OA
ATOM     16  C   LIG    1       30.768 -17.616   8.799  0.00  0.00    +0.340 C 
BRANCH  16  17
ATOM     17  O   LIG    1       31.991 -17.323   8.312  0.00  0.00    -0.477 OA
ATOM     18  H   LIG    1       32.355 -16.494   8.691  0.00  0.00    +0.295 HD
ENDBRANCH  16  17
ENDBRANCH   1  16
BRANCH   2  19
ATOM     19  O   LIG    1       32.265 -20.093   9.240  0.00  0.00    -0.506 OA
ATOM     20  H   LIG    1       32.479 -20.956   9.644  0.00  0.00    +0.292 HD
ENDBRANCH   2  19
TORSDOF 4
ENDMDL
MODEL 4
REMARK VINA RESULT:      -9.1      1.579      2.864
REMARK  Name = *****
REMARK                            x       y       z     vdW  Elec       q    Type
REMARK                         _______ _______ _______ _____ _____    ______ ____
ROOT
ATOM      1  C   LIG    1       30.260 -18.972   8.555  0.00  0.00    +0.101 A 
ATOM      2  C   LIG    1       31.010 -20.132   8.763  0.00  0.00    +0.131 A 
ATOM      3  C   LIG    1       30.467 -21.381   8.479  0.00  0.00    +0.047 A 
ATOM      4  C   LIG    1       29.159 -21.478   7.989  0.00  0.00    +0.012 A 
ATOM      5  C   LIG    1       28.368 -20.340   7.752  0.00  0.00    -0.014 A 
ATOM      6  C   LIG    1       28.953 -19.091   8.041  0.00  0.00    +0.027 A 
ENDROOT
BRANCH   5   7
ATOM      7  C   LIG    1       26.978 -20.445   7.236  0.00  0.00    +0.018 A 
ATOM      8  C   LIG    1       26.660 -20.266   5.873  0.00  0.00    +0.134 A 
ATOM      9  F   LIG    1       27.617 -19.959   4.984  0.00  0.00    -0.205 F 
ATOM     10  C   LIG    1       25.359 -20.383   5.388  0.00  0.00    +0.077 A 
ATOM     11  C   LIG    1       24.333 -20.674   6.270  0.00  0.00    +0.126 A 
ATOM     12  F   LIG    1       23.079 -20.785   5.815  0.00  0.00    -0.205 F 
ATOM     13  C   LIG    1       24.590 -20.850   7.622  0.00  0.00    +0.039 A 
ATOM     14  C   LIG    1       25.902 -20.743   8.098  0.00  0.00    +0.014 A 
ENDBRANCH   5   7
BRANCH   1  16
ATOM     15  O   LIG    1       30.100 -16.788   9.497  0.00  0.00    -0.245 OA
ATOM     16  C   LIG    1       30.754 -17.593   8.848  0.00  0.00    +0.340 C 
BRANCH  16  17
ATOM     17  O   LIG    1       31.975 -17.298   8.359  0.00  0.00    -0.477 OA
ATOM     18  H   LIG    1       32.474 -18.101   8.092  0.00  0.00    +0.295 HD
ENDBRANCH  16  17
ENDBRANCH   1  16
BRANCH   2  19
ATOM     19  O   LIG    1       32.290 -20.053   9.250  0.00  0.00    -0.506 OA
ATOM     20  H   LIG    1       32.902 -19.938   8.498  0.00  0.00    +0.292 HD
ENDBRANCH   2  19
TORSDOF 4
ENDMDL
MODEL 5
REMARK VINA RESULT:      -9.0      4.268      6.428
REMARK  Name = *****
REMARK                            x       y       z     vdW  Elec       q    Type
REMARK                         _______ _______ _______ _____ _____    ______ ____
ROOT
ATOM      1  C   LIG    1       24.493 -23.918   6.532  0.00  0.00    +0.101 A 
ATOM      2  C   LIG    1       23.323 -23.198   6.788  0.00  0.00    +0.131 A 
ATOM      3  C   LIG    1       23.379 -21.832   7.044  0.00  0.00    +0.047 A 
ATOM      4  C   LIG    1       24.615 -21.175   7.053  0.00  0.00    +0.012 A 
ATOM      5  C   LIG    1       25.819 -21.852   6.790  0.00  0.00    -0.014 A 
ATOM      6  C   LIG    1       25.725 -23.233   6.525  0.00  0.00    +0.027 A 
ENDROOT
BRANCH   5   7
ATOM      7  C   LIG    1       27.131 -21.152   6.804  0.00  0.00    +0.018 A 
ATOM      8  C   LIG    1       27.454 -20.129   5.888  0.00  0.00    +0.134 A 
ATOM      9  F   LIG    1       26.582 -19.765   4.935  0.00  0.00    -0.205 F 
ATOM     10  C   LIG    1       28.677 -19.462   5.915  0.00  0.00    +0.077 A 
ATOM     11  C   LIG    1       29.620 -19.818   6.862  0.00  0.00    +0.126 A 
ATOM     12  F   LIG    1       30.800 -19.186   6.894  0.00  0.00    -0.205 F 
ATOM     13  C   LIG    1       29.357 -20.824   7.781  0.00  0.00    +0.039 A 
ATOM     14  C   LIG    1       28.121 -21.480   7.755  0.00  0.00    +0.014 A 
ENDBRANCH   5   7
BRANCH   1  16
ATOM     15  O   LIG    1       25.367 -26.123   6.769  0.00  0.00    -0.245 OA
ATOM     16  C   LIG    1       24.530 -25.387   6.266  0.00  0.00    +0.340 C 
BRANCH  16  17
ATOM     17  O   LIG    1       23.570 -25.851   5.441  0.00  0.00    -0.477 OA
ATOM     18  H   LIG    1       22.774 -25.275   5.433  0.00  0.00    +0.295 HD
ENDBRANCH  16  17
ENDBRANCH   1  16
BRANCH   2  19
ATOM     19  O   LIG    1       22.106 -23.831   6.790  0.00  0.00    -0.506 OA
ATOM     20  H   LIG    1       21.963 -24.234   5.912  0.00  0.00    +0.292 HD
ENDBRANCH   2  19
TORSDOF 4
ENDMDL
MODEL 6
REMARK VINA RESULT:      -8.8      1.993      3.418
REMARK  Name = *****
REMARK                            x       y       z     vdW  Elec       q    Type
REMARK                         _______ _______ _______ _____ _____    ______ ____
ROOT
ATOM      1  C   LIG    1       29.057 -19.752   6.674  0.00  0.00    +0.101 A 
ATOM      2  C   LIG    1       29.464 -20.802   7.501  0.00  0.00    +0.131 A 
ATOM      3  C   LIG    1       28.566 -21.802   7.863  0.00  0.00    +0.047 A 
ATOM      4  C   LIG    1       27.245 -21.753   7.403  0.00  0.00    +0.012 A 
ATOM      5  C   LIG    1       26.790 -20.724   6.559  0.00  0.00    -0.014 A 
ATOM      6  C   LIG    1       27.728 -19.734   6.205  0.00  0.00    +0.027 A 
ENDROOT
BRANCH   5   7
ATOM      7  C   LIG    1       25.386 -20.672   6.074  0.00  0.00    +0.018 A 
ATOM      8  C   LIG    1       25.058 -20.412   4.727  0.00  0.00    +0.134 A 
ATOM      9  F   LIG    1       26.021 -20.169   3.825  0.00  0.00    -0.205 F 
ATOM     10  C   LIG    1       23.741 -20.382   4.271  0.00  0.00    +0.077 A 
ATOM     11  C   LIG    1       22.711 -20.601   5.168  0.00  0.00    +0.126 A 
ATOM     12  F   LIG    1       21.442 -20.571   4.741  0.00  0.00    -0.205 F 
ATOM     13  C   LIG    1       22.978 -20.852   6.506  0.00  0.00    +0.039 A 
ATOM     14  C   LIG    1       24.304 -20.893   6.953  0.00  0.00    +0.014 A 
ENDBRANCH   5   7
BRANCH   1  16
ATOM     15  O   LIG    1       30.933 -18.299   6.890  0.00  0.00    -0.245 OA
ATOM     16  C   LIG    1       29.944 -18.629   6.250  0.00  0.00    +0.340 C 
BRANCH  16  17
ATOM     17  O   LIG    1       29.589 -18.009   5.107  0.00  0.00    -0.477 OA
ATOM     18  H   LIG    1       29.561 -18.625   4.342  0.00  0.00    +0.295 HD
ENDBRANCH  16  17
ENDBRANCH   1  16
BRANCH   2  19
ATOM     19  O   LIG    1       30.753 -20.858   7.967  0.00  0.00    -0.506 OA
ATOM     20  H   LIG    1       30.993 -19.982   8.325  0.00  0.00    +0.292 HD
ENDBRANCH   2  19
TORSDOF 4
ENDMDL
MODEL 7
REMARK VINA RESULT:      -8.8      4.162      6.246
REMARK  Name = *****
REMARK                            x       y       z     vdW  Elec       q    Type
REMARK                         _______ _______ _______ _____ _____    ______ ____
ROOT
ATOM      1  C   LIG    1       24.461 -23.784   6.503  0.00  0.00    +0.101 A 
ATOM      2  C   LIG    1       23.265 -23.101   6.744  0.00  0.00    +0.131 A 
ATOM      3  C   LIG    1       23.270 -21.726   6.955  0.00  0.00    +0.047 A 
ATOM      4  C   LIG    1       24.479 -21.021   6.933  0.00  0.00    +0.012 A 
ATOM      5  C   LIG    1       25.707 -21.660   6.684  0.00  0.00    -0.014 A 
ATOM      6  C   LIG    1       25.665 -23.051   6.465  0.00  0.00    +0.027 A 
ENDROOT
BRANCH   5   7
ATOM      7  C   LIG    1       26.991 -20.910   6.666  0.00  0.00    +0.018 A 
ATOM      8  C   LIG    1       27.983 -21.081   7.654  0.00  0.00    +0.134 A 
ATOM      9  F   LIG    1       27.785 -21.922   8.681  0.00  0.00    -0.205 F 
ATOM     10  C   LIG    1       29.193 -20.390   7.625  0.00  0.00    +0.077 A 
ATOM     11  C   LIG    1       29.433 -19.492   6.600  0.00  0.00    +0.126 A 
ATOM     12  F   LIG    1       30.591 -18.820   6.565  0.00  0.00    -0.205 F 
ATOM     13  C   LIG    1       28.487 -19.279   5.608  0.00  0.00    +0.039 A 
ATOM     14  C   LIG    1       27.280 -19.987   5.638  0.00  0.00    +0.014 A 
ENDBRANCH   5   7
BRANCH   1  16
ATOM     15  O   LIG    1       25.448 -25.936   6.770  0.00  0.00    -0.245 OA
ATOM     16  C   LIG    1       24.553 -25.258   6.285  0.00  0.00    +0.340 C 
BRANCH  16  17
ATOM     17  O   LIG    1       23.577 -25.794   5.526  0.00  0.00    -0.477 OA
ATOM     18  H   LIG    1       23.555 -25.412   4.622  0.00  0.00    +0.295 HD
ENDBRANCH  16  17
ENDBRANCH   1  16
BRANCH   2  19
ATOM     19  O   LIG    1       22.074 -23.781   6.776  0.00  0.00    -0.506 OA
ATOM     20  H   LIG    1       22.017 -24.269   7.620  0.00  0.00    +0.292 HD
ENDBRANCH   2  19
TORSDOF 4
ENDMDL
MODEL 8
REMARK VINA RESULT:      -8.5      4.539      6.839
REMARK  Name = *****
REMARK                            x       y       z     vdW  Elec       q    Type
REMARK                         _______ _______ _______ _____ _____    ______ ____
ROOT
ATOM      1  C   LIG    1       23.780 -21.688   6.127  0.00  0.00    +0.101 A 
ATOM      2  C   LIG    1       23.688 -23.021   6.538  0.00  0.00    +0.131 A 
ATOM      3  C   LIG    1       24.811 -23.688   7.018  0.00  0.00    +0.047 A 
ATOM      4  C   LIG    1       26.042 -23.023   7.084  0.00  0.00    +0.012 A 
ATOM      5  C   LIG    1       26.183 -21.680   6.694  0.00  0.00    -0.014 A 
ATOM      6  C   LIG    1       25.024 -21.032   6.221  0.00  0.00    +0.027 A 
ENDROOT
BRANCH   5   7
ATOM      7  C   LIG    1       27.492 -20.978   6.761  0.00  0.00    +0.018 A 
ATOM      8  C   LIG    1       27.834 -19.927   5.884  0.00  0.00    +0.134 A 
ATOM      9  F   LIG    1       26.984 -19.537   4.921  0.00  0.00    -0.205 F 
ATOM     10  C   LIG    1       29.055 -19.258   5.960  0.00  0.00    +0.077 A 
ATOM     11  C   LIG    1       29.976 -19.641   6.919  0.00  0.00    +0.126 A 
ATOM     12  F   LIG    1       31.153 -19.008   6.998  0.00  0.00    -0.205 F 
ATOM     13  C   LIG    1       29.693 -20.675   7.800  0.00  0.00    +0.039 A 
ATOM     14  C   LIG    1       28.460 -21.333   7.725  0.00  0.00    +0.014 A 
ENDBRANCH   5   7
BRANCH   1  16
ATOM     15  O   LIG    1       22.552 -19.688   5.716  0.00  0.00    -0.245 OA
ATOM     16  C   LIG    1       22.634 -20.901   5.582  0.00  0.00    +0.340 C 
BRANCH  16  17
ATOM     17  O   LIG    1       21.701 -21.615   4.922  0.00  0.00    -0.477 OA
ATOM     18  H   LIG    1       22.028 -21.946   4.056  0.00  0.00    +0.295 HD
ENDBRANCH  16  17
ENDBRANCH   1  16
BRANCH   2  19
ATOM     19  O   LIG    1       22.491 -23.686   6.471  0.00  0.00    -0.506 OA
ATOM     20  H   LIG    1       21.777 -23.068   6.721  0.00  0.00    +0.292 HD
ENDBRANCH   2  19
TORSDOF 4
ENDMDL
MODEL 9
REMARK VINA RESULT:      -8.3      4.481      6.718
REMARK  Name = *****
REMARK                            x       y       z     vdW  Elec       q    Type
REMARK                         _______ _______ _______ _____ _____    ______ ____
ROOT
ATOM      1  C   LIG    1       23.751 -21.516   6.061  0.00  0.00    +0.101 A 
ATOM      2  C   LIG    1       23.664 -22.837   6.509  0.00  0.00    +0.131 A 
ATOM      3  C   LIG    1       24.790 -23.488   7.002  0.00  0.00    +0.047 A 
ATOM      4  C   LIG    1       26.020 -22.820   7.044  0.00  0.00    +0.012 A 
ATOM      5  C   LIG    1       26.156 -21.488   6.617  0.00  0.00    -0.014 A 
ATOM      6  C   LIG    1       24.994 -20.855   6.132  0.00  0.00    +0.027 A 
ENDROOT
BRANCH   5   7
ATOM      7  C   LIG    1       27.464 -20.782   6.659  0.00  0.00    +0.018 A 
ATOM      8  C   LIG    1       28.435 -21.043   7.649  0.00  0.00    +0.134 A 
ATOM      9  F   LIG    1       28.194 -21.934   8.623  0.00  0.00    -0.205 F 
ATOM     10  C   LIG    1       29.668 -20.393   7.676  0.00  0.00    +0.077 A 
ATOM     11  C   LIG    1       29.953 -19.446   6.708  0.00  0.00    +0.126 A 
ATOM     12  F   LIG    1       31.133 -18.813   6.727  0.00  0.00    -0.205 F 
ATOM     13  C   LIG    1       29.030 -19.145   5.717  0.00  0.00    +0.039 A 
ATOM     14  C   LIG    1       27.800 -19.812   5.690  0.00  0.00    +0.014 A 
ENDBRANCH   5   7
BRANCH   1  16
ATOM     15  O   LIG    1       22.521 -19.529   5.593  0.00  0.00    -0.245 OA
ATOM     16  C   LIG    1       22.602 -20.746   5.500  0.00  0.00    +0.340 C 
BRANCH  16  17
ATOM     17  O   LIG    1       21.662 -21.481   4.871  0.00  0.00    -0.477 OA
ATOM     18  H   LIG    1       21.317 -22.207   5.436  0.00  0.00    +0.295 HD
ENDBRANCH  16  17
ENDBRANCH   1  16
BRANCH   2  19
ATOM     19  O   LIG    1       22.467 -23.506   6.465  0.00  0.00    -0.506 OA
ATOM     20  H   LIG    1       22.196 -23.718   7.379  0.00  0.00    +0.292 HD
ENDBRANCH   2  19
TORSDOF 4
ENDMDL
