MODEL 1
REMARK VINA RESULT:      -5.2      0.000      0.000
REMARK  Name = *****
REMARK                            x       y       z     vdW  Elec       q    Type
REMARK                         _______ _______ _______ _____ _____    ______ ____
ROOT
ATOM      1  C   LIG    1       25.764 -30.195  13.030  0.00  0.00    +0.066 A 
ATOM      2  C   LIG    1       25.485 -30.964  11.866  0.00  0.00    +0.040 A 
ATOM      3  I   LIG    1       24.973 -33.298  11.846  0.00  0.00    -0.042 I 
ATOM      4  C   LIG    1       24.439 -30.568  11.028  0.00  0.00    +0.066 A 
ATOM      5  C   LIG    1       23.297 -30.125  11.681  0.00  0.00    +0.049 A 
ATOM      6  I   LIG    1       21.446 -30.681  10.879  0.00  0.00    -0.041 I 
ATOM      7  C   LIG    1       23.455 -29.449  12.894  0.00  0.00    +0.061 A 
ATOM      8  C   LIG    1       24.777 -29.246  13.339  0.00  0.00    +0.049 A 
ATOM      9  I   LIG    1       25.442 -27.009  13.472  0.00  0.00    -0.041 I 
ENDROOT
BRANCH   4  10
ATOM     10  C   LIG    1       24.981 -30.039   9.732  0.00  0.00    +0.248 C 
ATOM     11  N   LIG    1       24.650 -30.699   8.529  0.00  0.00    -0.298 N 
ATOM     12  C   LIG    1       23.893 -31.913   8.444  0.00  0.00    +0.132 C 
ATOM     13  O   LIG    1       25.599 -29.004   9.774  0.00  0.00    -0.270 OA
BRANCH  11  14
ATOM     14  C   LIG    1       25.029 -30.103   7.251  0.00  0.00    +0.141 C 
BRANCH  14  15
ATOM     15  C   LIG    1       24.052 -29.052   6.666  0.00  0.00    +0.157 C 
BRANCH  15  16
ATOM     16  O   LIG    1       23.292 -29.731   5.647  0.00  0.00    -0.388 OA
ATOM     17  H   LIG    1       23.922 -30.035   4.970  0.00  0.00    +0.210 HD
ENDBRANCH  15  16
BRANCH  15  18
ATOM     18  C   LIG    1       24.667 -27.810   5.986  0.00  0.00    +0.188 C 
BRANCH  18  19
ATOM     19  O   LIG    1       23.854 -26.650   5.976  0.00  0.00    -0.392 OA
ATOM     20  H   LIG    1       24.449 -25.890   5.836  0.00  0.00    +0.209 HD
ENDBRANCH  18  19
ENDBRANCH  15  18
ENDBRANCH  14  15
ENDBRANCH  11  14
ENDBRANCH   4  10
BRANCH   1  23
ATOM     21  C   LIG    1       28.557 -29.401  12.353  0.00  0.00    +0.132 C 
ATOM     22  N   LIG    1       28.214 -29.865  13.654  0.00  0.00    -0.298 N 
ATOM     23  C   LIG    1       26.942 -30.198  14.040  0.00  0.00    +0.248 C 
ATOM     24  O   LIG    1       26.710 -30.570  15.186  0.00  0.00    -0.270 OA
BRANCH  22  25
ATOM     25  C   LIG    1       29.353 -30.110  14.562  0.00  0.00    +0.141 C 
BRANCH  25  26
ATOM     26  C   LIG    1       30.616 -29.335  14.132  0.00  0.00    +0.157 C 
BRANCH  26  27
ATOM     27  O   LIG    1       30.639 -28.056  14.774  0.00  0.00    -0.388 OA
ATOM     28  H   LIG    1       29.767 -27.870  15.154  0.00  0.00    +0.210 HD
ENDBRANCH  26  27
BRANCH  26  29
ATOM     29  C   LIG    1       31.923 -30.102  14.411  0.00  0.00    +0.188 C 
BRANCH  29  30
ATOM     30  O   LIG    1       32.332 -30.867  13.284  0.00  0.00    -0.392 OA
ATOM     31  H   LIG    1       31.765 -31.657  13.238  0.00  0.00    +0.209 HD
ENDBRANCH  29  30
ENDBRANCH  26  29
ENDBRANCH  25  26
ENDBRANCH  22  25
ENDBRANCH   1  23
BRANCH   7  32
ATOM     32  N   LIG    1       22.331 -29.103  13.718  0.00  0.00    -0.283 N 
ATOM     33  H   LIG    1       22.183 -29.718  14.499  0.00  0.00    +0.155 HD
ATOM     34  C   LIG    1       21.649 -27.907  13.666  0.00  0.00    +0.225 C 
ATOM     35  O   LIG    1       21.978 -26.943  12.909  0.00  0.00    -0.275 OA
BRANCH  34  36
ATOM     36  C   LIG    1       20.494 -27.663  14.589  0.00  0.00    +0.126 C 
BRANCH  36  37
ATOM     37  C   LIG    1       19.659 -28.955  14.632  0.00  0.00    +0.170 C 
BRANCH  37  38
ATOM     38  O   LIG    1       19.046 -29.244  13.379  0.00  0.00    -0.394 OA
ATOM     39  H   LIG    1       19.010 -30.210  13.266  0.00  0.00    +0.209 HD
ENDBRANCH  37  38
ENDBRANCH  36  37
BRANCH  36  40
ATOM     40  C   LIG    1       19.579 -26.482  14.290  0.00  0.00    +0.170 C 
BRANCH  40  41
ATOM     41  O   LIG    1       19.345 -26.330  12.902  0.00  0.00    -0.394 OA
ATOM     42  H   LIG    1       18.539 -26.816  12.662  0.00  0.00    +0.209 HD
ENDBRANCH  40  41
ENDBRANCH  36  40
ENDBRANCH  34  36
ENDBRANCH   7  32
TORSDOF 18
ENDMDL
MODEL 2
REMARK VINA RESULT:      -4.5      2.005      7.658
REMARK  Name = *****
REMARK                            x       y       z     vdW  Elec       q    Type
REMARK                         _______ _______ _______ _____ _____    ______ ____
ROOT
ATOM      1  C   LIG    1       25.737 -29.889  11.265  0.00  0.00    +0.066 A 
ATOM      2  C   LIG    1       24.784 -30.858  11.686  0.00  0.00    +0.040 A 
ATOM      3  I   LIG    1       24.878 -33.192  11.184  0.00  0.00    -0.042 I 
ATOM      4  C   LIG    1       24.524 -31.003  13.052  0.00  0.00    +0.066 A 
ATOM      5  C   LIG    1       25.641 -30.937  13.874  0.00  0.00    +0.049 A 
ATOM      6  I   LIG    1       25.726 -32.252  15.499  0.00  0.00    -0.041 I 
ATOM      7  C   LIG    1       26.688 -30.092  13.493  0.00  0.00    +0.061 A 
ATOM      8  C   LIG    1       26.503 -29.348  12.310  0.00  0.00    +0.049 A 
ATOM      9  I   LIG    1       26.436 -27.030  12.601  0.00  0.00    -0.041 I 
ENDROOT
BRANCH   4  10
ATOM     10  C   LIG    1       23.151 -30.492  13.378  0.00  0.00    +0.248 C 
ATOM     11  N   LIG    1       22.132 -31.415  13.691  0.00  0.00    -0.298 N 
ATOM     12  C   LIG    1       22.275 -32.841  13.637  0.00  0.00    +0.132 C 
ATOM     13  O   LIG    1       23.012 -29.296  13.456  0.00  0.00    -0.270 OA
BRANCH  11  14
ATOM     14  C   LIG    1       20.841 -30.931  14.173  0.00  0.00    +0.141 C 
BRANCH  14  15
ATOM     15  C   LIG    1       19.778 -30.614  13.091  0.00  0.00    +0.157 C 
BRANCH  15  16
ATOM     16  O   LIG    1       20.175 -29.365  12.490  0.00  0.00    -0.388 OA
ATOM     17  H   LIG    1       20.090 -29.467  11.526  0.00  0.00    +0.210 HD
ENDBRANCH  15  16
BRANCH  15  18
ATOM     18  C   LIG    1       18.321 -30.419  13.561  0.00  0.00    +0.188 C 
BRANCH  18  19
ATOM     19  O   LIG    1       17.324 -30.643  12.578  0.00  0.00    -0.392 OA
ATOM     20  H   LIG    1       16.492 -30.277  12.933  0.00  0.00    +0.209 HD
ENDBRANCH  18  19
ENDBRANCH  15  18
ENDBRANCH  14  15
ENDBRANCH  11  14
ENDBRANCH   4  10
BRANCH   1  23
ATOM     21  C   LIG    1       23.916 -29.886   8.905  0.00  0.00    +0.132 C 
ATOM     22  N   LIG    1       25.243 -29.381   8.816  0.00  0.00    -0.298 N 
ATOM     23  C   LIG    1       26.111 -29.311   9.875  0.00  0.00    +0.248 C 
ATOM     24  O   LIG    1       27.236 -28.842   9.735  0.00  0.00    -0.270 OA
BRANCH  22  25
ATOM     25  C   LIG    1       25.708 -29.051   7.454  0.00  0.00    +0.141 C 
BRANCH  25  26
ATOM     26  C   LIG    1       24.721 -28.126   6.711  0.00  0.00    +0.157 C 
BRANCH  26  27
ATOM     27  O   LIG    1       25.267 -26.806   6.626  0.00  0.00    -0.388 OA
ATOM     28  H   LIG    1       26.135 -26.844   6.197  0.00  0.00    +0.210 HD
ENDBRANCH  26  27
BRANCH  26  29
ATOM     29  C   LIG    1       24.340 -28.645   5.311  0.00  0.00    +0.188 C 
BRANCH  29  30
ATOM     30  O   LIG    1       23.213 -29.510   5.360  0.00  0.00    -0.392 OA
ATOM     31  H   LIG    1       22.842 -29.466   6.259  0.00  0.00    +0.209 HD
ENDBRANCH  29  30
ENDBRANCH  26  29
ENDBRANCH  25  26
ENDBRANCH  22  25
ENDBRANCH   1  23
BRANCH   7  32
ATOM     32  N   LIG    1       27.944 -30.084  14.188  0.00  0.00    -0.283 N 
ATOM     33  H   LIG    1       27.908 -30.467  15.116  0.00  0.00    +0.155 HD
ATOM     34  C   LIG    1       29.170 -29.847  13.605  0.00  0.00    +0.225 C 
ATOM     35  O   LIG    1       29.332 -29.661  12.361  0.00  0.00    -0.275 OA
BRANCH  34  36
ATOM     36  C   LIG    1       30.414 -29.876  14.441  0.00  0.00    +0.126 C 
BRANCH  36  37
ATOM     37  C   LIG    1       30.392 -28.628  15.340  0.00  0.00    +0.170 C 
BRANCH  37  38
ATOM     38  O   LIG    1       29.696 -27.541  14.739  0.00  0.00    -0.394 OA
ATOM     39  H   LIG    1       29.842 -27.571  13.777  0.00  0.00    +0.209 HD
ENDBRANCH  37  38
ENDBRANCH  36  37
BRANCH  36  40
ATOM     40  C   LIG    1       31.754 -29.955  13.721  0.00  0.00    +0.170 C 
BRANCH  40  41
ATOM     41  O   LIG    1       32.060 -28.755  13.035  0.00  0.00    -0.394 OA
ATOM     42  H   LIG    1       32.918 -28.423  13.345  0.00  0.00    +0.209 HD
ENDBRANCH  40  41
ENDBRANCH  36  40
ENDBRANCH  34  36
ENDBRANCH   7  32
TORSDOF 18
ENDMDL
MODEL 3
REMARK VINA RESULT:      -4.2      2.837      6.914
REMARK  Name = *****
REMARK                            x       y       z     vdW  Elec       q    Type
REMARK                         _______ _______ _______ _____ _____    ______ ____
ROOT
ATOM      1  C   LIG    1       24.073 -30.530  10.919  0.00  0.00    +0.066 A 
ATOM      2  C   LIG    1       24.440 -29.796  12.080  0.00  0.00    +0.040 A 
ATOM      3  I   LIG    1       23.224 -27.947  12.984  0.00  0.00    -0.042 I 
ATOM      4  C   LIG    1       24.605 -30.479  13.288  0.00  0.00    +0.066 A 
ATOM      5  C   LIG    1       23.665 -31.469  13.538  0.00  0.00    +0.049 A 
ATOM      6  I   LIG    1       22.964 -31.666  15.499  0.00  0.00    -0.041 I 
ATOM      7  C   LIG    1       23.157 -32.182  12.448  0.00  0.00    +0.061 A 
ATOM      8  C   LIG    1       23.671 -31.850  11.179  0.00  0.00    +0.049 A 
ATOM      9  I   LIG    1       24.854 -33.562  10.113  0.00  0.00    -0.041 I 
ENDROOT
BRANCH   4  10
ATOM     10  C   LIG    1       26.056 -30.516  13.671  0.00  0.00    +0.248 C 
ATOM     11  N   LIG    1       26.498 -29.737  14.762  0.00  0.00    -0.298 N 
ATOM     12  C   LIG    1       25.677 -28.823  15.500  0.00  0.00    +0.132 C 
ATOM     13  O   LIG    1       26.762 -31.297  13.083  0.00  0.00    -0.270 OA
BRANCH  11  14
ATOM     14  C   LIG    1       27.865 -29.890  15.251  0.00  0.00    +0.141 C 
BRANCH  14  15
ATOM     15  C   LIG    1       28.939 -28.995  14.582  0.00  0.00    +0.157 C 
BRANCH  15  16
ATOM     16  O   LIG    1       28.227 -27.901  13.969  0.00  0.00    -0.388 OA
ATOM     17  H   LIG    1       28.670 -27.079  14.242  0.00  0.00    +0.210 HD
ENDBRANCH  15  16
BRANCH  15  18
ATOM     18  C   LIG    1       29.797 -29.628  13.465  0.00  0.00    +0.188 C 
BRANCH  18  19
ATOM     19  O   LIG    1       29.151 -29.790  12.214  0.00  0.00    -0.392 OA
ATOM     20  H   LIG    1       29.844 -30.021  11.568  0.00  0.00    +0.209 HD
ENDBRANCH  18  19
ENDBRANCH  15  18
ENDBRANCH  14  15
ENDBRANCH  11  14
ENDBRANCH   4  10
BRANCH   1  23
ATOM     21  C   LIG    1       26.452 -29.784   9.284  0.00  0.00    +0.132 C 
ATOM     22  N   LIG    1       25.142 -29.785   8.727  0.00  0.00    -0.298 N 
ATOM     23  C   LIG    1       24.017 -30.163   9.412  0.00  0.00    +0.248 C 
ATOM     24  O   LIG    1       22.919 -30.162   8.865  0.00  0.00    -0.270 OA
BRANCH  22  25
ATOM     25  C   LIG    1       25.027 -29.208   7.372  0.00  0.00    +0.141 C 
BRANCH  25  26
ATOM     26  C   LIG    1       24.511 -30.238   6.345  0.00  0.00    +0.157 C 
BRANCH  26  27
ATOM     27  O   LIG    1       23.296 -29.764   5.756  0.00  0.00    -0.388 OA
ATOM     28  H   LIG    1       22.563 -29.900   6.375  0.00  0.00    +0.210 HD
ENDBRANCH  26  27
BRANCH  26  29
ATOM     29  C   LIG    1       25.545 -30.576   5.253  0.00  0.00    +0.188 C 
BRANCH  29  30
ATOM     30  O   LIG    1       25.120 -31.670   4.450  0.00  0.00    -0.392 OA
ATOM     31  H   LIG    1       25.157 -31.389   3.519  0.00  0.00    +0.209 HD
ENDBRANCH  29  30
ENDBRANCH  26  29
ENDBRANCH  25  26
ENDBRANCH  22  25
ENDBRANCH   1  23
BRANCH   7  32
ATOM     32  N   LIG    1       22.065 -33.104  12.591  0.00  0.00    -0.283 N 
ATOM     33  H   LIG    1       22.329 -34.010  12.936  0.00  0.00    +0.155 HD
ATOM     34  C   LIG    1       20.730 -32.766  12.542  0.00  0.00    +0.225 C 
ATOM     35  O   LIG    1       20.312 -31.574  12.417  0.00  0.00    -0.275 OA
BRANCH  34  36
ATOM     36  C   LIG    1       19.683 -33.824  12.714  0.00  0.00    +0.126 C 
BRANCH  36  37
ATOM     37  C   LIG    1       18.817 -33.824  11.443  0.00  0.00    +0.170 C 
BRANCH  37  38
ATOM     38  O   LIG    1       19.528 -33.351  10.303  0.00  0.00    -0.394 OA
ATOM     39  H   LIG    1       19.013 -32.637   9.889  0.00  0.00    +0.209 HD
ENDBRANCH  37  38
ENDBRANCH  36  37
BRANCH  36  40
ATOM     40  C   LIG    1       18.780 -33.739  13.938  0.00  0.00    +0.170 C 
BRANCH  40  41
ATOM     41  O   LIG    1       19.009 -32.559  14.687  0.00  0.00    -0.394 OA
ATOM     42  H   LIG    1       19.966 -32.435  14.795  0.00  0.00    +0.209 HD
ENDBRANCH  40  41
ENDBRANCH  36  40
ENDBRANCH  34  36
ENDBRANCH   7  32
TORSDOF 18
ENDMDL
MODEL 4
REMARK VINA RESULT:      -4.0      1.973      6.898
REMARK  Name = *****
REMARK                            x       y       z     vdW  Elec       q    Type
REMARK                         _______ _______ _______ _____ _____    ______ ____
ROOT
ATOM      1  C   LIG    1       25.390 -30.984  11.772  0.00  0.00    +0.066 A 
ATOM      2  C   LIG    1       26.379 -30.055  12.197  0.00  0.00    +0.040 A 
ATOM      3  I   LIG    1       26.681 -27.858  11.306  0.00  0.00    -0.042 I 
ATOM      4  C   LIG    1       26.425 -29.684  13.544  0.00  0.00    +0.066 A 
ATOM      5  C   LIG    1       25.188 -29.482  14.141  0.00  0.00    +0.049 A 
ATOM      6  I   LIG    1       25.009 -27.885  15.481  0.00  0.00    -0.041 I 
ATOM      7  C   LIG    1       24.117 -30.274  13.717  0.00  0.00    +0.061 A 
ATOM      8  C   LIG    1       24.396 -31.241  12.730  0.00  0.00    +0.049 A 
ATOM      9  I   LIG    1       24.105 -33.459  13.408  0.00  0.00    -0.041 I 
ENDROOT
BRANCH   4  10
ATOM     10  C   LIG    1       27.644 -30.260  14.202  0.00  0.00    +0.248 C 
ATOM     11  N   LIG    1       28.627 -29.386  14.712  0.00  0.00    -0.298 N 
ATOM     12  C   LIG    1       28.604 -27.959  14.574  0.00  0.00    +0.132 C 
ATOM     13  O   LIG    1       27.676 -31.457  14.354  0.00  0.00    -0.270 OA
BRANCH  11  14
ATOM     14  C   LIG    1       29.733 -29.923  15.500  0.00  0.00    +0.141 C 
BRANCH  14  15
ATOM     15  C   LIG    1       31.110 -29.996  14.793  0.00  0.00    +0.157 C 
BRANCH  15  16
ATOM     16  O   LIG    1       31.696 -31.254  15.185  0.00  0.00    -0.388 OA
ATOM     17  H   LIG    1       31.885 -31.751  14.370  0.00  0.00    +0.210 HD
ENDBRANCH  15  16
BRANCH  15  18
ATOM     18  C   LIG    1       32.149 -28.911  15.145  0.00  0.00    +0.188 C 
BRANCH  18  19
ATOM     19  O   LIG    1       32.030 -27.693  14.430  0.00  0.00    -0.392 OA
ATOM     20  H   LIG    1       32.804 -27.636  13.840  0.00  0.00    +0.209 HD
ENDBRANCH  18  19
ENDBRANCH  15  18
ENDBRANCH  14  15
ENDBRANCH  11  14
ENDBRANCH   4  10
BRANCH   1  23
ATOM     21  C   LIG    1       23.375 -30.268   9.695  0.00  0.00    +0.132 C 
ATOM     22  N   LIG    1       24.204 -31.416   9.556  0.00  0.00    -0.298 N 
ATOM     23  C   LIG    1       25.180 -31.771  10.451  0.00  0.00    +0.248 C 
ATOM     24  O   LIG    1       25.876 -32.763  10.260  0.00  0.00    -0.270 OA
BRANCH  22  25
ATOM     25  C   LIG    1       23.862 -32.317   8.437  0.00  0.00    +0.141 C 
BRANCH  25  26
ATOM     26  C   LIG    1       24.969 -32.354   7.363  0.00  0.00    +0.157 C 
BRANCH  26  27
ATOM     27  O   LIG    1       25.168 -33.701   6.922  0.00  0.00    -0.388 OA
ATOM     28  H   LIG    1       24.347 -34.038   6.533  0.00  0.00    +0.210 HD
ENDBRANCH  26  27
BRANCH  26  29
ATOM     29  C   LIG    1       24.682 -31.430   6.163  0.00  0.00    +0.188 C 
BRANCH  29  30
ATOM     30  O   LIG    1       23.302 -31.428   5.822  0.00  0.00    -0.392 OA
ATOM     31  H   LIG    1       23.222 -31.725   4.898  0.00  0.00    +0.209 HD
ENDBRANCH  29  30
ENDBRANCH  26  29
ENDBRANCH  25  26
ENDBRANCH  22  25
ENDBRANCH   1  23
BRANCH   7  32
ATOM     32  N   LIG    1       22.773 -30.025  14.155  0.00  0.00    -0.283 N 
ATOM     33  H   LIG    1       22.544 -30.431  15.046  0.00  0.00    +0.155 HD
ATOM     34  C   LIG    1       21.915 -29.103  13.597  0.00  0.00    +0.225 C 
ATOM     35  O   LIG    1       22.243 -28.321  12.653  0.00  0.00    -0.275 OA
BRANCH  34  36
ATOM     36  C   LIG    1       20.534 -28.931  14.154  0.00  0.00    +0.126 C 
BRANCH  36  37
ATOM     37  C   LIG    1       19.589 -29.812  13.319  0.00  0.00    +0.170 C 
BRANCH  37  38
ATOM     38  O   LIG    1       20.101 -30.069  12.015  0.00  0.00    -0.394 OA
ATOM     39  H   LIG    1       19.616 -29.518  11.376  0.00  0.00    +0.209 HD
ENDBRANCH  37  38
ENDBRANCH  36  37
BRANCH  36  40
ATOM     40  C   LIG    1       19.968 -27.518  14.232  0.00  0.00    +0.170 C 
BRANCH  40  41
ATOM     41  O   LIG    1       19.767 -26.955  12.949  0.00  0.00    -0.394 OA
ATOM     42  H   LIG    1       20.193 -26.083  12.917  0.00  0.00    +0.209 HD
ENDBRANCH  40  41
ENDBRANCH  36  40
ENDBRANCH  34  36
ENDBRANCH   7  32
TORSDOF 18
ENDMDL
MODEL 5
REMARK VINA RESULT:      -3.7      3.359      8.015
REMARK  Name = *****
REMARK                            x       y       z     vdW  Elec       q    Type
REMARK                         _______ _______ _______ _____ _____    ______ ____
ROOT
ATOM      1  C   LIG    1       23.055 -31.259  13.301  0.00  0.00    +0.066 A 
ATOM      2  C   LIG    1       24.006 -30.357  13.850  0.00  0.00    +0.040 A 
ATOM      3  I   LIG    1       26.006 -30.990  14.995  0.00  0.00    -0.042 I 
ATOM      4  C   LIG    1       24.601 -29.407  13.014  0.00  0.00    +0.066 A 
ATOM      5  C   LIG    1       24.946 -29.869  11.751  0.00  0.00    +0.049 A 
ATOM      6  I   LIG    1       26.754 -29.201  10.937  0.00  0.00    -0.041 I 
ATOM      7  C   LIG    1       24.132 -30.842  11.163  0.00  0.00    +0.061 A 
ATOM      8  C   LIG    1       23.002 -31.251  11.898  0.00  0.00    +0.049 A 
ATOM      9  I   LIG    1       20.945 -30.759  10.903  0.00  0.00    -0.041 I 
ENDROOT
BRANCH   4  10
ATOM     10  C   LIG    1       24.101 -28.032  13.349  0.00  0.00    +0.248 C 
ATOM     11  N   LIG    1       24.918 -27.173  14.115  0.00  0.00    -0.298 N 
ATOM     12  C   LIG    1       26.180 -27.540  14.689  0.00  0.00    +0.132 C 
ATOM     13  O   LIG    1       23.055 -27.689  12.856  0.00  0.00    -0.270 OA
BRANCH  11  14
ATOM     14  C   LIG    1       24.522 -25.781  14.307  0.00  0.00    +0.141 C 
BRANCH  14  15
ATOM     15  C   LIG    1       25.542 -24.707  13.851  0.00  0.00    +0.157 C 
BRANCH  15  16
ATOM     16  O   LIG    1       26.240 -25.268  12.722  0.00  0.00    -0.388 OA
ATOM     17  H   LIG    1       26.212 -26.236  12.816  0.00  0.00    +0.210 HD
ENDBRANCH  15  16
BRANCH  15  18
ATOM     18  C   LIG    1       26.630 -24.285  14.861  0.00  0.00    +0.188 C 
BRANCH  18  19
ATOM     19  O   LIG    1       27.912 -24.031  14.312  0.00  0.00    -0.392 OA
ATOM     20  H   LIG    1       28.332 -23.356  14.878  0.00  0.00    +0.209 HD
ENDBRANCH  18  19
ENDBRANCH  15  18
ENDBRANCH  14  15
ENDBRANCH  11  14
ENDBRANCH   4  10
BRANCH   1  23
ATOM     21  C   LIG    1       20.668 -30.470  14.903  0.00  0.00    +0.132 C 
ATOM     22  N   LIG    1       21.007 -31.837  14.705  0.00  0.00    -0.298 N 
ATOM     23  C   LIG    1       22.061 -32.264  13.941  0.00  0.00    +0.248 C 
ATOM     24  O   LIG    1       22.285 -33.462  13.792  0.00  0.00    -0.270 OA
BRANCH  22  25
ATOM     25  C   LIG    1       20.226 -32.807  15.500  0.00  0.00    +0.141 C 
BRANCH  25  26
ATOM     26  C   LIG    1       18.809 -33.020  14.929  0.00  0.00    +0.157 C 
BRANCH  26  27
ATOM     27  O   LIG    1       17.916 -32.046  15.480  0.00  0.00    -0.388 OA
ATOM     28  H   LIG    1       17.889 -32.143  16.443  0.00  0.00    +0.210 HD
ENDBRANCH  26  27
BRANCH  26  29
ATOM     29  C   LIG    1       18.764 -32.983  13.388  0.00  0.00    +0.188 C 
BRANCH  29  30
ATOM     30  O   LIG    1       17.902 -31.958  12.913  0.00  0.00    -0.392 OA
ATOM     31  H   LIG    1       18.361 -31.107  13.022  0.00  0.00    +0.209 HD
ENDBRANCH  29  30
ENDBRANCH  26  29
ENDBRANCH  25  26
ENDBRANCH  22  25
ENDBRANCH   1  23
BRANCH   7  32
ATOM     32  N   LIG    1       24.501 -31.496   9.939  0.00  0.00    -0.283 N 
ATOM     33  H   LIG    1       24.782 -32.455  10.048  0.00  0.00    +0.155 HD
ATOM     34  C   LIG    1       24.255 -31.007   8.674  0.00  0.00    +0.225 C 
ATOM     35  O   LIG    1       23.617 -29.934   8.447  0.00  0.00    -0.275 OA
BRANCH  34  36
ATOM     36  C   LIG    1       24.684 -31.792   7.471  0.00  0.00    +0.126 C 
BRANCH  36  37
ATOM     37  C   LIG    1       25.934 -31.104   6.895  0.00  0.00    +0.170 C 
BRANCH  37  38
ATOM     38  O   LIG    1       25.778 -29.691   6.801  0.00  0.00    -0.394 OA
ATOM     39  H   LIG    1       26.301 -29.370   6.046  0.00  0.00    +0.209 HD
ENDBRANCH  37  38
ENDBRANCH  36  37
BRANCH  36  40
ATOM     40  C   LIG    1       23.666 -32.003   6.358  0.00  0.00    +0.170 C 
BRANCH  40  41
ATOM     41  O   LIG    1       23.290 -30.783   5.745  0.00  0.00    -0.394 OA
ATOM     42  H   LIG    1       22.335 -30.653   5.860  0.00  0.00    +0.209 HD
ENDBRANCH  40  41
ENDBRANCH  36  40
ENDBRANCH  34  36
ENDBRANCH   7  32
TORSDOF 18
ENDMDL
MODEL 6
REMARK VINA RESULT:      -3.4      3.059      3.701
REMARK  Name = *****
REMARK                            x       y       z     vdW  Elec       q    Type
REMARK                         _______ _______ _______ _____ _____    ______ ____
ROOT
ATOM      1  C   LIG    1       24.262 -29.429  13.525  0.00  0.00    +0.066 A 
ATOM      2  C   LIG    1       24.587 -30.526  12.681  0.00  0.00    +0.040 A 
ATOM      3  I   LIG    1       25.641 -32.549  13.395  0.00  0.00    -0.042 I 
ATOM      4  C   LIG    1       23.570 -31.134  11.939  0.00  0.00    +0.066 A 
ATOM      5  C   LIG    1       22.367 -31.296  12.611  0.00  0.00    +0.049 A 
ATOM      6  I   LIG    1       21.313 -33.075  12.295  0.00  0.00    -0.041 I 
ATOM      7  C   LIG    1       22.002 -30.323  13.547  0.00  0.00    +0.061 A 
ATOM      8  C   LIG    1       22.883 -29.235  13.706  0.00  0.00    +0.049 A 
ATOM      9  I   LIG    1       22.003 -27.155  13.102  0.00  0.00    -0.041 I 
ENDROOT
BRANCH   4  10
ATOM     10  C   LIG    1       23.737 -30.829  10.479  0.00  0.00    +0.248 C 
ATOM     11  N   LIG    1       24.147 -31.857   9.605  0.00  0.00    -0.298 N 
ATOM     12  C   LIG    1       24.512 -33.182  10.014  0.00  0.00    +0.132 C 
ATOM     13  O   LIG    1       23.411 -29.729  10.105  0.00  0.00    -0.270 OA
BRANCH  11  14
ATOM     14  C   LIG    1       24.151 -31.622   8.164  0.00  0.00    +0.141 C 
BRANCH  14  15
ATOM     15  C   LIG    1       25.519 -31.263   7.529  0.00  0.00    +0.157 C 
BRANCH  15  16
ATOM     16  O   LIG    1       25.880 -29.971   8.056  0.00  0.00    -0.388 OA
ATOM     17  H   LIG    1       25.089 -29.406   8.006  0.00  0.00    +0.210 HD
ENDBRANCH  15  16
BRANCH  15  18
ATOM     18  C   LIG    1       25.577 -31.132   5.993  0.00  0.00    +0.188 C 
BRANCH  18  19
ATOM     19  O   LIG    1       26.340 -32.119   5.321  0.00  0.00    -0.392 OA
ATOM     20  H   LIG    1       25.706 -32.754   4.939  0.00  0.00    +0.209 HD
ENDBRANCH  18  19
ENDBRANCH  15  18
ENDBRANCH  14  15
ENDBRANCH  11  14
ENDBRANCH   4  10
BRANCH   1  23
ATOM     21  C   LIG    1       26.434 -27.800  12.294  0.00  0.00    +0.132 C 
ATOM     22  N   LIG    1       26.142 -27.714  13.684  0.00  0.00    -0.298 N 
ATOM     23  C   LIG    1       25.127 -28.399  14.299  0.00  0.00    +0.248 C 
ATOM     24  O   LIG    1       24.914 -28.263  15.500  0.00  0.00    -0.270 OA
BRANCH  22  25
ATOM     25  C   LIG    1       27.102 -26.931  14.488  0.00  0.00    +0.141 C 
BRANCH  25  26
ATOM     26  C   LIG    1       26.901 -25.411  14.315  0.00  0.00    +0.157 C 
BRANCH  26  27
ATOM     27  O   LIG    1       27.718 -24.935  13.240  0.00  0.00    -0.388 OA
ATOM     28  H   LIG    1       28.488 -25.516  13.140  0.00  0.00    +0.210 HD
ENDBRANCH  26  27
BRANCH  26  29
ATOM     29  C   LIG    1       25.429 -25.015  14.090  0.00  0.00    +0.188 C 
BRANCH  29  30
ATOM     30  O   LIG    1       24.673 -25.101  15.292  0.00  0.00    -0.392 OA
ATOM     31  H   LIG    1       24.212 -24.253  15.415  0.00  0.00    +0.209 HD
ENDBRANCH  29  30
ENDBRANCH  26  29
ENDBRANCH  25  26
ENDBRANCH  22  25
ENDBRANCH   1  23
BRANCH   7  32
ATOM     32  N   LIG    1       20.863 -30.490  14.406  0.00  0.00    -0.283 N 
ATOM     33  H   LIG    1       21.085 -30.553  15.384  0.00  0.00    +0.155 HD
ATOM     34  C   LIG    1       19.551 -30.313  14.025  0.00  0.00    +0.225 C 
ATOM     35  O   LIG    1       19.202 -29.923  12.868  0.00  0.00    -0.275 OA
BRANCH  34  36
ATOM     36  C   LIG    1       18.449 -30.510  15.021  0.00  0.00    +0.126 C 
BRANCH  36  37
ATOM     37  C   LIG    1       17.616 -31.715  14.553  0.00  0.00    +0.170 C 
BRANCH  37  38
ATOM     38  O   LIG    1       16.612 -31.346  13.612  0.00  0.00    -0.394 OA
ATOM     39  H   LIG    1       16.722 -30.405  13.392  0.00  0.00    +0.209 HD
ENDBRANCH  37  38
ENDBRANCH  36  37
BRANCH  36  40
ATOM     40  C   LIG    1       17.521 -29.334  15.299  0.00  0.00    +0.170 C 
BRANCH  40  41
ATOM     41  O   LIG    1       17.181 -28.635  14.116  0.00  0.00    -0.394 OA
ATOM     42  H   LIG    1       17.305 -27.683  14.265  0.00  0.00    +0.209 HD
ENDBRANCH  40  41
ENDBRANCH  36  40
ENDBRANCH  34  36
ENDBRANCH   7  32
TORSDOF 18
ENDMDL
MODEL 7
REMARK VINA RESULT:      -3.3      1.386      6.620
REMARK  Name = *****
REMARK                            x       y       z     vdW  Elec       q    Type
REMARK                         _______ _______ _______ _____ _____    ______ ____
ROOT
ATOM      1  C   LIG    1       24.556 -29.974  11.340  0.00  0.00    +0.066 A 
ATOM      2  C   LIG    1       25.705 -29.299  11.835  0.00  0.00    +0.040 A 
ATOM      3  I   LIG    1       26.341 -27.064  11.274  0.00  0.00    -0.042 I 
ATOM      4  C   LIG    1       25.869 -29.165  13.217  0.00  0.00    +0.066 A 
ATOM      5  C   LIG    1       24.710 -28.866  13.920  0.00  0.00    +0.049 A 
ATOM      6  I   LIG    1       24.861 -27.501  15.499  0.00  0.00    -0.041 I 
ATOM      7  C   LIG    1       23.503 -29.394  13.452  0.00  0.00    +0.061 A 
ATOM      8  C   LIG    1       23.573 -30.219  12.312  0.00  0.00    +0.049 A 
ATOM      9  I   LIG    1       22.936 -32.441  12.659  0.00  0.00    -0.041 I 
ENDROOT
BRANCH   4  10
ATOM     10  C   LIG    1       26.998 -30.030  13.695  0.00  0.00    +0.248 C 
ATOM     11  N   LIG    1       28.138 -29.421  14.261  0.00  0.00    -0.298 N 
ATOM     12  C   LIG    1       28.354 -28.006  14.342  0.00  0.00    +0.132 C 
ATOM     13  O   LIG    1       26.830 -31.224  13.662  0.00  0.00    -0.270 OA
BRANCH  11  14
ATOM     14  C   LIG    1       29.167 -30.250  14.881  0.00  0.00    +0.141 C 
BRANCH  14  15
ATOM     15  C   LIG    1       30.636 -29.892  14.542  0.00  0.00    +0.157 C 
BRANCH  15  16
ATOM     16  O   LIG    1       30.769 -30.048  13.115  0.00  0.00    -0.388 OA
ATOM     17  H   LIG    1       31.668 -30.380  12.942  0.00  0.00    +0.210 HD
ENDBRANCH  15  16
BRANCH  15  18
ATOM     18  C   LIG    1       31.744 -30.761  15.173  0.00  0.00    +0.188 C 
BRANCH  18  19
ATOM     19  O   LIG    1       32.514 -31.530  14.265  0.00  0.00    -0.392 OA
ATOM     20  H   LIG    1       32.278 -31.226  13.368  0.00  0.00    +0.209 HD
ENDBRANCH  18  19
ENDBRANCH  15  18
ENDBRANCH  14  15
ENDBRANCH  11  14
ENDBRANCH   4  10
BRANCH   1  23
ATOM     21  C   LIG    1       26.320 -31.640   9.608  0.00  0.00    +0.132 C 
ATOM     22  N   LIG    1       25.036 -31.216   9.165  0.00  0.00    -0.298 N 
ATOM     23  C   LIG    1       24.161 -30.491   9.931  0.00  0.00    +0.248 C 
ATOM     24  O   LIG    1       23.057 -30.177   9.497  0.00  0.00    -0.270 OA
BRANCH  22  25
ATOM     25  C   LIG    1       24.732 -31.484   7.745  0.00  0.00    +0.141 C 
BRANCH  25  26
ATOM     26  C   LIG    1       25.373 -30.440   6.807  0.00  0.00    +0.157 C 
BRANCH  26  27
ATOM     27  O   LIG    1       26.165 -31.102   5.816  0.00  0.00    -0.388 OA
ATOM     28  H   LIG    1       27.082 -31.162   6.124  0.00  0.00    +0.210 HD
ENDBRANCH  26  27
BRANCH  26  29
ATOM     29  C   LIG    1       24.341 -29.509   6.141  0.00  0.00    +0.188 C 
BRANCH  29  30
ATOM     30  O   LIG    1       24.438 -28.179   6.634  0.00  0.00    -0.392 OA
ATOM     31  H   LIG    1       25.344 -27.865   6.468  0.00  0.00    +0.209 HD
ENDBRANCH  29  30
ENDBRANCH  26  29
ENDBRANCH  25  26
ENDBRANCH  22  25
ENDBRANCH   1  23
BRANCH   7  32
ATOM     32  N   LIG    1       22.240 -29.006  14.014  0.00  0.00    -0.283 N 
ATOM     33  H   LIG    1       21.947 -29.558  14.801  0.00  0.00    +0.155 HD
ATOM     34  C   LIG    1       21.575 -27.833  13.731  0.00  0.00    +0.225 C 
ATOM     35  O   LIG    1       22.038 -26.927  12.973  0.00  0.00    -0.275 OA
BRANCH  34  36
ATOM     36  C   LIG    1       20.262 -27.539  14.393  0.00  0.00    +0.126 C 
BRANCH  36  37
ATOM     37  C   LIG    1       19.516 -28.875  14.546  0.00  0.00    +0.170 C 
BRANCH  37  38
ATOM     38  O   LIG    1       18.496 -29.041  13.566  0.00  0.00    -0.394 OA
ATOM     39  H   LIG    1       18.755 -29.761  12.965  0.00  0.00    +0.209 HD
ENDBRANCH  37  38
ENDBRANCH  36  37
BRANCH  36  40
ATOM     40  C   LIG    1       19.342 -26.521  13.730  0.00  0.00    +0.170 C 
BRANCH  40  41
ATOM     41  O   LIG    1       19.646 -26.345  12.358  0.00  0.00    -0.394 OA
ATOM     42  H   LIG    1       20.335 -25.666  12.272  0.00  0.00    +0.209 HD
ENDBRANCH  40  41
ENDBRANCH  36  40
ENDBRANCH  34  36
ENDBRANCH   7  32
TORSDOF 18
ENDMDL
MODEL 8
REMARK VINA RESULT:      -3.3      2.643      6.868
REMARK  Name = *****
REMARK                            x       y       z     vdW  Elec       q    Type
REMARK                         _______ _______ _______ _____ _____    ______ ____
ROOT
ATOM      1  C   LIG    1       23.844 -30.238  12.828  0.00  0.00    +0.066 A 
ATOM      2  C   LIG    1       22.531 -29.945  13.287  0.00  0.00    +0.040 A 
ATOM      3  I   LIG    1       21.403 -27.857  12.998  0.00  0.00    -0.042 I 
ATOM      4  C   LIG    1       21.470 -30.753  12.869  0.00  0.00    +0.066 A 
ATOM      5  C   LIG    1       21.513 -31.137  11.536  0.00  0.00    +0.049 A 
ATOM      6  I   LIG    1       19.707 -31.175  10.481  0.00  0.00    -0.041 I 
ATOM      7  C   LIG    1       22.767 -31.348  10.953  0.00  0.00    +0.061 A 
ATOM      8  C   LIG    1       23.889 -31.181  11.788  0.00  0.00    +0.049 A 
ATOM      9  I   LIG    1       25.150 -33.116  12.147  0.00  0.00    -0.041 I 
ENDROOT
BRANCH   4  10
ATOM     10  C   LIG    1       20.962 -31.580  14.014  0.00  0.00    +0.248 C 
ATOM     11  N   LIG    1       19.660 -31.348  14.504  0.00  0.00    -0.298 N 
ATOM     12  C   LIG    1       18.788 -30.304  14.048  0.00  0.00    +0.132 C 
ATOM     13  O   LIG    1       21.665 -32.482  14.398  0.00  0.00    -0.270 OA
BRANCH  11  14
ATOM     14  C   LIG    1       19.091 -32.250  15.500  0.00  0.00    +0.141 C 
BRANCH  14  15
ATOM     15  C   LIG    1       18.381 -33.516  14.956  0.00  0.00    +0.157 C 
BRANCH  15  16
ATOM     16  O   LIG    1       18.813 -33.664  13.589  0.00  0.00    -0.388 OA
ATOM     17  H   LIG    1       18.049 -33.464  13.020  0.00  0.00    +0.210 HD
ENDBRANCH  15  16
BRANCH  15  18
ATOM     18  C   LIG    1       16.838 -33.506  14.919  0.00  0.00    +0.188 C 
BRANCH  18  19
ATOM     19  O   LIG    1       16.220 -32.332  15.418  0.00  0.00    -0.392 OA
ATOM     20  H   LIG    1       16.111 -32.458  16.379  0.00  0.00    +0.209 HD
ENDBRANCH  18  19
ENDBRANCH  15  18
ENDBRANCH  14  15
ENDBRANCH  11  14
ENDBRANCH   4  10
BRANCH   1  23
ATOM     21  C   LIG    1       25.103 -30.729  15.485  0.00  0.00    +0.132 C 
ATOM     22  N   LIG    1       25.751 -29.941  14.494  0.00  0.00    -0.298 N 
ATOM     23  C   LIG    1       25.247 -29.719  13.239  0.00  0.00    +0.248 C 
ATOM     24  O   LIG    1       25.869 -29.047  12.422  0.00  0.00    -0.270 OA
BRANCH  22  25
ATOM     25  C   LIG    1       26.969 -29.234  14.940  0.00  0.00    +0.141 C 
BRANCH  25  26
ATOM     26  C   LIG    1       28.231 -30.112  14.808  0.00  0.00    +0.157 C 
BRANCH  26  27
ATOM     27  O   LIG    1       27.865 -31.417  14.348  0.00  0.00    -0.388 OA
ATOM     28  H   LIG    1       27.093 -31.349  13.767  0.00  0.00    +0.210 HD
ENDBRANCH  26  27
BRANCH  26  29
ATOM     29  C   LIG    1       29.305 -29.497  13.890  0.00  0.00    +0.188 C 
BRANCH  29  30
ATOM     30  O   LIG    1       28.784 -29.198  12.601  0.00  0.00    -0.392 OA
ATOM     31  H   LIG    1       27.900 -29.598  12.536  0.00  0.00    +0.209 HD
ENDBRANCH  29  30
ENDBRANCH  26  29
ENDBRANCH  25  26
ENDBRANCH  22  25
ENDBRANCH   1  23
BRANCH   7  32
ATOM     32  N   LIG    1       22.915 -31.582   9.545  0.00  0.00    -0.283 N 
ATOM     33  H   LIG    1       22.168 -32.111   9.130  0.00  0.00    +0.155 HD
ATOM     34  C   LIG    1       23.821 -30.943   8.726  0.00  0.00    +0.225 C 
ATOM     35  O   LIG    1       24.600 -30.023   9.123  0.00  0.00    -0.275 OA
BRANCH  34  36
ATOM     36  C   LIG    1       23.872 -31.272   7.265  0.00  0.00    +0.126 C 
BRANCH  36  37
ATOM     37  C   LIG    1       24.807 -32.482   7.098  0.00  0.00    +0.170 C 
BRANCH  37  38
ATOM     38  O   LIG    1       25.854 -32.494   8.064  0.00  0.00    -0.394 OA
ATOM     39  H   LIG    1       25.605 -31.906   8.800  0.00  0.00    +0.209 HD
ENDBRANCH  37  38
ENDBRANCH  36  37
BRANCH  36  40
ATOM     40  C   LIG    1       24.296 -30.171   6.301  0.00  0.00    +0.170 C 
BRANCH  40  41
ATOM     41  O   LIG    1       23.189 -29.603   5.624  0.00  0.00    -0.394 OA
ATOM     42  H   LIG    1       23.352 -29.639   4.668  0.00  0.00    +0.209 HD
ENDBRANCH  40  41
ENDBRANCH  36  40
ENDBRANCH  34  36
ENDBRANCH   7  32
TORSDOF 18
ENDMDL
MODEL 9
REMARK VINA RESULT:      -3.1      3.284      6.802
REMARK  Name = *****
REMARK                            x       y       z     vdW  Elec       q    Type
REMARK                         _______ _______ _______ _____ _____    ______ ____
ROOT
ATOM      1  C   LIG    1       23.693 -28.882  13.963  0.00  0.00    +0.066 A 
ATOM      2  C   LIG    1       22.284 -29.037  14.077  0.00  0.00    +0.040 A 
ATOM      3  I   LIG    1       20.663 -27.381  13.493  0.00  0.00    -0.042 I 
ATOM      4  C   LIG    1       21.665 -30.101  13.415  0.00  0.00    +0.066 A 
ATOM      5  C   LIG    1       22.145 -30.360  12.139  0.00  0.00    +0.049 A 
ATOM      6  I   LIG    1       20.751 -30.877  10.667  0.00  0.00    -0.041 I 
ATOM      7  C   LIG    1       23.502 -30.136  11.890  0.00  0.00    +0.061 A 
ATOM      8  C   LIG    1       24.280 -29.691  12.977  0.00  0.00    +0.049 A 
ATOM      9  I   LIG    1       25.960 -31.167  13.659  0.00  0.00    -0.041 I 
ENDROOT
BRANCH   4  10
ATOM     10  C   LIG    1       21.182 -31.120  14.405  0.00  0.00    +0.248 C 
ATOM     11  N   LIG    1       19.795 -31.280  14.606  0.00  0.00    -0.298 N 
ATOM     12  C   LIG    1       18.782 -30.471  13.994  0.00  0.00    +0.132 C 
ATOM     13  O   LIG    1       22.013 -31.832  14.913  0.00  0.00    -0.270 OA
BRANCH  11  14
ATOM     14  C   LIG    1       19.307 -32.377  15.436  0.00  0.00    +0.141 C 
BRANCH  14  15
ATOM     15  C   LIG    1       18.924 -33.684  14.695  0.00  0.00    +0.157 C 
BRANCH  15  16
ATOM     16  O   LIG    1       19.749 -33.732  13.513  0.00  0.00    -0.388 OA
ATOM     17  H   LIG    1       19.664 -32.872  13.066  0.00  0.00    +0.210 HD
ENDBRANCH  15  16
BRANCH  15  18
ATOM     18  C   LIG    1       17.467 -33.824  14.207  0.00  0.00    +0.188 C 
BRANCH  18  19
ATOM     19  O   LIG    1       17.264 -33.630  12.817  0.00  0.00    -0.392 OA
ATOM     20  H   LIG    1       16.806 -32.775  12.717  0.00  0.00    +0.209 HD
ENDBRANCH  18  19
ENDBRANCH  15  18
ENDBRANCH  14  15
ENDBRANCH  11  14
ENDBRANCH   4  10
BRANCH   1  23
ATOM     21  C   LIG    1       23.941 -25.936  13.577  0.00  0.00    +0.132 C 
ATOM     22  N   LIG    1       24.813 -26.644  14.450  0.00  0.00    -0.298 N 
ATOM     23  C   LIG    1       24.720 -27.987  14.706  0.00  0.00    +0.248 C 
ATOM     24  O   LIG    1       25.491 -28.532  15.489  0.00  0.00    -0.270 OA
BRANCH  22  25
ATOM     25  C   LIG    1       25.950 -25.865  14.981  0.00  0.00    +0.141 C 
BRANCH  25  26
ATOM     26  C   LIG    1       27.094 -25.732  13.954  0.00  0.00    +0.157 C 
BRANCH  26  27
ATOM     27  O   LIG    1       28.344 -26.030  14.583  0.00  0.00    -0.388 OA
ATOM     28  H   LIG    1       29.056 -25.561  14.122  0.00  0.00    +0.210 HD
ENDBRANCH  26  27
BRANCH  26  29
ATOM     29  C   LIG    1       26.893 -26.614  12.706  0.00  0.00    +0.188 C 
BRANCH  29  30
ATOM     30  O   LIG    1       27.750 -27.749  12.723  0.00  0.00    -0.392 OA
ATOM     31  H   LIG    1       28.600 -27.487  12.328  0.00  0.00    +0.209 HD
ENDBRANCH  29  30
ENDBRANCH  26  29
ENDBRANCH  25  26
ENDBRANCH  22  25
ENDBRANCH   1  23
BRANCH   7  32
ATOM     32  N   LIG    1       24.051 -30.216  10.565  0.00  0.00    -0.283 N 
ATOM     33  H   LIG    1       24.328 -29.332  10.175  0.00  0.00    +0.155 HD
ATOM     34  C   LIG    1       24.445 -31.379   9.940  0.00  0.00    +0.225 C 
ATOM     35  O   LIG    1       24.415 -32.520  10.495  0.00  0.00    -0.275 OA
BRANCH  34  36
ATOM     36  C   LIG    1       25.013 -31.329   8.554  0.00  0.00    +0.126 C 
BRANCH  36  37
ATOM     37  C   LIG    1       26.502 -31.702   8.654  0.00  0.00    +0.170 C 
BRANCH  37  38
ATOM     38  O   LIG    1       27.066 -31.342   9.911  0.00  0.00    -0.394 OA
ATOM     39  H   LIG    1       27.284 -32.155  10.400  0.00  0.00    +0.209 HD
ENDBRANCH  37  38
ENDBRANCH  36  37
BRANCH  36  40
ATOM     40  C   LIG    1       24.871 -30.029   7.773  0.00  0.00    +0.170 C 
BRANCH  40  41
ATOM     41  O   LIG    1       25.793 -29.046   8.206  0.00  0.00    -0.394 OA
ATOM     42  H   LIG    1       25.350 -28.182   8.220  0.00  0.00    +0.209 HD
ENDBRANCH  40  41
ENDBRANCH  36  40
ENDBRANCH  34  36
ENDBRANCH   7  32
TORSDOF 18
ENDMDL
