MODEL 1
REMARK VINA RESULT:      -5.5      0.000      0.000
REMARK  Name = *****
REMARK                            x       y       z     vdW  Elec       q    Type
REMARK                         _______ _______ _______ _____ _____    ______ ____
ROOT
ATOM      1  C   LIG    1       25.316 -16.213   3.496  0.00  0.00    +0.042 A 
ATOM      2  C   LIG    1       24.025 -16.609   3.939  0.00  0.00    +0.074 A 
ATOM      3 CL   LIG    1       22.848 -15.574   4.689  0.00  0.00    -0.081 Cl
ATOM      4  C   LIG    1       23.658 -17.974   3.905  0.00  0.00    +0.102 A 
ATOM      5 CL   LIG    1       22.065 -18.519   4.383  0.00  0.00    -0.078 Cl
ATOM      6  C   LIG    1       24.598 -18.947   3.578  0.00  0.00    +0.141 A 
ATOM      7  C   LIG    1       25.918 -18.570   3.476  0.00  0.00    +0.048 A 
ATOM      8  C   LIG    1       26.252 -17.241   3.271  0.00  0.00    +0.017 A 
ENDROOT
BRANCH   1   9
ATOM      9  C   LIG    1       25.939 -14.850   3.292  0.00  0.00    +0.190 C 
ATOM     10  O   LIG    1       26.458 -14.627   2.197  0.00  0.00    -0.287 OA
BRANCH   9  12
ATOM     11  C   LIG    1       26.835 -13.558   5.182  0.00  0.00    +0.016 C 
ATOM     12  C   LIG    1       25.843 -13.735   4.290  0.00  0.00    -0.007 C 
BRANCH  12  13
ATOM     13  C   LIG    1       24.650 -12.854   4.375  0.00  0.00    +0.035 C 
ATOM     14  C   LIG    1       24.071 -12.409   3.045  0.00  0.00    +0.009 C 
ENDBRANCH  12  13
ENDBRANCH   9  12
ENDBRANCH   1   9
BRANCH   6  15
ATOM     15  O   LIG    1       24.157 -20.211   3.368  0.00  0.00    -0.479 OA
BRANCH  15  16
ATOM     16  C   LIG    1       24.447 -21.236   4.286  0.00  0.00    +0.349 C 
BRANCH  16  17
ATOM     17  C   LIG    1       24.987 -21.085   5.732  0.00  0.00    +0.343 C 
ATOM     18  O   LIG    1       24.276 -20.709   6.624  0.00  0.00    -0.247 OA
BRANCH  17  19
ATOM     19  O   LIG    1       26.302 -21.273   5.995  0.00  0.00    -0.478 OA
ATOM     20  H   LIG    1       26.980 -21.045   5.395  0.00  0.00    +0.295 HD
ENDBRANCH  17  19
ENDBRANCH  16  17
ENDBRANCH  15  16
ENDBRANCH   6  15
TORSDOF 7
ENDMDL
MODEL 2
REMARK VINA RESULT:      -5.0      1.867      6.168
REMARK  Name = *****
REMARK                            x       y       z     vdW  Elec       q    Type
REMARK                         _______ _______ _______ _____ _____    ______ ____
ROOT
ATOM      1  C   LIG    1       24.396 -19.046   4.093  0.00  0.00    +0.042 A 
ATOM      2  C   LIG    1       23.533 -17.921   4.199  0.00  0.00    +0.074 A 
ATOM      3 CL   LIG    1       21.812 -17.982   4.426  0.00  0.00    -0.081 Cl
ATOM      4  C   LIG    1       24.044 -16.621   3.986  0.00  0.00    +0.102 A 
ATOM      5 CL   LIG    1       23.048 -15.191   4.156  0.00  0.00    -0.078 Cl
ATOM      6  C   LIG    1       25.349 -16.442   3.533  0.00  0.00    +0.141 A 
ATOM      7  C   LIG    1       26.054 -17.552   3.123  0.00  0.00    +0.048 A 
ATOM      8  C   LIG    1       25.671 -18.817   3.541  0.00  0.00    +0.017 A 
ENDROOT
BRANCH   1   9
ATOM      9  C   LIG    1       24.181 -20.513   4.386  0.00  0.00    +0.190 C 
ATOM     10  O   LIG    1       24.032 -21.265   3.421  0.00  0.00    -0.287 OA
BRANCH   9  12
ATOM     11  C   LIG    1       23.160 -21.184   6.521  0.00  0.00    +0.016 C 
ATOM     12  C   LIG    1       24.268 -21.107   5.761  0.00  0.00    -0.007 C 
BRANCH  12  13
ATOM     13  C   LIG    1       25.558 -21.555   6.345  0.00  0.00    +0.035 C 
ATOM     14  C   LIG    1       26.453 -20.451   6.876  0.00  0.00    +0.009 C 
ENDBRANCH  12  13
ENDBRANCH   9  12
ENDBRANCH   1   9
BRANCH   6  15
ATOM     15  O   LIG    1       25.855 -15.185   3.532  0.00  0.00    -0.479 OA
BRANCH  15  16
ATOM     16  C   LIG    1       27.244 -14.970   3.496  0.00  0.00    +0.349 C 
BRANCH  16  17
ATOM     17  C   LIG    1       28.020 -13.721   3.988  0.00  0.00    +0.343 C 
ATOM     18  O   LIG    1       27.650 -13.097   4.945  0.00  0.00    -0.247 OA
BRANCH  17  19
ATOM     19  O   LIG    1       29.073 -13.247   3.281  0.00  0.00    -0.478 OA
ATOM     20  H   LIG    1       29.793 -12.802   3.675  0.00  0.00    +0.295 HD
ENDBRANCH  17  19
ENDBRANCH  16  17
ENDBRANCH  15  16
ENDBRANCH   6  15
TORSDOF 7
ENDMDL
MODEL 3
REMARK VINA RESULT:      -4.5      2.708      6.451
REMARK  Name = *****
REMARK                            x       y       z     vdW  Elec       q    Type
REMARK                         _______ _______ _______ _____ _____    ______ ____
ROOT
ATOM      1  C   LIG    1       23.006 -17.661   4.232  0.00  0.00    +0.042 A 
ATOM      2  C   LIG    1       24.371 -17.608   3.838  0.00  0.00    +0.074 A 
ATOM      3 CL   LIG    1       25.441 -18.969   3.700  0.00  0.00    -0.081 Cl
ATOM      4  C   LIG    1       24.999 -16.355   3.649  0.00  0.00    +0.102 A 
ATOM      5 CL   LIG    1       26.659 -16.220   3.111  0.00  0.00    -0.078 Cl
ATOM      6  C   LIG    1       24.336 -15.177   3.985  0.00  0.00    +0.141 A 
ATOM      7  C   LIG    1       23.145 -15.273   4.670  0.00  0.00    +0.048 A 
ATOM      8  C   LIG    1       22.418 -16.452   4.648  0.00  0.00    +0.017 A 
ENDROOT
BRANCH   1   9
ATOM      9  C   LIG    1       22.044 -18.819   4.380  0.00  0.00    +0.190 C 
ATOM     10  O   LIG    1       20.987 -18.757   3.750  0.00  0.00    -0.287 OA
BRANCH   9  12
ATOM     11  C   LIG    1       21.814 -21.238   4.754  0.00  0.00    +0.016 C 
ATOM     12  C   LIG    1       22.364 -20.072   5.140  0.00  0.00    -0.007 C 
BRANCH  12  13
ATOM     13  C   LIG    1       23.217 -20.060   6.356  0.00  0.00    +0.035 C 
ATOM     14  C   LIG    1       23.369 -21.395   7.060  0.00  0.00    +0.009 C 
ENDBRANCH  12  13
ENDBRANCH   9  12
ENDBRANCH   1   9
BRANCH   6  15
ATOM     15  O   LIG    1       24.895 -14.003   3.606  0.00  0.00    -0.479 OA
BRANCH  15  16
ATOM     16  C   LIG    1       25.512 -13.163   4.550  0.00  0.00    +0.349 C 
BRANCH  16  17
ATOM     17  C   LIG    1       26.936 -13.299   5.148  0.00  0.00    +0.343 C 
ATOM     18  O   LIG    1       27.908 -13.316   4.441  0.00  0.00    -0.247 OA
BRANCH  17  19
ATOM     19  O   LIG    1       27.105 -13.510   6.475  0.00  0.00    -0.478 OA
ATOM     20  H   LIG    1       26.831 -12.901   7.127  0.00  0.00    +0.295 HD
ENDBRANCH  17  19
ENDBRANCH  16  17
ENDBRANCH  15  16
ENDBRANCH   6  15
TORSDOF 7
ENDMDL
MODEL 4
REMARK VINA RESULT:      -4.4      2.755      6.596
REMARK  Name = *****
REMARK                            x       y       z     vdW  Elec       q    Type
REMARK                         _______ _______ _______ _____ _____    ______ ____
ROOT
ATOM      1  C   LIG    1       25.039 -19.522   4.106  0.00  0.00    +0.042 A 
ATOM      2  C   LIG    1       26.353 -19.437   4.641  0.00  0.00    +0.074 A 
ATOM      3 CL   LIG    1       27.072 -20.560   5.754  0.00  0.00    -0.081 Cl
ATOM      4  C   LIG    1       27.147 -18.296   4.375  0.00  0.00    +0.102 A 
ATOM      5 CL   LIG    1       28.792 -18.154   4.956  0.00  0.00    -0.078 Cl
ATOM      6  C   LIG    1       26.601 -17.197   3.718  0.00  0.00    +0.141 A 
ATOM      7  C   LIG    1       25.241 -17.174   3.505  0.00  0.00    +0.048 A 
ATOM      8  C   LIG    1       24.508 -18.349   3.537  0.00  0.00    +0.017 A 
ENDROOT
BRANCH   1   9
ATOM      9  C   LIG    1       24.023 -20.642   4.104  0.00  0.00    +0.190 C 
ATOM     10  O   LIG    1       24.211 -21.571   3.316  0.00  0.00    -0.287 OA
BRANCH   9  12
ATOM     11  C   LIG    1       21.625 -20.797   4.628  0.00  0.00    +0.016 C 
ATOM     12  C   LIG    1       22.890 -20.739   5.083  0.00  0.00    -0.007 C 
BRANCH  12  13
ATOM     13  C   LIG    1       23.113 -20.703   6.551  0.00  0.00    +0.035 C 
ATOM     14  C   LIG    1       24.248 -21.571   7.060  0.00  0.00    +0.009 C 
ENDBRANCH  12  13
ENDBRANCH   9  12
ENDBRANCH   1   9
BRANCH   6  15
ATOM     15  O   LIG    1       27.444 -16.216   3.314  0.00  0.00    -0.479 OA
BRANCH  15  16
ATOM     16  C   LIG    1       27.030 -14.872   3.303  0.00  0.00    +0.349 C 
BRANCH  16  17
ATOM     17  C   LIG    1       27.667 -13.680   4.063  0.00  0.00    +0.343 C 
ATOM     18  O   LIG    1       27.161 -13.236   5.058  0.00  0.00    -0.247 OA
BRANCH  17  19
ATOM     19  O   LIG    1       28.751 -13.046   3.557  0.00  0.00    -0.478 OA
ATOM     20  H   LIG    1       29.001 -13.100   2.659  0.00  0.00    +0.295 HD
ENDBRANCH  17  19
ENDBRANCH  16  17
ENDBRANCH  15  16
ENDBRANCH   6  15
TORSDOF 7
ENDMDL
MODEL 5
REMARK VINA RESULT:      -4.3      2.460      2.836
REMARK  Name = *****
REMARK                            x       y       z     vdW  Elec       q    Type
REMARK                         _______ _______ _______ _____ _____    ______ ____
ROOT
ATOM      1  C   LIG    1       26.491 -16.879   3.769  0.00  0.00    +0.042 A 
ATOM      2  C   LIG    1       27.395 -17.761   4.422  0.00  0.00    +0.074 A 
ATOM      3 CL   LIG    1       29.055 -17.414   4.800  0.00  0.00    -0.081 Cl
ATOM      4  C   LIG    1       27.002 -19.090   4.702  0.00  0.00    +0.102 A 
ATOM      5 CL   LIG    1       28.047 -20.207   5.554  0.00  0.00    -0.078 Cl
ATOM      6  C   LIG    1       25.795 -19.584   4.216  0.00  0.00    +0.141 A 
ATOM      7  C   LIG    1       25.094 -18.818   3.312  0.00  0.00    +0.048 A 
ATOM      8  C   LIG    1       25.331 -17.456   3.217  0.00  0.00    +0.017 A 
ENDROOT
BRANCH   1   9
ATOM      9  C   LIG    1       26.569 -15.401   3.460  0.00  0.00    +0.190 C 
ATOM     10  O   LIG    1       27.087 -15.076   2.391  0.00  0.00    -0.287 OA
BRANCH   9  12
ATOM     11  C   LIG    1       26.703 -13.668   5.200  0.00  0.00    +0.016 C 
ATOM     12  C   LIG    1       25.942 -14.340   4.315  0.00  0.00    -0.007 C 
BRANCH  12  13
ATOM     13  C   LIG    1       24.487 -14.048   4.269  0.00  0.00    +0.035 C 
ATOM     14  C   LIG    1       24.038 -13.138   3.141  0.00  0.00    +0.009 C 
ENDBRANCH  12  13
ENDBRANCH   9  12
ENDBRANCH   1   9
BRANCH   6  15
ATOM     15  O   LIG    1       25.372 -20.789   4.670  0.00  0.00    -0.479 OA
BRANCH  15  16
ATOM     16  C   LIG    1       24.068 -21.240   4.403  0.00  0.00    +0.349 C 
BRANCH  16  17
ATOM     17  C   LIG    1       22.764 -20.863   5.153  0.00  0.00    +0.343 C 
ATOM     18  O   LIG    1       22.775 -20.073   6.058  0.00  0.00    -0.247 OA
BRANCH  17  19
ATOM     19  O   LIG    1       21.603 -21.501   4.873  0.00  0.00    -0.478 OA
ATOM     20  H   LIG    1       20.789 -21.278   5.271  0.00  0.00    +0.295 HD
ENDBRANCH  17  19
ENDBRANCH  16  17
ENDBRANCH  15  16
ENDBRANCH   6  15
TORSDOF 7
ENDMDL
MODEL 6
REMARK VINA RESULT:      -3.9      2.647      6.764
REMARK  Name = *****
REMARK                            x       y       z     vdW  Elec       q    Type
REMARK                         _______ _______ _______ _____ _____    ______ ____
ROOT
ATOM      1  C   LIG    1       23.205 -17.727   4.185  0.00  0.00    +0.042 A 
ATOM      2  C   LIG    1       24.597 -17.799   3.906  0.00  0.00    +0.074 A 
ATOM      3 CL   LIG    1       25.577 -19.230   3.995  0.00  0.00    -0.081 Cl
ATOM      4  C   LIG    1       25.323 -16.613   3.647  0.00  0.00    +0.102 A 
ATOM      5 CL   LIG    1       27.026 -16.638   3.241  0.00  0.00    -0.078 Cl
ATOM      6  C   LIG    1       24.720 -15.369   3.806  0.00  0.00    +0.141 A 
ATOM      7  C   LIG    1       23.475 -15.318   4.394  0.00  0.00    +0.048 A 
ATOM      8  C   LIG    1       22.671 -16.446   4.428  0.00  0.00    +0.017 A 
ENDROOT
BRANCH   1   9
ATOM      9  C   LIG    1       22.156 -18.801   4.366  0.00  0.00    +0.190 C 
ATOM     10  O   LIG    1       21.104 -18.672   3.737  0.00  0.00    -0.287 OA
BRANCH   9  12
ATOM     11  C   LIG    1       21.822 -21.208   4.741  0.00  0.00    +0.016 C 
ATOM     12  C   LIG    1       22.380 -20.056   5.156  0.00  0.00    -0.007 C 
BRANCH  12  13
ATOM     13  C   LIG    1       23.145 -20.059   6.429  0.00  0.00    +0.035 C 
ATOM     14  C   LIG    1       24.073 -21.242   6.631  0.00  0.00    +0.009 C 
ENDBRANCH  12  13
ENDBRANCH   9  12
ENDBRANCH   1   9
BRANCH   6  15
ATOM     15  O   LIG    1       25.388 -14.277   3.361  0.00  0.00    -0.479 OA
BRANCH  15  16
ATOM     16  C   LIG    1       25.169 -13.015   3.941  0.00  0.00    +0.349 C 
BRANCH  16  17
ATOM     17  C   LIG    1       24.067 -11.986   3.579  0.00  0.00    +0.343 C 
ATOM     18  O   LIG    1       23.416 -11.447   4.433  0.00  0.00    -0.247 OA
BRANCH  17  19
ATOM     19  O   LIG    1       23.744 -11.755   2.285  0.00  0.00    -0.478 OA
ATOM     20  H   LIG    1       23.819 -10.916   1.882  0.00  0.00    +0.295 HD
ENDBRANCH  17  19
ENDBRANCH  16  17
ENDBRANCH  15  16
ENDBRANCH   6  15
TORSDOF 7
ENDMDL
MODEL 7
REMARK VINA RESULT:      -3.9      1.795      5.958
REMARK  Name = *****
REMARK                            x       y       z     vdW  Elec       q    Type
REMARK                         _______ _______ _______ _____ _____    ______ ____
ROOT
ATOM      1  C   LIG    1       24.795 -18.267   3.874  0.00  0.00    +0.042 A 
ATOM      2  C   LIG    1       23.846 -17.233   4.100  0.00  0.00    +0.074 A 
ATOM      3 CL   LIG    1       22.146 -17.458   4.373  0.00  0.00    -0.081 Cl
ATOM      4  C   LIG    1       24.241 -15.880   3.981  0.00  0.00    +0.102 A 
ATOM      5 CL   LIG    1       23.137 -14.560   4.301  0.00  0.00    -0.078 Cl
ATOM      6  C   LIG    1       25.508 -15.556   3.506  0.00  0.00    +0.141 A 
ATOM      7  C   LIG    1       26.287 -16.565   2.984  0.00  0.00    +0.048 A 
ATOM      8  C   LIG    1       26.025 -17.887   3.305  0.00  0.00    +0.017 A 
ENDROOT
BRANCH   1   9
ATOM      9  C   LIG    1       24.713 -19.767   4.051  0.00  0.00    +0.190 C 
ATOM     10  O   LIG    1       24.816 -20.459   3.036  0.00  0.00    -0.287 OA
BRANCH   9  12
ATOM     11  C   LIG    1       25.780 -20.835   5.992  0.00  0.00    +0.016 C 
ATOM     12  C   LIG    1       24.643 -20.444   5.387  0.00  0.00    -0.007 C 
BRANCH  12  13
ATOM     13  C   LIG    1       23.348 -20.763   6.041  0.00  0.00    +0.035 C 
ATOM     14  C   LIG    1       22.168 -20.940   5.104  0.00  0.00    +0.009 C 
ENDBRANCH  12  13
ENDBRANCH   9  12
ENDBRANCH   1   9
BRANCH   6  15
ATOM     15  O   LIG    1       25.909 -14.264   3.595  0.00  0.00    -0.479 OA
BRANCH  15  16
ATOM     16  C   LIG    1       27.201 -13.942   4.046  0.00  0.00    +0.349 C 
BRANCH  16  17
ATOM     17  C   LIG    1       27.594 -13.266   5.384  0.00  0.00    +0.343 C 
ATOM     18  O   LIG    1       27.052 -13.565   6.414  0.00  0.00    -0.247 OA
BRANCH  17  19
ATOM     19  O   LIG    1       28.483 -12.245   5.401  0.00  0.00    -0.478 OA
ATOM     20  H   LIG    1       28.916 -11.933   4.635  0.00  0.00    +0.295 HD
ENDBRANCH  17  19
ENDBRANCH  16  17
ENDBRANCH  15  16
ENDBRANCH   6  15
TORSDOF 7
ENDMDL
MODEL 8
REMARK VINA RESULT:      -3.6      2.013      6.125
REMARK  Name = *****
REMARK                            x       y       z     vdW  Elec       q    Type
REMARK                         _______ _______ _______ _____ _____    ______ ____
ROOT
ATOM      1  C   LIG    1       24.043 -18.027   4.204  0.00  0.00    +0.042 A 
ATOM      2  C   LIG    1       23.655 -16.661   4.246  0.00  0.00    +0.074 A 
ATOM      3 CL   LIG    1       22.065 -16.069   4.621  0.00  0.00    -0.081 Cl
ATOM      4  C   LIG    1       24.565 -15.658   3.838  0.00  0.00    +0.102 A 
ATOM      5 CL   LIG    1       24.169 -13.955   3.920  0.00  0.00    -0.078 Cl
ATOM      6  C   LIG    1       25.783 -16.007   3.261  0.00  0.00    +0.141 A 
ATOM      7  C   LIG    1       25.994 -17.327   2.930  0.00  0.00    +0.048 A 
ATOM      8  C   LIG    1       25.240 -18.326   3.525  0.00  0.00    +0.017 A 
ENDROOT
BRANCH   1   9
ATOM      9  C   LIG    1       23.358 -19.286   4.687  0.00  0.00    +0.190 C 
ATOM     10  O   LIG    1       22.131 -19.335   4.580  0.00  0.00    -0.287 OA
BRANCH   9  12
ATOM     11  C   LIG    1       24.202 -21.571   4.348  0.00  0.00    +0.016 C 
ATOM     12  C   LIG    1       24.095 -20.504   5.161  0.00  0.00    -0.007 C 
BRANCH  12  13
ATOM     13  C   LIG    1       24.655 -20.600   6.533  0.00  0.00    +0.035 C 
ATOM     14  C   LIG    1       26.090 -21.086   6.620  0.00  0.00    +0.009 C 
ENDBRANCH  12  13
ENDBRANCH   9  12
ENDBRANCH   1   9
BRANCH   6  15
ATOM     15  O   LIG    1       26.699 -15.026   3.069  0.00  0.00    -0.479 OA
BRANCH  15  16
ATOM     16  C   LIG    1       27.606 -14.681   4.086  0.00  0.00    +0.349 C 
BRANCH  16  17
ATOM     17  C   LIG    1       27.641 -13.373   4.918  0.00  0.00    +0.343 C 
ATOM     18  O   LIG    1       28.494 -12.546   4.740  0.00  0.00    -0.247 OA
BRANCH  17  19
ATOM     19  O   LIG    1       26.772 -13.188   5.940  0.00  0.00    -0.478 OA
ATOM     20  H   LIG    1       26.694 -13.781   6.657  0.00  0.00    +0.295 HD
ENDBRANCH  17  19
ENDBRANCH  16  17
ENDBRANCH  15  16
ENDBRANCH   6  15
TORSDOF 7
ENDMDL
MODEL 9
REMARK VINA RESULT:      -3.6      2.045      2.505
REMARK  Name = *****
REMARK                            x       y       z     vdW  Elec       q    Type
REMARK                         _______ _______ _______ _____ _____    ______ ____
ROOT
ATOM      1  C   LIG    1       23.536 -16.618   4.258  0.00  0.00    +0.042 A 
ATOM      2  C   LIG    1       24.586 -17.401   3.705  0.00  0.00    +0.074 A 
ATOM      3 CL   LIG    1       26.010 -16.783   2.926  0.00  0.00    -0.081 Cl
ATOM      4  C   LIG    1       24.456 -18.808   3.645  0.00  0.00    +0.102 A 
ATOM      5 CL   LIG    1       25.734 -19.833   3.028  0.00  0.00    -0.078 Cl
ATOM      6  C   LIG    1       23.254 -19.419   3.989  0.00  0.00    +0.141 A 
ATOM      7  C   LIG    1       22.154 -18.619   4.203  0.00  0.00    +0.048 A 
ATOM      8  C   LIG    1       22.314 -17.275   4.497  0.00  0.00    +0.017 A 
ENDROOT
BRANCH   1   9
ATOM      9  C   LIG    1       23.437 -15.143   4.573  0.00  0.00    +0.190 C 
ATOM     10  O   LIG    1       22.525 -14.787   5.322  0.00  0.00    -0.287 OA
BRANCH   9  12
ATOM     11  C   LIG    1       25.549 -13.921   4.883  0.00  0.00    +0.016 C 
ATOM     12  C   LIG    1       24.452 -14.129   4.133  0.00  0.00    -0.007 C 
BRANCH  12  13
ATOM     13  C   LIG    1       24.252 -13.290   2.924  0.00  0.00    +0.035 C 
ATOM     14  C   LIG    1       25.507 -12.974   2.132  0.00  0.00    +0.009 C 
ENDBRANCH  12  13
ENDBRANCH   9  12
ENDBRANCH   1   9
BRANCH   6  15
ATOM     15  O   LIG    1       23.237 -20.770   4.104  0.00  0.00    -0.479 OA
BRANCH  15  16
ATOM     16  C   LIG    1       23.669 -21.395   5.287  0.00  0.00    +0.349 C 
BRANCH  16  17
ATOM     17  C   LIG    1       24.975 -21.123   6.079  0.00  0.00    +0.343 C 
ATOM     18  O   LIG    1       24.972 -20.431   7.062  0.00  0.00    -0.247 OA
BRANCH  17  19
ATOM     19  O   LIG    1       26.164 -21.572   5.614  0.00  0.00    -0.478 OA
ATOM     20  H   LIG    1       26.348 -21.682   4.705  0.00  0.00    +0.295 HD
ENDBRANCH  17  19
ENDBRANCH  16  17
ENDBRANCH  15  16
ENDBRANCH   6  15
TORSDOF 7
ENDMDL
