MODEL 1
REMARK VINA RESULT:      -8.9      0.000      0.000
REMARK  Name = *****
REMARK                            x       y       z     vdW  Elec       q    Type
REMARK                         _______ _______ _______ _____ _____    ______ ____
ROOT
ATOM      1  C   LIG    1       25.517 -20.274   5.183  0.00  0.00    +0.131 A 
ATOM      2  C   LIG    1       24.606 -20.613   6.197  0.00  0.00    +0.059 A 
ATOM      3  C   LIG    1       23.238 -20.323   6.031  0.00  0.00    +0.015 A 
ATOM      4  C   LIG    1       22.778 -19.671   4.900  0.00  0.00    +0.001 A 
ATOM      5  C   LIG    1       23.680 -19.305   3.906  0.00  0.00    +0.004 A 
ATOM      6  C   LIG    1       25.036 -19.612   4.042  0.00  0.00    +0.046 A 
ENDROOT
BRANCH   2   7
ATOM      7  C   LIG    1       24.958 -21.265   7.495  0.00  0.00    +0.167 C 
ATOM      8  O   LIG    1       25.109 -20.525   8.468  0.00  0.00    -0.292 OA
BRANCH   7   9
ATOM      9  C   LIG    1       25.280 -22.752   7.545  0.00  0.00    +0.084 C 
BRANCH   9  10
ATOM     10  C   LIG    1       24.237 -23.652   6.868  0.00  0.00    +0.043 C 
BRANCH  10  11
ATOM     11  C   LIG    1       24.782 -24.986   6.404  0.00  0.00    -0.047 A 
ATOM     12  C   LIG    1       23.916 -25.964   5.896  0.00  0.00    +0.003 A 
ATOM     13  C   LIG    1       24.404 -27.184   5.430  0.00  0.00    +0.000 A 
ATOM     14  C   LIG    1       25.767 -27.450   5.491  0.00  0.00    +0.000 A 
ATOM     15  C   LIG    1       26.640 -26.493   6.008  0.00  0.00    +0.000 A 
ATOM     16  C   LIG    1       26.152 -25.263   6.456  0.00  0.00    +0.003 A 
ENDBRANCH  10  11
ENDBRANCH   9  10
ENDBRANCH   7   9
ENDBRANCH   2   7
BRANCH   1  17
ATOM     17  O   LIG    1       26.826 -20.626   5.352  0.00  0.00    -0.489 OA
BRANCH  17  18
ATOM     18  C   LIG    1       27.800 -19.587   5.510  0.00  0.00    +0.261 C 
BRANCH  18  19
ATOM     19  C   LIG    1       28.811 -20.018   6.586  0.00  0.00    +0.166 C 
BRANCH  19  20
ATOM     20  O   LIG    1       29.116 -21.412   6.439  0.00  0.00    -0.387 OA
ATOM     21  H   LIG    1       28.746 -21.856   7.224  0.00  0.00    +0.210 HD
ENDBRANCH  19  20
BRANCH  19  22
ATOM     22  C   LIG    1       30.115 -19.199   6.529  0.00  0.00    +0.115 C 
BRANCH  22  23
ATOM     23  N   LIG    1       31.209 -19.900   7.206  0.00  0.00    -0.313 NA
ATOM     24  H   LIG    1       32.102 -19.625   6.797  0.00  0.00    +0.122 HD
BRANCH  23  25
ATOM     25  C   LIG    1       31.223 -19.614   8.640  0.00  0.00    +0.081 C 
BRANCH  25  27
ATOM     26  C   LIG    1       30.317 -17.524   9.726  0.00  0.00    +0.005 C 
ATOM     27  C   LIG    1       31.409 -18.109   8.846  0.00  0.00    +0.012 C 
ENDBRANCH  25  27
ENDBRANCH  23  25
ENDBRANCH  22  23
ENDBRANCH  19  22
ENDBRANCH  18  19
ENDBRANCH  17  18
ENDBRANCH   1  17
TORSDOF 12
ENDMDL
MODEL 2
REMARK VINA RESULT:      -8.5      2.326      4.088
REMARK  Name = *****
REMARK                            x       y       z     vdW  Elec       q    Type
REMARK                         _______ _______ _______ _____ _____    ______ ____
ROOT
ATOM      1  C   LIG    1       28.626 -20.029   7.404  0.00  0.00    +0.131 A 
ATOM      2  C   LIG    1       27.315 -20.433   7.103  0.00  0.00    +0.059 A 
ATOM      3  C   LIG    1       26.732 -20.050   5.880  0.00  0.00    +0.015 A 
ATOM      4  C   LIG    1       27.413 -19.246   4.983  0.00  0.00    +0.001 A 
ATOM      5  C   LIG    1       28.701 -18.818   5.289  0.00  0.00    +0.004 A 
ATOM      6  C   LIG    1       29.306 -19.213   6.485  0.00  0.00    +0.046 A 
ENDROOT
BRANCH   2   7
ATOM      7  C   LIG    1       26.435 -21.249   7.992  0.00  0.00    +0.167 C 
ATOM      8  O   LIG    1       26.153 -20.769   9.091  0.00  0.00    -0.292 OA
BRANCH   7   9
ATOM      9  C   LIG    1       26.065 -22.675   7.607  0.00  0.00    +0.084 C 
BRANCH   9  10
ATOM     10  C   LIG    1       24.580 -22.878   7.270  0.00  0.00    +0.043 C 
BRANCH  10  11
ATOM     11  C   LIG    1       24.044 -21.906   6.242  0.00  0.00    -0.047 A 
ATOM     12  C   LIG    1       23.210 -20.850   6.636  0.00  0.00    +0.003 A 
ATOM     13  C   LIG    1       22.737 -19.923   5.709  0.00  0.00    +0.000 A 
ATOM     14  C   LIG    1       23.072 -20.057   4.367  0.00  0.00    +0.000 A 
ATOM     15  C   LIG    1       23.888 -21.110   3.956  0.00  0.00    +0.000 A 
ATOM     16  C   LIG    1       24.379 -22.027   4.889  0.00  0.00    +0.003 A 
ENDBRANCH  10  11
ENDBRANCH   9  10
ENDBRANCH   7   9
ENDBRANCH   2   7
BRANCH   1  17
ATOM     17  O   LIG    1       29.183 -20.470   8.571  0.00  0.00    -0.489 OA
BRANCH  17  18
ATOM     18  C   LIG    1       29.903 -21.709   8.562  0.00  0.00    +0.261 C 
BRANCH  18  19
ATOM     19  C   LIG    1       31.325 -21.456   9.089  0.00  0.00    +0.166 C 
BRANCH  19  20
ATOM     20  O   LIG    1       32.198 -22.513   8.667  0.00  0.00    -0.387 OA
ATOM     21  H   LIG    1       32.534 -22.932   9.480  0.00  0.00    +0.210 HD
ENDBRANCH  19  20
BRANCH  19  22
ATOM     22  C   LIG    1       31.895 -20.103   8.620  0.00  0.00    +0.115 C 
BRANCH  22  23
ATOM     23  N   LIG    1       31.803 -19.095   9.679  0.00  0.00    -0.313 NA
ATOM     24  H   LIG    1       32.692 -19.035  10.177  0.00  0.00    +0.122 HD
BRANCH  23  25
ATOM     25  C   LIG    1       31.459 -17.781   9.141  0.00  0.00    +0.081 C 
BRANCH  25  27
ATOM     26  C   LIG    1       30.994 -16.509  11.271  0.00  0.00    +0.005 C 
ATOM     27  C   LIG    1       30.388 -17.143  10.030  0.00  0.00    +0.012 C 
ENDBRANCH  25  27
ENDBRANCH  23  25
ENDBRANCH  22  23
ENDBRANCH  19  22
ENDBRANCH  18  19
ENDBRANCH  17  18
ENDBRANCH   1  17
TORSDOF 12
ENDMDL
MODEL 3
REMARK VINA RESULT:      -8.5      2.926      4.921
REMARK  Name = *****
REMARK                            x       y       z     vdW  Elec       q    Type
REMARK                         _______ _______ _______ _____ _____    ______ ____
ROOT
ATOM      1  C   LIG    1       29.363 -19.295   7.606  0.00  0.00    +0.131 A 
ATOM      2  C   LIG    1       28.222 -20.075   7.350  0.00  0.00    +0.059 A 
ATOM      3  C   LIG    1       27.629 -20.045   6.074  0.00  0.00    +0.015 A 
ATOM      4  C   LIG    1       28.126 -19.228   5.073  0.00  0.00    +0.001 A 
ATOM      5  C   LIG    1       29.237 -18.430   5.329  0.00  0.00    +0.004 A 
ATOM      6  C   LIG    1       29.855 -18.469   6.582  0.00  0.00    +0.046 A 
ENDROOT
BRANCH   2   7
ATOM      7  C   LIG    1       27.539 -20.960   8.342  0.00  0.00    +0.167 C 
ATOM      8  O   LIG    1       28.190 -21.906   8.787  0.00  0.00    -0.292 OA
BRANCH   7   9
ATOM      9  C   LIG    1       26.056 -20.781   8.636  0.00  0.00    +0.084 C 
BRANCH   9  10
ATOM     10  C   LIG    1       25.147 -21.833   7.984  0.00  0.00    +0.043 C 
BRANCH  10  11
ATOM     11  C   LIG    1       24.444 -21.349   6.734  0.00  0.00    -0.047 A 
ATOM     12  C   LIG    1       24.840 -21.820   5.474  0.00  0.00    +0.003 A 
ATOM     13  C   LIG    1       24.180 -21.415   4.316  0.00  0.00    +0.000 A 
ATOM     14  C   LIG    1       23.129 -20.509   4.401  0.00  0.00    +0.000 A 
ATOM     15  C   LIG    1       22.732 -20.019   5.645  0.00  0.00    +0.000 A 
ATOM     16  C   LIG    1       23.381 -20.442   6.808  0.00  0.00    +0.003 A 
ENDBRANCH  10  11
ENDBRANCH   9  10
ENDBRANCH   7   9
ENDBRANCH   2   7
BRANCH   1  17
ATOM     17  O   LIG    1       29.948 -19.395   8.836  0.00  0.00    -0.489 OA
BRANCH  17  18
ATOM     18  C   LIG    1       31.368 -19.230   8.935  0.00  0.00    +0.261 C 
BRANCH  18  19
ATOM     19  C   LIG    1       31.662 -17.847   9.541  0.00  0.00    +0.166 C 
BRANCH  19  20
ATOM     20  O   LIG    1       32.319 -17.019   8.571  0.00  0.00    -0.387 OA
ATOM     21  H   LIG    1       32.934 -16.451   9.069  0.00  0.00    +0.210 HD
ENDBRANCH  19  20
BRANCH  19  22
ATOM     22  C   LIG    1       30.386 -17.140  10.039  0.00  0.00    +0.115 C 
BRANCH  22  23
ATOM     23  N   LIG    1       30.624 -16.457  11.312  0.00  0.00    -0.313 NA
ATOM     24  H   LIG    1       29.783 -16.498  11.890  0.00  0.00    +0.122 HD
BRANCH  23  25
ATOM     25  C   LIG    1       31.742 -17.054  12.040  0.00  0.00    +0.081 C 
BRANCH  25  27
ATOM     26  C   LIG    1       32.356 -15.903  14.201  0.00  0.00    +0.005 C 
ATOM     27  C   LIG    1       32.562 -15.941  12.695  0.00  0.00    +0.012 C 
ENDBRANCH  25  27
ENDBRANCH  23  25
ENDBRANCH  22  23
ENDBRANCH  19  22
ENDBRANCH  18  19
ENDBRANCH  17  18
ENDBRANCH   1  17
TORSDOF 12
ENDMDL
MODEL 4
REMARK VINA RESULT:      -8.4      2.377      6.481
REMARK  Name = *****
REMARK                            x       y       z     vdW  Elec       q    Type
REMARK                         _______ _______ _______ _____ _____    ______ ____
ROOT
ATOM      1  C   LIG    1       24.435 -21.243   4.944  0.00  0.00    +0.131 A 
ATOM      2  C   LIG    1       23.801 -20.694   6.072  0.00  0.00    +0.059 A 
ATOM      3  C   LIG    1       22.895 -19.629   5.911  0.00  0.00    +0.015 A 
ATOM      4  C   LIG    1       22.645 -19.084   4.664  0.00  0.00    +0.001 A 
ATOM      5  C   LIG    1       23.292 -19.603   3.547  0.00  0.00    +0.004 A 
ATOM      6  C   LIG    1       24.173 -20.680   3.685  0.00  0.00    +0.046 A 
ENDROOT
BRANCH   2   7
ATOM      7  C   LIG    1       24.012 -21.135   7.484  0.00  0.00    +0.167 C 
ATOM      8  O   LIG    1       23.086 -21.744   8.021  0.00  0.00    -0.292 OA
BRANCH   7   9
ATOM      9  C   LIG    1       25.247 -20.686   8.252  0.00  0.00    +0.084 C 
BRANCH   9  10
ATOM     10  C   LIG    1       26.485 -21.568   8.036  0.00  0.00    +0.043 C 
BRANCH  10  11
ATOM     11  C   LIG    1       27.680 -20.826   7.479  0.00  0.00    -0.047 A 
ATOM     12  C   LIG    1       28.932 -20.933   8.102  0.00  0.00    +0.003 A 
ATOM     13  C   LIG    1       30.051 -20.287   7.582  0.00  0.00    +0.000 A 
ATOM     14  C   LIG    1       29.927 -19.502   6.441  0.00  0.00    +0.000 A 
ATOM     15  C   LIG    1       28.686 -19.373   5.818  0.00  0.00    +0.000 A 
ATOM     16  C   LIG    1       27.568 -20.038   6.329  0.00  0.00    +0.003 A 
ENDBRANCH  10  11
ENDBRANCH   9  10
ENDBRANCH   7   9
ENDBRANCH   2   7
BRANCH   1  17
ATOM     17  O   LIG    1       25.261 -22.315   5.130  0.00  0.00    -0.489 OA
BRANCH  17  18
ATOM     18  C   LIG    1       24.722 -23.632   4.964  0.00  0.00    +0.261 C 
BRANCH  18  19
ATOM     19  C   LIG    1       24.554 -24.275   6.352  0.00  0.00    +0.166 C 
BRANCH  19  20
ATOM     20  O   LIG    1       23.176 -24.606   6.573  0.00  0.00    -0.387 OA
ATOM     21  H   LIG    1       22.813 -24.857   5.705  0.00  0.00    +0.210 HD
ENDBRANCH  19  20
BRANCH  19  22
ATOM     22  C   LIG    1       25.419 -25.540   6.522  0.00  0.00    +0.115 C 
BRANCH  22  23
ATOM     23  N   LIG    1       25.935 -26.003   5.231  0.00  0.00    -0.313 NA
ATOM     24  H   LIG    1       26.940 -25.833   5.179  0.00  0.00    +0.122 HD
BRANCH  23  25
ATOM     25  C   LIG    1       25.674 -27.427   5.029  0.00  0.00    +0.081 C 
BRANCH  25  27
ATOM     26  C   LIG    1       24.345 -29.289   6.098  0.00  0.00    +0.005 C 
ATOM     27  C   LIG    1       24.385 -27.806   5.762  0.00  0.00    +0.012 C 
ENDBRANCH  25  27
ENDBRANCH  23  25
ENDBRANCH  22  23
ENDBRANCH  19  22
ENDBRANCH  18  19
ENDBRANCH  17  18
ENDBRANCH   1  17
TORSDOF 12
ENDMDL
MODEL 5
REMARK VINA RESULT:      -8.3      1.745      2.815
REMARK  Name = *****
REMARK                            x       y       z     vdW  Elec       q    Type
REMARK                         _______ _______ _______ _____ _____    ______ ____
ROOT
ATOM      1  C   LIG    1       28.104 -20.280   7.268  0.00  0.00    +0.131 A 
ATOM      2  C   LIG    1       26.744 -20.628   7.207  0.00  0.00    +0.059 A 
ATOM      3  C   LIG    1       26.005 -20.350   6.042  0.00  0.00    +0.015 A 
ATOM      4  C   LIG    1       26.585 -19.703   4.965  0.00  0.00    +0.001 A 
ATOM      5  C   LIG    1       27.923 -19.329   5.030  0.00  0.00    +0.004 A 
ATOM      6  C   LIG    1       28.679 -19.622   6.169  0.00  0.00    +0.046 A 
ENDROOT
BRANCH   2   7
ATOM      7  C   LIG    1       25.967 -21.277   8.306  0.00  0.00    +0.167 C 
ATOM      8  O   LIG    1       25.863 -20.649   9.361  0.00  0.00    -0.292 OA
BRANCH   7   9
ATOM      9  C   LIG    1       25.488 -22.714   8.163  0.00  0.00    +0.084 C 
BRANCH   9  10
ATOM     10  C   LIG    1       26.368 -23.591   7.260  0.00  0.00    +0.043 C 
BRANCH  10  11
ATOM     11  C   LIG    1       25.674 -24.831   6.741  0.00  0.00    -0.047 A 
ATOM     12  C   LIG    1       26.177 -26.103   7.049  0.00  0.00    +0.003 A 
ATOM     13  C   LIG    1       25.530 -27.257   6.612  0.00  0.00    +0.000 A 
ATOM     14  C   LIG    1       24.382 -27.153   5.835  0.00  0.00    +0.000 A 
ATOM     15  C   LIG    1       23.877 -25.895   5.506  0.00  0.00    +0.000 A 
ATOM     16  C   LIG    1       24.515 -24.738   5.963  0.00  0.00    +0.003 A 
ENDBRANCH  10  11
ENDBRANCH   9  10
ENDBRANCH   7   9
ENDBRANCH   2   7
BRANCH   1  17
ATOM     17  O   LIG    1       28.805 -20.620   8.391  0.00  0.00    -0.489 OA
BRANCH  17  18
ATOM     18  C   LIG    1       29.736 -21.706   8.314  0.00  0.00    +0.261 C 
BRANCH  18  19
ATOM     19  C   LIG    1       31.013 -21.316   9.078  0.00  0.00    +0.166 C 
BRANCH  19  20
ATOM     20  O   LIG    1       32.088 -22.191   8.712  0.00  0.00    -0.387 OA
ATOM     21  H   LIG    1       31.841 -23.077   9.036  0.00  0.00    +0.210 HD
ENDBRANCH  19  20
BRANCH  19  22
ATOM     22  C   LIG    1       31.430 -19.854   8.818  0.00  0.00    +0.115 C 
BRANCH  22  23
ATOM     23  N   LIG    1       31.004 -18.980   9.914  0.00  0.00    -0.313 NA
ATOM     24  H   LIG    1       31.515 -19.219  10.764  0.00  0.00    +0.122 HD
BRANCH  23  25
ATOM     25  C   LIG    1       31.227 -17.572   9.593  0.00  0.00    +0.081 C 
BRANCH  25  27
ATOM     26  C   LIG    1       31.586 -16.548  11.872  0.00  0.00    +0.005 C 
ATOM     27  C   LIG    1       30.627 -16.707  10.704  0.00  0.00    +0.012 C 
ENDBRANCH  25  27
ENDBRANCH  23  25
ENDBRANCH  22  23
ENDBRANCH  19  22
ENDBRANCH  18  19
ENDBRANCH  17  18
ENDBRANCH   1  17
TORSDOF 12
ENDMDL
MODEL 6
REMARK VINA RESULT:      -8.1      2.642      4.432
REMARK  Name = *****
REMARK                            x       y       z     vdW  Elec       q    Type
REMARK                         _______ _______ _______ _____ _____    ______ ____
ROOT
ATOM      1  C   LIG    1       23.814 -21.782   6.955  0.00  0.00    +0.131 A 
ATOM      2  C   LIG    1       24.525 -22.992   7.017  0.00  0.00    +0.059 A 
ATOM      3  C   LIG    1       25.690 -23.076   7.803  0.00  0.00    +0.015 A 
ATOM      4  C   LIG    1       26.173 -21.973   8.486  0.00  0.00    +0.001 A 
ATOM      5  C   LIG    1       25.490 -20.764   8.404  0.00  0.00    +0.004 A 
ATOM      6  C   LIG    1       24.316 -20.671   7.652  0.00  0.00    +0.046 A 
ENDROOT
BRANCH   2   7
ATOM      7  C   LIG    1       24.163 -24.248   6.292  0.00  0.00    +0.167 C 
ATOM      8  O   LIG    1       23.145 -24.833   6.666  0.00  0.00    -0.292 OA
BRANCH   7   9
ATOM      9  C   LIG    1       25.116 -24.844   5.266  0.00  0.00    +0.084 C 
BRANCH   9  10
ATOM     10  C   LIG    1       26.126 -25.846   5.843  0.00  0.00    +0.043 C 
BRANCH  10  11
ATOM     11  C   LIG    1       25.517 -27.170   6.251  0.00  0.00    -0.047 A 
ATOM     12  C   LIG    1       25.825 -27.736   7.496  0.00  0.00    +0.003 A 
ATOM     13  C   LIG    1       25.245 -28.935   7.904  0.00  0.00    +0.000 A 
ATOM     14  C   LIG    1       24.365 -29.599   7.058  0.00  0.00    +0.000 A 
ATOM     15  C   LIG    1       24.059 -29.058   5.809  0.00  0.00    +0.000 A 
ATOM     16  C   LIG    1       24.626 -27.844   5.409  0.00  0.00    +0.003 A 
ENDBRANCH  10  11
ENDBRANCH   9  10
ENDBRANCH   7   9
ENDBRANCH   2   7
BRANCH   1  17
ATOM     17  O   LIG    1       22.655 -21.755   6.232  0.00  0.00    -0.489 OA
BRANCH  17  18
ATOM     18  C   LIG    1       22.588 -20.910   5.076  0.00  0.00    +0.261 C 
BRANCH  18  19
ATOM     19  C   LIG    1       23.945 -20.953   4.355  0.00  0.00    +0.166 C 
BRANCH  19  20
ATOM     20  O   LIG    1       23.843 -21.753   3.169  0.00  0.00    -0.387 OA
ATOM     21  H   LIG    1       23.365 -22.562   3.425  0.00  0.00    +0.210 HD
ENDBRANCH  19  20
BRANCH  19  22
ATOM     22  C   LIG    1       24.458 -19.548   3.984  0.00  0.00    +0.115 C 
BRANCH  22  23
ATOM     23  N   LIG    1       25.920 -19.525   3.895  0.00  0.00    -0.313 NA
ATOM     24  H   LIG    1       26.249 -18.561   3.835  0.00  0.00    +0.122 HD
BRANCH  23  25
ATOM     25  C   LIG    1       26.537 -20.176   5.050  0.00  0.00    +0.081 C 
BRANCH  25  27
ATOM     26  C   LIG    1       28.611 -20.191   6.488  0.00  0.00    +0.005 C 
ATOM     27  C   LIG    1       27.916 -19.559   5.293  0.00  0.00    +0.012 C 
ENDBRANCH  25  27
ENDBRANCH  23  25
ENDBRANCH  22  23
ENDBRANCH  19  22
ENDBRANCH  18  19
ENDBRANCH  17  18
ENDBRANCH   1  17
TORSDOF 12
ENDMDL
MODEL 7
REMARK VINA RESULT:      -8.0      1.655      5.187
REMARK  Name = *****
REMARK                            x       y       z     vdW  Elec       q    Type
REMARK                         _______ _______ _______ _____ _____    ______ ____
ROOT
ATOM      1  C   LIG    1       25.495 -24.264   6.937  0.00  0.00    +0.131 A 
ATOM      2  C   LIG    1       24.163 -24.440   6.524  0.00  0.00    +0.059 A 
ATOM      3  C   LIG    1       23.812 -25.576   5.770  0.00  0.00    +0.015 A 
ATOM      4  C   LIG    1       24.764 -26.506   5.392  0.00  0.00    +0.001 A 
ATOM      5  C   LIG    1       26.090 -26.322   5.773  0.00  0.00    +0.004 A 
ATOM      6  C   LIG    1       26.451 -25.215   6.546  0.00  0.00    +0.046 A 
ENDROOT
BRANCH   2   7
ATOM      7  C   LIG    1       23.038 -23.497   6.803  0.00  0.00    +0.167 C 
ATOM      8  O   LIG    1       21.911 -23.985   6.892  0.00  0.00    -0.292 OA
BRANCH   7   9
ATOM      9  C   LIG    1       23.277 -21.994   6.798  0.00  0.00    +0.084 C 
BRANCH   9  10
ATOM     10  C   LIG    1       22.519 -21.232   5.701  0.00  0.00    +0.043 C 
BRANCH  10  11
ATOM     11  C   LIG    1       23.374 -20.252   4.928  0.00  0.00    -0.047 A 
ATOM     12  C   LIG    1       24.725 -20.535   4.683  0.00  0.00    +0.003 A 
ATOM     13  C   LIG    1       25.518 -19.661   3.941  0.00  0.00    +0.000 A 
ATOM     14  C   LIG    1       24.974 -18.477   3.456  0.00  0.00    +0.000 A 
ATOM     15  C   LIG    1       23.636 -18.174   3.705  0.00  0.00    +0.000 A 
ATOM     16  C   LIG    1       22.836 -19.060   4.431  0.00  0.00    +0.003 A 
ENDBRANCH  10  11
ENDBRANCH   9  10
ENDBRANCH   7   9
ENDBRANCH   2   7
BRANCH   1  17
ATOM     17  O   LIG    1       25.787 -23.183   7.719  0.00  0.00    -0.489 OA
BRANCH  17  18
ATOM     18  C   LIG    1       26.834 -22.298   7.300  0.00  0.00    +0.261 C 
BRANCH  18  19
ATOM     19  C   LIG    1       26.552 -20.897   7.869  0.00  0.00    +0.166 C 
BRANCH  19  20
ATOM     20  O   LIG    1       26.032 -21.006   9.201  0.00  0.00    -0.387 OA
ATOM     21  H   LIG    1       25.199 -21.507   9.130  0.00  0.00    +0.210 HD
ENDBRANCH  19  20
BRANCH  19  22
ATOM     22  C   LIG    1       27.808 -20.003   7.880  0.00  0.00    +0.115 C 
BRANCH  22  23
ATOM     23  N   LIG    1       28.983 -20.750   8.336  0.00  0.00    -0.313 NA
ATOM     24  H   LIG    1       28.895 -21.731   8.068  0.00  0.00    +0.122 HD
BRANCH  23  25
ATOM     25  C   LIG    1       30.217 -20.203   7.776  0.00  0.00    +0.081 C 
BRANCH  25  27
ATOM     26  C   LIG    1       31.066 -17.994   8.654  0.00  0.00    +0.005 C 
ATOM     27  C   LIG    1       30.098 -18.679   7.703  0.00  0.00    +0.012 C 
ENDBRANCH  25  27
ENDBRANCH  23  25
ENDBRANCH  22  23
ENDBRANCH  19  22
ENDBRANCH  18  19
ENDBRANCH  17  18
ENDBRANCH   1  17
TORSDOF 12
ENDMDL
MODEL 8
REMARK VINA RESULT:      -7.9      2.343      5.079
REMARK  Name = *****
REMARK                            x       y       z     vdW  Elec       q    Type
REMARK                         _______ _______ _______ _____ _____    ______ ____
ROOT
ATOM      1  C   LIG    1       27.290 -20.223   6.401  0.00  0.00    +0.131 A 
ATOM      2  C   LIG    1       27.419 -20.884   7.634  0.00  0.00    +0.059 A 
ATOM      3  C   LIG    1       28.682 -20.970   8.249  0.00  0.00    +0.015 A 
ATOM      4  C   LIG    1       29.811 -20.449   7.642  0.00  0.00    +0.001 A 
ATOM      5  C   LIG    1       29.695 -19.819   6.407  0.00  0.00    +0.004 A 
ATOM      6  C   LIG    1       28.444 -19.699   5.796  0.00  0.00    +0.046 A 
ENDROOT
BRANCH   2   7
ATOM      7  C   LIG    1       26.307 -21.545   8.382  0.00  0.00    +0.167 C 
ATOM      8  O   LIG    1       25.807 -20.912   9.312  0.00  0.00    -0.292 OA
BRANCH   7   9
ATOM      9  C   LIG    1       25.950 -22.998   8.100  0.00  0.00    +0.084 C 
BRANCH   9  10
ATOM     10  C   LIG    1       26.189 -23.442   6.650  0.00  0.00    +0.043 C 
BRANCH  10  11
ATOM     11  C   LIG    1       25.682 -24.834   6.341  0.00  0.00    -0.047 A 
ATOM     12  C   LIG    1       24.918 -25.068   5.189  0.00  0.00    +0.003 A 
ATOM     13  C   LIG    1       24.474 -26.349   4.868  0.00  0.00    +0.000 A 
ATOM     14  C   LIG    1       24.768 -27.413   5.714  0.00  0.00    +0.000 A 
ATOM     15  C   LIG    1       25.514 -27.195   6.872  0.00  0.00    +0.000 A 
ATOM     16  C   LIG    1       25.976 -25.913   7.181  0.00  0.00    +0.003 A 
ENDBRANCH  10  11
ENDBRANCH   9  10
ENDBRANCH   7   9
ENDBRANCH   2   7
BRANCH   1  17
ATOM     17  O   LIG    1       26.040 -20.104   5.863  0.00  0.00    -0.489 OA
BRANCH  17  18
ATOM     18  C   LIG    1       25.900 -20.158   4.438  0.00  0.00    +0.261 C 
BRANCH  18  19
ATOM     19  C   LIG    1       25.096 -18.932   3.975  0.00  0.00    +0.166 C 
BRANCH  19  20
ATOM     20  O   LIG    1       25.671 -18.395   2.776  0.00  0.00    -0.387 OA
ATOM     21  H   LIG    1       26.219 -19.105   2.394  0.00  0.00    +0.210 HD
ENDBRANCH  19  20
BRANCH  19  22
ATOM     22  C   LIG    1       23.610 -19.262   3.727  0.00  0.00    +0.115 C 
BRANCH  22  23
ATOM     23  N   LIG    1       22.896 -19.462   4.990  0.00  0.00    -0.313 NA
ATOM     24  H   LIG    1       22.090 -18.838   5.034  0.00  0.00    +0.122 HD
BRANCH  23  25
ATOM     25  C   LIG    1       22.448 -20.845   5.140  0.00  0.00    +0.081 C 
BRANCH  25  27
ATOM     26  C   LIG    1       22.528 -22.834   6.693  0.00  0.00    +0.005 C 
ATOM     27  C   LIG    1       23.010 -21.413   6.444  0.00  0.00    +0.012 C 
ENDBRANCH  25  27
ENDBRANCH  23  25
ENDBRANCH  22  23
ENDBRANCH  19  22
ENDBRANCH  18  19
ENDBRANCH  17  18
ENDBRANCH   1  17
TORSDOF 12
ENDMDL
MODEL 9
REMARK VINA RESULT:      -7.9      2.926      7.898
REMARK  Name = *****
REMARK                            x       y       z     vdW  Elec       q    Type
REMARK                         _______ _______ _______ _____ _____    ______ ____
ROOT
ATOM      1  C   LIG    1       25.139 -23.334   6.881  0.00  0.00    +0.131 A 
ATOM      2  C   LIG    1       25.395 -22.023   7.315  0.00  0.00    +0.059 A 
ATOM      3  C   LIG    1       24.322 -21.132   7.512  0.00  0.00    +0.015 A 
ATOM      4  C   LIG    1       23.019 -21.513   7.248  0.00  0.00    +0.001 A 
ATOM      5  C   LIG    1       22.761 -22.802   6.790  0.00  0.00    +0.004 A 
ATOM      6  C   LIG    1       23.811 -23.707   6.616  0.00  0.00    +0.046 A 
ENDROOT
BRANCH   2   7
ATOM      7  C   LIG    1       26.748 -21.449   7.584  0.00  0.00    +0.167 C 
ATOM      8  O   LIG    1       27.240 -21.677   8.690  0.00  0.00    -0.292 OA
BRANCH   7   9
ATOM      9  C   LIG    1       27.386 -20.488   6.592  0.00  0.00    +0.084 C 
BRANCH   9  10
ATOM     10  C   LIG    1       28.898 -20.683   6.399  0.00  0.00    +0.043 C 
BRANCH  10  11
ATOM     11  C   LIG    1       29.748 -19.946   7.410  0.00  0.00    -0.047 A 
ATOM     12  C   LIG    1       30.620 -20.655   8.249  0.00  0.00    +0.003 A 
ATOM     13  C   LIG    1       31.438 -19.990   9.161  0.00  0.00    +0.000 A 
ATOM     14  C   LIG    1       31.374 -18.605   9.264  0.00  0.00    +0.000 A 
ATOM     15  C   LIG    1       30.501 -17.887   8.448  0.00  0.00    +0.000 A 
ATOM     16  C   LIG    1       29.696 -18.553   7.519  0.00  0.00    +0.003 A 
ENDBRANCH  10  11
ENDBRANCH   9  10
ENDBRANCH   7   9
ENDBRANCH   2   7
BRANCH   1  17
ATOM     17  O   LIG    1       26.197 -24.189   6.760  0.00  0.00    -0.489 OA
BRANCH  17  18
ATOM     18  C   LIG    1       25.962 -25.596   6.902  0.00  0.00    +0.261 C 
BRANCH  18  19
ATOM     19  C   LIG    1       26.127 -26.265   5.527  0.00  0.00    +0.166 C 
BRANCH  19  20
ATOM     20  O   LIG    1       27.391 -26.938   5.460  0.00  0.00    -0.387 OA
ATOM     21  H   LIG    1       28.021 -26.386   5.957  0.00  0.00    +0.210 HD
ENDBRANCH  19  20
BRANCH  19  22
ATOM     22  C   LIG    1       24.995 -27.267   5.222  0.00  0.00    +0.115 C 
BRANCH  22  23
ATOM     23  N   LIG    1       24.525 -27.921   6.446  0.00  0.00    -0.313 NA
ATOM     24  H   LIG    1       23.687 -27.451   6.789  0.00  0.00    +0.122 HD
BRANCH  23  25
ATOM     25  C   LIG    1       24.231 -29.335   6.219  0.00  0.00    +0.081 C 
BRANCH  25  27
ATOM     26  C   LIG    1       25.562 -31.400   5.642  0.00  0.00    +0.005 C 
ATOM     27  C   LIG    1       25.319 -29.933   5.325  0.00  0.00    +0.012 C 
ENDBRANCH  25  27
ENDBRANCH  23  25
ENDBRANCH  22  23
ENDBRANCH  19  22
ENDBRANCH  18  19
ENDBRANCH  17  18
ENDBRANCH   1  17
TORSDOF 12
ENDMDL
