MODEL 1
REMARK VINA RESULT:      -6.9      0.000      0.000
REMARK  Name = *****
REMARK                            x       y       z     vdW  Elec       q    Type
REMARK                         _______ _______ _______ _____ _____    ______ ____
ROOT
ATOM      1  C   LIG    1       25.522 -31.322   9.009  0.00  0.00    +0.087 C 
ATOM      2  C   LIG    1       25.413 -29.966   9.738  0.00  0.00    +0.169 C 
ATOM      3  C   LIG    1       25.606 -28.822   8.716  0.00  0.00    +0.175 C 
ATOM      4  C   LIG    1       24.979 -28.940   7.297  0.00  0.00    +0.170 C 
ATOM      5  C   LIG    1       24.034 -30.215   7.164  0.00  0.00    +0.084 C 
ATOM      6  C   LIG    1       24.331 -31.450   8.059  0.00  0.00    +0.042 C 
ENDROOT
BRANCH   5   7
ATOM      7  N   LIG    1       23.858 -30.695   5.777  0.00  0.00    -0.325 NA
ATOM      8  H   LIG    1       23.245 -31.509   5.782  0.00  0.00    +0.118 HD
ATOM      9  H   LIG    1       24.760 -31.032   5.431  0.00  0.00    +0.118 HD
ENDBRANCH   5   7
BRANCH   1  10
ATOM     10  N   LIG    1       26.763 -31.506   8.204  0.00  0.00    -0.311 NA
ATOM     11  H   LIG    1       27.595 -31.326   8.771  0.00  0.00    +0.122 HD
BRANCH  10  13
ATOM     12  C   LIG    1       27.159 -32.608   6.036  0.00  0.00    +0.020 C 
ATOM     13  C   LIG    1       26.906 -32.796   7.530  0.00  0.00    +0.078 C 
ENDBRANCH  10  13
ENDBRANCH   1  10
BRANCH   3  14
ATOM     14  O   LIG    1       26.994 -28.506   8.443  0.00  0.00    -0.387 OA
ATOM     15  H   LIG    1       27.040 -27.722   7.876  0.00  0.00    +0.210 HD
ENDBRANCH   3  14
BRANCH   2  16
ATOM     16  O   LIG    1       24.389 -29.754  10.770  0.00  0.00    -0.341 OA
BRANCH  16  17
ATOM     17  C   LIG    1       24.569 -29.737  12.215  0.00  0.00    +0.284 C 
ATOM     18  C   LIG    1       23.266 -29.626  13.107  0.00  0.00    +0.131 C 
ATOM     19  C   LIG    1       23.324 -30.487  14.392  0.00  0.00    +0.048 C 
ATOM     20  C   LIG    1       22.793 -28.141  13.474  0.00  0.00    +0.121 C 
ATOM     21  C   LIG    1       23.895 -27.143  13.327  0.00  0.00    +0.160 C 
ATOM     22  C   LIG    1       25.188 -27.850  13.618  0.00  0.00    +0.196 C 
ATOM     23  O   LIG    1       25.537 -28.715  12.540  0.00  0.00    -0.346 OA
BRANCH  20  24
ATOM     24  N   LIG    1       21.665 -27.600  12.714  0.00  0.00    -0.311 NA
ATOM     25  H   LIG    1       21.389 -28.504  12.380  0.00  0.00    +0.122 HD
ATOM     26  C   LIG    1       20.408 -27.101  13.255  0.00  0.00    +0.101 C 
ENDBRANCH  20  24
BRANCH  18  27
ATOM     27  O   LIG    1       22.273 -30.279  12.391  0.00  0.00    -0.382 OA
ATOM     28  H   LIG    1       22.312 -31.253  12.363  0.00  0.00    +0.210 HD
ENDBRANCH  18  27
BRANCH  21  29
ATOM     29  O   LIG    1       23.640 -26.092  14.253  0.00  0.00    -0.388 OA
ATOM     30  H   LIG    1       24.505 -25.918  14.662  0.00  0.00    +0.210 HD
ENDBRANCH  21  29
ENDBRANCH  16  17
ENDBRANCH   2  16
BRANCH   4  31
ATOM     31  O   LIG    1       24.219 -27.729   6.934  0.00  0.00    -0.333 OA
BRANCH  31  32
ATOM     32  C   LIG    1       24.447 -26.986   5.706  0.00  0.00    +0.324 C 
ATOM     33  C   LIG    1       25.912 -26.561   5.182  0.00  0.00    +0.124 C 
ATOM     34  C   LIG    1       26.475 -25.673   6.218  0.00  0.00    +0.055 C 
ATOM     35  C   LIG    1       25.537 -24.632   6.714  0.00  0.00    +0.017 C 
ATOM     36  C   LIG    1       24.262 -24.652   6.515  0.00  0.00    +0.111 C 
ATOM     37  O   LIG    1       23.633 -25.726   5.858  0.00  0.00    -0.465 OA
BRANCH  33  38
ATOM     38  N   LIG    1       27.071 -27.446   4.883  0.00  0.00    -0.322 NA
ATOM     39  H   LIG    1       27.094 -28.206   5.565  0.00  0.00    +0.119 HD
ATOM     40  H   LIG    1       27.958 -26.946   5.066  0.00  0.00    +0.119 HD
ENDBRANCH  33  38
BRANCH  36  41
ATOM     41  C   LIG    1       23.450 -23.391   6.832  0.00  0.00    +0.152 C 
BRANCH  41  42
ATOM     42  N   LIG    1       22.004 -23.590   6.566  0.00  0.00    -0.324 NA
ATOM     43  H   LIG    1       21.584 -22.713   6.254  0.00  0.00    +0.119 HD
ATOM     44  H   LIG    1       21.925 -24.229   5.771  0.00  0.00    +0.119 HD
ENDBRANCH  41  42
ENDBRANCH  36  41
ENDBRANCH  31  32
ENDBRANCH   4  31
TORSDOF 14
ENDMDL
MODEL 2
REMARK VINA RESULT:      -6.9      2.216      2.655
REMARK  Name = *****
REMARK                            x       y       z     vdW  Elec       q    Type
REMARK                         _______ _______ _______ _____ _____    ______ ____
ROOT
ATOM      1  C   LIG    1       25.208 -31.600   8.322  0.00  0.00    +0.087 C 
ATOM      2  C   LIG    1       24.622 -30.420   9.127  0.00  0.00    +0.169 C 
ATOM      3  C   LIG    1       24.969 -29.094   8.412  0.00  0.00    +0.175 C 
ATOM      4  C   LIG    1       24.914 -29.016   6.859  0.00  0.00    +0.170 C 
ATOM      5  C   LIG    1       24.306 -30.339   6.214  0.00  0.00    +0.084 C 
ATOM      6  C   LIG    1       24.470 -31.678   6.984  0.00  0.00    +0.042 C 
ENDROOT
BRANCH   5   7
ATOM      7  N   LIG    1       24.716 -30.572   4.813  0.00  0.00    -0.325 NA
ATOM      8  H   LIG    1       25.669 -30.233   4.684  0.00  0.00    +0.118 HD
ATOM      9  H   LIG    1       24.133 -29.997   4.201  0.00  0.00    +0.118 HD
ENDBRANCH   5   7
BRANCH   1  10
ATOM     10  N   LIG    1       26.666 -31.498   8.027  0.00  0.00    -0.311 NA
ATOM     11  H   LIG    1       27.135 -30.902   8.713  0.00  0.00    +0.122 HD
BRANCH  10  13
ATOM     12  C   LIG    1       27.809 -33.024   6.466  0.00  0.00    +0.020 C 
ATOM     13  C   LIG    1       27.388 -32.765   7.910  0.00  0.00    +0.078 C 
ENDBRANCH  10  13
ENDBRANCH   1  10
BRANCH   3  14
ATOM     14  O   LIG    1       26.290 -28.586   8.727  0.00  0.00    -0.387 OA
ATOM     15  H   LIG    1       26.581 -28.952   9.575  0.00  0.00    +0.210 HD
ENDBRANCH   3  14
BRANCH   2  16
ATOM     16  O   LIG    1       23.279 -30.514   9.715  0.00  0.00    -0.341 OA
BRANCH  16  17
ATOM     17  C   LIG    1       22.864 -31.295  10.872  0.00  0.00    +0.284 C 
ATOM     18  C   LIG    1       21.496 -32.082  10.763  0.00  0.00    +0.131 C 
ATOM     19  C   LIG    1       21.531 -33.476  11.436  0.00  0.00    +0.048 C 
ATOM     20  C   LIG    1       20.190 -31.286  11.238  0.00  0.00    +0.121 C 
ATOM     21  C   LIG    1       20.522 -30.138  12.135  0.00  0.00    +0.160 C 
ATOM     22  C   LIG    1       21.768 -30.500  12.892  0.00  0.00    +0.196 C 
ATOM     23  O   LIG    1       22.907 -30.440  12.035  0.00  0.00    -0.346 OA
BRANCH  20  24
ATOM     24  N   LIG    1       19.334 -30.734  10.188  0.00  0.00    -0.311 NA
ATOM     25  H   LIG    1       19.917 -31.088   9.454  0.00  0.00    +0.122 HD
ATOM     26  C   LIG    1       18.027 -31.231   9.777  0.00  0.00    +0.101 C 
ENDBRANCH  20  24
BRANCH  18  27
ATOM     27  O   LIG    1       21.378 -32.434   9.425  0.00  0.00    -0.382 OA
ATOM     28  H   LIG    1       20.485 -32.649   9.099  0.00  0.00    +0.210 HD
ENDBRANCH  18  27
BRANCH  21  29
ATOM     29  O   LIG    1       19.408 -29.942  13.000  0.00  0.00    -0.388 OA
ATOM     30  H   LIG    1       19.748 -29.356  13.698  0.00  0.00    +0.210 HD
ENDBRANCH  21  29
ENDBRANCH  16  17
ENDBRANCH   2  16
BRANCH   4  31
ATOM     31  O   LIG    1       24.140 -27.848   6.399  0.00  0.00    -0.333 OA
BRANCH  31  32
ATOM     32  C   LIG    1       24.586 -26.970   5.330  0.00  0.00    +0.324 C 
ATOM     33  C   LIG    1       26.130 -26.569   5.094  0.00  0.00    +0.124 C 
ATOM     34  C   LIG    1       26.557 -25.854   6.312  0.00  0.00    +0.055 C 
ATOM     35  C   LIG    1       25.594 -24.831   6.796  0.00  0.00    +0.017 C 
ATOM     36  C   LIG    1       24.366 -24.751   6.408  0.00  0.00    +0.111 C 
ATOM     37  O   LIG    1       23.807 -25.695   5.525  0.00  0.00    -0.465 OA
BRANCH  33  38
ATOM     38  N   LIG    1       27.287 -27.475   4.856  0.00  0.00    -0.322 NA
ATOM     39  H   LIG    1       28.153 -26.944   4.963  0.00  0.00    +0.119 HD
ATOM     40  H   LIG    1       27.315 -27.764   3.863  0.00  0.00    +0.119 HD
ENDBRANCH  33  38
BRANCH  36  41
ATOM     41  C   LIG    1       23.564 -23.494   6.765  0.00  0.00    +0.152 C 
BRANCH  41  42
ATOM     42  N   LIG    1       22.105 -23.713   6.605  0.00  0.00    -0.324 NA
ATOM     43  H   LIG    1       21.729 -24.178   7.432  0.00  0.00    +0.119 HD
ATOM     44  H   LIG    1       21.659 -22.792   6.582  0.00  0.00    +0.119 HD
ENDBRANCH  41  42
ENDBRANCH  36  41
ENDBRANCH  31  32
ENDBRANCH   4  31
TORSDOF 14
ENDMDL
MODEL 3
REMARK VINA RESULT:      -6.9      1.409      2.008
REMARK  Name = *****
REMARK                            x       y       z     vdW  Elec       q    Type
REMARK                         _______ _______ _______ _____ _____    ______ ____
ROOT
ATOM      1  C   LIG    1       25.542 -31.373   8.968  0.00  0.00    +0.087 C 
ATOM      2  C   LIG    1       25.424 -30.032   9.722  0.00  0.00    +0.169 C 
ATOM      3  C   LIG    1       25.617 -28.867   8.723  0.00  0.00    +0.175 C 
ATOM      4  C   LIG    1       24.998 -28.960   7.299  0.00  0.00    +0.170 C 
ATOM      5  C   LIG    1       24.059 -30.236   7.136  0.00  0.00    +0.084 C 
ATOM      6  C   LIG    1       24.356 -31.487   8.009  0.00  0.00    +0.042 C 
ENDROOT
BRANCH   5   7
ATOM      7  N   LIG    1       23.892 -30.691   5.740  0.00  0.00    -0.325 NA
ATOM      8  H   LIG    1       24.643 -30.301   5.171  0.00  0.00    +0.118 HD
ATOM      9  H   LIG    1       23.028 -30.291   5.366  0.00  0.00    +0.118 HD
ENDBRANCH   5   7
BRANCH   1  10
ATOM     10  N   LIG    1       26.787 -31.537   8.166  0.00  0.00    -0.311 NA
ATOM     11  H   LIG    1       27.615 -31.341   8.734  0.00  0.00    +0.122 HD
BRANCH  10  13
ATOM     12  C   LIG    1       27.188 -32.638   5.998  0.00  0.00    +0.020 C 
ATOM     13  C   LIG    1       26.954 -32.826   7.495  0.00  0.00    +0.078 C 
ENDBRANCH  10  13
ENDBRANCH   1  10
BRANCH   3  14
ATOM     14  O   LIG    1       27.006 -28.541   8.464  0.00  0.00    -0.387 OA
ATOM     15  H   LIG    1       27.312 -27.894   9.118  0.00  0.00    +0.210 HD
ENDBRANCH   3  14
BRANCH   2  16
ATOM     16  O   LIG    1       24.394 -29.844  10.752  0.00  0.00    -0.341 OA
BRANCH  16  17
ATOM     17  C   LIG    1       24.506 -30.096  12.183  0.00  0.00    +0.284 C 
ATOM     18  C   LIG    1       24.444 -28.843  13.147  0.00  0.00    +0.131 C 
ATOM     19  C   LIG    1       23.663 -29.111  14.457  0.00  0.00    +0.048 C 
ATOM     20  C   LIG    1       25.849 -28.152  13.488  0.00  0.00    +0.121 C 
ATOM     21  C   LIG    1       27.004 -29.066  13.238  0.00  0.00    +0.160 C 
ATOM     22  C   LIG    1       26.530 -30.472  13.476  0.00  0.00    +0.196 C 
ATOM     23  O   LIG    1       25.684 -30.899  12.411  0.00  0.00    -0.346 OA
BRANCH  20  24
ATOM     24  N   LIG    1       26.164 -26.912  12.779  0.00  0.00    -0.311 NA
ATOM     25  H   LIG    1       25.223 -26.795  12.457  0.00  0.00    +0.122 HD
ATOM     26  C   LIG    1       26.424 -25.608  13.376  0.00  0.00    +0.101 C 
ENDBRANCH  20  24
BRANCH  18  27
ATOM     27  O   LIG    1       23.607 -27.933  12.517  0.00  0.00    -0.382 OA
ATOM     28  H   LIG    1       23.117 -28.248  11.735  0.00  0.00    +0.210 HD
ENDBRANCH  18  27
BRANCH  21  29
ATOM     29  O   LIG    1       28.041 -28.692  14.140  0.00  0.00    -0.388 OA
ATOM     30  H   LIG    1       27.619 -28.721  15.015  0.00  0.00    +0.210 HD
ENDBRANCH  21  29
ENDBRANCH  16  17
ENDBRANCH   2  16
BRANCH   4  31
ATOM     31  O   LIG    1       24.235 -27.746   6.956  0.00  0.00    -0.333 OA
BRANCH  31  32
ATOM     32  C   LIG    1       24.453 -26.989   5.735  0.00  0.00    +0.324 C 
ATOM     33  C   LIG    1       25.913 -26.541   5.214  0.00  0.00    +0.124 C 
ATOM     34  C   LIG    1       26.465 -25.655   6.257  0.00  0.00    +0.055 C 
ATOM     35  C   LIG    1       25.515 -24.631   6.762  0.00  0.00    +0.017 C 
ATOM     36  C   LIG    1       24.240 -24.665   6.564  0.00  0.00    +0.111 C 
ATOM     37  O   LIG    1       23.624 -25.741   5.897  0.00  0.00    -0.465 OA
BRANCH  33  38
ATOM     38  N   LIG    1       27.082 -27.409   4.906  0.00  0.00    -0.322 NA
ATOM     39  H   LIG    1       27.438 -27.808   5.777  0.00  0.00    +0.119 HD
ATOM     40  H   LIG    1       27.876 -26.834   4.575  0.00  0.00    +0.119 HD
ENDBRANCH  33  38
BRANCH  36  41
ATOM     41  C   LIG    1       23.413 -23.417   6.892  0.00  0.00    +0.152 C 
BRANCH  41  42
ATOM     42  N   LIG    1       21.982 -23.601   6.544  0.00  0.00    -0.324 NA
ATOM     43  H   LIG    1       21.900 -23.983   5.601  0.00  0.00    +0.119 HD
ATOM     44  H   LIG    1       21.607 -24.322   7.166  0.00  0.00    +0.119 HD
ENDBRANCH  41  42
ENDBRANCH  36  41
ENDBRANCH  31  32
ENDBRANCH   4  31
TORSDOF 14
ENDMDL
MODEL 4
REMARK VINA RESULT:      -5.6      2.440      3.821
REMARK  Name = *****
REMARK                            x       y       z     vdW  Elec       q    Type
REMARK                         _______ _______ _______ _____ _____    ______ ____
ROOT
ATOM      1  C   LIG    1       25.334 -28.758   6.641  0.00  0.00    +0.087 C 
ATOM      2  C   LIG    1       26.374 -27.960   7.455  0.00  0.00    +0.169 C 
ATOM      3  C   LIG    1       26.824 -26.727   6.638  0.00  0.00    +0.175 C 
ATOM      4  C   LIG    1       25.778 -25.927   5.808  0.00  0.00    +0.170 C 
ATOM      5  C   LIG    1       24.290 -26.425   6.080  0.00  0.00    +0.084 C 
ATOM      6  C   LIG    1       24.073 -27.903   6.509  0.00  0.00    +0.042 C 
ENDROOT
BRANCH   5   7
ATOM      7  N   LIG    1       23.344 -26.131   4.984  0.00  0.00    -0.325 NA
ATOM      8  H   LIG    1       23.870 -25.864   4.153  0.00  0.00    +0.118 HD
ATOM      9  H   LIG    1       22.793 -25.308   5.238  0.00  0.00    +0.118 HD
ENDBRANCH   5   7
BRANCH   1  10
ATOM     10  N   LIG    1       25.768 -29.137   5.266  0.00  0.00    -0.311 NA
ATOM     11  H   LIG    1       26.729 -28.836   5.091  0.00  0.00    +0.122 HD
BRANCH  10  13
ATOM     12  C   LIG    1       25.854 -31.441   6.136  0.00  0.00    +0.020 C 
ATOM     13  C   LIG    1       25.631 -30.551   4.915  0.00  0.00    +0.078 C 
ENDBRANCH  10  13
ENDBRANCH   1  10
BRANCH   3  14
ATOM     14  O   LIG    1       27.870 -27.010   5.676  0.00  0.00    -0.387 OA
ATOM     15  H   LIG    1       27.873 -27.958   5.473  0.00  0.00    +0.210 HD
ENDBRANCH   3  14
BRANCH   2  16
ATOM     16  O   LIG    1       26.194 -27.757   8.899  0.00  0.00    -0.341 OA
BRANCH  16  17
ATOM     17  C   LIG    1       26.721 -28.569   9.987  0.00  0.00    +0.284 C 
ATOM     18  C   LIG    1       25.790 -29.718  10.551  0.00  0.00    +0.131 C 
ATOM     19  C   LIG    1       26.560 -31.011  10.917  0.00  0.00    +0.048 C 
ATOM     20  C   LIG    1       24.823 -29.306  11.759  0.00  0.00    +0.121 C 
ATOM     21  C   LIG    1       25.286 -28.071  12.459  0.00  0.00    +0.160 C 
ATOM     22  C   LIG    1       26.784 -28.026  12.357  0.00  0.00    +0.196 C 
ATOM     23  O   LIG    1       27.183 -27.684  11.031  0.00  0.00    -0.346 OA
BRANCH  20  24
ATOM     24  N   LIG    1       23.417 -29.071  11.429  0.00  0.00    -0.311 NA
ATOM     25  H   LIG    1       23.518 -29.441  10.503  0.00  0.00    +0.122 HD
ATOM     26  C   LIG    1       22.269 -29.827  11.913  0.00  0.00    +0.101 C 
ENDBRANCH  20  24
BRANCH  18  27
ATOM     27  O   LIG    1       25.040 -30.151   9.466  0.00  0.00    -0.382 OA
ATOM     28  H   LIG    1       24.777 -31.089   9.454  0.00  0.00    +0.210 HD
ENDBRANCH  18  27
BRANCH  21  29
ATOM     29  O   LIG    1       24.845 -28.160  13.810  0.00  0.00    -0.388 OA
ATOM     30  H   LIG    1       24.585 -29.091  13.916  0.00  0.00    +0.210 HD
ENDBRANCH  21  29
ENDBRANCH  16  17
ENDBRANCH   2  16
BRANCH   4  31
ATOM     31  O   LIG    1       25.864 -24.479   6.072  0.00  0.00    -0.333 OA
BRANCH  31  32
ATOM     32  C   LIG    1       25.173 -23.830   7.173  0.00  0.00    +0.324 C 
ATOM     33  C   LIG    1       23.758 -23.071   7.012  0.00  0.00    +0.124 C 
ATOM     34  C   LIG    1       23.995 -21.962   6.068  0.00  0.00    +0.055 C 
ATOM     35  C   LIG    1       25.228 -21.177   6.335  0.00  0.00    +0.017 C 
ATOM     36  C   LIG    1       26.183 -21.569   7.110  0.00  0.00    +0.111 C 
ATOM     37  O   LIG    1       26.164 -22.837   7.723  0.00  0.00    -0.465 OA
BRANCH  33  38
ATOM     38  N   LIG    1       22.472 -23.626   6.508  0.00  0.00    -0.322 NA
ATOM     39  H   LIG    1       22.093 -24.271   7.204  0.00  0.00    +0.119 HD
ATOM     40  H   LIG    1       22.644 -24.241   5.694  0.00  0.00    +0.119 HD
ENDBRANCH  33  38
BRANCH  36  41
ATOM     41  C   LIG    1       27.259 -20.557   7.519  0.00  0.00    +0.152 C 
BRANCH  41  42
ATOM     42  N   LIG    1       28.353 -21.202   8.287  0.00  0.00    -0.324 NA
ATOM     43  H   LIG    1       29.227 -21.145   7.761  0.00  0.00    +0.119 HD
ATOM     44  H   LIG    1       28.504 -20.643   9.130  0.00  0.00    +0.119 HD
ENDBRANCH  41  42
ENDBRANCH  36  41
ENDBRANCH  31  32
ENDBRANCH   4  31
TORSDOF 14
ENDMDL
MODEL 5
REMARK VINA RESULT:      -5.4      3.013      5.078
REMARK  Name = *****
REMARK                            x       y       z     vdW  Elec       q    Type
REMARK                         _______ _______ _______ _____ _____    ______ ____
ROOT
ATOM      1  C   LIG    1       24.618 -31.099   7.023  0.00  0.00    +0.087 C 
ATOM      2  C   LIG    1       24.429 -31.431   8.519  0.00  0.00    +0.169 C 
ATOM      3  C   LIG    1       25.563 -30.769   9.335  0.00  0.00    +0.175 C 
ATOM      4  C   LIG    1       26.051 -29.340   8.961  0.00  0.00    +0.170 C 
ATOM      5  C   LIG    1       25.138 -28.669   7.841  0.00  0.00    +0.084 C 
ATOM      6  C   LIG    1       24.401 -29.597   6.836  0.00  0.00    +0.042 C 
ENDROOT
BRANCH   5   7
ATOM      7  N   LIG    1       25.815 -27.610   7.063  0.00  0.00    -0.325 NA
ATOM      8  H   LIG    1       26.348 -28.041   6.309  0.00  0.00    +0.118 HD
ATOM      9  H   LIG    1       26.505 -27.153   7.663  0.00  0.00    +0.118 HD
ENDBRANCH   5   7
BRANCH   1  10
ATOM     10  N   LIG    1       25.961 -31.433   6.470  0.00  0.00    -0.311 NA
ATOM     11  H   LIG    1       26.302 -32.319   6.850  0.00  0.00    +0.122 HD
BRANCH  10  13
ATOM     12  C   LIG    1       26.365 -32.870   4.508  0.00  0.00    +0.020 C 
ATOM     13  C   LIG    1       26.066 -31.459   5.011  0.00  0.00    +0.078 C 
ENDBRANCH  10  13
ENDBRANCH   1  10
BRANCH   3  14
ATOM     14  O   LIG    1       26.789 -31.543   9.370  0.00  0.00    -0.387 OA
ATOM     15  H   LIG    1       27.065 -31.750   8.465  0.00  0.00    +0.210 HD
ENDBRANCH   3  14
BRANCH   2  16
ATOM     16  O   LIG    1       23.090 -31.409   9.124  0.00  0.00    -0.341 OA
BRANCH  16  17
ATOM     17  C   LIG    1       22.695 -31.904  10.436  0.00  0.00    +0.284 C 
ATOM     18  C   LIG    1       21.204 -32.407  10.602  0.00  0.00    +0.131 C 
ATOM     19  C   LIG    1       21.074 -33.660  11.502  0.00  0.00    +0.048 C 
ATOM     20  C   LIG    1       20.139 -31.301  11.058  0.00  0.00    +0.121 C 
ATOM     21  C   LIG    1       20.790 -30.120  11.702  0.00  0.00    +0.160 C 
ATOM     22  C   LIG    1       22.038 -30.606  12.384  0.00  0.00    +0.196 C 
ATOM     23  O   LIG    1       23.046 -30.908  11.421  0.00  0.00    -0.346 OA
BRANCH  20  24
ATOM     24  N   LIG    1       19.268 -30.755  10.018  0.00  0.00    -0.311 NA
ATOM     25  H   LIG    1       19.787 -31.190   9.280  0.00  0.00    +0.122 HD
ATOM     26  C   LIG    1       17.911 -31.183   9.702  0.00  0.00    +0.101 C 
ENDBRANCH  20  24
BRANCH  18  27
ATOM     27  O   LIG    1       20.850 -32.927   9.365  0.00  0.00    -0.382 OA
ATOM     28  H   LIG    1       21.382 -32.648   8.597  0.00  0.00    +0.210 HD
ENDBRANCH  18  27
BRANCH  21  29
ATOM     29  O   LIG    1       19.855 -29.574  12.627  0.00  0.00    -0.388 OA
ATOM     30  H   LIG    1       19.220 -30.295  12.778  0.00  0.00    +0.210 HD
ENDBRANCH  21  29
ENDBRANCH  16  17
ENDBRANCH   2  16
BRANCH   4  31
ATOM     31  O   LIG    1       26.106 -28.456  10.140  0.00  0.00    -0.333 OA
BRANCH  31  32
ATOM     32  C   LIG    1       26.980 -28.699  11.275  0.00  0.00    +0.324 C 
ATOM     33  C   LIG    1       26.591 -29.664  12.508  0.00  0.00    +0.124 C 
ATOM     34  C   LIG    1       25.394 -29.066  13.132  0.00  0.00    +0.055 C 
ATOM     35  C   LIG    1       25.476 -27.598  13.340  0.00  0.00    +0.017 C 
ATOM     36  C   LIG    1       26.349 -26.833  12.777  0.00  0.00    +0.111 C 
ATOM     37  O   LIG    1       27.273 -27.333  11.839  0.00  0.00    -0.465 OA
BRANCH  33  38
ATOM     38  N   LIG    1       26.219 -31.104  12.463  0.00  0.00    -0.322 NA
ATOM     39  H   LIG    1       25.635 -31.322  13.272  0.00  0.00    +0.119 HD
ATOM     40  H   LIG    1       27.056 -31.693  12.618  0.00  0.00    +0.119 HD
ENDBRANCH  33  38
BRANCH  36  41
ATOM     41  C   LIG    1       26.504 -25.395  13.286  0.00  0.00    +0.152 C 
BRANCH  41  42
ATOM     42  N   LIG    1       27.931 -25.012  13.418  0.00  0.00    -0.324 NA
ATOM     43  H   LIG    1       28.274 -24.637  12.533  0.00  0.00    +0.119 HD
ATOM     44  H   LIG    1       27.979 -24.235  14.082  0.00  0.00    +0.119 HD
ENDBRANCH  41  42
ENDBRANCH  36  41
ENDBRANCH  31  32
ENDBRANCH   4  31
TORSDOF 14
ENDMDL
MODEL 6
REMARK VINA RESULT:      -5.4      3.084      6.833
REMARK  Name = *****
REMARK                            x       y       z     vdW  Elec       q    Type
REMARK                         _______ _______ _______ _____ _____    ______ ____
ROOT
ATOM      1  C   LIG    1       22.931 -33.573  10.696  0.00  0.00    +0.087 C 
ATOM      2  C   LIG    1       23.654 -32.583   9.759  0.00  0.00    +0.169 C 
ATOM      3  C   LIG    1       23.732 -31.198  10.443  0.00  0.00    +0.175 C 
ATOM      4  C   LIG    1       24.025 -31.106  11.969  0.00  0.00    +0.170 C 
ATOM      5  C   LIG    1       24.393 -32.523  12.595  0.00  0.00    +0.084 C 
ATOM      6  C   LIG    1       23.813 -33.800  11.925  0.00  0.00    +0.042 C 
ENDROOT
BRANCH   5   7
ATOM      7  N   LIG    1       24.144 -32.626  14.048  0.00  0.00    -0.325 NA
ATOM      8  H   LIG    1       24.854 -32.090  14.546  0.00  0.00    +0.118 HD
ATOM      9  H   LIG    1       24.279 -33.598  14.336  0.00  0.00    +0.118 HD
ENDBRANCH   5   7
BRANCH   1  10
ATOM     10  N   LIG    1       21.594 -33.121  11.178  0.00  0.00    -0.311 NA
ATOM     11  H   LIG    1       21.646 -32.174  11.562  0.00  0.00    +0.122 HD
BRANCH  10  13
ATOM     12  C   LIG    1       19.344 -32.286  10.617  0.00  0.00    +0.020 C 
ATOM     13  C   LIG    1       20.504 -33.190  10.205  0.00  0.00    +0.078 C 
ENDBRANCH  10  13
ENDBRANCH   1  10
BRANCH   3  14
ATOM     14  O   LIG    1       22.536 -30.396  10.283  0.00  0.00    -0.387 OA
ATOM     15  H   LIG    1       22.738 -29.622   9.736  0.00  0.00    +0.210 HD
ENDBRANCH   3  14
BRANCH   2  16
ATOM     16  O   LIG    1       24.841 -33.005   9.002  0.00  0.00    -0.341 OA
BRANCH  16  17
ATOM     17  C   LIG    1       25.031 -32.985   7.558  0.00  0.00    +0.284 C 
ATOM     18  C   LIG    1       25.957 -31.848   6.964  0.00  0.00    +0.131 C 
ATOM     19  C   LIG    1       26.847 -32.327   5.791  0.00  0.00    +0.048 C 
ATOM     20  C   LIG    1       25.220 -30.485   6.559  0.00  0.00    +0.121 C 
ATOM     21  C   LIG    1       23.751 -30.673   6.361  0.00  0.00    +0.160 C 
ATOM     22  C   LIG    1       23.536 -32.076   5.869  0.00  0.00    +0.196 C 
ATOM     23  O   LIG    1       23.732 -33.011   6.929  0.00  0.00    -0.346 OA
BRANCH  20  24
ATOM     24  N   LIG    1       25.354 -29.361   7.486  0.00  0.00    -0.311 NA
ATOM     25  H   LIG    1       26.279 -29.630   7.762  0.00  0.00    +0.122 HD
ATOM     26  C   LIG    1       25.557 -27.961   7.137  0.00  0.00    +0.101 C 
ENDBRANCH  20  24
BRANCH  18  27
ATOM     27  O   LIG    1       26.911 -31.601   7.941  0.00  0.00    -0.382 OA
ATOM     28  H   LIG    1       26.597 -31.529   8.861  0.00  0.00    +0.210 HD
ENDBRANCH  18  27
BRANCH  21  29
ATOM     29  O   LIG    1       23.325 -29.702   5.410  0.00  0.00    -0.388 OA
ATOM     30  H   LIG    1       23.662 -28.860   5.761  0.00  0.00    +0.210 HD
ENDBRANCH  21  29
ENDBRANCH  16  17
ENDBRANCH   2  16
BRANCH   4  31
ATOM     31  O   LIG    1       25.108 -30.148  12.259  0.00  0.00    -0.333 OA
BRANCH  31  32
ATOM     32  C   LIG    1       25.369 -28.973  11.445  0.00  0.00    +0.324 C 
ATOM     33  C   LIG    1       26.784 -28.685  10.727  0.00  0.00    +0.124 C 
ATOM     34  C   LIG    1       27.776 -28.564  11.813  0.00  0.00    +0.055 C 
ATOM     35  C   LIG    1       27.341 -27.718  12.954  0.00  0.00    +0.017 C 
ATOM     36  C   LIG    1       26.121 -27.355  13.163  0.00  0.00    +0.111 C 
ATOM     37  O   LIG    1       25.066 -27.802  12.345  0.00  0.00    -0.465 OA
BRANCH  33  38
ATOM     38  N   LIG    1       27.509 -29.544   9.751  0.00  0.00    -0.322 NA
ATOM     39  H   LIG    1       27.544 -29.065   8.849  0.00  0.00    +0.119 HD
ATOM     40  H   LIG    1       26.954 -30.391   9.541  0.00  0.00    +0.119 HD
ENDBRANCH  33  38
BRANCH  36  41
ATOM     41  C   LIG    1       25.848 -26.263  14.205  0.00  0.00    +0.152 C 
BRANCH  41  42
ATOM     42  N   LIG    1       26.060 -24.906  13.643  0.00  0.00    -0.324 NA
ATOM     43  H   LIG    1       26.319 -24.258  14.388  0.00  0.00    +0.119 HD
ATOM     44  H   LIG    1       26.875 -24.955  13.026  0.00  0.00    +0.119 HD
ENDBRANCH  41  42
ENDBRANCH  36  41
ENDBRANCH  31  32
ENDBRANCH   4  31
TORSDOF 14
ENDMDL
MODEL 7
REMARK VINA RESULT:      -5.3      3.094      7.599
REMARK  Name = *****
REMARK                            x       y       z     vdW  Elec       q    Type
REMARK                         _______ _______ _______ _____ _____    ______ ____
ROOT
ATOM      1  C   LIG    1       21.434 -32.707  10.483  0.00  0.00    +0.087 C 
ATOM      2  C   LIG    1       21.714 -31.247  10.068  0.00  0.00    +0.169 C 
ATOM      3  C   LIG    1       21.456 -30.316  11.275  0.00  0.00    +0.175 C 
ATOM      4  C   LIG    1       21.885 -30.764  12.702  0.00  0.00    +0.170 C 
ATOM      5  C   LIG    1       22.730 -32.114  12.677  0.00  0.00    +0.084 C 
ATOM      6  C   LIG    1       22.481 -33.119  11.518  0.00  0.00    +0.042 C 
ENDROOT
BRANCH   5   7
ATOM      7  N   LIG    1       22.695 -32.872  13.945  0.00  0.00    -0.325 NA
ATOM      8  H   LIG    1       21.777 -32.761  14.374  0.00  0.00    +0.118 HD
ATOM      9  H   LIG    1       23.358 -32.449  14.599  0.00  0.00    +0.118 HD
ENDBRANCH   5   7
BRANCH   1  10
ATOM     10  N   LIG    1       20.090 -32.943  11.082  0.00  0.00    -0.311 NA
ATOM     11  H   LIG    1       19.751 -32.104  11.560  0.00  0.00    +0.122 HD
BRANCH  10  13
ATOM     12  C   LIG    1       18.050 -32.331   9.842  0.00  0.00    +0.020 C 
ATOM     13  C   LIG    1       19.056 -33.432  10.170  0.00  0.00    +0.078 C 
ENDBRANCH  10  13
ENDBRANCH   1  10
BRANCH   3  14
ATOM     14  O   LIG    1       20.065 -29.946  11.444  0.00  0.00    -0.387 OA
ATOM     15  H   LIG    1       19.563 -30.716  11.752  0.00  0.00    +0.210 HD
ENDBRANCH   3  14
BRANCH   2  16
ATOM     16  O   LIG    1       22.875 -30.921   9.228  0.00  0.00    -0.341 OA
BRANCH  16  17
ATOM     17  C   LIG    1       23.795 -31.846   8.579  0.00  0.00    +0.284 C 
ATOM     18  C   LIG    1       25.268 -31.333   8.309  0.00  0.00    +0.131 C 
ATOM     19  C   LIG    1       26.349 -32.419   8.532  0.00  0.00    +0.048 C 
ATOM     20  C   LIG    1       25.510 -30.612   6.899  0.00  0.00    +0.121 C 
ATOM     21  C   LIG    1       24.458 -30.959   5.897  0.00  0.00    +0.160 C 
ATOM     22  C   LIG    1       23.977 -32.349   6.207  0.00  0.00    +0.196 C 
ATOM     23  O   LIG    1       23.165 -32.345   7.380  0.00  0.00    -0.346 OA
BRANCH  20  24
ATOM     24  N   LIG    1       25.582 -29.150   6.909  0.00  0.00    -0.311 NA
ATOM     25  H   LIG    1       26.147 -29.120   6.082  0.00  0.00    +0.122 HD
ATOM     26  C   LIG    1       24.514 -28.222   6.558  0.00  0.00    +0.101 C 
ENDBRANCH  20  24
BRANCH  18  27
ATOM     27  O   LIG    1       25.550 -30.456   9.347  0.00  0.00    -0.382 OA
ATOM     28  H   LIG    1       24.882 -29.774   9.546  0.00  0.00    +0.210 HD
ENDBRANCH  18  27
BRANCH  21  29
ATOM     29  O   LIG    1       25.058 -30.876   4.608  0.00  0.00    -0.388 OA
ATOM     30  H   LIG    1       24.861 -29.971   4.311  0.00  0.00    +0.210 HD
ENDBRANCH  21  29
ENDBRANCH  16  17
ENDBRANCH   2  16
BRANCH   4  31
ATOM     31  O   LIG    1       22.660 -29.717  13.392  0.00  0.00    -0.333 OA
BRANCH  31  32
ATOM     32  C   LIG    1       22.094 -28.855  14.417  0.00  0.00    +0.324 C 
ATOM     33  C   LIG    1       20.891 -27.816  14.141  0.00  0.00    +0.124 C 
ATOM     34  C   LIG    1       21.401 -26.856  13.143  0.00  0.00    +0.055 C 
ATOM     35  C   LIG    1       22.768 -26.346  13.422  0.00  0.00    +0.017 C 
ATOM     36  C   LIG    1       23.585 -26.883  14.264  0.00  0.00    +0.111 C 
ATOM     37  O   LIG    1       23.263 -28.068  14.952  0.00  0.00    -0.465 OA
BRANCH  33  38
ATOM     38  N   LIG    1       19.531 -28.108  13.610  0.00  0.00    -0.322 NA
ATOM     39  H   LIG    1       19.586 -28.210  12.595  0.00  0.00    +0.119 HD
ATOM     40  H   LIG    1       18.919 -27.282  13.726  0.00  0.00    +0.119 HD
ENDBRANCH  33  38
BRANCH  36  41
ATOM     41  C   LIG    1       24.845 -26.106  14.662  0.00  0.00    +0.152 C 
BRANCH  41  42
ATOM     42  N   LIG    1       25.394 -25.332  13.521  0.00  0.00    -0.324 NA
ATOM     43  H   LIG    1       26.237 -24.835  13.811  0.00  0.00    +0.119 HD
ATOM     44  H   LIG    1       25.701 -26.005  12.815  0.00  0.00    +0.119 HD
ENDBRANCH  41  42
ENDBRANCH  36  41
ENDBRANCH  31  32
ENDBRANCH   4  31
TORSDOF 14
ENDMDL
MODEL 8
REMARK VINA RESULT:      -5.2      5.177      9.314
REMARK  Name = *****
REMARK                            x       y       z     vdW  Elec       q    Type
REMARK                         _______ _______ _______ _____ _____    ______ ____
ROOT
ATOM      1  C   LIG    1       23.632 -22.180   6.475  0.00  0.00    +0.087 C 
ATOM      2  C   LIG    1       24.691 -22.536   5.410  0.00  0.00    +0.169 C 
ATOM      3  C   LIG    1       25.743 -21.405   5.341  0.00  0.00    +0.175 C 
ATOM      4  C   LIG    1       26.228 -20.720   6.651  0.00  0.00    +0.170 C 
ATOM      5  C   LIG    1       25.664 -21.446   7.951  0.00  0.00    +0.084 C 
ATOM      6  C   LIG    1       24.309 -22.199   7.847  0.00  0.00    +0.042 C 
ENDROOT
BRANCH   5   7
ATOM      7  N   LIG    1       25.608 -20.583   9.150  0.00  0.00    -0.325 NA
ATOM      8  H   LIG    1       25.008 -19.782   8.956  0.00  0.00    +0.118 HD
ATOM      9  H   LIG    1       26.539 -20.196   9.319  0.00  0.00    +0.118 HD
ENDBRANCH   5   7
BRANCH   1  10
ATOM     10  N   LIG    1       22.994 -20.843   6.306  0.00  0.00    -0.311 NA
ATOM     11  H   LIG    1       23.686 -20.095   6.394  0.00  0.00    +0.122 HD
BRANCH  10  13
ATOM     12  C   LIG    1       22.191 -19.176   4.678  0.00  0.00    +0.020 C 
ATOM     13  C   LIG    1       22.224 -20.650   5.077  0.00  0.00    +0.078 C 
ENDBRANCH  10  13
ENDBRANCH   1  10
BRANCH   3  14
ATOM     14  O   LIG    1       25.351 -20.289   4.504  0.00  0.00    -0.387 OA
ATOM     15  H   LIG    1       25.588 -20.478   3.584  0.00  0.00    +0.210 HD
ENDBRANCH   3  14
BRANCH   2  16
ATOM     16  O   LIG    1       25.199 -23.909   5.295  0.00  0.00    -0.341 OA
BRANCH  16  17
ATOM     17  C   LIG    1       24.969 -25.025   6.203  0.00  0.00    +0.284 C 
ATOM     18  C   LIG    1       26.162 -26.043   6.418  0.00  0.00    +0.131 C 
ATOM     19  C   LIG    1       26.289 -26.543   7.878  0.00  0.00    +0.048 C 
ATOM     20  C   LIG    1       26.208 -27.290   5.414  0.00  0.00    +0.121 C 
ATOM     21  C   LIG    1       24.885 -27.546   4.768  0.00  0.00    +0.160 C 
ATOM     22  C   LIG    1       23.818 -27.115   5.734  0.00  0.00    +0.196 C 
ATOM     23  O   LIG    1       23.752 -25.692   5.802  0.00  0.00    -0.346 OA
BRANCH  20  24
ATOM     24  N   LIG    1       27.177 -27.222   4.320  0.00  0.00    -0.311 NA
ATOM     25  H   LIG    1       27.073 -26.231   4.219  0.00  0.00    +0.122 HD
ATOM     26  C   LIG    1       28.625 -27.348   4.428  0.00  0.00    +0.101 C 
ENDBRANCH  20  24
BRANCH  18  27
ATOM     27  O   LIG    1       27.319 -25.287   6.291  0.00  0.00    -0.382 OA
ATOM     28  H   LIG    1       27.621 -25.086   5.386  0.00  0.00    +0.210 HD
ENDBRANCH  18  27
BRANCH  21  29
ATOM     29  O   LIG    1       24.817 -28.939   4.482  0.00  0.00    -0.388 OA
ATOM     30  H   LIG    1       24.745 -28.981   3.513  0.00  0.00    +0.210 HD
ENDBRANCH  21  29
ENDBRANCH  16  17
ENDBRANCH   2  16
BRANCH   4  31
ATOM     31  O   LIG    1       27.700 -20.662   6.724  0.00  0.00    -0.333 OA
BRANCH  31  32
ATOM     32  C   LIG    1       28.420 -19.608   7.418  0.00  0.00    +0.324 C 
ATOM     33  C   LIG    1       29.516 -18.662   6.706  0.00  0.00    +0.124 C 
ATOM     34  C   LIG    1       30.597 -19.560   6.251  0.00  0.00    +0.055 C 
ATOM     35  C   LIG    1       31.028 -20.563   7.258  0.00  0.00    +0.017 C 
ATOM     36  C   LIG    1       30.357 -20.861   8.319  0.00  0.00    +0.111 C 
ATOM     37  O   LIG    1       29.094 -20.295   8.577  0.00  0.00    -0.465 OA
BRANCH  33  38
ATOM     38  N   LIG    1       29.336 -17.783   5.519  0.00  0.00    -0.322 NA
ATOM     39  H   LIG    1       28.734 -16.998   5.774  0.00  0.00    +0.119 HD
ATOM     40  H   LIG    1       28.783 -18.272   4.794  0.00  0.00    +0.119 HD
ENDBRANCH  33  38
BRANCH  36  41
ATOM     41  C   LIG    1       31.038 -21.698   9.408  0.00  0.00    +0.152 C 
BRANCH  41  42
ATOM     42  N   LIG    1       31.982 -22.686   8.829  0.00  0.00    -0.324 NA
ATOM     43  H   LIG    1       32.573 -23.075   9.564  0.00  0.00    +0.119 HD
ATOM     44  H   LIG    1       31.427 -23.470   8.479  0.00  0.00    +0.119 HD
ENDBRANCH  41  42
ENDBRANCH  36  41
ENDBRANCH  31  32
ENDBRANCH   4  31
TORSDOF 14
ENDMDL
MODEL 9
REMARK VINA RESULT:      -5.0      2.556      7.838
REMARK  Name = *****
REMARK                            x       y       z     vdW  Elec       q    Type
REMARK                         _______ _______ _______ _____ _____    ______ ____
ROOT
ATOM      1  C   LIG    1       26.669 -27.505  13.269  0.00  0.00    +0.087 C 
ATOM      2  C   LIG    1       25.846 -28.751  12.880  0.00  0.00    +0.169 C 
ATOM      3  C   LIG    1       24.814 -29.049  13.993  0.00  0.00    +0.175 C 
ATOM      4  C   LIG    1       24.072 -27.873  14.692  0.00  0.00    +0.170 C 
ATOM      5  C   LIG    1       24.377 -26.474  13.996  0.00  0.00    +0.084 C 
ATOM      6  C   LIG    1       25.735 -26.294  13.262  0.00  0.00    +0.042 C 
ENDROOT
BRANCH   5   7
ATOM      7  N   LIG    1       24.185 -25.304  14.879  0.00  0.00    -0.325 NA
ATOM      8  H   LIG    1       24.462 -25.554  15.827  0.00  0.00    +0.118 HD
ATOM      9  H   LIG    1       23.185 -25.093  14.931  0.00  0.00    +0.118 HD
ENDBRANCH   5   7
BRANCH   1  10
ATOM     10  N   LIG    1       27.312 -27.571  14.612  0.00  0.00    -0.311 NA
ATOM     11  H   LIG    1       28.117 -28.201  14.601  0.00  0.00    +0.122 HD
BRANCH  10  13
ATOM     12  C   LIG    1       29.217 -26.230  15.417  0.00  0.00    +0.020 C 
ATOM     13  C   LIG    1       27.707 -26.289  15.198  0.00  0.00    +0.078 C 
ENDBRANCH  10  13
ENDBRANCH   1  10
BRANCH   3  14
ATOM     14  O   LIG    1       25.351 -29.813  15.102  0.00  0.00    -0.387 OA
ATOM     15  H   LIG    1       25.196 -29.332  15.929  0.00  0.00    +0.210 HD
ENDBRANCH   3  14
BRANCH   2  16
ATOM     16  O   LIG    1       25.386 -28.939  11.497  0.00  0.00    -0.341 OA
BRANCH  16  17
ATOM     17  C   LIG    1       25.454 -30.151  10.691  0.00  0.00    +0.284 C 
ATOM     18  C   LIG    1       26.334 -30.099   9.376  0.00  0.00    +0.131 C 
ATOM     19  C   LIG    1       27.118 -31.406   9.108  0.00  0.00    +0.048 C 
ATOM     20  C   LIG    1       25.573 -29.642   8.043  0.00  0.00    +0.121 C 
ATOM     21  C   LIG    1       24.092 -29.801   8.153  0.00  0.00    +0.160 C 
ATOM     22  C   LIG    1       23.828 -30.959   9.074  0.00  0.00    +0.196 C 
ATOM     23  O   LIG    1       24.106 -30.594  10.425  0.00  0.00    -0.346 OA
BRANCH  20  24
ATOM     24  N   LIG    1       25.792 -28.266   7.596  0.00  0.00    -0.311 NA
ATOM     25  H   LIG    1       26.775 -28.410   7.464  0.00  0.00    +0.122 HD
ATOM     26  C   LIG    1       25.413 -27.696   6.309  0.00  0.00    +0.101 C 
ENDBRANCH  20  24
BRANCH  18  27
ATOM     27  O   LIG    1       27.369 -29.218   9.660  0.00  0.00    -0.382 OA
ATOM     28  H   LIG    1       28.058 -29.109   8.979  0.00  0.00    +0.210 HD
ENDBRANCH  18  27
BRANCH  21  29
ATOM     29  O   LIG    1       23.593 -30.038   6.841  0.00  0.00    -0.388 OA
ATOM     30  H   LIG    1       24.387 -30.033   6.279  0.00  0.00    +0.210 HD
ENDBRANCH  21  29
ENDBRANCH  16  17
ENDBRANCH   2  16
BRANCH   4  31
ATOM     31  O   LIG    1       22.615 -28.093  14.728  0.00  0.00    -0.333 OA
BRANCH  31  32
ATOM     32  C   LIG    1       21.694 -27.474  13.790  0.00  0.00    +0.324 C 
ATOM     33  C   LIG    1       20.164 -27.114  14.151  0.00  0.00    +0.124 C 
ATOM     34  C   LIG    1       19.505 -28.398  14.464  0.00  0.00    +0.055 C 
ATOM     35  C   LIG    1       19.800 -29.492  13.504  0.00  0.00    +0.017 C 
ATOM     36  C   LIG    1       20.763 -29.463  12.645  0.00  0.00    +0.111 C 
ATOM     37  O   LIG    1       21.678 -28.394  12.597  0.00  0.00    -0.465 OA
BRANCH  33  38
ATOM     38  N   LIG    1       19.660 -26.242  15.247  0.00  0.00    -0.322 NA
ATOM     39  H   LIG    1       20.427 -26.046  15.894  0.00  0.00    +0.119 HD
ATOM     40  H   LIG    1       18.989 -26.763  15.837  0.00  0.00    +0.119 HD
ENDBRANCH  33  38
BRANCH  36  41
ATOM     41  C   LIG    1       20.788 -30.520  11.535  0.00  0.00    +0.152 C 
BRANCH  41  42
ATOM     42  N   LIG    1       19.656 -30.349  10.591  0.00  0.00    -0.324 NA
ATOM     43  H   LIG    1       19.738 -29.454  10.107  0.00  0.00    +0.119 HD
ATOM     44  H   LIG    1       19.753 -31.063   9.865  0.00  0.00    +0.119 HD
ENDBRANCH  41  42
ENDBRANCH  36  41
ENDBRANCH  31  32
ENDBRANCH   4  31
TORSDOF 14
ENDMDL
