MODEL 1
REMARK VINA RESULT:      -9.0      0.000      0.000
REMARK  Name = *****
REMARK                            x       y       z     vdW  Elec       q    Type
REMARK                         _______ _______ _______ _____ _____    ______ ____
ROOT
ATOM      1  C   LIG    1       26.030 -29.059   8.774  0.00  0.00    +0.338 C 
ATOM      2  O   LIG    1       26.988 -28.584   9.362  0.00  0.00    -0.245 OA
ENDROOT
BRANCH   1   5
ATOM      3  C   LIG    1       23.258 -31.313  10.244  0.00  0.00    +0.065 C 
ATOM      4  C   LIG    1       24.211 -30.120  10.187  0.00  0.00    +0.096 C 
ATOM      5  C   LIG    1       25.371 -30.330   9.197  0.00  0.00    +0.065 C 
ATOM      6  C   LIG    1       25.631 -31.569   8.709  0.00  0.00    +0.016 C 
ATOM      7  C   LIG    1       26.730 -31.914   7.735  0.00  0.00    +0.061 C 
ATOM      8  N   LIG    1       24.808 -32.633   9.051  0.00  0.00    -0.321 N 
ATOM      9  H   LIG    1       24.992 -33.527   8.601  0.00  0.00    +0.152 HD
ATOM     10  C   LIG    1       23.579 -32.498   9.678  0.00  0.00    +0.016 C 
ATOM     11  C   LIG    1       22.708 -33.729   9.639  0.00  0.00    +0.061 C 
BRANCH   4  12
ATOM     12  C   LIG    1       24.733 -29.741  11.590  0.00  0.00    -0.029 A 
ATOM     13  C   LIG    1       25.811 -30.415  12.194  0.00  0.00    +0.088 A 
ATOM     14  C   LIG    1       26.245 -30.047  13.480  0.00  0.00    +0.273 A 
ATOM     15  C   LIG    1       25.642 -28.984  14.164  0.00  0.00    +0.084 A 
ATOM     16  C   LIG    1       24.587 -28.301  13.565  0.00  0.00    +0.007 A 
ATOM     17  C   LIG    1       24.131 -28.685  12.300  0.00  0.00    +0.005 A 
BRANCH  14  18
ATOM     18  N   LIG    1       27.330 -30.795  14.125  0.00  0.00    +0.080 N 
ATOM     19  O   LIG    1       28.367 -30.180  14.410  0.00  0.00    -0.576 OA
ATOM     20  O   LIG    1       27.151 -32.004  14.339  0.00  0.00    +0.041 OA
ENDBRANCH  14  18
ENDBRANCH   4  12
BRANCH   3  21
ATOM     21  C   LIG    1       22.022 -31.050  11.027  0.00  0.00    +0.337 C 
ATOM     22  O   LIG    1       21.844 -31.391  12.172  0.00  0.00    -0.245 OA
BRANCH  21  24
ATOM     23  C   LIG    1       19.766 -31.095  10.470  0.00  0.00    +0.280 C 
ATOM     24  O   LIG    1       21.069 -30.649  10.129  0.00  0.00    -0.465 OA
ENDBRANCH  21  24
ENDBRANCH   3  21
ENDBRANCH   1   5
BRANCH   1  25
ATOM     25  O   LIG    1       25.413 -28.466   7.725  0.00  0.00    -0.460 OA
BRANCH  25  26
ATOM     26  C   LIG    1       25.982 -27.221   7.268  0.00  0.00    +0.247 C 
BRANCH  26  27
ATOM     27  C   LIG    1       24.936 -26.393   6.499  0.00  0.00    +0.125 C 
BRANCH  27  28
ATOM     28  N   LIG    1       25.512 -25.368   5.607  0.00  0.00    -0.297 NA
ATOM     29  C   LIG    1       24.484 -24.464   5.044  0.00  0.00    +0.100 C 
ATOM     30  C   LIG    1       23.897 -23.418   6.037  0.00  0.00    +0.100 C 
ATOM     31  N   LIG    1       24.896 -22.609   6.787  0.00  0.00    -0.289 NA
ATOM     32  C   LIG    1       25.872 -23.571   7.358  0.00  0.00    +0.100 C 
ATOM     33  C   LIG    1       26.500 -24.550   6.344  0.00  0.00    +0.100 C 
BRANCH  31  34
ATOM     34  C   LIG    1       25.533 -21.555   5.929  0.00  0.00    +0.117 C 
BRANCH  34  35
ATOM     35  C   LIG    1       26.721 -20.807   6.586  0.00  0.00    -0.026 A 
ATOM     36  C   LIG    1       26.837 -20.600   7.974  0.00  0.00    +0.005 A 
ATOM     37  C   LIG    1       27.989 -20.027   8.531  0.00  0.00    +0.000 A 
ATOM     38  C   LIG    1       29.032 -19.609   7.710  0.00  0.00    +0.000 A 
ATOM     39  C   LIG    1       28.925 -19.768   6.332  0.00  0.00    +0.000 A 
ATOM     40  C   LIG    1       27.782 -20.356   5.774  0.00  0.00    +0.005 A 
ENDBRANCH  34  35
BRANCH  34  41
ATOM     41  C   LIG    1       24.492 -20.579   5.339  0.00  0.00    -0.026 A 
ATOM     42  C   LIG    1       24.726 -19.978   4.085  0.00  0.00    +0.005 A 
ATOM     43  C   LIG    1       23.794 -19.106   3.512  0.00  0.00    +0.000 A 
ATOM     44  C   LIG    1       22.618 -18.799   4.189  0.00  0.00    +0.000 A 
ATOM     45  C   LIG    1       22.356 -19.400   5.419  0.00  0.00    +0.000 A 
ATOM     46  C   LIG    1       23.274 -20.299   5.981  0.00  0.00    +0.005 A 
ENDBRANCH  34  41
ENDBRANCH  31  34
ENDBRANCH  27  28
ENDBRANCH  26  27
ENDBRANCH  25  26
ENDBRANCH   1  25
TORSDOF 12
ENDMDL
MODEL 2
REMARK VINA RESULT:      -9.0      1.386      1.649
REMARK  Name = *****
REMARK                            x       y       z     vdW  Elec       q    Type
REMARK                         _______ _______ _______ _____ _____    ______ ____
ROOT
ATOM      1  C   LIG    1       25.865 -29.075   8.708  0.00  0.00    +0.338 C 
ATOM      2  O   LIG    1       26.817 -28.571   9.282  0.00  0.00    -0.245 OA
ENDROOT
BRANCH   1   5
ATOM      3  C   LIG    1       23.135 -31.355  10.218  0.00  0.00    +0.065 C 
ATOM      4  C   LIG    1       24.062 -30.142  10.137  0.00  0.00    +0.096 C 
ATOM      5  C   LIG    1       25.232 -30.350   9.158  0.00  0.00    +0.065 C 
ATOM      6  C   LIG    1       25.522 -31.594   8.700  0.00  0.00    +0.016 C 
ATOM      7  C   LIG    1       26.634 -31.937   7.740  0.00  0.00    +0.061 C 
ATOM      8  N   LIG    1       24.721 -32.667   9.063  0.00  0.00    -0.321 N 
ATOM      9  H   LIG    1       24.927 -33.567   8.636  0.00  0.00    +0.152 HD
ATOM     10  C   LIG    1       23.486 -32.545   9.682  0.00  0.00    +0.016 C 
ATOM     11  C   LIG    1       22.642 -33.795   9.668  0.00  0.00    +0.061 C 
BRANCH   4  12
ATOM     12  C   LIG    1       24.568 -29.718  11.533  0.00  0.00    -0.029 A 
ATOM     13  C   LIG    1       24.150 -28.523  12.148  0.00  0.00    +0.088 A 
ATOM     14  C   LIG    1       24.648 -28.168  13.415  0.00  0.00    +0.273 A 
ATOM     15  C   LIG    1       25.533 -29.010  14.100  0.00  0.00    +0.084 A 
ATOM     16  C   LIG    1       25.936 -30.201  13.505  0.00  0.00    +0.007 A 
ATOM     17  C   LIG    1       25.469 -30.543  12.232  0.00  0.00    +0.005 A 
BRANCH  14  18
ATOM     18  N   LIG    1       24.253 -26.891  14.021  0.00  0.00    +0.080 N 
ATOM     19  O   LIG    1       24.928 -26.468  14.970  0.00  0.00    -0.576 OA
ATOM     20  O   LIG    1       23.259 -26.313  13.557  0.00  0.00    +0.041 OA
ENDBRANCH  14  18
ENDBRANCH   4  12
BRANCH   3  21
ATOM     21  C   LIG    1       21.890 -31.101  10.988  0.00  0.00    +0.337 C 
ATOM     22  O   LIG    1       21.702 -31.444  12.130  0.00  0.00    -0.245 OA
BRANCH  21  24
ATOM     23  C   LIG    1       19.633 -31.121  10.431  0.00  0.00    +0.280 C 
ATOM     24  O   LIG    1       20.943 -30.705  10.080  0.00  0.00    -0.465 OA
ENDBRANCH  21  24
ENDBRANCH   3  21
ENDBRANCH   1   5
BRANCH   1  25
ATOM     25  O   LIG    1       25.232 -28.514   7.650  0.00  0.00    -0.460 OA
BRANCH  25  26
ATOM     26  C   LIG    1       25.918 -27.423   6.999  0.00  0.00    +0.247 C 
BRANCH  26  27
ATOM     27  C   LIG    1       24.916 -26.357   6.521  0.00  0.00    +0.125 C 
BRANCH  27  28
ATOM     28  N   LIG    1       25.497 -25.338   5.625  0.00  0.00    -0.297 NA
ATOM     29  C   LIG    1       24.476 -24.418   5.075  0.00  0.00    +0.100 C 
ATOM     30  C   LIG    1       23.915 -23.367   6.076  0.00  0.00    +0.100 C 
ATOM     31  N   LIG    1       24.934 -22.573   6.818  0.00  0.00    -0.289 NA
ATOM     32  C   LIG    1       25.901 -23.551   7.376  0.00  0.00    +0.100 C 
ATOM     33  C   LIG    1       26.504 -24.537   6.353  0.00  0.00    +0.100 C 
BRANCH  31  34
ATOM     34  C   LIG    1       25.576 -21.527   5.955  0.00  0.00    +0.117 C 
BRANCH  34  35
ATOM     35  C   LIG    1       26.760 -20.773   6.613  0.00  0.00    -0.026 A 
ATOM     36  C   LIG    1       26.873 -20.564   8.002  0.00  0.00    +0.005 A 
ATOM     37  C   LIG    1       28.021 -19.987   8.561  0.00  0.00    +0.000 A 
ATOM     38  C   LIG    1       29.064 -19.566   7.742  0.00  0.00    +0.000 A 
ATOM     39  C   LIG    1       28.961 -19.726   6.363  0.00  0.00    +0.000 A 
ATOM     40  C   LIG    1       27.822 -20.319   5.804  0.00  0.00    +0.005 A 
ENDBRANCH  34  35
BRANCH  34  41
ATOM     41  C   LIG    1       24.540 -20.555   5.350  0.00  0.00    -0.026 A 
ATOM     42  C   LIG    1       24.786 -19.958   4.097  0.00  0.00    +0.005 A 
ATOM     43  C   LIG    1       23.858 -19.091   3.509  0.00  0.00    +0.000 A 
ATOM     44  C   LIG    1       22.675 -18.784   4.173  0.00  0.00    +0.000 A 
ATOM     45  C   LIG    1       22.400 -19.382   5.402  0.00  0.00    +0.000 A 
ATOM     46  C   LIG    1       23.314 -20.276   5.977  0.00  0.00    +0.005 A 
ENDBRANCH  34  41
ENDBRANCH  31  34
ENDBRANCH  27  28
ENDBRANCH  26  27
ENDBRANCH  25  26
ENDBRANCH   1  25
TORSDOF 12
ENDMDL
MODEL 3
REMARK VINA RESULT:      -9.0      1.716      2.233
REMARK  Name = *****
REMARK                            x       y       z     vdW  Elec       q    Type
REMARK                         _______ _______ _______ _____ _____    ______ ____
ROOT
ATOM      1  C   LIG    1       25.935 -28.889   8.816  0.00  0.00    +0.338 C 
ATOM      2  O   LIG    1       27.010 -28.357   9.043  0.00  0.00    -0.245 OA
ENDROOT
BRANCH   1   5
ATOM      3  C   LIG    1       23.689 -30.334  11.608  0.00  0.00    +0.065 C 
ATOM      4  C   LIG    1       24.676 -29.359  10.967  0.00  0.00    +0.096 C 
ATOM      5  C   LIG    1       25.347 -29.934   9.706  0.00  0.00    +0.065 C 
ATOM      6  C   LIG    1       25.265 -31.261   9.437  0.00  0.00    +0.016 C 
ATOM      7  C   LIG    1       25.870 -31.952   8.241  0.00  0.00    +0.061 C 
ATOM      8  N   LIG    1       24.518 -32.088  10.265  0.00  0.00    -0.321 N 
ATOM      9  H   LIG    1       24.419 -33.061   9.984  0.00  0.00    +0.152 HD
ATOM     10  C   LIG    1       23.640 -31.632  11.236  0.00  0.00    +0.016 C 
ATOM     11  C   LIG    1       22.687 -32.673  11.769  0.00  0.00    +0.061 C 
BRANCH   4  12
ATOM     12  C   LIG    1       25.727 -28.863  11.984  0.00  0.00    -0.029 A 
ATOM     13  C   LIG    1       25.829 -27.508  12.352  0.00  0.00    +0.088 A 
ATOM     14  C   LIG    1       26.811 -27.096  13.270  0.00  0.00    +0.273 A 
ATOM     15  C   LIG    1       27.675 -28.026  13.863  0.00  0.00    +0.084 A 
ATOM     16  C   LIG    1       27.568 -29.370  13.517  0.00  0.00    +0.007 A 
ATOM     17  C   LIG    1       26.615 -29.779  12.579  0.00  0.00    +0.005 A 
BRANCH  14  18
ATOM     18  N   LIG    1       26.949 -25.673  13.602  0.00  0.00    +0.080 N 
ATOM     19  O   LIG    1       26.182 -24.873  13.046  0.00  0.00    -0.576 OA
ATOM     20  O   LIG    1       27.832 -25.350  14.409  0.00  0.00    +0.041 OA
ENDBRANCH  14  18
ENDBRANCH   4  12
BRANCH   3  21
ATOM     21  C   LIG    1       22.877 -29.728  12.695  0.00  0.00    +0.337 C 
ATOM     22  O   LIG    1       23.069 -29.894  13.876  0.00  0.00    -0.245 OA
BRANCH  21  24
ATOM     23  C   LIG    1       21.203 -28.117  12.796  0.00  0.00    +0.280 C 
ATOM     24  O   LIG    1       21.743 -29.233  12.107  0.00  0.00    -0.465 OA
ENDBRANCH  21  24
ENDBRANCH   3  21
ENDBRANCH   1   5
BRANCH   1  25
ATOM     25  O   LIG    1       25.124 -28.553   7.785  0.00  0.00    -0.460 OA
BRANCH  25  26
ATOM     26  C   LIG    1       25.702 -27.713   6.764  0.00  0.00    +0.247 C 
BRANCH  26  27
ATOM     27  C   LIG    1       24.877 -26.426   6.585  0.00  0.00    +0.125 C 
BRANCH  27  28
ATOM     28  N   LIG    1       25.502 -25.423   5.701  0.00  0.00    -0.297 NA
ATOM     29  C   LIG    1       24.507 -24.539   5.054  0.00  0.00    +0.100 C 
ATOM     30  C   LIG    1       23.861 -23.468   5.982  0.00  0.00    +0.100 C 
ATOM     31  N   LIG    1       24.814 -22.635   6.767  0.00  0.00    -0.289 NA
ATOM     32  C   LIG    1       25.756 -23.579   7.420  0.00  0.00    +0.100 C 
ATOM     33  C   LIG    1       26.444 -24.583   6.472  0.00  0.00    +0.100 C 
BRANCH  31  34
ATOM     34  C   LIG    1       25.497 -21.603   5.920  0.00  0.00    +0.117 C 
BRANCH  34  35
ATOM     35  C   LIG    1       26.676 -20.868   6.608  0.00  0.00    -0.026 A 
ATOM     36  C   LIG    1       26.747 -20.642   7.996  0.00  0.00    +0.005 A 
ATOM     37  C   LIG    1       27.888 -20.084   8.587  0.00  0.00    +0.000 A 
ATOM     38  C   LIG    1       28.969 -19.698   7.798  0.00  0.00    +0.000 A 
ATOM     39  C   LIG    1       28.908 -19.875   6.419  0.00  0.00    +0.000 A 
ATOM     40  C   LIG    1       27.775 -20.450   5.829  0.00  0.00    +0.005 A 
ENDBRANCH  34  35
BRANCH  34  41
ATOM     41  C   LIG    1       24.495 -20.616   5.283  0.00  0.00    -0.026 A 
ATOM     42  C   LIG    1       23.305 -20.287   5.965  0.00  0.00    +0.005 A 
ATOM     43  C   LIG    1       22.387 -19.379   5.427  0.00  0.00    +0.000 A 
ATOM     44  C   LIG    1       22.626 -18.798   4.186  0.00  0.00    +0.000 A 
ATOM     45  C   LIG    1       23.807 -19.091   3.506  0.00  0.00    +0.000 A 
ATOM     46  C   LIG    1       24.745 -19.975   4.058  0.00  0.00    +0.005 A 
ENDBRANCH  34  41
ENDBRANCH  31  34
ENDBRANCH  27  28
ENDBRANCH  26  27
ENDBRANCH  25  26
ENDBRANCH   1  25
TORSDOF 12
ENDMDL
MODEL 4
REMARK VINA RESULT:      -8.7      1.694      2.211
REMARK  Name = *****
REMARK                            x       y       z     vdW  Elec       q    Type
REMARK                         _______ _______ _______ _____ _____    ______ ____
ROOT
ATOM      1  C   LIG    1       24.676 -29.875   6.348  0.00  0.00    +0.338 C 
ATOM      2  O   LIG    1       25.581 -30.009   5.541  0.00  0.00    -0.245 OA
ENDROOT
BRANCH   1   5
ATOM      3  C   LIG    1       22.928 -31.514   9.380  0.00  0.00    +0.065 C 
ATOM      4  C   LIG    1       23.825 -30.514   8.651  0.00  0.00    +0.096 C 
ATOM      5  C   LIG    1       24.215 -30.983   7.237  0.00  0.00    +0.065 C 
ATOM      6  C   LIG    1       24.016 -32.274   6.871  0.00  0.00    +0.016 C 
ATOM      7  C   LIG    1       24.349 -32.864   5.523  0.00  0.00    +0.061 C 
ATOM      8  N   LIG    1       23.399 -33.154   7.749  0.00  0.00    -0.321 N 
ATOM      9  H   LIG    1       23.200 -34.091   7.406  0.00  0.00    +0.152 HD
ATOM     10  C   LIG    1       22.745 -32.767   8.908  0.00  0.00    +0.016 C 
ATOM     11  C   LIG    1       21.859 -33.825   9.519  0.00  0.00    +0.061 C 
BRANCH   4  12
ATOM     12  C   LIG    1       25.072 -30.153   9.486  0.00  0.00    -0.029 A 
ATOM     13  C   LIG    1       25.035 -29.181  10.503  0.00  0.00    +0.088 A 
ATOM     14  C   LIG    1       26.200 -28.872  11.229  0.00  0.00    +0.273 A 
ATOM     15  C   LIG    1       27.400 -29.549  10.983  0.00  0.00    +0.084 A 
ATOM     16  C   LIG    1       27.439 -30.525   9.990  0.00  0.00    +0.007 A 
ATOM     17  C   LIG    1       26.292 -30.812   9.243  0.00  0.00    +0.005 A 
BRANCH  14  18
ATOM     18  N   LIG    1       26.166 -27.815  12.246  0.00  0.00    +0.080 N 
ATOM     19  O   LIG    1       27.075 -26.972  12.236  0.00  0.00    -0.576 OA
ATOM     20  O   LIG    1       25.235 -27.830  13.065  0.00  0.00    +0.041 OA
ENDBRANCH  14  18
ENDBRANCH   4  12
BRANCH   3  21
ATOM     21  C   LIG    1       22.368 -30.992  10.653  0.00  0.00    +0.337 C 
ATOM     22  O   LIG    1       21.679 -30.005  10.751  0.00  0.00    -0.245 OA
BRANCH  21  24
ATOM     23  C   LIG    1       22.192 -31.911  12.781  0.00  0.00    +0.280 C 
ATOM     24  O   LIG    1       23.025 -31.642  11.665  0.00  0.00    -0.465 OA
ENDBRANCH  21  24
ENDBRANCH   3  21
ENDBRANCH   1   5
BRANCH   1  25
ATOM     25  O   LIG    1       24.034 -28.706   6.583  0.00  0.00    -0.460 OA
BRANCH  25  26
ATOM     26  C   LIG    1       24.375 -27.603   5.716  0.00  0.00    +0.247 C 
BRANCH  26  27
ATOM     27  C   LIG    1       25.111 -26.501   6.500  0.00  0.00    +0.125 C 
BRANCH  27  28
ATOM     28  N   LIG    1       25.714 -25.455   5.651  0.00  0.00    -0.297 NA
ATOM     29  C   LIG    1       24.697 -24.608   4.987  0.00  0.00    +0.100 C 
ATOM     30  C   LIG    1       23.971 -23.586   5.911  0.00  0.00    +0.100 C 
ATOM     31  N   LIG    1       24.858 -22.722   6.739  0.00  0.00    -0.289 NA
ATOM     32  C   LIG    1       25.824 -23.630   7.406  0.00  0.00    +0.100 C 
ATOM     33  C   LIG    1       26.589 -24.583   6.464  0.00  0.00    +0.100 C 
BRANCH  31  34
ATOM     34  C   LIG    1       25.515 -21.644   5.930  0.00  0.00    +0.117 C 
BRANCH  34  35
ATOM     35  C   LIG    1       26.679 -20.908   6.642  0.00  0.00    -0.026 A 
ATOM     36  C   LIG    1       26.621 -20.476   7.982  0.00  0.00    +0.005 A 
ATOM     37  C   LIG    1       27.741 -19.927   8.620  0.00  0.00    +0.000 A 
ATOM     38  C   LIG    1       28.933 -19.757   7.922  0.00  0.00    +0.000 A 
ATOM     39  C   LIG    1       29.005 -20.140   6.586  0.00  0.00    +0.000 A 
ATOM     40  C   LIG    1       27.891 -20.706   5.951  0.00  0.00    +0.005 A 
ENDBRANCH  34  35
BRANCH  34  41
ATOM     41  C   LIG    1       24.489 -20.656   5.332  0.00  0.00    -0.026 A 
ATOM     42  C   LIG    1       24.735 -20.063   4.077  0.00  0.00    +0.005 A 
ATOM     43  C   LIG    1       23.816 -19.181   3.497  0.00  0.00    +0.000 A 
ATOM     44  C   LIG    1       22.643 -18.856   4.170  0.00  0.00    +0.000 A 
ATOM     45  C   LIG    1       22.369 -19.449   5.401  0.00  0.00    +0.000 A 
ATOM     46  C   LIG    1       23.273 -20.358   5.969  0.00  0.00    +0.005 A 
ENDBRANCH  34  41
ENDBRANCH  31  34
ENDBRANCH  27  28
ENDBRANCH  26  27
ENDBRANCH  25  26
ENDBRANCH   1  25
TORSDOF 12
ENDMDL
MODEL 5
REMARK VINA RESULT:      -8.5      1.435      3.320
REMARK  Name = *****
REMARK                            x       y       z     vdW  Elec       q    Type
REMARK                         _______ _______ _______ _____ _____    ______ ____
ROOT
ATOM      1  C   LIG    1       25.460 -28.992   8.222  0.00  0.00    +0.338 C 
ATOM      2  O   LIG    1       26.387 -28.491   8.837  0.00  0.00    -0.245 OA
ENDROOT
BRANCH   1   5
ATOM      3  C   LIG    1       22.898 -31.381   9.852  0.00  0.00    +0.065 C 
ATOM      4  C   LIG    1       23.854 -30.191   9.776  0.00  0.00    +0.096 C 
ATOM      5  C   LIG    1       24.847 -30.299   8.605  0.00  0.00    +0.065 C 
ATOM      6  C   LIG    1       25.007 -31.480   7.956  0.00  0.00    +0.016 C 
ATOM      7  C   LIG    1       25.941 -31.722   6.795  0.00  0.00    +0.061 C 
ATOM      8  N   LIG    1       24.225 -32.571   8.305  0.00  0.00    -0.321 N 
ATOM      9  H   LIG    1       24.323 -33.413   7.742  0.00  0.00    +0.152 HD
ATOM     10  C   LIG    1       23.108 -32.500   9.123  0.00  0.00    +0.016 C 
ATOM     11  C   LIG    1       22.217 -33.717   9.088  0.00  0.00    +0.061 C 
BRANCH   4  12
ATOM     12  C   LIG    1       24.589 -29.965  11.115  0.00  0.00    -0.029 A 
ATOM     13  C   LIG    1       24.385 -28.810  11.894  0.00  0.00    +0.088 A 
ATOM     14  C   LIG    1       25.087 -28.637  13.100  0.00  0.00    +0.273 A 
ATOM     15  C   LIG    1       25.966 -29.622  13.567  0.00  0.00    +0.084 A 
ATOM     16  C   LIG    1       26.159 -30.775  12.810  0.00  0.00    +0.007 A 
ATOM     17  C   LIG    1       25.488 -30.936  11.594  0.00  0.00    +0.005 A 
BRANCH  14  18
ATOM     18  N   LIG    1       24.913 -27.402  13.874  0.00  0.00    +0.080 N 
ATOM     19  O   LIG    1       25.497 -26.384  13.477  0.00  0.00    -0.576 OA
ATOM     20  O   LIG    1       24.200 -27.451  14.888  0.00  0.00    +0.041 OA
ENDBRANCH  14  18
ENDBRANCH   4  12
BRANCH   3  21
ATOM     21  C   LIG    1       21.800 -31.199  10.836  0.00  0.00    +0.337 C 
ATOM     22  O   LIG    1       21.766 -31.702  11.934  0.00  0.00    -0.245 OA
BRANCH  21  24
ATOM     23  C   LIG    1       19.544 -31.367  10.301  0.00  0.00    +0.280 C 
ATOM     24  O   LIG    1       20.752 -30.638  10.154  0.00  0.00    -0.465 OA
ENDBRANCH  21  24
ENDBRANCH   3  21
ENDBRANCH   1   5
BRANCH   1  25
ATOM     25  O   LIG    1       24.835 -28.401   7.175  0.00  0.00    -0.460 OA
BRANCH  25  26
ATOM     26  C   LIG    1       25.435 -27.188   6.674  0.00  0.00    +0.247 C 
BRANCH  26  27
ATOM     27  C   LIG    1       24.362 -26.244   6.102  0.00  0.00    +0.125 C 
BRANCH  27  28
ATOM     28  N   LIG    1       24.157 -25.012   6.888  0.00  0.00    -0.297 NA
ATOM     29  C   LIG    1       25.430 -24.429   7.369  0.00  0.00    +0.100 C 
ATOM     30  C   LIG    1       26.292 -23.718   6.284  0.00  0.00    +0.100 C 
ATOM     31  N   LIG    1       25.579 -22.709   5.453  0.00  0.00    -0.289 NA
ATOM     32  C   LIG    1       24.337 -23.364   4.970  0.00  0.00    +0.100 C 
ATOM     33  C   LIG    1       23.459 -23.998   6.070  0.00  0.00    +0.100 C 
BRANCH  31  34
ATOM     34  C   LIG    1       25.325 -21.434   6.202  0.00  0.00    +0.117 C 
BRANCH  34  35
ATOM     35  C   LIG    1       24.428 -20.408   5.463  0.00  0.00    -0.026 A 
ATOM     36  C   LIG    1       24.801 -19.771   4.264  0.00  0.00    +0.005 A 
ATOM     37  C   LIG    1       23.906 -18.946   3.567  0.00  0.00    +0.000 A 
ATOM     38  C   LIG    1       22.634 -18.705   4.077  0.00  0.00    +0.000 A 
ATOM     39  C   LIG    1       22.255 -19.291   5.281  0.00  0.00    +0.000 A 
ATOM     40  C   LIG    1       23.141 -20.130   5.968  0.00  0.00    +0.005 A 
ENDBRANCH  34  35
BRANCH  34  41
ATOM     41  C   LIG    1       26.633 -20.791   6.715  0.00  0.00    -0.026 A 
ATOM     42  C   LIG    1       27.589 -20.316   5.795  0.00  0.00    +0.005 A 
ATOM     43  C   LIG    1       28.774 -19.708   6.226  0.00  0.00    +0.000 A 
ATOM     44  C   LIG    1       29.037 -19.583   7.586  0.00  0.00    +0.000 A 
ATOM     45  C   LIG    1       28.094 -20.024   8.513  0.00  0.00    +0.000 A 
ATOM     46  C   LIG    1       26.892 -20.604   8.083  0.00  0.00    +0.005 A 
ENDBRANCH  34  41
ENDBRANCH  31  34
ENDBRANCH  27  28
ENDBRANCH  26  27
ENDBRANCH  25  26
ENDBRANCH   1  25
TORSDOF 12
ENDMDL
MODEL 6
REMARK VINA RESULT:      -8.2      3.970     11.589
REMARK  Name = *****
REMARK                            x       y       z     vdW  Elec       q    Type
REMARK                         _______ _______ _______ _____ _____    ______ ____
ROOT
ATOM      1  C   LIG    1       25.380 -23.970   6.225  0.00  0.00    +0.338 C 
ATOM      2  O   LIG    1       25.904 -24.195   7.304  0.00  0.00    -0.245 OA
ENDROOT
BRANCH   1   5
ATOM      3  C   LIG    1       24.404 -20.628   4.549  0.00  0.00    +0.065 C 
ATOM      4  C   LIG    1       25.329 -21.640   5.225  0.00  0.00    +0.096 C 
ATOM      5  C   LIG    1       24.560 -22.750   5.964  0.00  0.00    +0.065 C 
ATOM      6  C   LIG    1       23.233 -22.607   6.213  0.00  0.00    +0.016 C 
ATOM      7  C   LIG    1       22.362 -23.614   6.922  0.00  0.00    +0.061 C 
ATOM      8  N   LIG    1       22.559 -21.490   5.740  0.00  0.00    -0.321 N 
ATOM      9  H   LIG    1       21.552 -21.461   5.882  0.00  0.00    +0.152 HD
ATOM     10  C   LIG    1       23.080 -20.597   4.818  0.00  0.00    +0.016 C 
ATOM     11  C   LIG    1       22.068 -19.672   4.188  0.00  0.00    +0.061 C 
BRANCH   4  12
ATOM     12  C   LIG    1       26.347 -20.947   6.158  0.00  0.00    -0.029 A 
ATOM     13  C   LIG    1       27.519 -20.342   5.666  0.00  0.00    +0.088 A 
ATOM     14  C   LIG    1       28.426 -19.736   6.553  0.00  0.00    +0.273 A 
ATOM     15  C   LIG    1       28.164 -19.688   7.928  0.00  0.00    +0.084 A 
ATOM     16  C   LIG    1       26.998 -20.269   8.418  0.00  0.00    +0.007 A 
ATOM     17  C   LIG    1       26.109 -20.902   7.544  0.00  0.00    +0.005 A 
BRANCH  14  18
ATOM     18  N   LIG    1       29.675 -19.160   6.038  0.00  0.00    +0.080 N 
ATOM     19  O   LIG    1       30.742 -19.677   6.398  0.00  0.00    -0.576 OA
ATOM     20  O   LIG    1       29.591 -18.182   5.280  0.00  0.00    +0.041 OA
ENDBRANCH  14  18
ENDBRANCH   4  12
BRANCH   3  21
ATOM     21  C   LIG    1       25.116 -19.676   3.658  0.00  0.00    +0.337 C 
ATOM     22  O   LIG    1       25.877 -19.993   2.776  0.00  0.00    -0.245 OA
BRANCH  21  24
ATOM     23  C   LIG    1       25.530 -17.400   3.425  0.00  0.00    +0.280 C 
ATOM     24  O   LIG    1       24.982 -18.436   4.225  0.00  0.00    -0.465 OA
ENDBRANCH  21  24
ENDBRANCH   3  21
ENDBRANCH   1   5
BRANCH   1  25
ATOM     25  O   LIG    1       25.531 -24.751   5.129  0.00  0.00    -0.460 OA
BRANCH  25  26
ATOM     26  C   LIG    1       24.548 -25.792   4.945  0.00  0.00    +0.247 C 
BRANCH  26  27
ATOM     27  C   LIG    1       24.414 -26.647   6.218  0.00  0.00    +0.125 C 
BRANCH  27  28
ATOM     28  N   LIG    1       25.446 -27.693   6.357  0.00  0.00    -0.297 NA
ATOM     29  C   LIG    1       25.401 -28.362   7.677  0.00  0.00    +0.100 C 
ATOM     30  C   LIG    1       24.219 -29.356   7.882  0.00  0.00    +0.100 C 
ATOM     31  N   LIG    1       24.042 -30.377   6.813  0.00  0.00    -0.289 NA
ATOM     32  C   LIG    1       24.056 -29.641   5.524  0.00  0.00    +0.100 C 
ATOM     33  C   LIG    1       25.274 -28.719   5.306  0.00  0.00    +0.100 C 
BRANCH  31  34
ATOM     34  C   LIG    1       25.074 -31.464   6.889  0.00  0.00    +0.117 C 
BRANCH  34  35
ATOM     35  C   LIG    1       25.188 -32.347   5.620  0.00  0.00    -0.026 A 
ATOM     36  C   LIG    1       24.111 -33.079   5.084  0.00  0.00    +0.005 A 
ATOM     37  C   LIG    1       24.230 -33.764   3.867  0.00  0.00    +0.000 A 
ATOM     38  C   LIG    1       25.441 -33.770   3.180  0.00  0.00    +0.000 A 
ATOM     39  C   LIG    1       26.531 -33.086   3.709  0.00  0.00    +0.000 A 
ATOM     40  C   LIG    1       26.409 -32.386   4.916  0.00  0.00    +0.005 A 
ENDBRANCH  34  35
BRANCH  34  41
ATOM     41  C   LIG    1       24.932 -32.312   8.171  0.00  0.00    -0.026 A 
ATOM     42  C   LIG    1       25.963 -32.308   9.133  0.00  0.00    +0.005 A 
ATOM     43  C   LIG    1       25.857 -33.047  10.316  0.00  0.00    +0.000 A 
ATOM     44  C   LIG    1       24.728 -33.825  10.553  0.00  0.00    +0.000 A 
ATOM     45  C   LIG    1       23.686 -33.825   9.627  0.00  0.00    +0.000 A 
ATOM     46  C   LIG    1       23.776 -33.059   8.456  0.00  0.00    +0.005 A 
ENDBRANCH  34  41
ENDBRANCH  31  34
ENDBRANCH  27  28
ENDBRANCH  26  27
ENDBRANCH  25  26
ENDBRANCH   1  25
TORSDOF 12
ENDMDL
MODEL 7
REMARK VINA RESULT:      -7.6      3.828     11.184
REMARK  Name = *****
REMARK                            x       y       z     vdW  Elec       q    Type
REMARK                         _______ _______ _______ _____ _____    ______ ____
ROOT
ATOM      1  C   LIG    1       25.133 -23.590   6.116  0.00  0.00    +0.338 C 
ATOM      2  O   LIG    1       25.681 -23.863   7.172  0.00  0.00    -0.245 OA
ENDROOT
BRANCH   1   5
ATOM      3  C   LIG    1       24.470 -20.144   4.500  0.00  0.00    +0.065 C 
ATOM      4  C   LIG    1       25.298 -21.250   5.152  0.00  0.00    +0.096 C 
ATOM      5  C   LIG    1       24.432 -22.293   5.881  0.00  0.00    +0.065 C 
ATOM      6  C   LIG    1       23.127 -22.029   6.143  0.00  0.00    +0.016 C 
ATOM      7  C   LIG    1       22.168 -22.959   6.844  0.00  0.00    +0.061 C 
ATOM      8  N   LIG    1       22.558 -20.846   5.693  0.00  0.00    -0.321 N 
ATOM      9  H   LIG    1       21.560 -20.723   5.843  0.00  0.00    +0.152 HD
ATOM     10  C   LIG    1       23.156 -19.991   4.781  0.00  0.00    +0.016 C 
ATOM     11  C   LIG    1       22.233 -18.964   4.173  0.00  0.00    +0.061 C 
BRANCH   4  12
ATOM     12  C   LIG    1       26.384 -20.673   6.087  0.00  0.00    -0.029 A 
ATOM     13  C   LIG    1       27.574 -20.108   5.590  0.00  0.00    +0.088 A 
ATOM     14  C   LIG    1       28.543 -19.608   6.478  0.00  0.00    +0.273 A 
ATOM     15  C   LIG    1       28.327 -19.625   7.861  0.00  0.00    +0.084 A 
ATOM     16  C   LIG    1       27.144 -20.166   8.358  0.00  0.00    +0.007 A 
ATOM     17  C   LIG    1       26.192 -20.695   7.481  0.00  0.00    +0.005 A 
BRANCH  14  18
ATOM     18  N   LIG    1       29.807 -19.077   5.953  0.00  0.00    +0.080 N 
ATOM     19  O   LIG    1       29.749 -18.142   5.142  0.00  0.00    -0.576 OA
ATOM     20  O   LIG    1       30.861 -19.601   6.342  0.00  0.00    +0.041 OA
ENDBRANCH  14  18
ENDBRANCH   4  12
BRANCH   3  21
ATOM     21  C   LIG    1       25.263 -19.249   3.617  0.00  0.00    +0.337 C 
ATOM     22  O   LIG    1       26.037 -19.624   2.770  0.00  0.00    -0.245 OA
BRANCH  21  24
ATOM     23  C   LIG    1       25.868 -17.016   3.394  0.00  0.00    +0.280 C 
ATOM     24  O   LIG    1       25.174 -17.992   4.155  0.00  0.00    -0.465 OA
ENDBRANCH  21  24
ENDBRANCH   3  21
ENDBRANCH   1   5
BRANCH   1  25
ATOM     25  O   LIG    1       25.153 -24.388   5.022  0.00  0.00    -0.460 OA
BRANCH  25  26
ATOM     26  C   LIG    1       24.612 -25.716   5.188  0.00  0.00    +0.247 C 
BRANCH  26  27
ATOM     27  C   LIG    1       25.339 -26.719   4.273  0.00  0.00    +0.125 C 
BRANCH  27  28
ATOM     28  N   LIG    1       26.194 -27.684   4.991  0.00  0.00    -0.297 NA
ATOM     29  C   LIG    1       26.503 -27.249   6.372  0.00  0.00    +0.100 C 
ATOM     30  C   LIG    1       25.331 -27.373   7.389  0.00  0.00    +0.100 C 
ATOM     31  N   LIG    1       24.655 -28.699   7.437  0.00  0.00    -0.289 NA
ATOM     32  C   LIG    1       24.337 -29.059   6.032  0.00  0.00    +0.100 C 
ATOM     33  C   LIG    1       25.530 -29.003   5.054  0.00  0.00    +0.100 C 
BRANCH  31  34
ATOM     34  C   LIG    1       25.483 -29.733   8.143  0.00  0.00    +0.117 C 
BRANCH  34  35
ATOM     35  C   LIG    1       24.968 -31.189   8.006  0.00  0.00    -0.026 A 
ATOM     36  C   LIG    1       23.694 -31.606   8.436  0.00  0.00    +0.005 A 
ATOM     37  C   LIG    1       23.226 -32.902   8.179  0.00  0.00    +0.000 A 
ATOM     38  C   LIG    1       24.038 -33.824   7.524  0.00  0.00    +0.000 A 
ATOM     39  C   LIG    1       25.316 -33.447   7.123  0.00  0.00    +0.000 A 
ATOM     40  C   LIG    1       25.779 -32.147   7.363  0.00  0.00    +0.005 A 
ENDBRANCH  34  35
BRANCH  34  41
ATOM     41  C   LIG    1       25.755 -29.354   9.615  0.00  0.00    -0.026 A 
ATOM     42  C   LIG    1       27.016 -28.844   9.987  0.00  0.00    +0.005 A 
ATOM     43  C   LIG    1       27.289 -28.470  11.307  0.00  0.00    +0.000 A 
ATOM     44  C   LIG    1       26.315 -28.620  12.289  0.00  0.00    +0.000 A 
ATOM     45  C   LIG    1       25.053 -29.099  11.939  0.00  0.00    +0.000 A 
ATOM     46  C   LIG    1       24.768 -29.444  10.610  0.00  0.00    +0.005 A 
ENDBRANCH  34  41
ENDBRANCH  31  34
ENDBRANCH  27  28
ENDBRANCH  26  27
ENDBRANCH  25  26
ENDBRANCH   1  25
TORSDOF 12
ENDMDL
MODEL 8
REMARK VINA RESULT:      -7.4      1.971      3.075
REMARK  Name = *****
REMARK                            x       y       z     vdW  Elec       q    Type
REMARK                         _______ _______ _______ _____ _____    ______ ____
ROOT
ATOM      1  C   LIG    1       23.881 -29.595   6.443  0.00  0.00    +0.338 C 
ATOM      2  O   LIG    1       22.928 -29.925   5.756  0.00  0.00    -0.245 OA
ENDROOT
BRANCH   1   5
ATOM      3  C   LIG    1       25.993 -32.420   8.021  0.00  0.00    +0.065 C 
ATOM      4  C   LIG    1       25.073 -31.200   8.004  0.00  0.00    +0.096 C 
ATOM      5  C   LIG    1       25.072 -30.472   6.647  0.00  0.00    +0.065 C 
ATOM      6  C   LIG    1       26.033 -30.746   5.729  0.00  0.00    +0.016 C 
ATOM      7  C   LIG    1       26.149 -30.110   4.366  0.00  0.00    +0.061 C 
ATOM      8  N   LIG    1       26.976 -31.731   5.989  0.00  0.00    -0.321 N 
ATOM      9  H   LIG    1       27.629 -31.957   5.243  0.00  0.00    +0.152 HD
ATOM     10  C   LIG    1       26.885 -32.641   7.030  0.00  0.00    +0.016 C 
ATOM     11  C   LIG    1       27.815 -33.825   6.921  0.00  0.00    +0.061 C 
BRANCH   4  12
ATOM     12  C   LIG    1       25.394 -30.229   9.161  0.00  0.00    -0.029 A 
ATOM     13  C   LIG    1       24.568 -30.119  10.296  0.00  0.00    +0.088 A 
ATOM     14  C   LIG    1       24.890 -29.210  11.319  0.00  0.00    +0.273 A 
ATOM     15  C   LIG    1       26.051 -28.430  11.249  0.00  0.00    +0.084 A 
ATOM     16  C   LIG    1       26.882 -28.547  10.137  0.00  0.00    +0.007 A 
ATOM     17  C   LIG    1       26.549 -29.425   9.101  0.00  0.00    +0.005 A 
BRANCH  14  18
ATOM     18  N   LIG    1       23.991 -29.059  12.469  0.00  0.00    +0.080 N 
ATOM     19  O   LIG    1       24.399 -29.438  13.576  0.00  0.00    -0.576 OA
ATOM     20  O   LIG    1       22.869 -28.572  12.267  0.00  0.00    +0.041 OA
ENDBRANCH  14  18
ENDBRANCH   4  12
BRANCH   3  21
ATOM     21  C   LIG    1       25.849 -33.256   9.241  0.00  0.00    +0.337 C 
ATOM     22  O   LIG    1       26.768 -33.687   9.895  0.00  0.00    -0.245 OA
BRANCH  21  24
ATOM     23  C   LIG    1       23.969 -33.582  10.569  0.00  0.00    +0.280 C 
ATOM     24  O   LIG    1       24.544 -33.675   9.276  0.00  0.00    -0.465 OA
ENDBRANCH  21  24
ENDBRANCH   3  21
ENDBRANCH   1   5
BRANCH   1  25
ATOM     25  O   LIG    1       24.006 -28.385   7.038  0.00  0.00    -0.460 OA
BRANCH  25  26
ATOM     26  C   LIG    1       24.418 -27.294   6.188  0.00  0.00    +0.247 C 
BRANCH  26  27
ATOM     27  C   LIG    1       25.589 -26.521   6.822  0.00  0.00    +0.125 C 
BRANCH  27  28
ATOM     28  N   LIG    1       26.165 -25.475   5.954  0.00  0.00    -0.297 NA
ATOM     29  C   LIG    1       25.159 -24.869   5.053  0.00  0.00    +0.100 C 
ATOM     30  C   LIG    1       24.153 -23.895   5.734  0.00  0.00    +0.100 C 
ATOM     31  N   LIG    1       24.759 -22.826   6.576  0.00  0.00    -0.289 NA
ATOM     32  C   LIG    1       25.724 -23.500   7.479  0.00  0.00    +0.100 C 
ATOM     33  C   LIG    1       26.762 -24.402   6.778  0.00  0.00    +0.100 C 
BRANCH  31  34
ATOM     34  C   LIG    1       25.378 -21.736   5.750  0.00  0.00    +0.117 C 
BRANCH  34  35
ATOM     35  C   LIG    1       26.619 -21.059   6.385  0.00  0.00    -0.026 A 
ATOM     36  C   LIG    1       27.663 -20.488   5.632  0.00  0.00    +0.005 A 
ATOM     37  C   LIG    1       28.703 -19.778   6.248  0.00  0.00    +0.000 A 
ATOM     38  C   LIG    1       28.746 -19.660   7.634  0.00  0.00    +0.000 A 
ATOM     39  C   LIG    1       27.747 -20.249   8.404  0.00  0.00    +0.000 A 
ATOM     40  C   LIG    1       26.697 -20.943   7.789  0.00  0.00    +0.005 A 
ENDBRANCH  34  35
BRANCH  34  41
ATOM     41  C   LIG    1       24.334 -20.700   5.278  0.00  0.00    -0.026 A 
ATOM     42  C   LIG    1       24.517 -20.031   4.050  0.00  0.00    +0.005 A 
ATOM     43  C   LIG    1       23.580 -19.103   3.582  0.00  0.00    +0.000 A 
ATOM     44  C   LIG    1       22.452 -18.808   4.341  0.00  0.00    +0.000 A 
ATOM     45  C   LIG    1       22.240 -19.476   5.546  0.00  0.00    +0.000 A 
ATOM     46  C   LIG    1       23.161 -20.430   6.002  0.00  0.00    +0.005 A 
ENDBRANCH  34  41
ENDBRANCH  31  34
ENDBRANCH  27  28
ENDBRANCH  26  27
ENDBRANCH  25  26
ENDBRANCH   1  25
TORSDOF 12
ENDMDL
MODEL 9
REMARK VINA RESULT:      -7.2      3.720     11.065
REMARK  Name = *****
REMARK                            x       y       z     vdW  Elec       q    Type
REMARK                         _______ _______ _______ _____ _____    ______ ____
ROOT
ATOM      1  C   LIG    1       25.186 -23.793   6.110  0.00  0.00    +0.338 C 
ATOM      2  O   LIG    1       26.009 -23.920   7.002  0.00  0.00    -0.245 OA
ENDROOT
BRANCH   1   5
ATOM      3  C   LIG    1       24.355 -20.363   4.536  0.00  0.00    +0.065 C 
ATOM      4  C   LIG    1       25.236 -21.435   5.176  0.00  0.00    +0.096 C 
ATOM      5  C   LIG    1       24.422 -22.529   5.890  0.00  0.00    +0.065 C 
ATOM      6  C   LIG    1       23.105 -22.333   6.153  0.00  0.00    +0.016 C 
ATOM      7  C   LIG    1       22.193 -23.318   6.841  0.00  0.00    +0.061 C 
ATOM      8  N   LIG    1       22.479 -21.173   5.717  0.00  0.00    -0.321 N 
ATOM      9  H   LIG    1       21.476 -21.102   5.868  0.00  0.00    +0.152 HD
ATOM     10  C   LIG    1       23.035 -20.279   4.816  0.00  0.00    +0.016 C 
ATOM     11  C   LIG    1       22.063 -19.291   4.221  0.00  0.00    +0.061 C 
BRANCH   4  12
ATOM     12  C   LIG    1       26.292 -20.817   6.119  0.00  0.00    -0.029 A 
ATOM     13  C   LIG    1       27.478 -20.236   5.634  0.00  0.00    +0.088 A 
ATOM     14  C   LIG    1       28.420 -19.698   6.529  0.00  0.00    +0.273 A 
ATOM     15  C   LIG    1       28.178 -19.693   7.908  0.00  0.00    +0.084 A 
ATOM     16  C   LIG    1       26.998 -20.250   8.393  0.00  0.00    +0.007 A 
ATOM     17  C   LIG    1       26.074 -20.816   7.509  0.00  0.00    +0.005 A 
BRANCH  14  18
ATOM     18  N   LIG    1       29.681 -19.149   6.018  0.00  0.00    +0.080 N 
ATOM     19  O   LIG    1       29.619 -18.275   5.142  0.00  0.00    -0.576 OA
ATOM     20  O   LIG    1       30.739 -19.600   6.483  0.00  0.00    +0.041 OA
ENDBRANCH  14  18
ENDBRANCH   4  12
BRANCH   3  21
ATOM     21  C   LIG    1       25.104 -19.420   3.666  0.00  0.00    +0.337 C 
ATOM     22  O   LIG    1       25.894 -19.746   2.813  0.00  0.00    -0.245 OA
BRANCH  21  24
ATOM     23  C   LIG    1       25.523 -17.146   3.427  0.00  0.00    +0.280 C 
ATOM     24  O   LIG    1       24.957 -18.176   4.221  0.00  0.00    -0.465 OA
ENDBRANCH  21  24
ENDBRANCH   3  21
ENDBRANCH   1   5
BRANCH   1  25
ATOM     25  O   LIG    1       24.919 -24.742   5.182  0.00  0.00    -0.460 OA
BRANCH  25  26
ATOM     26  C   LIG    1       25.898 -25.793   5.042  0.00  0.00    +0.247 C 
BRANCH  26  27
ATOM     27  C   LIG    1       25.219 -27.175   5.052  0.00  0.00    +0.125 C 
BRANCH  27  28
ATOM     28  N   LIG    1       24.408 -27.442   6.256  0.00  0.00    -0.297 NA
ATOM     29  C   LIG    1       23.943 -28.846   6.325  0.00  0.00    +0.100 C 
ATOM     30  C   LIG    1       25.032 -29.894   6.701  0.00  0.00    +0.100 C 
ATOM     31  N   LIG    1       25.830 -29.586   7.919  0.00  0.00    -0.289 NA
ATOM     32  C   LIG    1       26.299 -28.185   7.771  0.00  0.00    +0.100 C 
ATOM     33  C   LIG    1       25.194 -27.150   7.474  0.00  0.00    +0.100 C 
BRANCH  31  34
ATOM     34  C   LIG    1       25.054 -29.822   9.181  0.00  0.00    +0.117 C 
BRANCH  34  35
ATOM     35  C   LIG    1       25.803 -29.455  10.488  0.00  0.00    -0.026 A 
ATOM     36  C   LIG    1       25.151 -29.051  11.669  0.00  0.00    +0.005 A 
ATOM     37  C   LIG    1       25.860 -28.849  12.861  0.00  0.00    +0.000 A 
ATOM     38  C   LIG    1       27.243 -29.004  12.889  0.00  0.00    +0.000 A 
ATOM     39  C   LIG    1       27.915 -29.366  11.725  0.00  0.00    +0.000 A 
ATOM     40  C   LIG    1       27.206 -29.585  10.538  0.00  0.00    +0.005 A 
ENDBRANCH  34  35
BRANCH  34  41
ATOM     41  C   LIG    1       24.458 -31.246   9.239  0.00  0.00    -0.026 A 
ATOM     42  C   LIG    1       23.070 -31.417   9.418  0.00  0.00    +0.005 A 
ATOM     43  C   LIG    1       22.494 -32.692   9.452  0.00  0.00    +0.000 A 
ATOM     44  C   LIG    1       23.295 -33.823   9.332  0.00  0.00    +0.000 A 
ATOM     45  C   LIG    1       24.667 -33.675   9.130  0.00  0.00    +0.000 A 
ATOM     46  C   LIG    1       25.242 -32.398   9.063  0.00  0.00    +0.005 A 
ENDBRANCH  34  41
ENDBRANCH  31  34
ENDBRANCH  27  28
ENDBRANCH  26  27
ENDBRANCH  25  26
ENDBRANCH   1  25
TORSDOF 12
ENDMDL
