MODEL 1
REMARK VINA RESULT:       5.5      0.000      0.000
REMARK  Name = *****
REMARK                            x       y       z     vdW  Elec       q    Type
REMARK                         _______ _______ _______ _____ _____    ______ ____
ROOT
ATOM      1  C   LIG    1       24.118 -18.432   3.890  0.00  0.00    +0.059 C 
ENDROOT
BRANCH   1   2
ATOM      2  C   LIG    1       24.156 -19.479   5.105  0.00  0.00    -0.033 A 
ATOM      3  C   LIG    1       23.078 -19.702   5.985  0.00  0.00    +0.005 A 
ATOM      4  C   LIG    1       23.114 -20.711   6.967  0.00  0.00    +0.000 A 
ATOM      5  C   LIG    1       24.201 -21.572   7.062  0.00  0.00    +0.000 A 
ATOM      6  C   LIG    1       25.281 -21.385   6.216  0.00  0.00    +0.000 A 
ATOM      7  C   LIG    1       25.267 -20.339   5.282  0.00  0.00    +0.005 A 
ENDBRANCH   1   2
BRANCH   1   8
ATOM      8  C   LIG    1       23.615 -16.985   4.299  0.00  0.00    -0.033 A 
ATOM      9  C   LIG    1       24.240 -15.814   3.805  0.00  0.00    +0.005 A 
ATOM     10  C   LIG    1       23.848 -14.523   4.190  0.00  0.00    +0.000 A 
ATOM     11  C   LIG    1       22.800 -14.350   5.080  0.00  0.00    +0.000 A 
ATOM     12  C   LIG    1       22.157 -15.472   5.591  0.00  0.00    +0.000 A 
ATOM     13  C   LIG    1       22.578 -16.766   5.232  0.00  0.00    +0.005 A 
ENDBRANCH   1   8
BRANCH   1  14
ATOM     14  C   LIG    1       23.129 -19.069   2.772  0.00  0.00    +0.191 C 
BRANCH  14  16
ATOM     15  C   LIG    1       23.826 -21.565   2.473  0.00  0.00    +0.007 C 
ATOM     16  C   LIG    1       22.766 -20.568   2.938  0.00  0.00    +0.042 C 
ENDBRANCH  14  16
BRANCH  14  17
ATOM     17  O   LIG    1       21.857 -18.361   2.791  0.00  0.00    -0.460 OA
BRANCH  17  18
ATOM     18  C   LIG    1       20.793 -19.032   3.343  0.00  0.00    +0.304 C 
ATOM     19  O   LIG    1       20.861 -19.954   4.107  0.00  0.00    -0.251 OA
ATOM     20  C   LIG    1       19.494 -18.381   2.929  0.00  0.00    +0.136 C 
ENDBRANCH  17  18
ENDBRANCH  14  17
ENDBRANCH   1  14
BRANCH   1  21
ATOM     21  C   LIG    1       25.624 -18.290   3.319  0.00  0.00    +0.038 C 
BRANCH  21  22
ATOM     22  C   LIG    1       26.737 -17.508   4.102  0.00  0.00    +0.054 C 
ATOM     23  C   LIG    1       27.119 -16.192   3.368  0.00  0.00    +0.024 C 
BRANCH  22  24
ATOM     24  N   LIG    1       27.928 -18.321   4.396  0.00  0.00    -0.306 NA
ATOM     25  C   LIG    1       27.670 -19.409   5.337  0.00  0.00    +0.105 C 
ATOM     26  C   LIG    1       29.106 -17.561   4.812  0.00  0.00    +0.105 C 
ENDBRANCH  22  24
ENDBRANCH  21  22
ENDBRANCH   1  21
TORSDOF 9
ENDMDL
MODEL 2
REMARK VINA RESULT:       5.6      2.925      5.711
REMARK  Name = *****
REMARK                            x       y       z     vdW  Elec       q    Type
REMARK                         _______ _______ _______ _____ _____    ______ ____
ROOT
ATOM      1  C   LIG    1       25.318 -15.232   3.591  0.00  0.00    +0.059 C 
ENDROOT
BRANCH   1   2
ATOM      2  C   LIG    1       24.030 -15.584   4.479  0.00  0.00    -0.033 A 
ATOM      3  C   LIG    1       23.487 -14.723   5.455  0.00  0.00    +0.005 A 
ATOM      4  C   LIG    1       22.289 -15.024   6.131  0.00  0.00    +0.000 A 
ATOM      5  C   LIG    1       21.560 -16.163   5.812  0.00  0.00    +0.000 A 
ATOM      6  C   LIG    1       22.059 -17.035   4.859  0.00  0.00    +0.000 A 
ATOM      7  C   LIG    1       23.284 -16.763   4.234  0.00  0.00    +0.005 A 
ENDBRANCH   1   2
BRANCH   1   8
ATOM      8  C   LIG    1       26.451 -14.448   4.377  0.00  0.00    -0.033 A 
ATOM      9  C   LIG    1       26.168 -13.724   5.560  0.00  0.00    +0.005 A 
ATOM     10  C   LIG    1       27.141 -12.981   6.246  0.00  0.00    +0.000 A 
ATOM     11  C   LIG    1       28.445 -12.942   5.780  0.00  0.00    +0.000 A 
ATOM     12  C   LIG    1       28.768 -13.638   4.621  0.00  0.00    +0.000 A 
ATOM     13  C   LIG    1       27.781 -14.351   3.914  0.00  0.00    +0.005 A 
ENDBRANCH   1   8
BRANCH   1  14
ATOM     14  C   LIG    1       24.782 -14.336   2.348  0.00  0.00    +0.191 C 
BRANCH  14  16
ATOM     15  C   LIG    1       23.690 -12.692   4.053  0.00  0.00    +0.007 C 
ATOM     16  C   LIG    1       23.654 -13.318   2.660  0.00  0.00    +0.042 C 
ENDBRANCH  14  16
BRANCH  14  17
ATOM     17  O   LIG    1       25.879 -13.542   1.814  0.00  0.00    -0.460 OA
BRANCH  17  18
ATOM     18  C   LIG    1       25.779 -12.180   1.968  0.00  0.00    +0.304 C 
ATOM     19  O   LIG    1       24.782 -11.528   1.834  0.00  0.00    -0.251 OA
ATOM     20  C   LIG    1       27.098 -11.610   2.434  0.00  0.00    +0.136 C 
ENDBRANCH  17  18
ENDBRANCH  14  17
ENDBRANCH   1  14
BRANCH   1  21
ATOM     21  C   LIG    1       25.950 -16.626   3.071  0.00  0.00    +0.038 C 
BRANCH  21  22
ATOM     22  C   LIG    1       26.393 -17.757   4.065  0.00  0.00    +0.054 C 
ATOM     23  C   LIG    1       27.930 -17.734   4.291  0.00  0.00    +0.024 C 
BRANCH  22  24
ATOM     24  N   LIG    1       25.931 -19.097   3.671  0.00  0.00    -0.306 NA
ATOM     25  C   LIG    1       24.853 -19.073   2.683  0.00  0.00    +0.105 C 
ATOM     26  C   LIG    1       25.578 -19.979   4.783  0.00  0.00    +0.105 C 
ENDBRANCH  22  24
ENDBRANCH  21  22
ENDBRANCH   1  21
TORSDOF 9
ENDMDL
MODEL 3
REMARK VINA RESULT:       6.0      3.243      7.011
REMARK  Name = *****
REMARK                            x       y       z     vdW  Elec       q    Type
REMARK                         _______ _______ _______ _____ _____    ______ ____
ROOT
ATOM      1  C   LIG    1       25.637 -15.134   3.500  0.00  0.00    +0.059 C 
ENDROOT
BRANCH   1   2
ATOM      2  C   LIG    1       25.340 -13.977   4.570  0.00  0.00    -0.033 A 
ATOM      3  C   LIG    1       26.266 -13.547   5.542  0.00  0.00    +0.005 A 
ATOM      4  C   LIG    1       26.006 -12.452   6.387  0.00  0.00    +0.000 A 
ATOM      5  C   LIG    1       24.839 -11.709   6.249  0.00  0.00    +0.000 A 
ATOM      6  C   LIG    1       23.903 -12.099   5.306  0.00  0.00    +0.000 A 
ATOM      7  C   LIG    1       24.139 -13.229   4.510  0.00  0.00    +0.005 A 
ENDBRANCH   1   2
BRANCH   1   8
ATOM      8  C   LIG    1       26.720 -16.191   3.974  0.00  0.00    -0.033 A 
ATOM      9  C   LIG    1       26.592 -17.569   3.678  0.00  0.00    +0.005 A 
ATOM     10  C   LIG    1       27.509 -18.531   4.128  0.00  0.00    +0.000 A 
ATOM     11  C   LIG    1       28.604 -18.150   4.886  0.00  0.00    +0.000 A 
ATOM     12  C   LIG    1       28.770 -16.806   5.201  0.00  0.00    +0.000 A 
ATOM     13  C   LIG    1       27.828 -15.848   4.780  0.00  0.00    +0.005 A 
ENDBRANCH   1   8
BRANCH   1  14
ATOM     14  C   LIG    1       26.144 -14.386   2.151  0.00  0.00    +0.191 C 
BRANCH  14  16
ATOM     15  C   LIG    1       23.968 -12.987   1.813  0.00  0.00    +0.007 C 
ATOM     16  C   LIG    1       25.495 -13.013   1.833  0.00  0.00    +0.042 C 
ENDBRANCH  14  16
BRANCH  14  17
ATOM     17  O   LIG    1       27.572 -14.123   2.250  0.00  0.00    -0.460 OA
BRANCH  17  18
ATOM     18  C   LIG    1       27.934 -12.921   2.808  0.00  0.00    +0.304 C 
ATOM     19  O   LIG    1       27.351 -11.881   2.681  0.00  0.00    -0.251 OA
ATOM     20  C   LIG    1       29.138 -13.103   3.703  0.00  0.00    +0.136 C 
ENDBRANCH  17  18
ENDBRANCH  14  17
ENDBRANCH   1  14
BRANCH   1  21
ATOM     21  C   LIG    1       24.253 -15.927   3.238  0.00  0.00    +0.038 C 
BRANCH  21  22
ATOM     22  C   LIG    1       23.847 -17.186   4.083  0.00  0.00    +0.054 C 
ATOM     23  C   LIG    1       24.261 -18.500   3.363  0.00  0.00    +0.024 C 
BRANCH  22  24
ATOM     24  N   LIG    1       22.424 -17.207   4.457  0.00  0.00    -0.306 NA
ATOM     25  C   LIG    1       22.070 -16.193   5.448  0.00  0.00    +0.105 C 
ATOM     26  C   LIG    1       21.914 -18.515   4.866  0.00  0.00    +0.105 C 
ENDBRANCH  22  24
ENDBRANCH  21  22
ENDBRANCH   1  21
TORSDOF 9
ENDMDL
MODEL 4
REMARK VINA RESULT:       6.1      2.945      5.279
REMARK  Name = *****
REMARK                            x       y       z     vdW  Elec       q    Type
REMARK                         _______ _______ _______ _____ _____    ______ ____
ROOT
ATOM      1  C   LIG    1       25.521 -15.164   3.941  0.00  0.00    +0.059 C 
ENDROOT
BRANCH   1   2
ATOM      2  C   LIG    1       24.244 -16.132   4.020  0.00  0.00    -0.033 A 
ATOM      3  C   LIG    1       24.262 -17.490   3.644  0.00  0.00    +0.005 A 
ATOM      4  C   LIG    1       23.150 -18.332   3.835  0.00  0.00    +0.000 A 
ATOM      5  C   LIG    1       22.004 -17.862   4.467  0.00  0.00    +0.000 A 
ATOM      6  C   LIG    1       21.946 -16.533   4.851  0.00  0.00    +0.000 A 
ATOM      7  C   LIG    1       23.032 -15.683   4.601  0.00  0.00    +0.005 A 
ENDBRANCH   1   2
BRANCH   1   8
ATOM      8  C   LIG    1       25.375 -13.832   4.788  0.00  0.00    -0.033 A 
ATOM      9  C   LIG    1       26.329 -13.466   5.768  0.00  0.00    +0.005 A 
ATOM     10  C   LIG    1       26.198 -12.320   6.566  0.00  0.00    +0.000 A 
ATOM     11  C   LIG    1       25.107 -11.480   6.406  0.00  0.00    +0.000 A 
ATOM     12  C   LIG    1       24.145 -11.800   5.455  0.00  0.00    +0.000 A 
ATOM     13  C   LIG    1       24.260 -12.972   4.683  0.00  0.00    +0.005 A 
ENDBRANCH   1   8
BRANCH   1  14
ATOM     14  C   LIG    1       25.724 -14.806   2.371  0.00  0.00    +0.191 C 
BRANCH  14  16
ATOM     15  C   LIG    1       23.390 -13.665   2.137  0.00  0.00    +0.007 C 
ATOM     16  C   LIG    1       24.882 -13.629   1.813  0.00  0.00    +0.042 C 
ENDBRANCH  14  16
BRANCH  14  17
ATOM     17  O   LIG    1       27.111 -14.432   2.136  0.00  0.00    -0.460 OA
BRANCH  17  18
ATOM     18  C   LIG    1       27.498 -13.197   2.597  0.00  0.00    +0.304 C 
ATOM     19  O   LIG    1       26.891 -12.172   2.458  0.00  0.00    -0.251 OA
ATOM     20  C   LIG    1       28.769 -13.316   3.405  0.00  0.00    +0.136 C 
ENDBRANCH  17  18
ENDBRANCH  14  17
ENDBRANCH   1  14
BRANCH   1  21
ATOM     21  C   LIG    1       26.791 -15.981   4.518  0.00  0.00    +0.038 C 
BRANCH  21  22
ATOM     22  C   LIG    1       27.417 -17.195   3.743  0.00  0.00    +0.054 C 
ATOM     23  C   LIG    1       26.325 -17.998   2.983  0.00  0.00    +0.024 C 
BRANCH  22  24
ATOM     24  N   LIG    1       28.233 -18.075   4.594  0.00  0.00    -0.306 NA
ATOM     25  C   LIG    1       27.460 -19.127   5.251  0.00  0.00    +0.105 C 
ATOM     26  C   LIG    1       29.076 -17.382   5.568  0.00  0.00    +0.105 C 
ENDBRANCH  22  24
ENDBRANCH  21  22
ENDBRANCH   1  21
TORSDOF 9
ENDMDL
MODEL 5
REMARK VINA RESULT:       6.5      1.743      2.815
REMARK  Name = *****
REMARK                            x       y       z     vdW  Elec       q    Type
REMARK                         _______ _______ _______ _____ _____    ______ ____
ROOT
ATOM      1  C   LIG    1       25.036 -17.859   3.735  0.00  0.00    +0.059 C 
ENDROOT
BRANCH   1   2
ATOM      2  C   LIG    1       25.938 -18.699   4.761  0.00  0.00    -0.033 A 
ATOM      3  C   LIG    1       25.438 -19.720   5.595  0.00  0.00    +0.005 A 
ATOM      4  C   LIG    1       26.284 -20.508   6.397  0.00  0.00    +0.000 A 
ATOM      5  C   LIG    1       27.664 -20.347   6.348  0.00  0.00    +0.000 A 
ATOM      6  C   LIG    1       28.195 -19.355   5.542  0.00  0.00    +0.000 A 
ATOM      7  C   LIG    1       27.344 -18.530   4.793  0.00  0.00    +0.005 A 
ENDBRANCH   1   2
BRANCH   1   8
ATOM      8  C   LIG    1       23.899 -16.998   4.427  0.00  0.00    -0.033 A 
ATOM      9  C   LIG    1       22.702 -17.589   4.898  0.00  0.00    +0.005 A 
ATOM     10  C   LIG    1       21.659 -16.844   5.468  0.00  0.00    +0.000 A 
ATOM     11  C   LIG    1       21.779 -15.470   5.604  0.00  0.00    +0.000 A 
ATOM     12  C   LIG    1       22.937 -14.846   5.156  0.00  0.00    +0.000 A 
ATOM     13  C   LIG    1       23.965 -15.593   4.549  0.00  0.00    +0.005 A 
ENDBRANCH   1   8
BRANCH   1  14
ATOM     14  C   LIG    1       24.375 -18.941   2.720  0.00  0.00    +0.191 C 
BRANCH  14  16
ATOM     15  C   LIG    1       26.545 -20.069   1.814  0.00  0.00    +0.007 C 
ATOM     16  C   LIG    1       25.178 -20.244   2.474  0.00  0.00    +0.042 C 
ENDBRANCH  14  16
BRANCH  14  17
ATOM     17  O   LIG    1       23.089 -19.375   3.247  0.00  0.00    -0.460 OA
BRANCH  17  18
ATOM     18  C   LIG    1       23.032 -20.657   3.738  0.00  0.00    +0.304 C 
ATOM     19  O   LIG    1       23.730 -21.572   3.401  0.00  0.00    -0.251 OA
ATOM     20  C   LIG    1       22.017 -20.743   4.854  0.00  0.00    +0.136 C 
ENDBRANCH  17  18
ENDBRANCH  14  17
ENDBRANCH   1  14
BRANCH   1  21
ATOM     21  C   LIG    1       26.013 -16.844   2.942  0.00  0.00    +0.038 C 
BRANCH  21  22
ATOM     22  C   LIG    1       26.089 -15.317   3.301  0.00  0.00    +0.054 C 
ATOM     23  C   LIG    1       25.761 -14.434   2.065  0.00  0.00    +0.024 C 
BRANCH  22  24
ATOM     24  N   LIG    1       27.366 -14.923   3.917  0.00  0.00    -0.306 NA
ATOM     25  C   LIG    1       27.222 -14.422   5.283  0.00  0.00    +0.105 C 
ATOM     26  C   LIG    1       28.173 -13.998   3.121  0.00  0.00    +0.105 C 
ENDBRANCH  22  24
ENDBRANCH  21  22
ENDBRANCH   1  21
TORSDOF 9
ENDMDL
MODEL 6
REMARK VINA RESULT:       6.5      3.265      6.083
REMARK  Name = *****
REMARK                            x       y       z     vdW  Elec       q    Type
REMARK                         _______ _______ _______ _____ _____    ______ ____
ROOT
ATOM      1  C   LIG    1       25.447 -15.651   3.961  0.00  0.00    +0.059 C 
ENDROOT
BRANCH   1   2
ATOM      2  C   LIG    1       26.805 -16.456   4.240  0.00  0.00    -0.033 A 
ATOM      3  C   LIG    1       27.961 -15.879   4.805  0.00  0.00    +0.005 A 
ATOM      4  C   LIG    1       29.092 -16.648   5.138  0.00  0.00    +0.000 A 
ATOM      5  C   LIG    1       29.085 -18.028   4.976  0.00  0.00    +0.000 A 
ATOM      6  C   LIG    1       27.970 -18.634   4.424  0.00  0.00    +0.000 A 
ATOM      7  C   LIG    1       26.870 -17.857   4.036  0.00  0.00    +0.005 A 
ENDBRANCH   1   2
BRANCH   1   8
ATOM      8  C   LIG    1       24.145 -16.557   3.964  0.00  0.00    -0.033 A 
ATOM      9  C   LIG    1       22.893 -16.056   4.393  0.00  0.00    +0.005 A 
ATOM     10  C   LIG    1       21.738 -16.850   4.454  0.00  0.00    +0.000 A 
ATOM     11  C   LIG    1       21.786 -18.182   4.073  0.00  0.00    +0.000 A 
ATOM     12  C   LIG    1       22.996 -18.717   3.645  0.00  0.00    +0.000 A 
ATOM     13  C   LIG    1       24.162 -17.927   3.622  0.00  0.00    +0.005 A 
ENDBRANCH   1   8
BRANCH   1  14
ATOM     14  C   LIG    1       25.627 -14.942   2.512  0.00  0.00    +0.191 C 
BRANCH  14  16
ATOM     15  C   LIG    1       23.424 -13.733   1.813  0.00  0.00    +0.007 C 
ATOM     16  C   LIG    1       24.869 -13.607   2.292  0.00  0.00    +0.042 C 
ENDBRANCH  14  16
BRANCH  14  17
ATOM     17  O   LIG    1       27.032 -14.626   2.299  0.00  0.00    -0.460 OA
BRANCH  17  18
ATOM     18  C   LIG    1       27.400 -13.317   2.494  0.00  0.00    +0.304 C 
ATOM     19  O   LIG    1       26.756 -12.352   2.189  0.00  0.00    -0.251 OA
ATOM     20  C   LIG    1       28.708 -13.249   3.247  0.00  0.00    +0.136 C 
ENDBRANCH  17  18
ENDBRANCH  14  17
ENDBRANCH   1  14
BRANCH   1  21
ATOM     21  C   LIG    1       25.283 -14.546   5.130  0.00  0.00    +0.038 C 
BRANCH  21  22
ATOM     22  C   LIG    1       25.399 -13.008   4.838  0.00  0.00    +0.054 C 
ATOM     23  C   LIG    1       26.574 -12.373   5.635  0.00  0.00    +0.024 C 
BRANCH  22  24
ATOM     24  N   LIG    1       24.144 -12.273   5.061  0.00  0.00    -0.306 NA
ATOM     25  C   LIG    1       23.721 -11.482   3.907  0.00  0.00    +0.105 C 
ATOM     26  C   LIG    1       24.117 -11.454   6.273  0.00  0.00    +0.105 C 
ENDBRANCH  22  24
ENDBRANCH  21  22
ENDBRANCH   1  21
TORSDOF 9
ENDMDL
MODEL 7
REMARK VINA RESULT:       6.6      3.015      5.564
REMARK  Name = *****
REMARK                            x       y       z     vdW  Elec       q    Type
REMARK                         _______ _______ _______ _____ _____    ______ ____
ROOT
ATOM      1  C   LIG    1       25.259 -15.121   4.088  0.00  0.00    +0.059 C 
ENDROOT
BRANCH   1   2
ATOM      2  C   LIG    1       24.163 -16.291   4.025  0.00  0.00    -0.033 A 
ATOM      3  C   LIG    1       24.445 -17.611   3.617  0.00  0.00    +0.005 A 
ATOM      4  C   LIG    1       23.480 -18.634   3.684  0.00  0.00    +0.000 A 
ATOM      5  C   LIG    1       22.221 -18.389   4.221  0.00  0.00    +0.000 A 
ATOM      6  C   LIG    1       21.905 -17.106   4.634  0.00  0.00    +0.000 A 
ATOM      7  C   LIG    1       22.848 -16.077   4.505  0.00  0.00    +0.005 A 
ENDBRANCH   1   2
BRANCH   1   8
ATOM      8  C   LIG    1       24.830 -13.793   3.336  0.00  0.00    -0.033 A 
ATOM      9  C   LIG    1       23.509 -13.288   3.413  0.00  0.00    +0.005 A 
ATOM     10  C   LIG    1       23.091 -12.144   2.717  0.00  0.00    +0.000 A 
ATOM     11  C   LIG    1       23.986 -11.447   1.921  0.00  0.00    +0.000 A 
ATOM     12  C   LIG    1       25.294 -11.907   1.815  0.00  0.00    +0.000 A 
ATOM     13  C   LIG    1       25.700 -13.077   2.484  0.00  0.00    +0.005 A 
ENDBRANCH   1   8
BRANCH   1  14
ATOM     14  C   LIG    1       26.610 -15.726   3.423  0.00  0.00    +0.191 C 
BRANCH  14  16
ATOM     15  C   LIG    1       28.606 -14.067   3.166  0.00  0.00    +0.007 C 
ATOM     16  C   LIG    1       27.421 -14.772   2.508  0.00  0.00    +0.042 C 
ENDBRANCH  14  16
BRANCH  14  17
ATOM     17  O   LIG    1       27.532 -16.125   4.477  0.00  0.00    -0.460 OA
BRANCH  17  18
ATOM     18  C   LIG    1       27.860 -17.459   4.528  0.00  0.00    +0.304 C 
ATOM     19  O   LIG    1       27.326 -18.339   3.913  0.00  0.00    -0.251 OA
ATOM     20  C   LIG    1       29.073 -17.664   5.405  0.00  0.00    +0.136 C 
ENDBRANCH  17  18
ENDBRANCH  14  17
ENDBRANCH   1  14
BRANCH   1  21
ATOM     21  C   LIG    1       25.494 -14.754   5.645  0.00  0.00    +0.038 C 
BRANCH  21  22
ATOM     22  C   LIG    1       26.108 -13.379   6.089  0.00  0.00    +0.054 C 
ATOM     23  C   LIG    1       25.194 -12.195   5.667  0.00  0.00    +0.024 C 
BRANCH  22  24
ATOM     24  N   LIG    1       27.490 -13.179   5.626  0.00  0.00    -0.306 NA
ATOM     25  C   LIG    1       28.493 -13.471   6.649  0.00  0.00    +0.105 C 
ATOM     26  C   LIG    1       27.753 -11.875   5.017  0.00  0.00    +0.105 C 
ENDBRANCH  22  24
ENDBRANCH  21  22
ENDBRANCH   1  21
TORSDOF 9
ENDMDL
MODEL 8
REMARK VINA RESULT:       6.6      2.428      5.344
REMARK  Name = *****
REMARK                            x       y       z     vdW  Elec       q    Type
REMARK                         _______ _______ _______ _____ _____    ______ ____
ROOT
ATOM      1  C   LIG    1       25.700 -18.378   3.793  0.00  0.00    +0.059 C 
ENDROOT
BRANCH   1   2
ATOM      2  C   LIG    1       24.392 -18.757   4.640  0.00  0.00    -0.033 A 
ATOM      3  C   LIG    1       23.093 -18.306   4.327  0.00  0.00    +0.005 A 
ATOM      4  C   LIG    1       21.959 -18.755   5.029  0.00  0.00    +0.000 A 
ATOM      5  C   LIG    1       22.074 -19.717   6.025  0.00  0.00    +0.000 A 
ATOM      6  C   LIG    1       23.332 -20.186   6.363  0.00  0.00    +0.000 A 
ATOM      7  C   LIG    1       24.465 -19.689   5.705  0.00  0.00    +0.005 A 
ENDBRANCH   1   2
BRANCH   1   8
ATOM      8  C   LIG    1       27.063 -18.613   4.569  0.00  0.00    -0.033 A 
ATOM      9  C   LIG    1       27.239 -19.710   5.446  0.00  0.00    +0.005 A 
ATOM     10  C   LIG    1       28.416 -19.913   6.183  0.00  0.00    +0.000 A 
ATOM     11  C   LIG    1       29.475 -19.028   6.062  0.00  0.00    +0.000 A 
ATOM     12  C   LIG    1       29.346 -17.936   5.212  0.00  0.00    +0.000 A 
ATOM     13  C   LIG    1       28.150 -17.714   4.503  0.00  0.00    +0.005 A 
ENDBRANCH   1   8
BRANCH   1  14
ATOM     14  C   LIG    1       25.548 -16.810   3.399  0.00  0.00    +0.191 C 
BRANCH  14  16
ATOM     15  C   LIG    1       23.687 -15.086   4.004  0.00  0.00    +0.007 C 
ATOM     16  C   LIG    1       24.905 -15.885   4.464  0.00  0.00    +0.042 C 
ENDBRANCH  14  16
BRANCH  14  17
ATOM     17  O   LIG    1       26.865 -16.246   3.143  0.00  0.00    -0.460 OA
BRANCH  17  18
ATOM     18  C   LIG    1       26.901 -14.921   2.780  0.00  0.00    +0.304 C 
ATOM     19  O   LIG    1       26.332 -14.431   1.845  0.00  0.00    -0.251 OA
ATOM     20  C   LIG    1       27.692 -14.125   3.792  0.00  0.00    +0.136 C 
ENDBRANCH  17  18
ENDBRANCH  14  17
ENDBRANCH   1  14
BRANCH   1  21
ATOM     21  C   LIG    1       25.716 -19.309   2.472  0.00  0.00    +0.038 C 
BRANCH  21  22
ATOM     22  C   LIG    1       24.437 -20.082   1.988  0.00  0.00    +0.054 C 
ATOM     23  C   LIG    1       23.178 -19.173   2.045  0.00  0.00    +0.024 C 
BRANCH  22  24
ATOM     24  N   LIG    1       24.214 -21.350   2.700  0.00  0.00    -0.306 NA
ATOM     25  C   LIG    1       22.818 -21.568   3.073  0.00  0.00    +0.105 C 
ATOM     26  C   LIG    1       25.086 -21.570   3.854  0.00  0.00    +0.105 C 
ENDBRANCH  22  24
ENDBRANCH  21  22
ENDBRANCH   1  21
TORSDOF 9
ENDMDL
MODEL 9
REMARK VINA RESULT:       7.1      2.863      6.221
REMARK  Name = *****
REMARK                            x       y       z     vdW  Elec       q    Type
REMARK                         _______ _______ _______ _____ _____    ______ ____
ROOT
ATOM      1  C   LIG    1       25.489 -15.348   3.798  0.00  0.00    +0.059 C 
ENDROOT
BRANCH   1   2
ATOM      2  C   LIG    1       25.101 -14.011   3.000  0.00  0.00    -0.033 A 
ATOM      3  C   LIG    1       23.785 -13.518   2.885  0.00  0.00    +0.005 A 
ATOM      4  C   LIG    1       23.503 -12.282   2.273  0.00  0.00    +0.000 A 
ATOM      5  C   LIG    1       24.530 -11.467   1.813  0.00  0.00    +0.000 A 
ATOM      6  C   LIG    1       25.837 -11.915   1.907  0.00  0.00    +0.000 A 
ATOM      7  C   LIG    1       26.108 -13.174   2.460  0.00  0.00    +0.005 A 
ENDBRANCH   1   2
BRANCH   1   8
ATOM      8  C   LIG    1       24.249 -16.265   4.167  0.00  0.00    -0.033 A 
ATOM      9  C   LIG    1       24.233 -17.648   3.867  0.00  0.00    +0.005 A 
ATOM     10  C   LIG    1       23.129 -18.471   4.136  0.00  0.00    +0.000 A 
ATOM     11  C   LIG    1       21.995 -17.943   4.732  0.00  0.00    +0.000 A 
ATOM     12  C   LIG    1       21.967 -16.588   5.044  0.00  0.00    +0.000 A 
ATOM     13  C   LIG    1       23.061 -15.758   4.737  0.00  0.00    +0.005 A 
ENDBRANCH   1   8
BRANCH   1  14
ATOM     14  C   LIG    1       26.247 -14.866   5.151  0.00  0.00    +0.191 C 
BRANCH  14  16
ATOM     15  C   LIG    1       28.326 -14.296   3.683  0.00  0.00    +0.007 C 
ATOM     16  C   LIG    1       27.537 -14.026   4.963  0.00  0.00    +0.042 C 
ENDBRANCH  14  16
BRANCH  14  17
ATOM     17  O   LIG    1       25.352 -14.027   5.934  0.00  0.00    -0.460 OA
BRANCH  17  18
ATOM     18  C   LIG    1       25.538 -12.669   5.826  0.00  0.00    +0.304 C 
ATOM     19  O   LIG    1       26.594 -12.108   5.748  0.00  0.00    -0.251 OA
ATOM     20  C   LIG    1       24.205 -11.967   5.719  0.00  0.00    +0.136 C 
ENDBRANCH  17  18
ENDBRANCH  14  17
ENDBRANCH   1  14
BRANCH   1  21
ATOM     21  C   LIG    1       26.480 -16.210   2.855  0.00  0.00    +0.038 C 
BRANCH  21  22
ATOM     22  C   LIG    1       26.880 -17.688   3.206  0.00  0.00    +0.054 C 
ATOM     23  C   LIG    1       25.711 -18.669   2.912  0.00  0.00    +0.024 C 
BRANCH  22  24
ATOM     24  N   LIG    1       27.381 -17.849   4.580  0.00  0.00    -0.306 NA
ATOM     25  C   LIG    1       28.776 -17.446   4.739  0.00  0.00    +0.105 C 
ATOM     26  C   LIG    1       27.166 -19.173   5.162  0.00  0.00    +0.105 C 
ENDBRANCH  22  24
ENDBRANCH  21  22
ENDBRANCH   1  21
TORSDOF 9
ENDMDL
