MODEL 1
REMARK VINA RESULT:      -5.2      0.000      0.000
REMARK  Name = *****
REMARK                            x       y       z     vdW  Elec       q    Type
REMARK                         _______ _______ _______ _____ _____    ______ ____
ROOT
ATOM      1  C   LIG    1       23.745 -33.822   8.679  0.00  0.00    +0.013 C 
ATOM      2  C   LIG    1       23.458 -32.523   8.484  0.00  0.00    -0.036 C 
ATOM      3  C   LIG    1       22.494 -31.646   9.284  0.00  0.00    +0.085 C 
ATOM      4  C   LIG    1       23.269 -30.516   9.927  0.00  0.00    +0.050 C 
ATOM      5  C   LIG    1       23.009 -30.067  11.171  0.00  0.00    +0.141 C 
ATOM      6  C   LIG    1       21.866 -30.599  12.001  0.00  0.00    +0.189 C 
ATOM      7  C   LIG    1       20.821 -31.398  11.198  0.00  0.00    +0.089 C 
ATOM      8  C   LIG    1       19.717 -32.037  12.119  0.00  0.00    +0.133 C 
ATOM      9  C   LIG    1       19.821 -31.500  13.580  0.00  0.00    +0.170 C 
ATOM     10  O   LIG    1       19.601 -32.240  14.548  0.00  0.00    -0.294 OA
ATOM     11  C   LIG    1       20.154 -30.039  13.803  0.00  0.00    +0.211 C 
ATOM     12  C   LIG    1       21.036 -29.508  12.705  0.00  0.00    +0.192 C 
ATOM     13  O   LIG    1       21.085 -28.311  12.423  0.00  0.00    -0.293 OA
ATOM     14  C   LIG    1       24.427 -29.949   9.158  0.00  0.00    +0.197 C 
ATOM     15  O   LIG    1       25.172 -29.128   9.687  0.00  0.00    -0.287 OA
ATOM     16  C   LIG    1       24.644 -30.455   7.775  0.00  0.00    +0.071 A 
ATOM     17  C   LIG    1       25.313 -29.693   6.807  0.00  0.00    +0.128 A 
ATOM     18  C   LIG    1       25.533 -30.210   5.530  0.00  0.00    +0.046 A 
ATOM     19  C   LIG    1       25.082 -31.490   5.212  0.00  0.00    +0.004 A 
ATOM     20  C   LIG    1       24.411 -32.255   6.166  0.00  0.00    +0.009 A 
ATOM     21  C   LIG    1       21.584 -32.409  10.302  0.00  0.00    +0.135 C 
ATOM     22  C   LIG    1       24.192 -31.750   7.456  0.00  0.00    -0.007 A 
ENDROOT
BRANCH  11  23
ATOM     23  C   LIG    1       18.946 -29.177  14.051  0.00  0.00    +0.228 C 
ATOM     24  O   LIG    1       18.964 -28.082  14.597  0.00  0.00    -0.275 OA
ATOM     25  N   LIG    1       17.753 -29.696  13.619  0.00  0.00    -0.328 N 
ATOM     26  H   LIG    1       17.632 -30.691  13.477  0.00  0.00    +0.145 HD
ATOM     27  H   LIG    1       16.927 -29.170  13.877  0.00  0.00    +0.145 HD
ENDBRANCH  11  23
BRANCH   8  28
ATOM     28  N   LIG    1       18.313 -31.820  11.649  0.00  0.00    -0.299 NA
ATOM     29  C   LIG    1       18.219 -31.190  10.330  0.00  0.00    +0.105 C 
ATOM     30  C   LIG    1       17.557 -33.086  11.588  0.00  0.00    +0.105 C 
ENDBRANCH   8  28
BRANCH   5  31
ATOM     31  O   LIG    1       23.838 -29.188  11.852  0.00  0.00    -0.507 OA
ATOM     32  H   LIG    1       24.681 -29.660  12.065  0.00  0.00    +0.292 HD
ENDBRANCH   5  31
BRANCH   6  33
ATOM     33  O   LIG    1       22.483 -31.433  12.987  0.00  0.00    -0.373 OA
ATOM     34  H   LIG    1       21.808 -31.567  13.685  0.00  0.00    +0.211 HD
ENDBRANCH   6  33
BRANCH  17  35
ATOM     35  O   LIG    1       25.723 -28.420   7.084  0.00  0.00    -0.506 OA
ATOM     36  H   LIG    1       26.661 -28.313   6.856  0.00  0.00    +0.292 HD
ENDBRANCH  17  35
BRANCH  21  37
ATOM     37  O   LIG    1       20.657 -33.225   9.588  0.00  0.00    -0.390 OA
ATOM     38  H   LIG    1       20.816 -33.124   8.633  0.00  0.00    +0.210 HD
ENDBRANCH  21  37
TORSDOF 6
ENDMDL
MODEL 2
REMARK VINA RESULT:      -5.1      3.596      5.184
REMARK  Name = *****
REMARK                            x       y       z     vdW  Elec       q    Type
REMARK                         _______ _______ _______ _____ _____    ______ ____
ROOT
ATOM      1  C   LIG    1       23.782 -33.825  10.892  0.00  0.00    +0.013 C 
ATOM      2  C   LIG    1       23.852 -32.736  10.106  0.00  0.00    -0.036 C 
ATOM      3  C   LIG    1       24.187 -31.303  10.520  0.00  0.00    +0.085 C 
ATOM      4  C   LIG    1       25.453 -30.866   9.813  0.00  0.00    +0.050 C 
ATOM      5  C   LIG    1       26.400 -30.116  10.410  0.00  0.00    +0.141 C 
ATOM      6  C   LIG    1       26.243 -29.576  11.810  0.00  0.00    +0.189 C 
ATOM      7  C   LIG    1       24.800 -29.628  12.349  0.00  0.00    +0.089 C 
ATOM      8  C   LIG    1       24.704 -29.174  13.852  0.00  0.00    +0.133 C 
ATOM      9  C   LIG    1       26.050 -28.556  14.342  0.00  0.00    +0.170 C 
ATOM     10  O   LIG    1       26.457 -28.747  15.495  0.00  0.00    -0.294 OA
ATOM     11  C   LIG    1       26.839 -27.673  13.396  0.00  0.00    +0.211 C 
ATOM     12  C   LIG    1       26.642 -28.095  11.965  0.00  0.00    +0.192 C 
ATOM     13  O   LIG    1       26.805 -27.320  11.024  0.00  0.00    -0.293 OA
ATOM     14  C   LIG    1       25.675 -31.378   8.420  0.00  0.00    +0.197 C 
ATOM     15  O   LIG    1       26.744 -31.168   7.852  0.00  0.00    -0.287 OA
ATOM     16  C   LIG    1       24.579 -32.169   7.797  0.00  0.00    +0.071 A 
ATOM     17  C   LIG    1       24.431 -32.257   6.406  0.00  0.00    +0.128 A 
ATOM     18  C   LIG    1       23.415 -33.037   5.853  0.00  0.00    +0.046 A 
ATOM     19  C   LIG    1       22.539 -33.730   6.686  0.00  0.00    +0.004 A 
ATOM     20  C   LIG    1       22.675 -33.645   8.072  0.00  0.00    +0.009 A 
ATOM     21  C   LIG    1       24.239 -31.046  12.062  0.00  0.00    +0.135 C 
ATOM     22  C   LIG    1       23.697 -32.871   8.640  0.00  0.00    -0.007 A 
ENDROOT
BRANCH  11  23
ATOM     23  C   LIG    1       26.606 -26.202  13.609  0.00  0.00    +0.228 C 
ATOM     24  O   LIG    1       25.563 -25.708  14.017  0.00  0.00    -0.275 OA
ATOM     25  N   LIG    1       27.667 -25.388  13.310  0.00  0.00    -0.328 N 
ATOM     26  H   LIG    1       28.400 -25.688  12.679  0.00  0.00    +0.145 HD
ATOM     27  H   LIG    1       27.482 -24.394  13.351  0.00  0.00    +0.145 HD
ENDBRANCH  11  23
BRANCH   8  28
ATOM     28  N   LIG    1       23.615 -28.186  14.134  0.00  0.00    -0.299 NA
ATOM     29  C   LIG    1       22.852 -27.789  12.950  0.00  0.00    +0.105 C 
ATOM     30  C   LIG    1       22.653 -28.705  15.126  0.00  0.00    +0.105 C 
ENDBRANCH   8  28
BRANCH   5  31
ATOM     31  O   LIG    1       27.652 -29.888   9.856  0.00  0.00    -0.507 OA
ATOM     32  H   LIG    1       27.895 -30.675   9.309  0.00  0.00    +0.292 HD
ENDBRANCH   5  31
BRANCH   6  33
ATOM     33  O   LIG    1       27.106 -30.385  12.615  0.00  0.00    -0.373 OA
ATOM     34  H   LIG    1       27.976 -30.384  12.162  0.00  0.00    +0.211 HD
ENDBRANCH   6  33
BRANCH  17  35
ATOM     35  O   LIG    1       25.250 -31.551   5.572  0.00  0.00    -0.506 OA
ATOM     36  H   LIG    1       24.756 -31.252   4.791  0.00  0.00    +0.292 HD
ENDBRANCH  17  35
BRANCH  21  37
ATOM     37  O   LIG    1       22.925 -31.170  12.606  0.00  0.00    -0.390 OA
ATOM     38  H   LIG    1       22.777 -30.450  13.243  0.00  0.00    +0.210 HD
ENDBRANCH  21  37
TORSDOF 6
ENDMDL
MODEL 3
REMARK VINA RESULT:      -5.1      2.879      7.581
REMARK  Name = *****
REMARK                            x       y       z     vdW  Elec       q    Type
REMARK                         _______ _______ _______ _____ _____    ______ ____
ROOT
ATOM      1  C   LIG    1       23.650 -28.440  14.821  0.00  0.00    +0.013 C 
ATOM      2  C   LIG    1       22.681 -28.499  13.891  0.00  0.00    -0.036 C 
ATOM      3  C   LIG    1       22.755 -29.132  12.500  0.00  0.00    +0.085 C 
ATOM      4  C   LIG    1       21.750 -30.260  12.415  0.00  0.00    +0.050 C 
ATOM      5  C   LIG    1       22.005 -31.419  11.776  0.00  0.00    +0.141 C 
ATOM      6  C   LIG    1       23.288 -31.660  11.019  0.00  0.00    +0.189 C 
ATOM      7  C   LIG    1       24.096 -30.381  10.722  0.00  0.00    +0.089 C 
ATOM      8  C   LIG    1       25.482 -30.691  10.043  0.00  0.00    +0.133 C 
ATOM      9  C   LIG    1       25.582 -32.190   9.623  0.00  0.00    +0.170 C 
ATOM     10  O   LIG    1       26.650 -32.809   9.718  0.00  0.00    -0.294 OA
ATOM     11  C   LIG    1       24.357 -32.874   9.050  0.00  0.00    +0.211 C 
ATOM     12  C   LIG    1       23.092 -32.303   9.632  0.00  0.00    +0.192 C 
ATOM     13  O   LIG    1       22.012 -32.369   9.045  0.00  0.00    -0.293 OA
ATOM     14  C   LIG    1       20.456 -30.088  13.156  0.00  0.00    +0.197 C 
ATOM     15  O   LIG    1       19.664 -31.024  13.234  0.00  0.00    -0.287 OA
ATOM     16  C   LIG    1       20.211 -28.774  13.811  0.00  0.00    +0.071 A 
ATOM     17  C   LIG    1       18.915 -28.309  14.071  0.00  0.00    +0.128 A 
ATOM     18  C   LIG    1       18.719 -27.090  14.720  0.00  0.00    +0.046 A 
ATOM     19  C   LIG    1       19.818 -26.325  15.108  0.00  0.00    +0.004 A 
ATOM     20  C   LIG    1       21.112 -26.776  14.850  0.00  0.00    +0.009 A 
ATOM     21  C   LIG    1       24.186 -29.562  12.036  0.00  0.00    +0.135 C 
ATOM     22  C   LIG    1       21.322 -28.004  14.206  0.00  0.00    -0.007 A 
ENDROOT
BRANCH  11  23
ATOM     23  C   LIG    1       24.341 -32.921   7.547  0.00  0.00    +0.228 C 
ATOM     24  O   LIG    1       25.117 -32.318   6.817  0.00  0.00    -0.275 OA
ATOM     25  N   LIG    1       23.366 -33.708   6.992  0.00  0.00    -0.328 N 
ATOM     26  H   LIG    1       22.526 -33.947   7.505  0.00  0.00    +0.145 HD
ATOM     27  H   LIG    1       23.284 -33.660   5.984  0.00  0.00    +0.145 HD
ENDBRANCH  11  23
BRANCH   8  28
ATOM     28  N   LIG    1       25.785 -29.855   8.840  0.00  0.00    -0.299 NA
ATOM     29  C   LIG    1       24.596 -29.325   8.169  0.00  0.00    +0.105 C 
ATOM     30  C   LIG    1       26.650 -28.707   9.178  0.00  0.00    +0.105 C 
ENDBRANCH   8  28
BRANCH   5  31
ATOM     31  O   LIG    1       21.188 -32.536  11.869  0.00  0.00    -0.507 OA
ATOM     32  H   LIG    1       20.255 -32.251  11.710  0.00  0.00    +0.292 HD
ENDBRANCH   5  31
BRANCH   6  33
ATOM     33  O   LIG    1       24.045 -32.547  11.848  0.00  0.00    -0.373 OA
ATOM     34  H   LIG    1       24.482 -31.981  12.518  0.00  0.00    +0.211 HD
ENDBRANCH   6  33
BRANCH  17  35
ATOM     35  O   LIG    1       17.824 -29.021  13.659  0.00  0.00    -0.506 OA
ATOM     36  H   LIG    1       17.100 -28.925  14.299  0.00  0.00    +0.292 HD
ENDBRANCH  17  35
BRANCH  21  37
ATOM     37  O   LIG    1       24.986 -28.398  11.833  0.00  0.00    -0.390 OA
ATOM     38  H   LIG    1       25.234 -28.345  10.893  0.00  0.00    +0.210 HD
ENDBRANCH  21  37
TORSDOF 6
ENDMDL
MODEL 4
REMARK VINA RESULT:      -5.0      3.147      7.669
REMARK  Name = *****
REMARK                            x       y       z     vdW  Elec       q    Type
REMARK                         _______ _______ _______ _____ _____    ______ ____
ROOT
ATOM      1  C   LIG    1       22.475 -31.979  14.450  0.00  0.00    +0.013 C 
ATOM      2  C   LIG    1       21.901 -31.406  13.378  0.00  0.00    -0.036 C 
ATOM      3  C   LIG    1       22.516 -31.177  11.997  0.00  0.00    +0.085 C 
ATOM      4  C   LIG    1       21.719 -31.948  10.966  0.00  0.00    +0.050 C 
ATOM      5  C   LIG    1       22.294 -32.588   9.929  0.00  0.00    +0.141 C 
ATOM      6  C   LIG    1       23.777 -32.523   9.658  0.00  0.00    +0.189 C 
ATOM      7  C   LIG    1       24.508 -31.395  10.414  0.00  0.00    +0.089 C 
ATOM      8  C   LIG    1       26.066 -31.443  10.200  0.00  0.00    +0.133 C 
ATOM      9  C   LIG    1       26.453 -32.467   9.088  0.00  0.00    +0.170 C 
ATOM     10  O   LIG    1       27.477 -33.156   9.185  0.00  0.00    -0.294 OA
ATOM     11  C   LIG    1       25.578 -32.577   7.856  0.00  0.00    +0.211 C 
ATOM     12  C   LIG    1       24.140 -32.274   8.181  0.00  0.00    +0.192 C 
ATOM     13  O   LIG    1       23.343 -31.882   7.329  0.00  0.00    -0.293 OA
ATOM     14  C   LIG    1       20.238 -32.060  11.183  0.00  0.00    +0.197 C 
ATOM     15  O   LIG    1       19.565 -32.786  10.456  0.00  0.00    -0.287 OA
ATOM     16  C   LIG    1       19.653 -31.301  12.322  0.00  0.00    +0.071 A 
ATOM     17  C   LIG    1       18.308 -30.908  12.332  0.00  0.00    +0.128 A 
ATOM     18  C   LIG    1       17.780 -30.229  13.431  0.00  0.00    +0.046 A 
ATOM     19  C   LIG    1       18.594 -29.936  14.524  0.00  0.00    +0.004 A 
ATOM     20  C   LIG    1       19.936 -30.320  14.521  0.00  0.00    +0.009 A 
ATOM     21  C   LIG    1       24.053 -31.447  11.896  0.00  0.00    +0.135 C 
ATOM     22  C   LIG    1       20.476 -31.010  13.426  0.00  0.00    -0.007 A 
ENDROOT
BRANCH  11  23
ATOM     23  C   LIG    1       26.090 -31.790   6.681  0.00  0.00    +0.228 C 
ATOM     24  O   LIG    1       26.736 -32.256   5.751  0.00  0.00    -0.275 OA
ATOM     25  N   LIG    1       25.791 -30.452   6.692  0.00  0.00    -0.328 N 
ATOM     26  H   LIG    1       25.568 -29.969   7.553  0.00  0.00    +0.145 HD
ATOM     27  H   LIG    1       26.222 -29.901   5.960  0.00  0.00    +0.145 HD
ENDBRANCH  11  23
BRANCH   8  28
ATOM     28  N   LIG    1       26.685 -30.127   9.849  0.00  0.00    -0.299 NA
ATOM     29  C   LIG    1       25.721 -29.034   9.712  0.00  0.00    +0.105 C 
ATOM     30  C   LIG    1       27.685 -29.710  10.852  0.00  0.00    +0.105 C 
ENDBRANCH   8  28
BRANCH   5  31
ATOM     31  O   LIG    1       21.609 -33.470   9.104  0.00  0.00    -0.507 OA
ATOM     32  H   LIG    1       21.866 -34.391   9.356  0.00  0.00    +0.292 HD
ENDBRANCH   5  31
BRANCH   6  33
ATOM     33  O   LIG    1       24.281 -33.801  10.060  0.00  0.00    -0.373 OA
ATOM     34  H   LIG    1       24.487 -34.281   9.230  0.00  0.00    +0.211 HD
ENDBRANCH   6  33
BRANCH  17  35
ATOM     35  O   LIG    1       17.504 -31.144  11.253  0.00  0.00    -0.506 OA
ATOM     36  H   LIG    1       18.042 -31.376  10.479  0.00  0.00    +0.292 HD
ENDBRANCH  17  35
BRANCH  21  37
ATOM     37  O   LIG    1       24.756 -30.465  12.656  0.00  0.00    -0.390 OA
ATOM     38  H   LIG    1       25.259 -30.910  13.361  0.00  0.00    +0.210 HD
ENDBRANCH  21  37
TORSDOF 6
ENDMDL
MODEL 5
REMARK VINA RESULT:      -4.8      3.822      7.237
REMARK  Name = *****
REMARK                            x       y       z     vdW  Elec       q    Type
REMARK                         _______ _______ _______ _____ _____    ______ ____
ROOT
ATOM      1  C   LIG    1       28.097 -28.142  12.310  0.00  0.00    +0.013 C 
ATOM      2  C   LIG    1       26.763 -27.978  12.275  0.00  0.00    -0.036 C 
ATOM      3  C   LIG    1       25.746 -28.749  11.433  0.00  0.00    +0.085 C 
ATOM      4  C   LIG    1       24.793 -29.480  12.353  0.00  0.00    +0.050 C 
ATOM      5  C   LIG    1       24.336 -30.721  12.095  0.00  0.00    +0.141 C 
ATOM      6  C   LIG    1       24.671 -31.458  10.822  0.00  0.00    +0.189 C 
ATOM      7  C   LIG    1       25.247 -30.563   9.706  0.00  0.00    +0.089 C 
ATOM      8  C   LIG    1       25.697 -31.391   8.446  0.00  0.00    +0.133 C 
ATOM      9  C   LIG    1       25.225 -32.874   8.546  0.00  0.00    +0.170 C 
ATOM     10  O   LIG    1       25.937 -33.799   8.132  0.00  0.00    -0.294 OA
ATOM     11  C   LIG    1       23.855 -33.171   9.120  0.00  0.00    +0.211 C 
ATOM     12  C   LIG    1       23.465 -32.150  10.155  0.00  0.00    +0.192 C 
ATOM     13  O   LIG    1       22.291 -31.917  10.438  0.00  0.00    -0.293 OA
ATOM     14  C   LIG    1       24.427 -28.805  13.643  0.00  0.00    +0.197 C 
ATOM     15  O   LIG    1       23.769 -29.409  14.487  0.00  0.00    -0.287 OA
ATOM     16  C   LIG    1       24.929 -27.420  13.858  0.00  0.00    +0.071 A 
ATOM     17  C   LIG    1       24.277 -26.525  14.717  0.00  0.00    +0.128 A 
ATOM     18  C   LIG    1       24.793 -25.245  14.926  0.00  0.00    +0.046 A 
ATOM     19  C   LIG    1       25.961 -24.852  14.275  0.00  0.00    +0.004 A 
ATOM     20  C   LIG    1       26.615 -25.735  13.415  0.00  0.00    +0.009 A 
ATOM     21  C   LIG    1       26.357 -29.680  10.334  0.00  0.00    +0.135 C 
ATOM     22  C   LIG    1       26.111 -27.026  13.203  0.00  0.00    -0.007 A 
ENDROOT
BRANCH  11  23
ATOM     23  C   LIG    1       22.794 -33.376   8.073  0.00  0.00    +0.228 C 
ATOM     24  O   LIG    1       21.674 -33.821   8.285  0.00  0.00    -0.275 OA
ATOM     25  N   LIG    1       23.152 -33.026   6.797  0.00  0.00    -0.328 N 
ATOM     26  H   LIG    1       24.123 -32.977   6.516  0.00  0.00    +0.145 HD
ATOM     27  H   LIG    1       22.481 -33.260   6.075  0.00  0.00    +0.145 HD
ENDBRANCH  11  23
BRANCH   8  28
ATOM     28  N   LIG    1       25.217 -30.843   7.139  0.00  0.00    -0.299 NA
ATOM     29  C   LIG    1       24.897 -29.415   7.175  0.00  0.00    +0.105 C 
ATOM     30  C   LIG    1       26.209 -31.047   6.065  0.00  0.00    +0.105 C 
ENDBRANCH   8  28
BRANCH   5  31
ATOM     31  O   LIG    1       23.640 -31.484  13.021  0.00  0.00    -0.507 OA
ATOM     32  H   LIG    1       22.685 -31.232  12.974  0.00  0.00    +0.292 HD
ENDBRANCH   5  31
BRANCH   6  33
ATOM     33  O   LIG    1       25.628 -32.449  11.211  0.00  0.00    -0.373 OA
ATOM     34  H   LIG    1       25.130 -33.114  11.732  0.00  0.00    +0.211 HD
ENDBRANCH   6  33
BRANCH  17  35
ATOM     35  O   LIG    1       23.107 -26.873  15.330  0.00  0.00    -0.506 OA
ATOM     36  H   LIG    1       23.274 -27.126  16.252  0.00  0.00    +0.292 HD
ENDBRANCH  17  35
BRANCH  21  37
ATOM     37  O   LIG    1       26.973 -28.880   9.325  0.00  0.00    -0.390 OA
ATOM     38  H   LIG    1       27.762 -28.451   9.700  0.00  0.00    +0.210 HD
ENDBRANCH  21  37
TORSDOF 6
ENDMDL
MODEL 6
REMARK VINA RESULT:      -4.8      2.220      2.900
REMARK  Name = *****
REMARK                            x       y       z     vdW  Elec       q    Type
REMARK                         _______ _______ _______ _____ _____    ______ ____
ROOT
ATOM      1  C   LIG    1       25.016 -31.895   6.624  0.00  0.00    +0.013 C 
ATOM      2  C   LIG    1       24.655 -30.718   7.165  0.00  0.00    -0.036 C 
ATOM      3  C   LIG    1       24.022 -30.473   8.536  0.00  0.00    +0.085 C 
ATOM      4  C   LIG    1       24.953 -29.615   9.365  0.00  0.00    +0.050 C 
ATOM      5  C   LIG    1       25.144 -29.811  10.685  0.00  0.00    +0.141 C 
ATOM      6  C   LIG    1       24.381 -30.851  11.468  0.00  0.00    +0.189 C 
ATOM      7  C   LIG    1       23.134 -31.397  10.745  0.00  0.00    +0.089 C 
ATOM      8  C   LIG    1       22.443 -32.565  11.541  0.00  0.00    +0.133 C 
ATOM      9  C   LIG    1       23.050 -32.710  12.971  0.00  0.00    +0.170 C 
ATOM     10  O   LIG    1       23.203 -33.825  13.488  0.00  0.00    -0.294 OA
ATOM     11  C   LIG    1       23.412 -31.459  13.745  0.00  0.00    +0.211 C 
ATOM     12  C   LIG    1       23.835 -30.350  12.820  0.00  0.00    +0.192 C 
ATOM     13  O   LIG    1       23.758 -29.164  13.138  0.00  0.00    -0.293 OA
ATOM     14  C   LIG    1       25.751 -28.568   8.644  0.00  0.00    +0.197 C 
ATOM     15  O   LIG    1       26.619 -27.938   9.242  0.00  0.00    -0.287 OA
ATOM     16  C   LIG    1       25.471 -28.370   7.196  0.00  0.00    +0.071 A 
ATOM     17  C   LIG    1       25.737 -27.154   6.553  0.00  0.00    +0.128 A 
ATOM     18  C   LIG    1       25.498 -27.012   5.185  0.00  0.00    +0.046 A 
ATOM     19  C   LIG    1       24.988 -28.083   4.454  0.00  0.00    +0.004 A 
ATOM     20  C   LIG    1       24.715 -29.297   5.086  0.00  0.00    +0.009 A 
ATOM     21  C   LIG    1       23.548 -31.757   9.294  0.00  0.00    +0.135 C 
ATOM     22  C   LIG    1       24.959 -29.454   6.458  0.00  0.00    -0.007 A 
ENDROOT
BRANCH  11  23
ATOM     23  C   LIG    1       22.355 -31.031  14.726  0.00  0.00    +0.228 C 
ATOM     24  O   LIG    1       22.456 -30.088  15.500  0.00  0.00    -0.275 OA
ATOM     25  N   LIG    1       21.209 -31.782  14.722  0.00  0.00    -0.328 N 
ATOM     26  H   LIG    1       21.201 -32.730  14.367  0.00  0.00    +0.145 HD
ATOM     27  H   LIG    1       20.540 -31.564  15.451  0.00  0.00    +0.145 HD
ENDBRANCH  11  23
BRANCH   8  28
ATOM     28  N   LIG    1       20.960 -32.427  11.683  0.00  0.00    -0.299 NA
ATOM     29  C   LIG    1       20.431 -31.154  11.190  0.00  0.00    +0.105 C 
ATOM     30  C   LIG    1       20.242 -33.507  10.977  0.00  0.00    +0.105 C 
ENDBRANCH   8  28
BRANCH   5  31
ATOM     31  O   LIG    1       26.145 -29.181  11.411  0.00  0.00    -0.507 OA
ATOM     32  H   LIG    1       25.794 -28.315  11.733  0.00  0.00    +0.292 HD
ENDBRANCH   5  31
BRANCH   6  33
ATOM     33  O   LIG    1       25.324 -31.902  11.700  0.00  0.00    -0.373 OA
ATOM     34  H   LIG    1       26.137 -31.466  12.032  0.00  0.00    +0.211 HD
ENDBRANCH   6  33
BRANCH  17  35
ATOM     35  O   LIG    1       26.194 -26.077   7.258  0.00  0.00    -0.506 OA
ATOM     36  H   LIG    1       26.605 -26.371   8.088  0.00  0.00    +0.292 HD
ENDBRANCH  17  35
BRANCH  21  37
ATOM     37  O   LIG    1       22.443 -32.334   8.600  0.00  0.00    -0.390 OA
ATOM     38  H   LIG    1       22.119 -31.700   7.936  0.00  0.00    +0.210 HD
ENDBRANCH  21  37
TORSDOF 6
ENDMDL
MODEL 7
REMARK VINA RESULT:      -4.8      3.294      3.902
REMARK  Name = *****
REMARK                            x       y       z     vdW  Elec       q    Type
REMARK                         _______ _______ _______ _____ _____    ______ ____
ROOT
ATOM      1  C   LIG    1       24.864 -32.029  12.468  0.00  0.00    +0.013 C 
ATOM      2  C   LIG    1       24.386 -30.788  12.270  0.00  0.00    -0.036 C 
ATOM      3  C   LIG    1       22.927 -30.331  12.299  0.00  0.00    +0.085 C 
ATOM      4  C   LIG    1       22.747 -29.320  13.411  0.00  0.00    +0.050 C 
ATOM      5  C   LIG    1       21.651 -29.283  14.194  0.00  0.00    +0.141 C 
ATOM      6  C   LIG    1       20.469 -30.195  13.975  0.00  0.00    +0.189 C 
ATOM      7  C   LIG    1       20.454 -30.890  12.598  0.00  0.00    +0.089 C 
ATOM      8  C   LIG    1       19.275 -31.924  12.462  0.00  0.00    +0.133 C 
ATOM      9  C   LIG    1       18.281 -31.808  13.658  0.00  0.00    +0.170 C 
ATOM     10  O   LIG    1       17.743 -32.814  14.140  0.00  0.00    -0.294 OA
ATOM     11  C   LIG    1       17.942 -30.434  14.199  0.00  0.00    +0.211 C 
ATOM     12  C   LIG    1       19.102 -29.487  14.046  0.00  0.00    +0.192 C 
ATOM     13  O   LIG    1       18.951 -28.266  14.000  0.00  0.00    -0.293 OA
ATOM     14  C   LIG    1       23.892 -28.388  13.688  0.00  0.00    +0.197 C 
ATOM     15  O   LIG    1       23.854 -27.643  14.663  0.00  0.00    -0.287 OA
ATOM     16  C   LIG    1       25.061 -28.447  12.768  0.00  0.00    +0.071 A 
ATOM     17  C   LIG    1       25.916 -27.351  12.592  0.00  0.00    +0.128 A 
ATOM     18  C   LIG    1       27.025 -27.450  11.751  0.00  0.00    +0.046 A 
ATOM     19  C   LIG    1       27.283 -28.644  11.078  0.00  0.00    +0.004 A 
ATOM     20  C   LIG    1       26.435 -29.739  11.244  0.00  0.00    +0.009 A 
ATOM     21  C   LIG    1       21.867 -31.479  12.351  0.00  0.00    +0.135 C 
ATOM     22  C   LIG    1       25.322 -29.655  12.093  0.00  0.00    -0.007 A 
ENDROOT
BRANCH  11  23
ATOM     23  C   LIG    1       16.654 -29.874  13.659  0.00  0.00    +0.228 C 
ATOM     24  O   LIG    1       16.010 -28.970  14.174  0.00  0.00    -0.275 OA
ATOM     25  N   LIG    1       16.202 -30.450  12.500  0.00  0.00    -0.328 N 
ATOM     26  H   LIG    1       16.492 -31.380  12.225  0.00  0.00    +0.145 HD
ATOM     27  H   LIG    1       15.286 -30.150  12.190  0.00  0.00    +0.145 HD
ENDBRANCH  11  23
BRANCH   8  28
ATOM     28  N   LIG    1       18.488 -31.804  11.195  0.00  0.00    -0.299 NA
ATOM     29  C   LIG    1       19.028 -30.825  10.250  0.00  0.00    +0.105 C 
ATOM     30  C   LIG    1       18.395 -33.097  10.487  0.00  0.00    +0.105 C 
ENDBRANCH   8  28
BRANCH   5  31
ATOM     31  O   LIG    1       21.561 -28.512  15.343  0.00  0.00    -0.507 OA
ATOM     32  H   LIG    1       20.930 -27.771  15.171  0.00  0.00    +0.292 HD
ENDBRANCH   5  31
BRANCH   6  33
ATOM     33  O   LIG    1       20.553 -31.166  15.023  0.00  0.00    -0.373 OA
ATOM     34  H   LIG    1       20.786 -32.012  14.587  0.00  0.00    +0.211 HD
ENDBRANCH   6  33
BRANCH  17  35
ATOM     35  O   LIG    1       25.656 -26.159  13.205  0.00  0.00    -0.506 OA
ATOM     36  H   LIG    1       26.487 -25.712  13.433  0.00  0.00    +0.292 HD
ENDBRANCH  17  35
BRANCH  21  37
ATOM     37  O   LIG    1       21.887 -32.197  11.117  0.00  0.00    -0.390 OA
ATOM     38  H   LIG    1       22.810 -32.289  10.819  0.00  0.00    +0.210 HD
ENDBRANCH  21  37
TORSDOF 6
ENDMDL
MODEL 8
REMARK VINA RESULT:      -4.8      4.884      7.339
REMARK  Name = *****
REMARK                            x       y       z     vdW  Elec       q    Type
REMARK                         _______ _______ _______ _____ _____    ______ ____
ROOT
ATOM      1  C   LIG    1       28.539 -28.604  14.860  0.00  0.00    +0.013 C 
ATOM      2  C   LIG    1       27.602 -27.818  14.301  0.00  0.00    -0.036 C 
ATOM      3  C   LIG    1       26.509 -28.222  13.310  0.00  0.00    +0.085 C 
ATOM      4  C   LIG    1       25.155 -27.966  13.935  0.00  0.00    +0.050 C 
ATOM      5  C   LIG    1       24.108 -28.799  13.775  0.00  0.00    +0.141 C 
ATOM      6  C   LIG    1       24.172 -30.019  12.889  0.00  0.00    +0.189 C 
ATOM      7  C   LIG    1       25.367 -30.029  11.914  0.00  0.00    +0.089 C 
ATOM      8  C   LIG    1       25.465 -31.372  11.100  0.00  0.00    +0.133 C 
ATOM      9  C   LIG    1       24.193 -32.252  11.307  0.00  0.00    +0.170 C 
ATOM     10  O   LIG    1       24.276 -33.485  11.376  0.00  0.00    -0.294 OA
ATOM     11  C   LIG    1       22.838 -31.578  11.377  0.00  0.00    +0.211 C 
ATOM     12  C   LIG    1       22.946 -30.199  11.972  0.00  0.00    +0.192 C 
ATOM     13  O   LIG    1       22.115 -29.320  11.747  0.00  0.00    -0.293 OA
ATOM     14  C   LIG    1       25.026 -26.774  14.838  0.00  0.00    +0.197 C 
ATOM     15  O   LIG    1       23.993 -26.597  15.478  0.00  0.00    -0.287 OA
ATOM     16  C   LIG    1       26.202 -25.868  14.948  0.00  0.00    +0.071 A 
ATOM     17  C   LIG    1       26.064 -24.521  15.310  0.00  0.00    +0.128 A 
ATOM     18  C   LIG    1       27.189 -23.706  15.440  0.00  0.00    +0.046 A 
ATOM     19  C   LIG    1       28.459 -24.232  15.205  0.00  0.00    +0.004 A 
ATOM     20  C   LIG    1       28.607 -25.571  14.840  0.00  0.00    +0.009 A 
ATOM     21  C   LIG    1       26.640 -29.665  12.722  0.00  0.00    +0.135 C 
ATOM     22  C   LIG    1       27.484 -26.401  14.714  0.00  0.00    -0.007 A 
ENDROOT
BRANCH  11  23
ATOM     23  C   LIG    1       22.088 -31.595  10.074  0.00  0.00    +0.228 C 
ATOM     24  O   LIG    1       20.970 -31.128   9.900  0.00  0.00    -0.275 OA
ATOM     25  N   LIG    1       22.741 -32.191   9.026  0.00  0.00    -0.328 N 
ATOM     26  H   LIG    1       23.482 -32.863   9.181  0.00  0.00    +0.145 HD
ATOM     27  H   LIG    1       22.200 -32.299   8.177  0.00  0.00    +0.145 HD
ENDBRANCH  11  23
BRANCH   8  28
ATOM     28  N   LIG    1       25.665 -31.192   9.628  0.00  0.00    -0.299 NA
ATOM     29  C   LIG    1       25.530 -29.807   9.174  0.00  0.00    +0.105 C 
ATOM     30  C   LIG    1       26.993 -31.671   9.196  0.00  0.00    +0.105 C 
ENDBRANCH   8  28
BRANCH   5  31
ATOM     31  O   LIG    1       22.934 -28.697  14.507  0.00  0.00    -0.507 OA
ATOM     32  H   LIG    1       22.991 -27.887  15.071  0.00  0.00    +0.292 HD
ENDBRANCH   5  31
BRANCH   6  33
ATOM     33  O   LIG    1       24.254 -31.126  13.791  0.00  0.00    -0.373 OA
ATOM     34  H   LIG    1       23.751 -30.861  14.589  0.00  0.00    +0.211 HD
ENDBRANCH   6  33
BRANCH  17  35
ATOM     35  O   LIG    1       24.827 -23.973  15.500  0.00  0.00    -0.506 OA
ATOM     36  H   LIG    1       24.511 -23.565  14.677  0.00  0.00    +0.292 HD
ENDBRANCH  17  35
BRANCH  21  37
ATOM     37  O   LIG    1       27.789 -29.730  11.878  0.00  0.00    -0.390 OA
ATOM     38  H   LIG    1       28.148 -28.832  11.764  0.00  0.00    +0.210 HD
ENDBRANCH  21  37
TORSDOF 6
ENDMDL
MODEL 9
REMARK VINA RESULT:      -4.7      3.492      7.274
REMARK  Name = *****
REMARK                            x       y       z     vdW  Elec       q    Type
REMARK                         _______ _______ _______ _____ _____    ______ ____
ROOT
ATOM      1  C   LIG    1       20.513 -32.044  15.257  0.00  0.00    +0.013 C 
ATOM      2  C   LIG    1       20.379 -31.341  14.119  0.00  0.00    -0.036 C 
ATOM      3  C   LIG    1       21.470 -30.611  13.334  0.00  0.00    +0.085 C 
ATOM      4  C   LIG    1       21.585 -31.226  11.956  0.00  0.00    +0.050 C 
ATOM      5  C   LIG    1       22.767 -31.414  11.336  0.00  0.00    +0.141 C 
ATOM      6  C   LIG    1       24.074 -30.949  11.929  0.00  0.00    +0.189 C 
ATOM      7  C   LIG    1       23.921 -29.939  13.083  0.00  0.00    +0.089 C 
ATOM      8  C   LIG    1       25.299 -29.578  13.752  0.00  0.00    +0.133 C 
ATOM      9  C   LIG    1       26.493 -30.145  12.925  0.00  0.00    +0.170 C 
ATOM     10  O   LIG    1       27.504 -30.589  13.486  0.00  0.00    -0.294 OA
ATOM     11  C   LIG    1       26.422 -30.105  11.412  0.00  0.00    +0.211 C 
ATOM     12  C   LIG    1       25.002 -30.230  10.930  0.00  0.00    +0.192 C 
ATOM     13  O   LIG    1       24.641 -29.806   9.832  0.00  0.00    -0.293 OA
ATOM     14  C   LIG    1       20.321 -31.720  11.314  0.00  0.00    +0.197 C 
ATOM     15  O   LIG    1       20.373 -32.349  10.260  0.00  0.00    -0.287 OA
ATOM     16  C   LIG    1       19.041 -31.452  12.026  0.00  0.00    +0.071 A 
ATOM     17  C   LIG    1       17.818 -31.386  11.344  0.00  0.00    +0.128 A 
ATOM     18  C   LIG    1       16.631 -31.170  12.045  0.00  0.00    +0.046 A 
ATOM     19  C   LIG    1       16.660 -31.015  13.430  0.00  0.00    +0.004 A 
ATOM     20  C   LIG    1       17.873 -31.075  14.117  0.00  0.00    +0.009 A 
ATOM     21  C   LIG    1       22.851 -30.494  14.060  0.00  0.00    +0.135 C 
ATOM     22  C   LIG    1       19.071 -31.300  13.425  0.00  0.00    -0.007 A 
ENDROOT
BRANCH  11  23
ATOM     23  C   LIG    1       27.144 -28.933  10.805  0.00  0.00    +0.228 C 
ATOM     24  O   LIG    1       27.372 -28.788   9.612  0.00  0.00    -0.275 OA
ATOM     25  N   LIG    1       27.564 -27.976  11.693  0.00  0.00    -0.328 N 
ATOM     26  H   LIG    1       27.701 -28.190  12.673  0.00  0.00    +0.145 HD
ATOM     27  H   LIG    1       28.140 -27.240  11.304  0.00  0.00    +0.145 HD
ENDBRANCH  11  23
BRANCH   8  28
ATOM     28  N   LIG    1       25.529 -28.113  13.948  0.00  0.00    -0.299 NA
ATOM     29  C   LIG    1       24.477 -27.265  13.385  0.00  0.00    +0.105 C 
ATOM     30  C   LIG    1       25.656 -27.768  15.378  0.00  0.00    +0.105 C 
ENDBRANCH   8  28
BRANCH   5  31
ATOM     31  O   LIG    1       22.909 -32.164  10.178  0.00  0.00    -0.507 OA
ATOM     32  H   LIG    1       22.054 -32.133   9.683  0.00  0.00    +0.292 HD
ENDBRANCH   5  31
BRANCH   6  33
ATOM     33  O   LIG    1       24.714 -32.143  12.393  0.00  0.00    -0.373 OA
ATOM     34  H   LIG    1       25.647 -32.078  12.100  0.00  0.00    +0.211 HD
ENDBRANCH   6  33
BRANCH  17  35
ATOM     35  O   LIG    1       17.772 -31.489   9.983  0.00  0.00    -0.506 OA
ATOM     36  H   LIG    1       18.395 -30.864   9.578  0.00  0.00    +0.292 HD
ENDBRANCH  17  35
BRANCH  21  37
ATOM     37  O   LIG    1       22.720 -29.628  15.186  0.00  0.00    -0.390 OA
ATOM     38  H   LIG    1       23.143 -30.045  15.957  0.00  0.00    +0.210 HD
ENDBRANCH  21  37
TORSDOF 6
ENDMDL
