MODEL 1
REMARK VINA RESULT:      -9.9      0.000      0.000
REMARK  Name = *****
REMARK                            x       y       z     vdW  Elec       q    Type
REMARK                         _______ _______ _______ _____ _____    ______ ____
ROOT
ATOM      1  C   LIG    1       22.931 -21.314   6.327  0.00  0.00    +0.147 C 
ENDROOT
BRANCH   1   2
ATOM      2  N   LIG    1       24.149 -20.696   5.751  0.00  0.00    -0.315 N 
ATOM      3  C   LIG    1       24.519 -20.953   4.359  0.00  0.00    +0.131 C 
BRANCH   2   8
ATOM      4  C   LIG    1       27.557 -20.538   7.058  0.00  0.00    +0.225 A 
ATOM      5  N   LIG    1       27.369 -20.392   8.374  0.00  0.00    -0.201 NA
ATOM      6  C   LIG    1       26.086 -20.460   8.768  0.00  0.00    +0.227 A 
ATOM      7  N   LIG    1       25.002 -20.581   7.975  0.00  0.00    -0.221 NA
ATOM      8  C   LIG    1       25.230 -20.723   6.661  0.00  0.00    +0.128 A 
ATOM      9  C   LIG    1       26.525 -20.830   6.196  0.00  0.00    +0.111 A 
BRANCH   4  10
ATOM     10  O   LIG    1       28.857 -20.354   6.598  0.00  0.00    -0.438 OA
BRANCH  10  14
ATOM     11  C   LIG    1       31.501 -18.504   9.274  0.00  0.00    +0.120 A 
ATOM     12  C   LIG    1       31.523 -19.889   9.151  0.00  0.00    +0.049 A 
ATOM     13  C   LIG    1       30.745 -20.505   8.168  0.00  0.00    +0.050 A 
ATOM     14  C   LIG    1       29.782 -19.778   7.453  0.00  0.00    +0.131 A 
ATOM     15  C   LIG    1       29.740 -18.395   7.601  0.00  0.00    +0.050 A 
ATOM     16  C   LIG    1       30.614 -17.762   8.488  0.00  0.00    +0.049 A 
BRANCH  11  18
ATOM     17  C   LIG    1       32.762 -16.614   9.837  0.00  0.00    +0.277 C 
ATOM     18  O   LIG    1       32.375 -17.948  10.171  0.00  0.00    -0.495 OA
ENDBRANCH  11  18
ENDBRANCH  10  14
ENDBRANCH   4  10
ENDBRANCH   2   8
ENDBRANCH   1   2
BRANCH   1  19
ATOM     19  C   LIG    1       22.949 -22.847   6.403  0.00  0.00    +0.248 C 
BRANCH  19  20
ATOM     20  O   LIG    1       24.176 -23.332   7.006  0.00  0.00    -0.490 OA
BRANCH  20  21
ATOM     21  C   LIG    1       24.593 -24.563   6.558  0.00  0.00    +0.121 A 
ATOM     22  C   LIG    1       23.707 -25.539   6.149  0.00  0.00    +0.046 A 
ATOM     23  C   LIG    1       24.158 -26.778   5.724  0.00  0.00    +0.007 A 
ATOM     24  C   LIG    1       25.500 -27.136   5.696  0.00  0.00    -0.046 A 
ATOM     25  C   LIG    1       26.408 -26.154   6.112  0.00  0.00    +0.007 A 
ATOM     26  C   LIG    1       25.960 -24.869   6.510  0.00  0.00    +0.046 A 
BRANCH  24  27
ATOM     27  C   LIG    1       25.951 -28.537   5.316  0.00  0.00    +0.059 C 
BRANCH  27  28
ATOM     28  C   LIG    1       25.066 -29.712   5.785  0.00  0.00    +0.146 C 
ATOM     29  C   LIG    1       25.110 -30.046   7.278  0.00  0.00    +0.234 C 
ATOM     30  O   LIG    1       24.356 -29.611   8.147  0.00  0.00    -0.274 OA
ATOM     31  N   LIG    1       26.039 -30.962   7.592  0.00  0.00    -0.246 N 
ATOM     32  H   LIG    1       26.082 -31.288   8.540  0.00  0.00    +0.158 HD
ATOM     33  C   LIG    1       26.281 -31.885   6.612  0.00  0.00    +0.279 C 
ATOM     34  O   LIG    1       26.719 -32.984   6.793  0.00  0.00    -0.263 OA
ATOM     35  S   LIG    1       25.723 -31.281   5.063  0.00  0.00    -0.054 S 
ENDBRANCH  27  28
ENDBRANCH  24  27
ENDBRANCH  20  21
ENDBRANCH  19  20
ENDBRANCH   1  19
TORSDOF 10
ENDMDL
MODEL 2
REMARK VINA RESULT:      -9.8      1.642      2.248
REMARK  Name = *****
REMARK                            x       y       z     vdW  Elec       q    Type
REMARK                         _______ _______ _______ _____ _____    ______ ____
ROOT
ATOM      1  C   LIG    1       24.855 -23.408   5.227  0.00  0.00    +0.147 C 
ENDROOT
BRANCH   1   2
ATOM      2  N   LIG    1       24.406 -23.187   6.623  0.00  0.00    -0.315 N 
ATOM      3  C   LIG    1       23.005 -22.872   6.906  0.00  0.00    +0.131 C 
BRANCH   2   8
ATOM      4  C   LIG    1       27.570 -21.691   7.669  0.00  0.00    +0.225 A 
ATOM      5  N   LIG    1       27.182 -20.703   8.483  0.00  0.00    -0.201 NA
ATOM      6  C   LIG    1       25.860 -20.659   8.721  0.00  0.00    +0.227 A 
ATOM      7  N   LIG    1       24.913 -21.447   8.172  0.00  0.00    -0.221 NA
ATOM      8  C   LIG    1       25.340 -22.424   7.359  0.00  0.00    +0.128 A 
ATOM      9  C   LIG    1       26.694 -22.639   7.195  0.00  0.00    +0.111 A 
BRANCH   4  10
ATOM     10  O   LIG    1       28.912 -21.696   7.304  0.00  0.00    -0.438 OA
BRANCH  10  14
ATOM     11  C   LIG    1       31.071 -18.228   8.246  0.00  0.00    +0.120 A 
ATOM     12  C   LIG    1       31.238 -19.363   9.033  0.00  0.00    +0.049 A 
ATOM     13  C   LIG    1       30.631 -20.561   8.650  0.00  0.00    +0.050 A 
ATOM     14  C   LIG    1       29.683 -20.588   7.616  0.00  0.00    +0.131 A 
ATOM     15  C   LIG    1       29.494 -19.442   6.850  0.00  0.00    +0.050 A 
ATOM     16  C   LIG    1       30.205 -18.277   7.150  0.00  0.00    +0.049 A 
BRANCH  11  18
ATOM     17  C   LIG    1       32.319 -17.180   9.927  0.00  0.00    +0.277 C 
ATOM     18  O   LIG    1       31.789 -17.116   8.602  0.00  0.00    -0.495 OA
ENDBRANCH  11  18
ENDBRANCH  10  14
ENDBRANCH   4  10
ENDBRANCH   2   8
ENDBRANCH   1   2
BRANCH   1  19
ATOM     19  C   LIG    1       24.879 -24.874   4.772  0.00  0.00    +0.248 C 
BRANCH  19  20
ATOM     20  O   LIG    1       25.934 -25.617   5.434  0.00  0.00    -0.490 OA
BRANCH  20  21
ATOM     21  C   LIG    1       25.525 -26.775   6.053  0.00  0.00    +0.121 A 
ATOM     22  C   LIG    1       24.538 -27.583   5.528  0.00  0.00    +0.046 A 
ATOM     23  C   LIG    1       24.132 -28.732   6.188  0.00  0.00    +0.007 A 
ATOM     24  C   LIG    1       24.657 -29.140   7.408  0.00  0.00    -0.046 A 
ATOM     25  C   LIG    1       25.657 -28.324   7.952  0.00  0.00    +0.007 A 
ATOM     26  C   LIG    1       26.108 -27.169   7.265  0.00  0.00    +0.046 A 
BRANCH  24  27
ATOM     27  C   LIG    1       24.119 -30.353   8.149  0.00  0.00    +0.059 C 
BRANCH  27  28
ATOM     28  C   LIG    1       24.700 -31.730   7.759  0.00  0.00    +0.146 C 
ATOM     29  C   LIG    1       26.170 -31.753   7.330  0.00  0.00    +0.234 C 
ATOM     30  O   LIG    1       27.140 -31.959   8.057  0.00  0.00    -0.274 OA
ATOM     31  N   LIG    1       26.341 -31.598   6.009  0.00  0.00    -0.246 N 
ATOM     32  H   LIG    1       27.271 -31.674   5.639  0.00  0.00    +0.158 HD
ATOM     33  C   LIG    1       25.330 -32.105   5.240  0.00  0.00    +0.279 C 
ATOM     34  O   LIG    1       25.439 -32.455   4.101  0.00  0.00    -0.263 OA
ATOM     35  S   LIG    1       23.880 -32.307   6.207  0.00  0.00    -0.054 S 
ENDBRANCH  27  28
ENDBRANCH  24  27
ENDBRANCH  20  21
ENDBRANCH  19  20
ENDBRANCH   1  19
TORSDOF 10
ENDMDL
MODEL 3
REMARK VINA RESULT:      -9.6      1.566      1.673
REMARK  Name = *****
REMARK                            x       y       z     vdW  Elec       q    Type
REMARK                         _______ _______ _______ _____ _____    ______ ____
ROOT
ATOM      1  C   LIG    1       23.209 -21.997   5.759  0.00  0.00    +0.147 C 
ENDROOT
BRANCH   1   2
ATOM      2  N   LIG    1       23.912 -20.694   5.829  0.00  0.00    -0.315 N 
ATOM      3  C   LIG    1       24.120 -19.902   4.617  0.00  0.00    +0.131 C 
BRANCH   2   8
ATOM      4  C   LIG    1       27.369 -20.564   7.005  0.00  0.00    +0.225 A 
ATOM      5  N   LIG    1       27.232 -20.466   8.332  0.00  0.00    -0.201 NA
ATOM      6  C   LIG    1       25.967 -20.555   8.774  0.00  0.00    +0.227 A 
ATOM      7  N   LIG    1       24.852 -20.654   8.020  0.00  0.00    -0.221 NA
ATOM      8  C   LIG    1       25.029 -20.748   6.694  0.00  0.00    +0.128 A 
ATOM      9  C   LIG    1       26.305 -20.831   6.175  0.00  0.00    +0.111 A 
BRANCH   4  10
ATOM     10  O   LIG    1       28.649 -20.357   6.500  0.00  0.00    -0.438 OA
BRANCH  10  14
ATOM     11  C   LIG    1       31.442 -18.724   9.166  0.00  0.00    +0.120 A 
ATOM     12  C   LIG    1       31.311 -20.106   9.087  0.00  0.00    +0.049 A 
ATOM     13  C   LIG    1       30.484 -20.664   8.109  0.00  0.00    +0.050 A 
ATOM     14  C   LIG    1       29.619 -19.859   7.354  0.00  0.00    +0.131 A 
ATOM     15  C   LIG    1       29.730 -18.475   7.458  0.00  0.00    +0.050 A 
ATOM     16  C   LIG    1       30.656 -17.915   8.341  0.00  0.00    +0.049 A 
BRANCH  11  18
ATOM     17  C   LIG    1       32.161 -16.863  10.391  0.00  0.00    +0.277 C 
ATOM     18  O   LIG    1       32.359 -18.239  10.061  0.00  0.00    -0.495 OA
ENDBRANCH  11  18
ENDBRANCH  10  14
ENDBRANCH   4  10
ENDBRANCH   2   8
ENDBRANCH   1   2
BRANCH   1  19
ATOM     19  C   LIG    1       23.910 -23.158   6.479  0.00  0.00    +0.248 C 
BRANCH  19  20
ATOM     20  O   LIG    1       24.710 -23.945   5.560  0.00  0.00    -0.490 OA
BRANCH  20  21
ATOM     21  C   LIG    1       24.878 -25.261   5.920  0.00  0.00    +0.121 A 
ATOM     22  C   LIG    1       24.071 -26.269   5.432  0.00  0.00    +0.046 A 
ATOM     23  C   LIG    1       24.252 -27.583   5.833  0.00  0.00    +0.007 A 
ATOM     24  C   LIG    1       25.219 -27.978   6.749  0.00  0.00    -0.046 A 
ATOM     25  C   LIG    1       26.041 -26.963   7.253  0.00  0.00    +0.007 A 
ATOM     26  C   LIG    1       25.891 -25.621   6.818  0.00  0.00    +0.046 A 
BRANCH  24  27
ATOM     27  C   LIG    1       25.324 -29.413   7.237  0.00  0.00    +0.059 C 
BRANCH  27  28
ATOM     28  C   LIG    1       25.366 -29.635   8.765  0.00  0.00    +0.146 C 
ATOM     29  C   LIG    1       26.676 -30.183   9.339  0.00  0.00    +0.234 C 
ATOM     30  O   LIG    1       27.615 -29.521   9.778  0.00  0.00    -0.274 OA
ATOM     31  N   LIG    1       26.709 -31.522   9.407  0.00  0.00    -0.246 N 
ATOM     32  H   LIG    1       27.504 -31.955   9.838  0.00  0.00    +0.158 HD
ATOM     33  C   LIG    1       25.493 -32.111   9.623  0.00  0.00    +0.279 C 
ATOM     34  O   LIG    1       25.328 -33.187  10.119  0.00  0.00    -0.263 OA
ATOM     35  S   LIG    1       24.202 -31.001   9.203  0.00  0.00    -0.054 S 
ENDBRANCH  27  28
ENDBRANCH  24  27
ENDBRANCH  20  21
ENDBRANCH  19  20
ENDBRANCH   1  19
TORSDOF 10
ENDMDL
MODEL 4
REMARK VINA RESULT:      -9.6      1.780      3.090
REMARK  Name = *****
REMARK                            x       y       z     vdW  Elec       q    Type
REMARK                         _______ _______ _______ _____ _____    ______ ____
ROOT
ATOM      1  C   LIG    1       27.280 -22.173   7.382  0.00  0.00    +0.147 C 
ENDROOT
BRANCH   1   2
ATOM      2  N   LIG    1       27.752 -20.780   7.195  0.00  0.00    -0.315 N 
ATOM      3  C   LIG    1       27.415 -20.046   5.974  0.00  0.00    +0.131 C 
BRANCH   2   8
ATOM      4  C   LIG    1       30.901 -19.176   8.121  0.00  0.00    +0.225 A 
ATOM      5  N   LIG    1       31.539 -20.136   8.802  0.00  0.00    -0.201 NA
ATOM      6  C   LIG    1       30.908 -21.322   8.823  0.00  0.00    +0.227 A 
ATOM      7  N   LIG    1       29.696 -21.603   8.303  0.00  0.00    -0.221 NA
ATOM      8  C   LIG    1       29.086 -20.616   7.630  0.00  0.00    +0.128 A 
ATOM      9  C   LIG    1       29.741 -19.419   7.421  0.00  0.00    +0.111 A 
BRANCH   4  10
ATOM     10  O   LIG    1       31.462 -17.905   8.177  0.00  0.00    -0.438 OA
BRANCH  10  14
ATOM     11  C   LIG    1       32.162 -16.012  11.851  0.00  0.00    +0.120 A 
ATOM     12  C   LIG    1       31.092 -16.892  11.738  0.00  0.00    +0.049 A 
ATOM     13  C   LIG    1       30.929 -17.630  10.563  0.00  0.00    +0.050 A 
ATOM     14  C   LIG    1       31.691 -17.341   9.421  0.00  0.00    +0.131 A 
ATOM     15  C   LIG    1       32.742 -16.435   9.528  0.00  0.00    +0.050 A 
ATOM     16  C   LIG    1       32.990 -15.796  10.746  0.00  0.00    +0.049 A 
BRANCH  11  18
ATOM     17  C   LIG    1       32.423 -16.331  14.155  0.00  0.00    +0.277 C 
ATOM     18  O   LIG    1       32.342 -15.409  13.068  0.00  0.00    -0.495 OA
ENDBRANCH  11  18
ENDBRANCH  10  14
ENDBRANCH   4  10
ENDBRANCH   2   8
ENDBRANCH   1   2
BRANCH   1  19
ATOM     19  C   LIG    1       25.761 -22.335   7.530  0.00  0.00    +0.248 C 
BRANCH  19  20
ATOM     20  O   LIG    1       25.162 -22.847   6.312  0.00  0.00    -0.490 OA
BRANCH  20  21
ATOM     21  C   LIG    1       25.323 -24.198   6.112  0.00  0.00    +0.121 A 
ATOM     22  C   LIG    1       25.741 -25.048   7.115  0.00  0.00    +0.046 A 
ATOM     23  C   LIG    1       25.916 -26.401   6.875  0.00  0.00    +0.007 A 
ATOM     24  C   LIG    1       25.711 -26.991   5.634  0.00  0.00    -0.046 A 
ATOM     25  C   LIG    1       25.290 -26.137   4.608  0.00  0.00    +0.007 A 
ATOM     26  C   LIG    1       25.068 -24.758   4.853  0.00  0.00    +0.046 A 
BRANCH  24  27
ATOM     27  C   LIG    1       26.007 -28.461   5.385  0.00  0.00    +0.059 C 
BRANCH  27  28
ATOM     28  C   LIG    1       24.886 -29.470   5.717  0.00  0.00    +0.146 C 
ATOM     29  C   LIG    1       24.699 -29.820   7.196  0.00  0.00    +0.234 C 
ATOM     30  O   LIG    1       23.935 -29.268   7.986  0.00  0.00    -0.274 OA
ATOM     31  N   LIG    1       25.416 -30.884   7.587  0.00  0.00    -0.246 N 
ATOM     32  H   LIG    1       25.293 -31.220   8.524  0.00  0.00    +0.158 HD
ATOM     33  C   LIG    1       25.610 -31.827   6.615  0.00  0.00    +0.279 C 
ATOM     34  O   LIG    1       25.830 -32.986   6.814  0.00  0.00    -0.263 OA
ATOM     35  S   LIG    1       25.346 -31.123   5.030  0.00  0.00    -0.054 S 
ENDBRANCH  27  28
ENDBRANCH  24  27
ENDBRANCH  20  21
ENDBRANCH  19  20
ENDBRANCH   1  19
TORSDOF 10
ENDMDL
MODEL 5
REMARK VINA RESULT:      -9.6      3.818     10.128
REMARK  Name = *****
REMARK                            x       y       z     vdW  Elec       q    Type
REMARK                         _______ _______ _______ _____ _____    ______ ____
ROOT
ATOM      1  C   LIG    1       24.061 -25.890   5.867  0.00  0.00    +0.147 C 
ENDROOT
BRANCH   1   2
ATOM      2  N   LIG    1       25.203 -26.621   6.468  0.00  0.00    -0.315 N 
ATOM      3  C   LIG    1       26.573 -26.318   6.052  0.00  0.00    +0.131 C 
BRANCH   2   8
ATOM      4  C   LIG    1       24.870 -29.927   7.986  0.00  0.00    +0.225 A 
ATOM      5  N   LIG    1       24.082 -30.577   7.122  0.00  0.00    -0.201 NA
ATOM      6  C   LIG    1       23.785 -29.890   6.007  0.00  0.00    +0.227 A 
ATOM      7  N   LIG    1       24.135 -28.619   5.723  0.00  0.00    -0.221 NA
ATOM      8  C   LIG    1       24.924 -27.999   6.613  0.00  0.00    +0.128 A 
ATOM      9  C   LIG    1       25.408 -28.693   7.703  0.00  0.00    +0.111 A 
BRANCH   4  10
ATOM     10  O   LIG    1       25.101 -30.558   9.204  0.00  0.00    -0.438 OA
BRANCH  10  14
ATOM     11  C   LIG    1       23.514 -28.703  12.613  0.00  0.00    +0.120 A 
ATOM     12  C   LIG    1       22.659 -29.387  11.756  0.00  0.00    +0.049 A 
ATOM     13  C   LIG    1       23.192 -30.122  10.694  0.00  0.00    +0.050 A 
ATOM     14  C   LIG    1       24.545 -30.004  10.346  0.00  0.00    +0.131 A 
ATOM     15  C   LIG    1       25.395 -29.293  11.189  0.00  0.00    +0.050 A 
ATOM     16  C   LIG    1       24.883 -28.669  12.330  0.00  0.00    +0.049 A 
BRANCH  11  18
ATOM     17  C   LIG    1       22.246 -26.898  13.396  0.00  0.00    +0.277 C 
ATOM     18  O   LIG    1       22.946 -28.104  13.707  0.00  0.00    -0.495 OA
ENDBRANCH  11  18
ENDBRANCH  10  14
ENDBRANCH   4  10
ENDBRANCH   2   8
ENDBRANCH   1   2
BRANCH   1  19
ATOM     19  C   LIG    1       23.709 -24.557   6.543  0.00  0.00    +0.248 C 
BRANCH  19  20
ATOM     20  O   LIG    1       24.097 -23.428   5.721  0.00  0.00    -0.490 OA
BRANCH  20  21
ATOM     21  C   LIG    1       25.030 -22.592   6.288  0.00  0.00    +0.121 A 
ATOM     22  C   LIG    1       25.420 -21.410   5.695  0.00  0.00    +0.046 A 
ATOM     23  C   LIG    1       26.380 -20.601   6.281  0.00  0.00    +0.007 A 
ATOM     24  C   LIG    1       27.025 -20.917   7.470  0.00  0.00    -0.046 A 
ATOM     25  C   LIG    1       26.639 -22.118   8.080  0.00  0.00    +0.007 A 
ATOM     26  C   LIG    1       25.629 -22.932   7.509  0.00  0.00    +0.046 A 
BRANCH  24  27
ATOM     27  C   LIG    1       28.142 -20.054   8.034  0.00  0.00    +0.059 C 
BRANCH  27  28
ATOM     28  C   LIG    1       29.586 -20.415   7.622  0.00  0.00    +0.146 C 
ATOM     29  C   LIG    1       30.575 -20.678   8.761  0.00  0.00    +0.234 C 
ATOM     30  O   LIG    1       30.836 -21.769   9.265  0.00  0.00    -0.274 OA
ATOM     31  N   LIG    1       31.239 -19.581   9.153  0.00  0.00    -0.246 N 
ATOM     32  H   LIG    1       31.957 -19.684   9.847  0.00  0.00    +0.158 HD
ATOM     33  C   LIG    1       31.468 -18.669   8.160  0.00  0.00    +0.279 C 
ATOM     34  O   LIG    1       32.353 -17.863   8.155  0.00  0.00    -0.263 OA
ATOM     35  S   LIG    1       30.366 -18.943   6.823  0.00  0.00    -0.054 S 
ENDBRANCH  27  28
ENDBRANCH  24  27
ENDBRANCH  20  21
ENDBRANCH  19  20
ENDBRANCH   1  19
TORSDOF 10
ENDMDL
MODEL 6
REMARK VINA RESULT:      -9.5      1.647      2.126
REMARK  Name = *****
REMARK                            x       y       z     vdW  Elec       q    Type
REMARK                         _______ _______ _______ _____ _____    ______ ____
ROOT
ATOM      1  C   LIG    1       25.021 -23.018   7.201  0.00  0.00    +0.147 C 
ENDROOT
BRANCH   1   2
ATOM      2  N   LIG    1       24.862 -21.562   7.429  0.00  0.00    -0.315 N 
ATOM      3  C   LIG    1       23.624 -20.885   7.039  0.00  0.00    +0.131 C 
BRANCH   2   8
ATOM      4  C   LIG    1       28.284 -20.304   7.654  0.00  0.00    +0.225 A 
ATOM      5  N   LIG    1       28.505 -19.811   6.429  0.00  0.00    -0.201 NA
ATOM      6  C   LIG    1       27.438 -19.836   5.614  0.00  0.00    +0.227 A 
ATOM      7  N   LIG    1       26.226 -20.364   5.883  0.00  0.00    -0.221 NA
ATOM      8  C   LIG    1       26.043 -20.851   7.120  0.00  0.00    +0.128 A 
ATOM      9  C   LIG    1       27.037 -20.712   8.067  0.00  0.00    +0.111 A 
BRANCH   4  10
ATOM     10  O   LIG    1       29.394 -20.405   8.486  0.00  0.00    -0.438 OA
BRANCH  10  14
ATOM     11  C   LIG    1       31.744 -16.963   8.944  0.00  0.00    +0.120 A 
ATOM     12  C   LIG    1       30.465 -16.986   9.489  0.00  0.00    +0.049 A 
ATOM     13  C   LIG    1       29.726 -18.171   9.461  0.00  0.00    +0.050 A 
ATOM     14  C   LIG    1       30.158 -19.270   8.705  0.00  0.00    +0.131 A 
ATOM     15  C   LIG    1       31.426 -19.233   8.133  0.00  0.00    +0.050 A 
ATOM     16  C   LIG    1       32.223 -18.094   8.276  0.00  0.00    +0.049 A 
BRANCH  11  18
ATOM     17  C   LIG    1       32.956 -15.631  10.439  0.00  0.00    +0.277 C 
ATOM     18  O   LIG    1       32.468 -15.812   9.109  0.00  0.00    -0.495 OA
ENDBRANCH  11  18
ENDBRANCH  10  14
ENDBRANCH   4  10
ENDBRANCH   2   8
ENDBRANCH   1   2
BRANCH   1  19
ATOM     19  C   LIG    1       24.298 -23.568   5.963  0.00  0.00    +0.248 C 
BRANCH  19  20
ATOM     20  O   LIG    1       25.189 -24.366   5.142  0.00  0.00    -0.490 OA
BRANCH  20  21
ATOM     21  C   LIG    1       25.132 -25.720   5.376  0.00  0.00    +0.121 A 
ATOM     22  C   LIG    1       24.173 -26.289   6.188  0.00  0.00    +0.046 A 
ATOM     23  C   LIG    1       24.157 -27.655   6.422  0.00  0.00    +0.007 A 
ATOM     24  C   LIG    1       25.092 -28.534   5.890  0.00  0.00    -0.046 A 
ATOM     25  C   LIG    1       26.073 -27.966   5.067  0.00  0.00    +0.007 A 
ATOM     26  C   LIG    1       26.073 -26.576   4.788  0.00  0.00    +0.046 A 
BRANCH  24  27
ATOM     27  C   LIG    1       25.101 -30.011   6.247  0.00  0.00    +0.059 C 
BRANCH  27  28
ATOM     28  C   LIG    1       24.928 -30.376   7.737  0.00  0.00    +0.146 C 
ATOM     29  C   LIG    1       26.017 -29.879   8.692  0.00  0.00    +0.234 C 
ATOM     30  O   LIG    1       26.007 -28.825   9.326  0.00  0.00    -0.274 OA
ATOM     31  N   LIG    1       27.017 -30.756   8.862  0.00  0.00    -0.246 N 
ATOM     32  H   LIG    1       27.734 -30.534   9.529  0.00  0.00    +0.158 HD
ATOM     33  C   LIG    1       26.645 -32.068   8.773  0.00  0.00    +0.279 C 
ATOM     34  O   LIG    1       27.224 -32.985   9.280  0.00  0.00    -0.263 OA
ATOM     35  S   LIG    1       25.112 -32.205   7.930  0.00  0.00    -0.054 S 
ENDBRANCH  27  28
ENDBRANCH  24  27
ENDBRANCH  20  21
ENDBRANCH  19  20
ENDBRANCH   1  19
TORSDOF 10
ENDMDL
MODEL 7
REMARK VINA RESULT:      -9.4      3.845      9.515
REMARK  Name = *****
REMARK                            x       y       z     vdW  Elec       q    Type
REMARK                         _______ _______ _______ _____ _____    ______ ____
ROOT
ATOM      1  C   LIG    1       24.073 -25.870   5.784  0.00  0.00    +0.147 C 
ENDROOT
BRANCH   1   2
ATOM      2  N   LIG    1       25.266 -26.575   6.309  0.00  0.00    -0.315 N 
ATOM      3  C   LIG    1       26.586 -26.323   5.729  0.00  0.00    +0.131 C 
BRANCH   2   8
ATOM      4  C   LIG    1       25.052 -29.754   8.097  0.00  0.00    +0.225 A 
ATOM      5  N   LIG    1       24.187 -30.457   7.358  0.00  0.00    -0.201 NA
ATOM      6  C   LIG    1       23.796 -29.852   6.224  0.00  0.00    +0.227 A 
ATOM      7  N   LIG    1       24.126 -28.609   5.815  0.00  0.00    -0.221 NA
ATOM      8  C   LIG    1       24.994 -27.934   6.582  0.00  0.00    +0.128 A 
ATOM      9  C   LIG    1       25.570 -28.551   7.675  0.00  0.00    +0.111 A 
BRANCH   4  10
ATOM     10  O   LIG    1       25.388 -30.295   9.334  0.00  0.00    -0.438 OA
BRANCH  10  14
ATOM     11  C   LIG    1       26.139 -27.816  12.630  0.00  0.00    +0.120 A 
ATOM     12  C   LIG    1       27.137 -27.995  11.678  0.00  0.00    +0.049 A 
ATOM     13  C   LIG    1       26.853 -28.706  10.509  0.00  0.00    +0.050 A 
ATOM     14  C   LIG    1       25.657 -29.427  10.379  0.00  0.00    +0.131 A 
ATOM     15  C   LIG    1       24.671 -29.271  11.350  0.00  0.00    +0.050 A 
ATOM     16  C   LIG    1       24.905 -28.449  12.455  0.00  0.00    +0.049 A 
BRANCH  11  18
ATOM     17  C   LIG    1       26.432 -25.616  13.374  0.00  0.00    +0.277 C 
ATOM     18  O   LIG    1       26.437 -27.007  13.695  0.00  0.00    -0.495 OA
ENDBRANCH  11  18
ENDBRANCH  10  14
ENDBRANCH   4  10
ENDBRANCH   2   8
ENDBRANCH   1   2
BRANCH   1  19
ATOM     19  C   LIG    1       23.695 -24.581   6.526  0.00  0.00    +0.248 C 
BRANCH  19  20
ATOM     20  O   LIG    1       24.006 -23.405   5.735  0.00  0.00    -0.490 OA
BRANCH  20  21
ATOM     21  C   LIG    1       25.036 -22.636   6.222  0.00  0.00    +0.121 A 
ATOM     22  C   LIG    1       25.822 -23.041   7.282  0.00  0.00    +0.046 A 
ATOM     23  C   LIG    1       26.839 -22.233   7.764  0.00  0.00    +0.007 A 
ATOM     24  C   LIG    1       27.127 -20.975   7.249  0.00  0.00    -0.046 A 
ATOM     25  C   LIG    1       26.333 -20.553   6.175  0.00  0.00    +0.007 A 
ATOM     26  C   LIG    1       25.317 -21.390   5.647  0.00  0.00    +0.046 A 
BRANCH  24  27
ATOM     27  C   LIG    1       28.186 -20.077   7.866  0.00  0.00    +0.059 C 
BRANCH  27  28
ATOM     28  C   LIG    1       29.661 -20.412   7.556  0.00  0.00    +0.146 C 
ATOM     29  C   LIG    1       30.578 -20.638   8.762  0.00  0.00    +0.234 C 
ATOM     30  O   LIG    1       30.827 -21.716   9.299  0.00  0.00    -0.274 OA
ATOM     31  N   LIG    1       31.192 -19.521   9.180  0.00  0.00    -0.246 N 
ATOM     32  H   LIG    1       31.864 -19.599   9.921  0.00  0.00    +0.158 HD
ATOM     33  C   LIG    1       31.467 -18.618   8.190  0.00  0.00    +0.279 C 
ATOM     34  O   LIG    1       32.334 -17.794   8.231  0.00  0.00    -0.263 OA
ATOM     35  S   LIG    1       30.462 -18.935   6.788  0.00  0.00    -0.054 S 
ENDBRANCH  27  28
ENDBRANCH  24  27
ENDBRANCH  20  21
ENDBRANCH  19  20
ENDBRANCH   1  19
TORSDOF 10
ENDMDL
MODEL 8
REMARK VINA RESULT:      -9.4      4.949     10.016
REMARK  Name = *****
REMARK                            x       y       z     vdW  Elec       q    Type
REMARK                         _______ _______ _______ _____ _____    ______ ____
ROOT
ATOM      1  C   LIG    1       24.209 -30.278   7.832  0.00  0.00    +0.147 C 
ENDROOT
BRANCH   1   2
ATOM      2  N   LIG    1       25.579 -30.554   8.327  0.00  0.00    -0.315 N 
ATOM      3  C   LIG    1       26.096 -31.924   8.342  0.00  0.00    +0.131 C 
BRANCH   2   8
ATOM      4  C   LIG    1       25.390 -29.247  11.733  0.00  0.00    +0.225 A 
ATOM      5  N   LIG    1       26.584 -28.666  11.899  0.00  0.00    -0.201 NA
ATOM      6  C   LIG    1       27.360 -28.656  10.803  0.00  0.00    +0.227 A 
ATOM      7  N   LIG    1       27.085 -29.226   9.612  0.00  0.00    -0.221 NA
ATOM      8  C   LIG    1       25.881 -29.800   9.483  0.00  0.00    +0.128 A 
ATOM      9  C   LIG    1       24.962 -29.707  10.509  0.00  0.00    +0.111 A 
BRANCH   4  10
ATOM     10  O   LIG    1       24.607 -29.383  12.874  0.00  0.00    -0.438 OA
BRANCH  10  14
ATOM     11  C   LIG    1       21.123 -27.054  12.989  0.00  0.00    +0.120 A 
ATOM     12  C   LIG    1       21.027 -28.398  12.642  0.00  0.00    +0.049 A 
ATOM     13  C   LIG    1       22.157 -29.214  12.732  0.00  0.00    +0.050 A 
ATOM     14  C   LIG    1       23.427 -28.662  12.952  0.00  0.00    +0.131 A 
ATOM     15  C   LIG    1       23.525 -27.310  13.268  0.00  0.00    +0.050 A 
ATOM     16  C   LIG    1       22.373 -26.519  13.311  0.00  0.00    +0.049 A 
BRANCH  11  18
ATOM     17  C   LIG    1       19.114 -26.630  14.113  0.00  0.00    +0.277 C 
ATOM     18  O   LIG    1       19.958 -26.332  13.000  0.00  0.00    -0.495 OA
ENDBRANCH  11  18
ENDBRANCH  10  14
ENDBRANCH   4  10
ENDBRANCH   2   8
ENDBRANCH   1   2
BRANCH   1  19
ATOM     19  C   LIG    1       24.134 -29.610   6.452  0.00  0.00    +0.248 C 
BRANCH  19  20
ATOM     20  O   LIG    1       25.418 -29.061   6.060  0.00  0.00    -0.490 OA
BRANCH  20  21
ATOM     21  C   LIG    1       25.480 -27.687   6.046  0.00  0.00    +0.121 A 
ATOM     22  C   LIG    1       25.903 -26.957   7.137  0.00  0.00    +0.046 A 
ATOM     23  C   LIG    1       25.932 -25.572   7.100  0.00  0.00    +0.007 A 
ATOM     24  C   LIG    1       25.527 -24.827   5.999  0.00  0.00    -0.046 A 
ATOM     25  C   LIG    1       25.092 -25.559   4.887  0.00  0.00    +0.007 A 
ATOM     26  C   LIG    1       25.098 -26.977   4.900  0.00  0.00    +0.046 A 
BRANCH  24  27
ATOM     27  C   LIG    1       25.481 -23.309   6.029  0.00  0.00    +0.059 C 
BRANCH  27  28
ATOM     28  C   LIG    1       24.402 -22.655   6.918  0.00  0.00    +0.146 C 
ATOM     29  C   LIG    1       22.947 -22.853   6.483  0.00  0.00    +0.234 C 
ATOM     30  O   LIG    1       22.189 -23.748   6.853  0.00  0.00    -0.274 OA
ATOM     31  N   LIG    1       22.497 -21.882   5.674  0.00  0.00    -0.246 N 
ATOM     32  H   LIG    1       21.531 -21.902   5.402  0.00  0.00    +0.158 HD
ATOM     33  C   LIG    1       23.048 -20.651   5.900  0.00  0.00    +0.279 C 
ATOM     34  O   LIG    1       22.537 -19.605   5.623  0.00  0.00    -0.263 OA
ATOM     35  S   LIG    1       24.552 -20.818   6.789  0.00  0.00    -0.054 S 
ENDBRANCH  27  28
ENDBRANCH  24  27
ENDBRANCH  20  21
ENDBRANCH  19  20
ENDBRANCH   1  19
TORSDOF 10
ENDMDL
MODEL 9
REMARK VINA RESULT:      -9.3      2.015      3.058
REMARK  Name = *****
REMARK                            x       y       z     vdW  Elec       q    Type
REMARK                         _______ _______ _______ _____ _____    ______ ____
ROOT
ATOM      1  C   LIG    1       25.451 -23.813   6.571  0.00  0.00    +0.147 C 
ENDROOT
BRANCH   1   2
ATOM      2  N   LIG    1       24.398 -22.784   6.742  0.00  0.00    -0.315 N 
ATOM      3  C   LIG    1       22.989 -23.174   6.801  0.00  0.00    +0.131 C 
BRANCH   2   8
ATOM      4  C   LIG    1       26.217 -20.078   5.094  0.00  0.00    +0.225 A 
ATOM      5  N   LIG    1       25.339 -19.633   4.188  0.00  0.00    -0.201 NA
ATOM      6  C   LIG    1       24.127 -20.208   4.251  0.00  0.00    +0.227 A 
ATOM      7  N   LIG    1       23.751 -21.214   5.069  0.00  0.00    -0.221 NA
ATOM      8  C   LIG    1       24.658 -21.634   5.962  0.00  0.00    +0.128 A 
ATOM      9  C   LIG    1       25.869 -20.982   6.071  0.00  0.00    +0.111 A 
BRANCH   4  10
ATOM     10  O   LIG    1       27.516 -19.593   4.983  0.00  0.00    -0.438 OA
BRANCH  10  14
ATOM     11  C   LIG    1       30.186 -20.264   8.144  0.00  0.00    +0.120 A 
ATOM     12  C   LIG    1       29.232 -21.232   7.849  0.00  0.00    +0.049 A 
ATOM     13  C   LIG    1       28.428 -21.082   6.716  0.00  0.00    +0.050 A 
ATOM     14  C   LIG    1       28.413 -19.876   6.000  0.00  0.00    +0.131 A 
ATOM     15  C   LIG    1       29.348 -18.895   6.318  0.00  0.00    +0.050 A 
ATOM     16  C   LIG    1       30.246 -19.103   7.368  0.00  0.00    +0.049 A 
BRANCH  11  18
ATOM     17  C   LIG    1       31.281 -21.916   9.391  0.00  0.00    +0.277 C 
ATOM     18  O   LIG    1       31.027 -20.524   9.194  0.00  0.00    -0.495 OA
ENDBRANCH  11  18
ENDBRANCH  10  14
ENDBRANCH   4  10
ENDBRANCH   2   8
ENDBRANCH   1   2
BRANCH   1  19
ATOM     19  C   LIG    1       25.277 -24.731   5.352  0.00  0.00    +0.248 C 
BRANCH  19  20
ATOM     20  O   LIG    1       26.155 -25.883   5.428  0.00  0.00    -0.490 OA
BRANCH  20  21
ATOM     21  C   LIG    1       25.631 -26.965   6.096  0.00  0.00    +0.121 A 
ATOM     22  C   LIG    1       26.108 -27.378   7.322  0.00  0.00    +0.046 A 
ATOM     23  C   LIG    1       25.573 -28.487   7.959  0.00  0.00    +0.007 A 
ATOM     24  C   LIG    1       24.557 -29.264   7.417  0.00  0.00    -0.046 A 
ATOM     25  C   LIG    1       24.067 -28.856   6.170  0.00  0.00    +0.007 A 
ATOM     26  C   LIG    1       24.579 -27.699   5.530  0.00  0.00    +0.046 A 
BRANCH  24  27
ATOM     27  C   LIG    1       24.062 -30.529   8.099  0.00  0.00    +0.059 C 
BRANCH  27  28
ATOM     28  C   LIG    1       24.703 -31.863   7.657  0.00  0.00    +0.146 C 
ATOM     29  C   LIG    1       26.186 -31.815   7.277  0.00  0.00    +0.234 C 
ATOM     30  O   LIG    1       27.139 -32.027   8.026  0.00  0.00    -0.274 OA
ATOM     31  N   LIG    1       26.394 -31.583   5.973  0.00  0.00    -0.246 N 
ATOM     32  H   LIG    1       27.338 -31.608   5.632  0.00  0.00    +0.158 HD
ATOM     33  C   LIG    1       25.427 -32.081   5.145  0.00  0.00    +0.279 C 
ATOM     34  O   LIG    1       25.585 -32.365   3.993  0.00  0.00    -0.263 OA
ATOM     35  S   LIG    1       23.954 -32.382   6.050  0.00  0.00    -0.054 S 
ENDBRANCH  27  28
ENDBRANCH  24  27
ENDBRANCH  20  21
ENDBRANCH  19  20
ENDBRANCH   1  19
TORSDOF 10
ENDMDL
