MODEL 1
REMARK VINA RESULT:       2.6      0.000      0.000
REMARK  Name = *****
REMARK                            x       y       z     vdW  Elec       q    Type
REMARK                         _______ _______ _______ _____ _____    ______ ____
ROOT
ATOM      1  C   LIG    1       26.924 -18.741   4.015  0.00  0.00    +0.250 C 
ATOM      2  N   LIG    1       26.192 -17.571   4.143  0.00  0.00    -0.298 N 
ATOM      3  H   LIG    1       25.851 -17.299   5.057  0.00  0.00    +0.150 HD
ATOM      4  O   LIG    1       27.466 -19.044   2.956  0.00  0.00    -0.270 OA
ENDROOT
BRANCH   2   5
ATOM      5  CA  LIG    1       26.020 -16.638   3.003  0.00  0.00    +0.190 C 
ATOM      6  C   LIG    1       24.823 -15.660   3.061  0.00  0.00    +0.165 C 
ATOM      7  S   LIG    1       24.138 -15.198   4.690  0.00  0.00    -0.127 S 
ATOM      8  C   LIG    1       24.995 -13.549   4.796  0.00  0.00    +0.042 C 
ATOM      9  CA  LIG    1       25.607 -13.276   3.397  0.00  0.00    +0.201 C 
ATOM     10  C   LIG    1       26.100 -13.651   5.864  0.00  0.00    +0.025 C 
ATOM     11  C   LIG    1       23.943 -12.541   5.279  0.00  0.00    +0.025 C 
ATOM     12  N   LIG    1       25.759 -14.570   2.722  0.00  0.00    -0.271 N 
ATOM     13  C   LIG    1       26.855 -15.345   3.010  0.00  0.00    +0.240 C 
ATOM     14  O   LIG    1       27.989 -15.032   3.342  0.00  0.00    -0.273 OA
BRANCH   9  15
ATOM     15  C   LIG    1       24.796 -12.283   2.555  0.00  0.00    +0.327 C 
ATOM     16  O   LIG    1       25.309 -11.455   1.815  0.00  0.00    -0.249 OA
BRANCH  15  17
ATOM     17  OXT LIG    1       23.461 -12.302   2.766  0.00  0.00    -0.479 OA
ATOM     18  HXT LIG    1       23.217 -12.704   3.618  0.00  0.00    +0.295 HD
ENDBRANCH  15  17
ENDBRANCH   9  15
ENDBRANCH   2   5
BRANCH   1  21
ATOM     19  C   LIG    1       29.472 -19.163   6.009  0.00  0.00    +0.090 C 
ATOM     20  C   LIG    1       28.094 -19.704   6.010  0.00  0.00    +0.147 A 
ATOM     21  C   LIG    1       26.971 -19.571   5.203  0.00  0.00    +0.106 A 
ATOM     22  C   LIG    1       25.953 -20.336   5.892  0.00  0.00    +0.127 A 
ATOM     23  N   LIG    1       26.507 -20.900   6.986  0.00  0.00    -0.077 NA
ATOM     24  O   LIG    1       27.804 -20.499   7.059  0.00  0.00    -0.359 OA
BRANCH  22  25
ATOM     25  C   LIG    1       24.509 -20.613   5.674  0.00  0.00    +0.023 A 
ATOM     26  C   LIG    1       23.801 -20.513   4.466  0.00  0.00    +0.050 A 
ATOM     27 CL   LIG    1       24.515 -20.073   2.956  0.00  0.00    -0.083 Cl
ATOM     28  C   LIG    1       22.442 -20.896   4.393  0.00  0.00    +0.021 A 
ATOM     29  C   LIG    1       21.781 -21.439   5.494  0.00  0.00    +0.002 A 
ATOM     30  C   LIG    1       22.462 -21.572   6.691  0.00  0.00    +0.001 A 
ATOM     31  C   LIG    1       23.793 -21.147   6.780  0.00  0.00    +0.012 A 
ENDBRANCH  22  25
ENDBRANCH   1  21
TORSDOF 5
ENDMDL
MODEL 2
REMARK VINA RESULT:       2.7      1.693      3.509
REMARK  Name = *****
REMARK                            x       y       z     vdW  Elec       q    Type
REMARK                         _______ _______ _______ _____ _____    ______ ____
ROOT
ATOM      1  C   LIG    1       24.428 -18.838   3.861  0.00  0.00    +0.250 C 
ATOM      2  N   LIG    1       24.122 -17.503   4.075  0.00  0.00    -0.298 N 
ATOM      3  H   LIG    1       23.928 -17.186   5.017  0.00  0.00    +0.150 HD
ATOM      4  O   LIG    1       24.795 -19.242   2.762  0.00  0.00    -0.270 OA
ENDROOT
BRANCH   2   5
ATOM      5  CA  LIG    1       24.216 -16.504   2.983  0.00  0.00    +0.190 C 
ATOM      6  C   LIG    1       23.591 -15.112   3.239  0.00  0.00    +0.165 C 
ATOM      7  S   LIG    1       23.418 -14.525   4.961  0.00  0.00    -0.127 S 
ATOM      8  C   LIG    1       24.917 -13.421   4.936  0.00  0.00    +0.042 C 
ATOM      9  CA  LIG    1       25.380 -13.334   3.457  0.00  0.00    +0.201 C 
ATOM     10  C   LIG    1       26.006 -14.071   5.810  0.00  0.00    +0.025 C 
ATOM     11  C   LIG    1       24.495 -12.098   5.589  0.00  0.00    +0.025 C 
ATOM     12  N   LIG    1       24.850 -14.511   2.759  0.00  0.00    -0.271 N 
ATOM     13  C   LIG    1       25.524 -15.703   2.862  0.00  0.00    +0.240 C 
ATOM     14  O   LIG    1       26.715 -15.937   3.008  0.00  0.00    -0.273 OA
BRANCH   9  15
ATOM     15  C   LIG    1       24.974 -12.027   2.764  0.00  0.00    +0.327 C 
ATOM     16  O   LIG    1       23.859 -11.533   2.864  0.00  0.00    -0.249 OA
BRANCH  15  17
ATOM     17  OXT LIG    1       25.901 -11.502   1.933  0.00  0.00    -0.479 OA
ATOM     18  HXT LIG    1       26.757 -11.346   2.369  0.00  0.00    +0.295 HD
ENDBRANCH  15  17
ENDBRANCH   9  15
ENDBRANCH   2   5
BRANCH   1  21
ATOM     19  C   LIG    1       21.609 -20.000   5.022  0.00  0.00    +0.090 C 
ATOM     20  C   LIG    1       23.017 -20.162   5.451  0.00  0.00    +0.147 A 
ATOM     21  C   LIG    1       24.252 -19.702   5.012  0.00  0.00    +0.106 A 
ATOM     22  C   LIG    1       25.201 -20.362   5.884  0.00  0.00    +0.127 A 
ATOM     23  N   LIG    1       24.516 -21.098   6.785  0.00  0.00    -0.077 NA
ATOM     24  O   LIG    1       23.191 -20.984   6.506  0.00  0.00    -0.359 OA
BRANCH  22  25
ATOM     25  C   LIG    1       26.683 -20.408   5.992  0.00  0.00    +0.023 A 
ATOM     26  C   LIG    1       27.597 -19.459   5.508  0.00  0.00    +0.050 A 
ATOM     27 CL   LIG    1       27.146 -17.997   4.707  0.00  0.00    -0.083 Cl
ATOM     28  C   LIG    1       28.981 -19.596   5.763  0.00  0.00    +0.021 A 
ATOM     29  C   LIG    1       29.474 -20.635   6.550  0.00  0.00    +0.002 A 
ATOM     30  C   LIG    1       28.592 -21.572   7.061  0.00  0.00    +0.001 A 
ATOM     31  C   LIG    1       27.228 -21.468   6.768  0.00  0.00    +0.012 A 
ENDBRANCH  22  25
ENDBRANCH   1  21
TORSDOF 5
ENDMDL
MODEL 3
REMARK VINA RESULT:       5.4      2.879      4.715
REMARK  Name = *****
REMARK                            x       y       z     vdW  Elec       q    Type
REMARK                         _______ _______ _______ _____ _____    ______ ____
ROOT
ATOM      1  C   LIG    1       22.312 -16.600   4.856  0.00  0.00    +0.250 C 
ATOM      2  N   LIG    1       23.045 -15.829   3.968  0.00  0.00    -0.298 N 
ATOM      3  H   LIG    1       23.211 -16.178   3.032  0.00  0.00    +0.150 HD
ATOM      4  O   LIG    1       21.976 -16.165   5.954  0.00  0.00    -0.270 OA
ENDROOT
BRANCH   2   5
ATOM      5  CA  LIG    1       23.465 -14.447   4.307  0.00  0.00    +0.190 C 
ATOM      6  C   LIG    1       24.833 -14.274   5.007  0.00  0.00    +0.165 C 
ATOM      7  S   LIG    1       26.116 -15.553   4.769  0.00  0.00    -0.127 S 
ATOM      8  C   LIG    1       27.085 -14.613   3.488  0.00  0.00    +0.042 C 
ATOM      9  CA  LIG    1       26.514 -13.171   3.467  0.00  0.00    +0.201 C 
ATOM     10  C   LIG    1       26.875 -15.303   2.127  0.00  0.00    +0.025 C 
ATOM     11  C   LIG    1       28.565 -14.746   3.877  0.00  0.00    +0.025 C 
ATOM     12  N   LIG    1       25.154 -13.228   4.016  0.00  0.00    -0.271 N 
ATOM     13  C   LIG    1       24.122 -13.610   3.195  0.00  0.00    +0.240 C 
ATOM     14  O   LIG    1       23.966 -13.471   1.991  0.00  0.00    -0.273 OA
BRANCH   9  15
ATOM     15  C   LIG    1       27.389 -12.154   4.210  0.00  0.00    +0.327 C 
ATOM     16  O   LIG    1       28.398 -11.657   3.727  0.00  0.00    -0.249 OA
BRANCH  15  17
ATOM     17  OXT LIG    1       27.037 -11.916   5.493  0.00  0.00    -0.479 OA
ATOM     18  HXT LIG    1       27.802 -11.859   6.092  0.00  0.00    +0.295 HD
ENDBRANCH  15  17
ENDBRANCH   9  15
ENDBRANCH   2   5
BRANCH   1  21
ATOM     19  C   LIG    1       19.662 -17.557   3.213  0.00  0.00    +0.090 C 
ATOM     20  C   LIG    1       20.857 -18.280   3.702  0.00  0.00    +0.147 A 
ATOM     21  C   LIG    1       22.009 -17.943   4.402  0.00  0.00    +0.106 A 
ATOM     22  C   LIG    1       22.771 -19.174   4.434  0.00  0.00    +0.127 A 
ATOM     23  N   LIG    1       22.049 -20.142   3.833  0.00  0.00    -0.077 NA
ATOM     24  O   LIG    1       20.894 -19.588   3.378  0.00  0.00    -0.359 OA
BRANCH  22  25
ATOM     25  C   LIG    1       24.106 -19.577   4.950  0.00  0.00    +0.023 A 
ATOM     26  C   LIG    1       24.374 -20.379   6.069  0.00  0.00    +0.050 A 
ATOM     27 CL   LIG    1       23.158 -21.099   7.062  0.00  0.00    -0.083 Cl
ATOM     28  C   LIG    1       25.700 -20.752   6.388  0.00  0.00    +0.021 A 
ATOM     29  C   LIG    1       26.771 -20.391   5.573  0.00  0.00    +0.002 A 
ATOM     30  C   LIG    1       26.533 -19.621   4.448  0.00  0.00    +0.001 A 
ATOM     31  C   LIG    1       25.228 -19.207   4.157  0.00  0.00    +0.012 A 
ENDBRANCH  22  25
ENDBRANCH   1  21
TORSDOF 5
ENDMDL
