MODEL 1
REMARK VINA RESULT:      -7.1      0.000      0.000
REMARK  Name = *****
REMARK                            x       y       z     vdW  Elec       q    Type
REMARK                         _______ _______ _______ _____ _____    ______ ____
ROOT
ATOM      1  O   LIG    1       32.266 -17.948  10.244  0.00  0.00    -0.265 OA
ATOM      2  C   LIG    1       31.510 -18.614   9.547  0.00  0.00    +0.289 C 
ATOM      3  C   LIG    1       30.325 -18.043   8.882  0.00  0.00    +0.204 C 
ATOM      4  F   LIG    1       30.085 -16.729   9.051  0.00  0.00    -0.198 F 
ATOM      5  C   LIG    1       29.533 -18.826   8.150  0.00  0.00    +0.137 C 
ATOM      6  N   LIG    1       29.792 -20.176   7.989  0.00  0.00    -0.271 N 
ATOM      7  C   LIG    1       30.888 -20.784   8.597  0.00  0.00    +0.332 C 
ATOM      8  O   LIG    1       31.143 -21.983   8.518  0.00  0.00    -0.246 OA
ATOM      9  N   LIG    1       31.699 -19.954   9.333  0.00  0.00    -0.273 N 
ATOM     10  H   LIG    1       32.494 -20.380   9.780  0.00  0.00    +0.173 HD
ENDROOT
BRANCH   6  11
ATOM     11  C   LIG    1       28.911 -21.043   7.206  0.00  0.00    +0.223 C 
ATOM     12  O   LIG    1       28.436 -20.358   6.032  0.00  0.00    -0.356 OA
ATOM     13  C   LIG    1       27.004 -20.332   6.069  0.00  0.00    +0.162 C 
ATOM     14  C   LIG    1       26.613 -20.537   7.514  0.00  0.00    +0.033 C 
ATOM     15  C   LIG    1       27.678 -21.496   7.984  0.00  0.00    +0.057 C 
ENDBRANCH   6  11
TORSDOF 1
ENDMDL
MODEL 2
REMARK VINA RESULT:      -6.9      4.911      7.230
REMARK  Name = *****
REMARK                            x       y       z     vdW  Elec       q    Type
REMARK                         _______ _______ _______ _____ _____    ______ ____
ROOT
ATOM      1  O   LIG    1       23.632 -25.909   6.277  0.00  0.00    -0.265 OA
ATOM      2  C   LIG    1       24.084 -24.777   6.398  0.00  0.00    +0.289 C 
ATOM      3  C   LIG    1       25.508 -24.508   6.668  0.00  0.00    +0.204 C 
ATOM      4  F   LIG    1       26.335 -25.566   6.772  0.00  0.00    -0.198 F 
ATOM      5  C   LIG    1       25.932 -23.253   6.805  0.00  0.00    +0.137 C 
ATOM      6  N   LIG    1       25.068 -22.177   6.698  0.00  0.00    -0.271 N 
ATOM      7  C   LIG    1       23.708 -22.358   6.455  0.00  0.00    +0.332 C 
ATOM      8  O   LIG    1       22.893 -21.441   6.389  0.00  0.00    -0.246 OA
ATOM      9  N   LIG    1       23.297 -23.659   6.301  0.00  0.00    -0.273 N 
ATOM     10  H   LIG    1       22.316 -23.806   6.127  0.00  0.00    +0.173 HD
ENDROOT
BRANCH   6  11
ATOM     11  C   LIG    1       25.526 -20.798   6.872  0.00  0.00    +0.223 C 
ATOM     12  O   LIG    1       26.457 -20.437   5.834  0.00  0.00    -0.356 OA
ATOM     13  C   LIG    1       27.693 -20.047   6.447  0.00  0.00    +0.162 C 
ATOM     14  C   LIG    1       27.695 -20.665   7.826  0.00  0.00    +0.033 C 
ATOM     15  C   LIG    1       26.238 -20.573   8.204  0.00  0.00    +0.057 C 
ENDBRANCH   6  11
TORSDOF 1
ENDMDL
MODEL 3
REMARK VINA RESULT:      -6.9      3.556      5.766
REMARK  Name = *****
REMARK                            x       y       z     vdW  Elec       q    Type
REMARK                         _______ _______ _______ _____ _____    ______ ____
ROOT
ATOM      1  O   LIG    1       22.881 -20.648   6.097  0.00  0.00    -0.265 OA
ATOM      2  C   LIG    1       24.056 -20.654   6.445  0.00  0.00    +0.289 C 
ATOM      3  C   LIG    1       25.172 -20.520   5.491  0.00  0.00    +0.204 C 
ATOM      4  F   LIG    1       24.867 -20.375   4.188  0.00  0.00    -0.198 F 
ATOM      5  C   LIG    1       26.429 -20.551   5.932  0.00  0.00    +0.137 C 
ATOM      6  N   LIG    1       26.725 -20.704   7.275  0.00  0.00    -0.271 N 
ATOM      7  C   LIG    1       25.721 -20.847   8.230  0.00  0.00    +0.332 C 
ATOM      8  O   LIG    1       25.929 -21.023   9.428  0.00  0.00    -0.246 OA
ATOM      9  N   LIG    1       24.433 -20.796   7.754  0.00  0.00    -0.273 N 
ATOM     10  H   LIG    1       23.696 -20.900   8.433  0.00  0.00    +0.173 HD
ENDROOT
BRANCH   6  11
ATOM     11  C   LIG    1       28.105 -20.763   7.760  0.00  0.00    +0.223 C 
ATOM     12  O   LIG    1       28.405 -19.618   8.580  0.00  0.00    -0.356 OA
ATOM     13  C   LIG    1       29.515 -18.922   8.001  0.00  0.00    +0.162 C 
ATOM     14  C   LIG    1       29.565 -19.337   6.549  0.00  0.00    +0.033 C 
ATOM     15  C   LIG    1       29.131 -20.779   6.630  0.00  0.00    +0.057 C 
ENDBRANCH   6  11
TORSDOF 1
ENDMDL
MODEL 4
REMARK VINA RESULT:      -6.8      6.787      7.592
REMARK  Name = *****
REMARK                            x       y       z     vdW  Elec       q    Type
REMARK                         _______ _______ _______ _____ _____    ______ ____
ROOT
ATOM      1  O   LIG    1       22.798 -18.915   4.270  0.00  0.00    -0.265 OA
ATOM      2  C   LIG    1       23.217 -19.922   4.826  0.00  0.00    +0.289 C 
ATOM      3  C   LIG    1       23.987 -20.964   4.121  0.00  0.00    +0.204 C 
ATOM      4  F   LIG    1       24.239 -20.776   2.812  0.00  0.00    -0.198 F 
ATOM      5  C   LIG    1       24.401 -22.044   4.781  0.00  0.00    +0.137 C 
ATOM      6  N   LIG    1       24.131 -22.223   6.127  0.00  0.00    -0.271 N 
ATOM      7  C   LIG    1       23.399 -21.285   6.852  0.00  0.00    +0.332 C 
ATOM      8  O   LIG    1       23.100 -21.413   8.037  0.00  0.00    -0.246 OA
ATOM      9  N   LIG    1       22.997 -20.172   6.155  0.00  0.00    -0.273 N 
ATOM     10  H   LIG    1       22.466 -19.486   6.667  0.00  0.00    +0.173 HD
ENDROOT
BRANCH   6  11
ATOM     11  C   LIG    1       24.563 -23.420   6.849  0.00  0.00    +0.223 C 
ATOM     12  O   LIG    1       25.876 -23.827   6.419  0.00  0.00    -0.356 OA
ATOM     13  C   LIG    1       25.796 -25.168   5.919  0.00  0.00    +0.162 C 
ATOM     14  C   LIG    1       24.348 -25.400   5.557  0.00  0.00    +0.033 C 
ATOM     15  C   LIG    1       23.636 -24.613   6.629  0.00  0.00    +0.057 C 
ENDBRANCH   6  11
TORSDOF 1
ENDMDL
MODEL 5
REMARK VINA RESULT:      -6.6      2.155      2.290
REMARK  Name = *****
REMARK                            x       y       z     vdW  Elec       q    Type
REMARK                         _______ _______ _______ _____ _____    ______ ____
ROOT
ATOM      1  O   LIG    1       32.130 -18.933   6.813  0.00  0.00    -0.265 OA
ATOM      2  C   LIG    1       31.086 -19.517   7.073  0.00  0.00    +0.289 C 
ATOM      3  C   LIG    1       29.808 -19.204   6.408  0.00  0.00    +0.204 C 
ATOM      4  F   LIG    1       29.811 -18.240   5.469  0.00  0.00    -0.198 F 
ATOM      5  C   LIG    1       28.703 -19.866   6.749  0.00  0.00    +0.137 C 
ATOM      6  N   LIG    1       28.716 -20.854   7.720  0.00  0.00    -0.271 N 
ATOM      7  C   LIG    1       29.886 -21.192   8.396  0.00  0.00    +0.332 C 
ATOM      8  O   LIG    1       29.945 -22.033   9.290  0.00  0.00    -0.246 OA
ATOM      9  N   LIG    1       31.015 -20.509   8.016  0.00  0.00    -0.273 N 
ATOM     10  H   LIG    1       31.868 -20.742   8.498  0.00  0.00    +0.173 HD
ENDROOT
BRANCH   6  11
ATOM     11  C   LIG    1       27.500 -21.565   8.113  0.00  0.00    +0.223 C 
ATOM     12  O   LIG    1       27.055 -22.436   7.055  0.00  0.00    -0.356 OA
ATOM     13  C   LIG    1       25.722 -22.061   6.688  0.00  0.00    +0.162 C 
ATOM     14  C   LIG    1       25.539 -20.635   7.153  0.00  0.00    +0.033 C 
ATOM     15  C   LIG    1       26.339 -20.626   8.432  0.00  0.00    +0.057 C 
ENDBRANCH   6  11
TORSDOF 1
ENDMDL
MODEL 6
REMARK VINA RESULT:      -6.5      4.145      5.655
REMARK  Name = *****
REMARK                            x       y       z     vdW  Elec       q    Type
REMARK                         _______ _______ _______ _____ _____    ______ ____
ROOT
ATOM      1  O   LIG    1       27.562 -21.820   8.750  0.00  0.00    -0.265 OA
ATOM      2  C   LIG    1       26.758 -21.668   7.839  0.00  0.00    +0.289 C 
ATOM      3  C   LIG    1       26.856 -20.570   6.860  0.00  0.00    +0.204 C 
ATOM      4  F   LIG    1       27.886 -19.712   6.984  0.00  0.00    -0.198 F 
ATOM      5  C   LIG    1       25.938 -20.451   5.902  0.00  0.00    +0.137 C 
ATOM      6  N   LIG    1       24.882 -21.340   5.790  0.00  0.00    -0.271 N 
ATOM      7  C   LIG    1       24.723 -22.394   6.687  0.00  0.00    +0.332 C 
ATOM      8  O   LIG    1       23.785 -23.188   6.656  0.00  0.00    -0.246 OA
ATOM      9  N   LIG    1       25.689 -22.506   7.656  0.00  0.00    -0.273 N 
ATOM     10  H   LIG    1       25.585 -23.263   8.313  0.00  0.00    +0.173 HD
ENDROOT
BRANCH   6  11
ATOM     11  C   LIG    1       23.860 -21.198   4.754  0.00  0.00    +0.223 C 
ATOM     12  O   LIG    1       24.281 -20.253   3.751  0.00  0.00    -0.356 OA
ATOM     13  C   LIG    1       23.311 -19.200   3.684  0.00  0.00    +0.162 C 
ATOM     14  C   LIG    1       22.570 -19.221   5.000  0.00  0.00    +0.033 C 
ATOM     15  C   LIG    1       22.525 -20.699   5.301  0.00  0.00    +0.057 C 
ENDBRANCH   6  11
TORSDOF 1
ENDMDL
MODEL 7
REMARK VINA RESULT:      -6.5      3.254      4.471
REMARK  Name = *****
REMARK                            x       y       z     vdW  Elec       q    Type
REMARK                         _______ _______ _______ _____ _____    ______ ____
ROOT
ATOM      1  O   LIG    1       29.381 -19.598   7.805  0.00  0.00    -0.265 OA
ATOM      2  C   LIG    1       28.287 -20.059   7.503  0.00  0.00    +0.289 C 
ATOM      3  C   LIG    1       27.735 -19.980   6.138  0.00  0.00    +0.204 C 
ATOM      4  F   LIG    1       28.485 -19.380   5.194  0.00  0.00    -0.198 F 
ATOM      5  C   LIG    1       26.531 -20.487   5.879  0.00  0.00    +0.137 C 
ATOM      6  N   LIG    1       25.771 -21.098   6.862  0.00  0.00    -0.271 N 
ATOM      7  C   LIG    1       26.226 -21.198   8.175  0.00  0.00    +0.332 C 
ATOM      8  O   LIG    1       25.578 -21.696   9.092  0.00  0.00    -0.246 OA
ATOM      9  N   LIG    1       27.476 -20.683   8.415  0.00  0.00    -0.273 N 
ATOM     10  H   LIG    1       27.817 -20.746   9.360  0.00  0.00    +0.173 HD
ENDROOT
BRANCH   6  11
ATOM     11  C   LIG    1       24.439 -21.635   6.586  0.00  0.00    +0.223 C 
ATOM     12  O   LIG    1       24.268 -21.869   5.175  0.00  0.00    -0.356 OA
ATOM     13  C   LIG    1       23.145 -21.103   4.719  0.00  0.00    +0.162 C 
ATOM     14  C   LIG    1       22.948 -19.998   5.731  0.00  0.00    +0.033 C 
ATOM     15  C   LIG    1       23.318 -20.693   7.018  0.00  0.00    +0.057 C 
ENDBRANCH   6  11
TORSDOF 1
ENDMDL
MODEL 8
REMARK VINA RESULT:      -6.4      1.853      4.494
REMARK  Name = *****
REMARK                            x       y       z     vdW  Elec       q    Type
REMARK                         _______ _______ _______ _____ _____    ______ ____
ROOT
ATOM      1  O   LIG    1       28.152 -20.551   5.388  0.00  0.00    -0.265 OA
ATOM      2  C   LIG    1       28.887 -20.136   6.275  0.00  0.00    +0.289 C 
ATOM      3  C   LIG    1       29.397 -18.752   6.310  0.00  0.00    +0.204 C 
ATOM      4  F   LIG    1       29.019 -17.922   5.320  0.00  0.00    -0.198 F 
ATOM      5  C   LIG    1       30.207 -18.368   7.295  0.00  0.00    +0.137 C 
ATOM      6  N   LIG    1       30.589 -19.236   8.304  0.00  0.00    -0.271 N 
ATOM      7  C   LIG    1       30.154 -20.559   8.328  0.00  0.00    +0.332 C 
ATOM      8  O   LIG    1       30.492 -21.380   9.178  0.00  0.00    -0.246 OA
ATOM      9  N   LIG    1       29.307 -20.928   7.312  0.00  0.00    -0.273 N 
ATOM     10  H   LIG    1       28.986 -21.883   7.315  0.00  0.00    +0.173 HD
ENDROOT
BRANCH   6  11
ATOM     11  C   LIG    1       31.498 -18.824   9.374  0.00  0.00    +0.223 C 
ATOM     12  O   LIG    1       30.814 -18.806  10.642  0.00  0.00    -0.356 OA
ATOM     13  C   LIG    1       30.904 -17.484  11.188  0.00  0.00    +0.162 C 
ATOM     14  C   LIG    1       31.186 -16.563  10.024  0.00  0.00    +0.033 C 
ATOM     15  C   LIG    1       32.072 -17.426   9.160  0.00  0.00    +0.057 C 
ENDBRANCH   6  11
TORSDOF 1
ENDMDL
MODEL 9
REMARK VINA RESULT:      -6.3      5.164      6.565
REMARK  Name = *****
REMARK                            x       y       z     vdW  Elec       q    Type
REMARK                         _______ _______ _______ _____ _____    ______ ____
ROOT
ATOM      1  O   LIG    1       25.782 -19.116   3.898  0.00  0.00    -0.265 OA
ATOM      2  C   LIG    1       25.602 -20.130   4.560  0.00  0.00    +0.289 C 
ATOM      3  C   LIG    1       24.584 -21.139   4.217  0.00  0.00    +0.204 C 
ATOM      4  F   LIG    1       23.836 -20.924   3.118  0.00  0.00    -0.198 F 
ATOM      5  C   LIG    1       24.427 -22.214   4.988  0.00  0.00    +0.137 C 
ATOM      6  N   LIG    1       25.203 -22.419   6.117  0.00  0.00    -0.271 N 
ATOM      7  C   LIG    1       26.176 -21.501   6.506  0.00  0.00    +0.332 C 
ATOM      8  O   LIG    1       26.865 -21.616   7.517  0.00  0.00    -0.246 OA
ATOM      9  N   LIG    1       26.330 -20.410   5.687  0.00  0.00    -0.273 N 
ATOM     10  H   LIG    1       27.029 -19.737   5.958  0.00  0.00    +0.173 HD
ENDROOT
BRANCH   6  11
ATOM     11  C   LIG    1       25.017 -23.586   6.980  0.00  0.00    +0.223 C 
ATOM     12  O   LIG    1       26.101 -24.520   6.811  0.00  0.00    -0.356 OA
ATOM     13  C   LIG    1       25.555 -25.779   6.395  0.00  0.00    +0.162 C 
ATOM     14  C   LIG    1       24.198 -25.477   5.803  0.00  0.00    +0.033 C 
ATOM     15  C   LIG    1       23.727 -24.345   6.682  0.00  0.00    +0.057 C 
ENDBRANCH   6  11
TORSDOF 1
ENDMDL
