ZINC00592419
 OpenBabel08292219463D

 40 42  0  0  0  0  0  0  0  0999 V2000
    0.9844   -2.0719   -0.1438 C   0  0  0  0  0  0  0  0  0  0  0  0
    0.8553   -0.7016   -0.2175 C   0  0  0  0  0  0  0  0  0  0  0  0
    0.5441   -0.0947   -1.4263 C   0  0  0  0  0  0  0  0  0  0  0  0
    0.3554   -0.8690   -2.5706 C   0  0  0  0  0  0  0  0  0  0  0  0
    0.4894   -2.2419   -2.5050 C   0  0  0  0  0  0  0  0  0  0  0  0
    0.8024   -2.8530   -1.2874 C   0  0  0  0  0  0  0  0  0  0  0  0
    0.9407   -4.3202   -1.2104 C   0  0  0  0  0  0  0  0  0  0  0  0
    0.7820   -4.9990   -2.2066 O   0  0  0  0  0  0  0  0  0  0  0  0
    1.2430   -4.9079   -0.0357 N   0  0  0  0  0  0  0  0  0  0  0  0
    1.2689   -6.2999    0.0619 C   0  0  0  0  0  0  0  0  0  0  0  0
    0.1171   -7.0160    0.3872 C   0  0  0  0  0  0  0  0  0  0  0  0
    0.1837   -8.3927    0.4682 C   0  0  0  0  0  0  0  0  0  0  0  0
    1.3196   -9.0289    0.2532 N   0  0  0  0  0  0  0  0  0  0  0  0
    2.4318   -8.3873   -0.0514 C   0  0  0  0  0  0  0  0  0  0  0  0
    2.4485   -7.0108   -0.1576 C   0  0  0  0  0  0  0  0  0  0  0  0
    3.9171   -6.1767   -0.5594 Cl  0  0  0  0  0  0  0  0  0  0  0  0
   -1.3808   -6.1884    0.6792 Cl  0  0  0  0  0  0  0  0  0  0  0  0
    0.0451   -0.2717   -3.7523 O   0  0  0  0  0  0  0  0  0  0  0  0
   -0.1341   -1.1261   -4.8837 C   0  0  0  0  0  0  0  0  0  0  0  0
   -0.4753   -0.2805   -6.1123 C   0  0  0  0  0  0  0  0  0  0  0  0
   -1.8500   -0.4861   -6.7517 C   0  0  0  0  0  0  0  0  0  0  0  0
   -0.5929   -1.0024   -7.4562 C   0  0  0  0  0  0  0  0  0  0  0  0
    0.4175    1.2557   -1.4936 O   0  0  0  0  0  0  0  0  0  0  0  0
    0.6182    1.9872   -0.2826 C   0  0  0  0  0  0  0  0  0  0  0  0
   -0.3131    1.5697    0.6743 F   0  0  0  0  0  0  0  0  0  0  0  0
    1.9128    1.7543    0.1939 F   0  0  0  0  0  0  0  0  0  0  0  0
    1.2266   -2.5416    0.7981 H   0  0  0  0  0  0  0  0  0  0  0  0
    0.9963   -0.0988    0.6675 H   0  0  0  0  0  0  0  0  0  0  0  0
    0.3479   -2.8425   -3.3914 H   0  0  0  0  0  0  0  0  0  0  0  0
    1.4425   -4.3634    0.7418 H   0  0  0  0  0  0  0  0  0  0  0  0
   -0.7042   -8.9557    0.7155 H   0  0  0  0  0  0  0  0  0  0  0  0
    3.3405   -8.9460   -0.2200 H   0  0  0  0  0  0  0  0  0  0  0  0
    0.7854   -1.6814   -5.0688 H   0  0  0  0  0  0  0  0  0  0  0  0
   -0.9471   -1.8247   -4.6863 H   0  0  0  0  0  0  0  0  0  0  0  0
   -0.0637    0.7288   -6.1175 H   0  0  0  0  0  0  0  0  0  0  0  0
   -2.5113   -1.2237   -6.2970 H   0  0  0  0  0  0  0  0  0  0  0  0
   -2.3427    0.3879   -7.1778 H   0  0  0  0  0  0  0  0  0  0  0  0
   -0.2591   -0.4678   -8.3455 H   0  0  0  0  0  0  0  0  0  0  0  0
   -0.4268   -2.0796   -7.4651 H   0  0  0  0  0  0  0  0  0  0  0  0
    0.4882    3.0521   -0.4756 H   0  0  0  0  0  0  0  0  0  0  0  0
  1  6  2  0  0  0  0
  1  2  1  0  0  0  0
  1 27  1  0  0  0  0
  2  3  2  0  0  0  0
  2 28  1  0  0  0  0
  3  4  1  0  0  0  0
  3 23  1  0  0  0  0
  4  5  2  0  0  0  0
  4 18  1  0  0  0  0
  5  6  1  0  0  0  0
  5 29  1  0  0  0  0
  6  7  1  0  0  0  0
  7  8  2  0  0  0  0
  7  9  1  0  0  0  0
  9 10  1  0  0  0  0
  9 30  1  0  0  0  0
 10 15  2  0  0  0  0
 10 11  1  0  0  0  0
 11 12  2  0  0  0  0
 11 17  1  0  0  0  0
 12 13  1  0  0  0  0
 12 31  1  0  0  0  0
 13 14  2  0  0  0  0
 14 15  1  0  0  0  0
 14 32  1  0  0  0  0
 15 16  1  0  0  0  0
 18 19  1  0  0  0  0
 19 20  1  0  0  0  0
 19 33  1  0  0  0  0
 19 34  1  0  0  0  0
 20 22  1  0  0  0  0
 20 21  1  0  0  0  0
 20 35  1  0  0  0  0
 21 22  1  0  0  0  0
 21 36  1  0  0  0  0
 21 37  1  0  0  0  0
 22 38  1  0  0  0  0
 22 39  1  0  0  0  0
 23 24  1  0  0  0  0
 24 25  1  0  0  0  0
 24 26  1  0  0  0  0
 24 40  1  0  0  0  0
M  END
$$$$
