ZINC04097310
 OpenBabel08292219463D

 84 86  0  0  1  0  0  0  0  0999 V2000
    4.6546    0.6042    1.2735 C   0  0  0  0  0  0  0  0  0  0  0  0
    4.0006    0.8384   -0.0897 C   0  0  0  0  0  0  0  0  0  0  0  0
    2.5521    0.4270   -0.0292 C   0  0  0  0  0  0  0  0  0  0  0  0
    2.0902   -0.0087    0.9988 O   0  0  0  0  0  0  0  0  0  0  0  0
    1.7750    0.5448   -1.1173 O   0  0  0  0  0  0  0  0  0  0  0  0
    0.4280    0.0101   -1.0264 C   0  0  1  0  0  0  0  0  0  0  0  0
   -0.1014    0.4964   -0.2070 H   0  0  0  0  0  0  0  0  0  0  0  0
   -0.3138    0.2708   -2.3389 C   0  0  0  0  0  0  0  0  0  0  0  0
   -1.7178   -0.3320   -2.2595 C   0  0  0  0  0  0  0  0  0  0  0  0
   -0.4188    1.7789   -2.5745 C   0  0  0  0  0  0  0  0  0  0  0  0
    0.4894   -1.3971   -0.7853 O   0  0  0  0  0  0  0  0  0  0  0  0
   -0.0040   -2.0735    0.5899 P   0  0  2  0  0  0  0  0  0  0  0  0
    0.7381   -1.4809    1.7251 O   0  0  0  0  0  0  0  0  0  0  0  0
    0.3084   -3.8685    0.5305 C   0  0  0  0  0  0  0  0  0  0  0  0
    1.8161   -4.1222    0.4728 C   0  0  0  0  0  0  0  0  0  0  0  0
    2.0782   -5.6288    0.4229 C   0  0  0  0  0  0  0  0  0  0  0  0
    3.5859   -5.8825    0.3652 C   0  0  0  0  0  0  0  0  0  0  0  0
    3.8441   -7.3664    0.3161 C   0  0  0  0  0  0  0  0  0  0  0  0
    4.0085   -8.0785    1.4895 C   0  0  0  0  0  0  0  0  0  0  0  0
    4.2405   -9.4405    1.4446 C   0  0  0  0  0  0  0  0  0  0  0  0
    4.3186  -10.0885    0.2260 C   0  0  0  0  0  0  0  0  0  0  0  0
    4.1595   -9.3755   -0.9475 C   0  0  0  0  0  0  0  0  0  0  0  0
    3.9222   -8.0144   -0.9024 C   0  0  0  0  0  0  0  0  0  0  0  0
   -1.7889   -1.7741    0.8082 C   0  0  0  0  0  0  0  0  0  0  0  0
   -2.0111   -0.3427    1.2238 C   0  0  0  0  0  0  0  0  0  0  0  0
   -1.9357    0.5460    0.4020 O   0  0  0  0  0  0  0  0  0  0  0  0
   -2.2936   -0.0502    2.5087 N   0  0  0  0  0  0  0  0  0  0  0  0
   -2.4143   -1.0275    3.6059 C   0  0  0  0  0  0  0  0  0  0  0  0
   -2.1204   -0.2171    4.8930 C   0  0  1  0  0  0  0  0  0  0  0  0
   -1.0474   -0.1005    5.0448 H   0  0  0  0  0  0  0  0  0  0  0  0
   -2.7874    1.1444    4.5629 C   0  0  0  0  0  0  0  0  0  0  0  0
   -2.5263    1.2970    3.0497 C   0  0  1  0  0  0  0  0  0  0  0  0
   -3.3960    1.7445    2.5687 H   0  0  0  0  0  0  0  0  0  0  0  0
   -1.3109    2.1580    2.8209 C   0  0  0  0  0  0  0  0  0  0  0  0
   -0.2437    1.6451    2.5802 O   0  0  0  0  0  0  0  0  0  0  0  0
   -2.7764   -0.8677    6.1125 C   0  0  0  0  0  0  0  0  0  0  0  0
   -3.8528   -0.9338    5.9541 H   0  0  0  0  0  0  0  0  0  0  0  0
   -2.4948   -0.0211    7.3555 C   0  0  0  0  0  0  0  0  0  0  0  0
   -3.1507   -0.6718    8.5750 C   0  0  0  0  0  0  0  0  0  0  0  0
   -2.5773   -2.0763    8.7739 C   0  0  0  0  0  0  0  0  0  0  0  0
   -2.8589   -2.9228    7.5310 C   0  0  0  0  0  0  0  0  0  0  0  0
   -2.2030   -2.2722    6.3114 C   0  0  0  0  0  0  0  0  0  0  0  0
    5.7023    0.9017    1.2298 H   0  0  0  0  0  0  0  0  0  0  0  0
    4.1399    1.1966    2.0300 H   0  0  0  0  0  0  0  0  0  0  0  0
    4.5875   -0.4526    1.5320 H   0  0  0  0  0  0  0  0  0  0  0  0
    4.5152    0.2459   -0.8461 H   0  0  0  0  0  0  0  0  0  0  0  0
    4.0677    1.8952   -0.3481 H   0  0  0  0  0  0  0  0  0  0  0  0
    0.2327   -0.1885   -3.1626 H   0  0  0  0  0  0  0  0  0  0  0  0
   -2.3343    0.2696   -1.5916 H   0  0  0  0  0  0  0  0  0  0  0  0
   -2.1646   -0.3444   -3.2536 H   0  0  0  0  0  0  0  0  0  0  0  0
   -1.6548   -1.3506   -1.8767 H   0  0  0  0  0  0  0  0  0  0  0  0
    0.5814    2.2083   -2.6310 H   0  0  0  0  0  0  0  0  0  0  0  0
   -0.9474    1.9646   -3.5095 H   0  0  0  0  0  0  0  0  0  0  0  0
   -0.9654    2.2381   -1.7508 H   0  0  0  0  0  0  0  0  0  0  0  0
   -0.1054   -4.3390    1.4225 H   0  0  0  0  0  0  0  0  0  0  0  0
   -0.1653   -4.2906   -0.3558 H   0  0  0  0  0  0  0  0  0  0  0  0
    2.2298   -3.6517   -0.4192 H   0  0  0  0  0  0  0  0  0  0  0  0
    2.2897   -3.7001    1.3591 H   0  0  0  0  0  0  0  0  0  0  0  0
    1.6645   -6.0993    1.3149 H   0  0  0  0  0  0  0  0  0  0  0  0
    1.6046   -6.0508   -0.4634 H   0  0  0  0  0  0  0  0  0  0  0  0
    3.9997   -5.4120   -0.5267 H   0  0  0  0  0  0  0  0  0  0  0  0
    4.0596   -5.4604    1.2516 H   0  0  0  0  0  0  0  0  0  0  0  0
    3.9519   -7.5715    2.4413 H   0  0  0  0  0  0  0  0  0  0  0  0
    4.3652   -9.9976    2.3614 H   0  0  0  0  0  0  0  0  0  0  0  0
    4.5043  -11.1519    0.1908 H   0  0  0  0  0  0  0  0  0  0  0  0
    4.2209   -9.8817   -1.8995 H   0  0  0  0  0  0  0  0  0  0  0  0
    3.7983   -7.4572   -1.8193 H   0  0  0  0  0  0  0  0  0  0  0  0
   -2.3068   -1.9640   -0.1319 H   0  0  0  0  0  0  0  0  0  0  0  0
   -2.1776   -2.4406    1.5782 H   0  0  0  0  0  0  0  0  0  0  0  0
   -3.4233   -1.4385    3.6385 H   0  0  0  0  0  0  0  0  0  0  0  0
   -1.6836   -1.8270    3.4839 H   0  0  0  0  0  0  0  0  0  0  0  0
   -3.8566    1.1108    4.7720 H   0  0  0  0  0  0  0  0  0  0  0  0
   -2.3121    1.9518    5.1200 H   0  0  0  0  0  0  0  0  0  0  0  0
   -1.4184    0.0449    7.5138 H   0  0  0  0  0  0  0  0  0  0  0  0
   -2.9033    0.9794    7.2137 H   0  0  0  0  0  0  0  0  0  0  0  0
   -4.2271   -0.7379    8.4166 H   0  0  0  0  0  0  0  0  0  0  0  0
   -2.9501   -0.0687    9.4605 H   0  0  0  0  0  0  0  0  0  0  0  0
   -3.0446   -2.5398    9.6427 H   0  0  0  0  0  0  0  0  0  0  0  0
   -1.5009   -2.0102    8.9323 H   0  0  0  0  0  0  0  0  0  0  0  0
   -3.9353   -2.9889    7.3726 H   0  0  0  0  0  0  0  0  0  0  0  0
   -2.4504   -3.9234    7.6727 H   0  0  0  0  0  0  0  0  0  0  0  0
   -2.4036   -2.8753    5.4259 H   0  0  0  0  0  0  0  0  0  0  0  0
   -1.1266   -2.2061    6.4698 H   0  0  0  0  0  0  0  0  0  0  0  0
   -1.4138    3.4949    2.8846 O   0  0  0  0  0  1  0  0  0  0  0  0
  1  2  1  0  0  0  0
  1 43  1  0  0  0  0
  1 44  1  0  0  0  0
  1 45  1  0  0  0  0
  2  3  1  0  0  0  0
  2 46  1  0  0  0  0
  2 47  1  0  0  0  0
  3  4  2  0  0  0  0
  3  5  1  0  0  0  0
  5  6  1  0  0  0  0
  6  7  1  1  0  0  0
  6  8  1  0  0  0  0
  6 11  1  0  0  0  0
  8  9  1  0  0  0  0
  8 10  1  0  0  0  0
  8 48  1  0  0  0  0
  9 49  1  0  0  0  0
  9 50  1  0  0  0  0
  9 51  1  0  0  0  0
 10 52  1  0  0  0  0
 10 53  1  0  0  0  0
 10 54  1  0  0  0  0
 11 12  1  0  0  0  0
 12 13  2  1  0  0  0
 12 14  1  0  0  0  0
 12 24  1  0  0  0  0
 14 15  1  0  0  0  0
 14 55  1  0  0  0  0
 14 56  1  0  0  0  0
 15 16  1  0  0  0  0
 15 57  1  0  0  0  0
 15 58  1  0  0  0  0
 16 17  1  0  0  0  0
 16 59  1  0  0  0  0
 16 60  1  0  0  0  0
 17 18  1  0  0  0  0
 17 61  1  0  0  0  0
 17 62  1  0  0  0  0
 18 23  2  0  0  0  0
 18 19  1  0  0  0  0
 19 20  2  0  0  0  0
 19 63  1  0  0  0  0
 20 21  1  0  0  0  0
 20 64  1  0  0  0  0
 21 22  2  0  0  0  0
 21 65  1  0  0  0  0
 22 23  1  0  0  0  0
 22 66  1  0  0  0  0
 23 67  1  0  0  0  0
 24 25  1  0  0  0  0
 24 68  1  0  0  0  0
 24 69  1  0  0  0  0
 25 26  2  0  0  0  0
 25 27  1  0  0  0  0
 27 32  1  0  0  0  0
 27 28  1  0  0  0  0
 28 29  1  0  0  0  0
 28 70  1  0  0  0  0
 28 71  1  0  0  0  0
 29 30  1  1  0  0  0
 29 31  1  0  0  0  0
 29 36  1  0  0  0  0
 31 32  1  0  0  0  0
 31 72  1  0  0  0  0
 31 73  1  0  0  0  0
 32 33  1  6  0  0  0
 32 34  1  0  0  0  0
 34 35  2  0  0  0  0
 34 84  1  0  0  0  0
 36 37  1  0  0  0  0
 36 42  1  0  0  0  0
 36 38  1  0  0  0  0
 38 39  1  0  0  0  0
 38 74  1  0  0  0  0
 38 75  1  0  0  0  0
 39 40  1  0  0  0  0
 39 76  1  0  0  0  0
 39 77  1  0  0  0  0
 40 41  1  0  0  0  0
 40 78  1  0  0  0  0
 40 79  1  0  0  0  0
 41 42  1  0  0  0  0
 41 80  1  0  0  0  0
 41 81  1  0  0  0  0
 42 82  1  0  0  0  0
 42 83  1  0  0  0  0
M  END
$$$$
