ZINC03972949
 OpenBabel08292219463D

 47 49  0  0  1  0  0  0  0  0999 V2000
   -1.8422   -2.9457    0.8648 C   0  0  0  0  0  0  0  0  0  0  0  0
   -1.8197   -1.5647    1.3126 O   0  0  0  0  0  0  0  0  0  0  0  0
   -2.2903   -0.6402    0.4609 C   0  0  0  0  0  0  0  0  0  0  0  0
   -2.7073   -0.9738   -0.6230 O   0  0  0  0  0  0  0  0  0  0  0  0
   -2.2987    0.8140    0.8564 C   0  0  2  0  0  0  0  0  0  0  0  0
   -2.0379    0.9070    1.9107 H   0  0  0  0  0  0  0  0  0  0  0  0
   -3.6978    1.4042    0.6182 C   0  0  1  0  0  0  0  0  0  0  0  0
   -4.4462    0.9960    1.2975 H   0  0  0  0  0  0  0  0  0  0  0  0
   -3.5869    2.9425    0.7269 C   0  0  0  0  0  0  0  0  0  0  0  0
   -3.2339    3.4241   -0.7132 C   0  0  0  0  0  0  0  0  0  0  0  0
   -3.1699    2.1197   -1.5408 C   0  0  1  0  0  0  0  0  0  0  0  0
   -3.4950    2.2686   -2.5705 H   0  0  0  0  0  0  0  0  0  0  0  0
   -5.4607    1.4418   -1.0629 C   0  0  0  0  0  0  0  0  0  0  0  0
   -5.8003    1.0796   -2.5101 C   0  0  0  0  0  0  0  0  0  0  0  0
   -7.2788    1.3705   -2.7752 C   0  0  0  0  0  0  0  0  0  0  0  0
   -7.5892    1.0393   -4.0985 F   0  0  0  0  0  0  0  0  0  0  0  0
   -1.7325    1.5814   -1.4596 C   0  0  0  0  0  0  0  0  0  0  0  0
   -1.2817    1.5834    0.0040 C   0  0  2  0  0  0  0  0  0  0  0  0
   -1.2136    2.6111    0.3609 H   0  0  0  0  0  0  0  0  0  0  0  0
    0.0696    0.9254    0.1132 C   0  0  0  0  0  0  0  0  0  0  0  0
    0.3169   -0.2601   -0.5535 C   0  0  0  0  0  0  0  0  0  0  0  0
    1.5581   -0.8609   -0.4581 C   0  0  0  0  0  0  0  0  0  0  0  0
    2.5491   -0.2817    0.3132 C   0  0  0  0  0  0  0  0  0  0  0  0
    2.2996    0.9014    0.9846 C   0  0  0  0  0  0  0  0  0  0  0  0
    1.0599    1.5044    0.8846 C   0  0  0  0  0  0  0  0  0  0  0  0
    4.4277   -1.1964    0.4650 I   0  0  0  0  0  0  0  0  0  0  0  0
   -2.8691   -3.2413    0.6499 H   0  0  0  0  0  0  0  0  0  0  0  0
   -1.2390   -3.0449   -0.0376 H   0  0  0  0  0  0  0  0  0  0  0  0
   -1.4353   -3.5877    1.6462 H   0  0  0  0  0  0  0  0  0  0  0  0
   -4.5374    3.3698    1.0462 H   0  0  0  0  0  0  0  0  0  0  0  0
   -2.7950    3.2174    1.4236 H   0  0  0  0  0  0  0  0  0  0  0  0
   -2.2689    3.9307   -0.7285 H   0  0  0  0  0  0  0  0  0  0  0  0
   -4.0140    4.0803   -1.0991 H   0  0  0  0  0  0  0  0  0  0  0  0
   -6.0749    0.8479   -0.3861 H   0  0  0  0  0  0  0  0  0  0  0  0
   -5.6579    2.5010   -0.8977 H   0  0  0  0  0  0  0  0  0  0  0  0
   -5.1860    1.6735   -3.1870 H   0  0  0  0  0  0  0  0  0  0  0  0
   -5.6031    0.0204   -2.6754 H   0  0  0  0  0  0  0  0  0  0  0  0
   -7.8930    0.7767   -2.0984 H   0  0  0  0  0  0  0  0  0  0  0  0
   -7.4760    2.4297   -2.6100 H   0  0  0  0  0  0  0  0  0  0  0  0
   -1.7010    0.5641   -1.8498 H   0  0  0  0  0  0  0  0  0  0  0  0
   -1.0705    2.2182   -2.0464 H   0  0  0  0  0  0  0  0  0  0  0  0
   -0.4584   -0.7145   -1.1526 H   0  0  0  0  0  0  0  0  0  0  0  0
    1.7527   -1.7846   -0.9828 H   0  0  0  0  0  0  0  0  0  0  0  0
    3.0735    1.3542    1.5867 H   0  0  0  0  0  0  0  0  0  0  0  0
    0.8651    2.4283    1.4089 H   0  0  0  0  0  0  0  0  0  0  0  0
   -4.0098    1.1827   -0.7894 N   0  3  2  0  0  0  0  0  0  0  0  0
   -3.7843    0.2162   -1.0527 H   0  0  0  0  0  0  0  0  0  0  0  0
  1  2  1  0  0  0  0
  1 27  1  0  0  0  0
  1 28  1  0  0  0  0
  1 29  1  0  0  0  0
  2  3  1  0  0  0  0
  3  4  2  0  0  0  0
  3  5  1  0  0  0  0
  5  6  1  1  0  0  0
  5 18  1  0  0  0  0
  5  7  1  0  0  0  0
  7  8  1  1  0  0  0
  7  9  1  0  0  0  0
  7 46  1  0  0  0  0
  9 10  1  0  0  0  0
  9 30  1  0  0  0  0
  9 31  1  0  0  0  0
 10 11  1  0  0  0  0
 10 32  1  0  0  0  0
 10 33  1  0  0  0  0
 11 12  1  6  0  0  0
 11 17  1  0  0  0  0
 11 46  1  0  0  0  0
 13 14  1  0  0  0  0
 13 34  1  0  0  0  0
 13 35  1  0  0  0  0
 13 46  1  0  0  0  0
 14 15  1  0  0  0  0
 14 36  1  0  0  0  0
 14 37  1  0  0  0  0
 15 16  1  0  0  0  0
 15 38  1  0  0  0  0
 15 39  1  0  0  0  0
 17 18  1  0  0  0  0
 17 40  1  0  0  0  0
 17 41  1  0  0  0  0
 18 19  1  1  0  0  0
 18 20  1  0  0  0  0
 20 25  2  0  0  0  0
 20 21  1  0  0  0  0
 21 22  2  0  0  0  0
 21 42  1  0  0  0  0
 22 23  1  0  0  0  0
 22 43  1  0  0  0  0
 23 24  2  0  0  0  0
 23 26  1  0  0  0  0
 24 25  1  0  0  0  0
 24 44  1  0  0  0  0
 25 45  1  0  0  0  0
 46 47  1  6  0  0  0
M  CHG  1  46   1
M  END
$$$$
