ZINC22001248
 OpenBabel08292219463D

 48 50  0  0  1  0  0  0  0  0999 V2000
    0.1128    1.4790    0.3818 C   0  0  0  0  0  0  0  0  0  0  0  0
    0.0662   -0.0141    0.1834 C   0  0  0  0  0  0  0  0  0  0  0  0
   -1.1219   -0.6414    0.1408 C   0  0  0  0  0  0  0  0  0  0  0  0
   -1.2166   -2.1269   -0.0631 C   0  0  2  0  0  0  0  0  0  0  0  0
   -1.9562   -2.5371    0.6245 H   0  0  0  0  0  0  0  0  0  0  0  0
    0.1108   -2.7841    0.1884 C   0  0  0  0  0  0  0  0  0  0  0  0
    1.2495   -2.0708    0.2291 C   0  0  0  0  0  0  0  0  0  0  0  0
    1.2335   -0.7140    0.0433 N   0  0  0  0  0  0  0  0  0  0  0  0
    2.5595   -2.7735    0.4762 C   0  0  0  0  0  0  0  0  0  0  0  0
    0.1635   -4.1832    0.3870 C   0  0  0  0  0  0  0  0  0  0  0  0
   -0.2209   -4.6635    1.4370 O   0  0  0  0  0  0  0  0  0  0  0  0
    0.6399   -4.9856   -0.5878 O   0  0  0  0  0  0  0  0  0  0  0  0
    0.6641   -6.3889   -0.3188 C   0  0  0  0  0  0  0  0  0  0  0  0
    0.4922   -7.1621   -1.6279 C   0  0  0  0  0  0  0  0  0  0  0  0
    2.0023   -6.7623    0.3221 C   0  0  0  0  0  0  0  0  0  0  0  0
   -1.6474   -2.4067   -1.4798 C   0  0  0  0  0  0  0  0  0  0  0  0
   -0.8881   -1.9854   -2.5173 C   0  0  0  0  0  0  0  0  0  0  0  0
   -1.2546   -2.2260   -3.8472 C   0  0  0  0  0  0  0  0  0  0  0  0
   -2.3876   -2.8928   -4.1664 C   0  0  0  0  0  0  0  0  0  0  0  0
   -3.2372   -3.3675   -3.1339 C   0  0  0  0  0  0  0  0  0  0  0  0
   -2.8484   -3.1187   -1.7326 C   0  0  0  0  0  0  0  0  0  0  0  0
   -3.7666   -3.6438   -0.9549 N   0  0  0  0  0  0  0  0  0  0  0  0
   -4.7514   -4.2388   -1.7822 O   0  0  0  0  0  0  0  0  0  0  0  0
   -4.3713   -4.0290   -3.1314 N   0  0  0  0  0  0  0  0  0  0  0  0
   -2.3084    0.1132    0.2917 C   0  0  0  0  0  0  0  0  0  0  0  0
   -2.2468    1.3170    0.4580 O   0  0  0  0  0  0  0  0  0  0  0  0
   -3.5089   -0.5019    0.2513 O   0  0  0  0  0  0  0  0  0  0  0  0
   -4.6656    0.3220    0.4108 C   0  0  0  0  0  0  0  0  0  0  0  0
    1.1505    1.8129    0.3854 H   0  0  0  0  0  0  0  0  0  0  0  0
   -0.4241    1.9703   -0.4297 H   0  0  0  0  0  0  0  0  0  0  0  0
   -0.3542    1.7339    1.3331 H   0  0  0  0  0  0  0  0  0  0  0  0
    2.0524   -0.2465   -0.1843 H   0  0  0  0  0  0  0  0  0  0  0  0
    2.9659   -3.1282   -0.4710 H   0  0  0  0  0  0  0  0  0  0  0  0
    3.2630   -2.0796    0.9362 H   0  0  0  0  0  0  0  0  0  0  0  0
    2.3972   -3.6211    1.1420 H   0  0  0  0  0  0  0  0  0  0  0  0
   -0.1482   -6.6424    0.3623 H   0  0  0  0  0  0  0  0  0  0  0  0
    1.3046   -6.9086   -2.3089 H   0  0  0  0  0  0  0  0  0  0  0  0
    0.5107   -8.2325   -1.4227 H   0  0  0  0  0  0  0  0  0  0  0  0
   -0.4611   -6.8961   -2.0845 H   0  0  0  0  0  0  0  0  0  0  0  0
    2.1248   -6.2115    1.2547 H   0  0  0  0  0  0  0  0  0  0  0  0
    2.0208   -7.8327    0.5272 H   0  0  0  0  0  0  0  0  0  0  0  0
    2.8147   -6.5088   -0.3590 H   0  0  0  0  0  0  0  0  0  0  0  0
    0.0263   -1.4479   -2.3140 H   0  0  0  0  0  0  0  0  0  0  0  0
   -0.6148   -1.8689   -4.6406 H   0  0  0  0  0  0  0  0  0  0  0  0
   -2.6443   -3.0626   -5.2016 H   0  0  0  0  0  0  0  0  0  0  0  0
   -5.5619   -0.2961    0.3584 H   0  0  0  0  0  0  0  0  0  0  0  0
   -4.6250    0.8218    1.3786 H   0  0  0  0  0  0  0  0  0  0  0  0
   -4.6921    1.0686   -0.3829 H   0  0  0  0  0  0  0  0  0  0  0  0
  1  2  1  0  0  0  0
  1 29  1  0  0  0  0
  1 30  1  0  0  0  0
  1 31  1  0  0  0  0
  2  8  1  0  0  0  0
  2  3  2  0  0  0  0
  3  4  1  0  0  0  0
  3 25  1  0  0  0  0
  4  5  1  1  0  0  0
  4  6  1  0  0  0  0
  4 16  1  0  0  0  0
  6  7  2  0  0  0  0
  6 10  1  0  0  0  0
  7  8  1  0  0  0  0
  7  9  1  0  0  0  0
  8 32  1  0  0  0  0
  9 33  1  0  0  0  0
  9 34  1  0  0  0  0
  9 35  1  0  0  0  0
 10 11  2  0  0  0  0
 10 12  1  0  0  0  0
 12 13  1  0  0  0  0
 13 14  1  0  0  0  0
 13 15  1  0  0  0  0
 13 36  1  0  0  0  0
 14 37  1  0  0  0  0
 14 38  1  0  0  0  0
 14 39  1  0  0  0  0
 15 40  1  0  0  0  0
 15 41  1  0  0  0  0
 15 42  1  0  0  0  0
 16 21  1  0  0  0  0
 16 17  2  0  0  0  0
 17 18  1  0  0  0  0
 17 43  1  0  0  0  0
 18 19  2  0  0  0  0
 18 44  1  0  0  0  0
 19 20  1  0  0  0  0
 19 45  1  0  0  0  0
 20 24  2  0  0  0  0
 20 21  1  0  0  0  0
 21 22  2  0  0  0  0
 22 23  1  0  0  0  0
 23 24  1  0  0  0  0
 25 26  2  0  0  0  0
 25 27  1  0  0  0  0
 27 28  1  0  0  0  0
 28 46  1  0  0  0  0
 28 47  1  0  0  0  0
 28 48  1  0  0  0  0
M  END
$$$$
