ZINC03812974
 OpenBabel08292219463D

 50 51  0  0  1  0  0  0  0  0999 V2000
   -0.0187    1.5258    0.0104 C   0  0  0  0  0  0  0  0  0  0  0  0
    0.0021   -0.0041    0.0020 C   0  0  0  0  0  0  0  0  0  0  0  0
    0.7421   -0.5109    1.2415 C   0  0  0  0  0  0  0  0  0  0  0  0
   -1.4333   -0.5336    0.0129 C   0  0  0  0  0  0  0  0  0  0  0  0
    0.6897   -0.4778   -1.2066 N   0  3  0  0  0  0  0  0  0  0  0  0
    2.0678    0.0307   -1.2170 C   0  0  0  0  0  0  0  0  0  0  0  0
    2.7840   -0.4628   -2.4758 C   0  0  2  0  0  0  0  0  0  0  0  0
    2.7213   -1.5498   -2.5270 H   0  0  0  0  0  0  0  0  0  0  0  0
    4.2531   -0.0383   -2.4263 C   0  0  0  0  0  0  0  0  0  0  0  0
    4.9483   -0.5972   -3.5427 O   0  0  0  0  0  0  0  0  0  0  0  0
    6.2734   -0.3147   -3.6487 C   0  0  0  0  0  0  0  0  0  0  0  0
    6.8863    0.4783   -2.6932 C   0  0  0  0  0  0  0  0  0  0  0  0
    8.2330    0.7649   -2.8028 C   0  0  0  0  0  0  0  0  0  0  0  0
    8.9578    0.2622   -3.8642 C   0  0  0  0  0  0  0  0  0  0  0  0
    8.3470   -0.5326   -4.8259 C   0  0  0  0  0  0  0  0  0  0  0  0
    7.0079   -0.8298   -4.7151 C   0  0  0  0  0  0  0  0  0  0  0  0
    6.2857   -1.7023   -5.7081 C   0  0  0  0  0  0  0  0  0  0  0  0
    7.0877   -1.8205   -7.0025 C   0  0  1  0  0  0  0  0  0  0  0  0
    7.0963   -0.8602   -7.5181 H   0  0  0  0  0  0  0  0  0  0  0  0
    8.5223   -2.2287   -6.6473 C   0  0  1  0  0  0  0  0  0  0  0  0
    9.0672   -2.4834   -7.5563 H   0  0  0  0  0  0  0  0  0  0  0  0
    9.1986   -1.0394   -5.9604 C   0  0  0  0  0  0  0  0  0  0  0  0
    8.4985   -3.3554   -5.7687 O   0  0  0  0  0  0  0  0  0  0  0  0
    6.4986   -2.8135   -7.8446 O   0  0  0  0  0  0  0  0  0  0  0  0
    2.1628    0.1050   -3.6307 O   0  0  0  0  0  0  0  0  0  0  0  0
    1.0039    1.9031    0.0027 H   0  0  0  0  0  0  0  0  0  0  0  0
   -0.5459    1.8868   -0.8726 H   0  0  0  0  0  0  0  0  0  0  0  0
   -0.5289    1.8773    0.9072 H   0  0  0  0  0  0  0  0  0  0  0  0
    0.2319   -0.1594    2.1383 H   0  0  0  0  0  0  0  0  0  0  0  0
    0.7568   -1.6008    1.2356 H   0  0  0  0  0  0  0  0  0  0  0  0
    1.7647   -0.1336    1.2338 H   0  0  0  0  0  0  0  0  0  0  0  0
   -1.9605   -0.1726   -0.8702 H   0  0  0  0  0  0  0  0  0  0  0  0
   -1.4185   -1.6235    0.0069 H   0  0  0  0  0  0  0  0  0  0  0  0
   -1.9435   -0.1821    0.9097 H   0  0  0  0  0  0  0  0  0  0  0  0
    0.7033   -1.4867   -1.2121 H   0  0  0  0  0  0  0  0  0  0  0  0
    2.0530    1.1205   -1.2110 H   0  0  0  0  0  0  0  0  0  0  0  0
    2.5950   -0.3304   -0.3340 H   0  0  0  0  0  0  0  0  0  0  0  0
    4.3186    1.0490   -2.4647 H   0  0  0  0  0  0  0  0  0  0  0  0
    4.7039   -0.3970   -1.5010 H   0  0  0  0  0  0  0  0  0  0  0  0
    6.3137    0.8713   -1.8661 H   0  0  0  0  0  0  0  0  0  0  0  0
    8.7176    1.3812   -2.0600 H   0  0  0  0  0  0  0  0  0  0  0  0
   10.0103    0.4892   -3.9481 H   0  0  0  0  0  0  0  0  0  0  0  0
    6.1463   -2.6948   -5.2798 H   0  0  0  0  0  0  0  0  0  0  0  0
    5.3112   -1.2662   -5.9277 H   0  0  0  0  0  0  0  0  0  0  0  0
    9.3543   -0.2356   -6.6799 H   0  0  0  0  0  0  0  0  0  0  0  0
   10.1632   -1.3626   -5.5692 H   0  0  0  0  0  0  0  0  0  0  0  0
    9.3751   -3.6662   -5.5038 H   0  0  0  0  0  0  0  0  0  0  0  0
    5.5836   -2.6249   -8.0943 H   0  0  0  0  0  0  0  0  0  0  0  0
    2.1814    1.0716   -3.6522 H   0  0  0  0  0  0  0  0  0  0  0  0
    0.2017   -0.1436   -2.0240 H   0  0  0  0  0  0  0  0  0  0  0  0
  1  2  1  0  0  0  0
  1 26  1  0  0  0  0
  1 27  1  0  0  0  0
  1 28  1  0  0  0  0
  2  3  1  0  0  0  0
  2  4  1  0  0  0  0
  2  5  1  0  0  0  0
  3 29  1  0  0  0  0
  3 30  1  0  0  0  0
  3 31  1  0  0  0  0
  4 32  1  0  0  0  0
  4 33  1  0  0  0  0
  4 34  1  0  0  0  0
  5  6  1  0  0  0  0
  5 35  1  0  0  0  0
  5 50  1  0  0  0  0
  6  7  1  0  0  0  0
  6 36  1  0  0  0  0
  6 37  1  0  0  0  0
  7  8  1  6  0  0  0
  7  9  1  0  0  0  0
  7 25  1  0  0  0  0
  9 10  1  0  0  0  0
  9 38  1  0  0  0  0
  9 39  1  0  0  0  0
 10 11  1  0  0  0  0
 11 16  2  0  0  0  0
 11 12  1  0  0  0  0
 12 13  2  0  0  0  0
 12 40  1  0  0  0  0
 13 14  1  0  0  0  0
 13 41  1  0  0  0  0
 14 15  2  0  0  0  0
 14 42  1  0  0  0  0
 15 22  1  0  0  0  0
 15 16  1  0  0  0  0
 16 17  1  0  0  0  0
 17 18  1  0  0  0  0
 17 43  1  0  0  0  0
 17 44  1  0  0  0  0
 18 19  1  6  0  0  0
 18 20  1  0  0  0  0
 18 24  1  0  0  0  0
 20 21  1  6  0  0  0
 20 22  1  0  0  0  0
 20 23  1  0  0  0  0
 22 45  1  0  0  0  0
 22 46  1  0  0  0  0
 23 47  1  0  0  0  0
 24 48  1  0  0  0  0
 25 49  1  0  0  0  0
M  CHG  1   5   1
M  END
$$$$
