ZINC00008667
 OpenBabel08292219463D

 30 31  0  0  1  0  0  0  0  0999 V2000
   -0.0187    1.5258    0.0104 C   0  0  0  0  0  0  0  0  0  0  0  0
    0.0021   -0.0041    0.0020 C   0  0  2  0  0  0  0  0  0  0  0  0
    0.5293   -0.3651    0.8851 H   0  0  0  0  0  0  0  0  0  0  0  0
    0.7074   -0.4901   -1.2379 C   0  0  0  0  0  0  0  0  0  0  0  0
    0.2191   -0.1492   -2.4867 C   0  0  0  0  0  0  0  0  0  0  0  0
    0.8599   -0.5907   -3.6263 C   0  0  0  0  0  0  0  0  0  0  0  0
    2.0018   -1.3819   -3.5188 C   0  0  0  0  0  0  0  0  0  0  0  0
    2.4909   -1.7233   -2.2573 C   0  0  0  0  0  0  0  0  0  0  0  0
    1.8431   -1.2700   -1.1228 C   0  0  0  0  0  0  0  0  0  0  0  0
    3.5972   -2.4904   -2.1447 F   0  0  0  0  0  0  0  0  0  0  0  0
    2.6946   -1.8598   -4.7406 C   0  0  0  0  0  0  0  0  0  0  0  0
    1.9703   -2.4751   -5.7597 C   0  0  0  0  0  0  0  0  0  0  0  0
    2.6199   -2.9178   -6.8941 C   0  0  0  0  0  0  0  0  0  0  0  0
    3.9873   -2.7517   -7.0205 C   0  0  0  0  0  0  0  0  0  0  0  0
    4.7112   -2.1416   -6.0120 C   0  0  0  0  0  0  0  0  0  0  0  0
    4.0711   -1.6899   -4.8757 C   0  0  0  0  0  0  0  0  0  0  0  0
   -1.4117   -0.5257    0.0127 C   0  0  0  0  0  0  0  0  0  0  0  0
   -1.8097   -1.2271   -0.9017 O   0  0  0  0  0  0  0  0  0  0  0  0
   -2.1576   -0.2463    0.9358 O   0  0  0  0  0  1  0  0  0  0  0  0
    1.0039    1.9031    0.0027 H   0  0  0  0  0  0  0  0  0  0  0  0
   -0.5459    1.8868   -0.8726 H   0  0  0  0  0  0  0  0  0  0  0  0
   -0.5289    1.8773    0.9072 H   0  0  0  0  0  0  0  0  0  0  0  0
   -0.6662    0.4638   -2.5699 H   0  0  0  0  0  0  0  0  0  0  0  0
    0.4768   -0.3237   -4.6001 H   0  0  0  0  0  0  0  0  0  0  0  0
    2.2224   -1.5294   -0.1454 H   0  0  0  0  0  0  0  0  0  0  0  0
    0.9027   -2.6057   -5.6619 H   0  0  0  0  0  0  0  0  0  0  0  0
    2.0597   -3.3952   -7.6844 H   0  0  0  0  0  0  0  0  0  0  0  0
    4.4917   -3.0999   -7.9097 H   0  0  0  0  0  0  0  0  0  0  0  0
    5.7787   -2.0147   -6.1157 H   0  0  0  0  0  0  0  0  0  0  0  0
    4.6365   -1.2093   -4.0910 H   0  0  0  0  0  0  0  0  0  0  0  0
  1  2  1  0  0  0  0
  1 20  1  0  0  0  0
  1 21  1  0  0  0  0
  1 22  1  0  0  0  0
  2  3  1  1  0  0  0
  2  4  1  0  0  0  0
  2 17  1  0  0  0  0
  4  9  2  0  0  0  0
  4  5  1  0  0  0  0
  5  6  2  0  0  0  0
  5 23  1  0  0  0  0
  6  7  1  0  0  0  0
  6 24  1  0  0  0  0
  7  8  2  0  0  0  0
  7 11  1  0  0  0  0
  8  9  1  0  0  0  0
  8 10  1  0  0  0  0
  9 25  1  0  0  0  0
 11 16  2  0  0  0  0
 11 12  1  0  0  0  0
 12 13  2  0  0  0  0
 12 26  1  0  0  0  0
 13 14  1  0  0  0  0
 13 27  1  0  0  0  0
 14 15  2  0  0  0  0
 14 28  1  0  0  0  0
 15 16  1  0  0  0  0
 15 29  1  0  0  0  0
 16 30  1  0  0  0  0
 17 18  2  0  0  0  0
 17 19  1  0  0  0  0
M  END
$$$$
