ZINC01639567
 OpenBabel08292219463D

 22 23  0  0  1  0  0  0  0  0999 V2000
   -0.0167    1.3781    0.0096 C   0  0  0  0  0  0  0  0  0  0  0  0
    1.1709    2.0855    0.0021 C   0  0  0  0  0  0  0  0  0  0  0  0
    2.3773    1.4107   -0.0130 C   0  0  0  0  0  0  0  0  0  0  0  0
    2.3960    0.0285   -0.0201 C   0  0  0  0  0  0  0  0  0  0  0  0
    1.2084   -0.6789   -0.0117 C   0  0  0  0  0  0  0  0  0  0  0  0
    0.0021   -0.0041    0.0020 C   0  0  0  0  0  0  0  0  0  0  0  0
    3.7112   -0.7071   -0.0376 C   0  0  1  0  0  0  0  0  0  0  0  0
    4.5589   -0.1646    0.3809 H   0  0  0  0  0  0  0  0  0  0  0  0
    3.6750   -2.2237    0.1616 C   0  0  0  0  0  0  0  0  0  0  0  0
    3.9832   -1.6399   -1.2194 C   0  0  1  0  0  0  0  0  0  0  0  0
    5.0100   -1.7113   -1.5782 H   0  0  0  0  0  0  0  0  0  0  0  0
    2.9425   -1.7498   -2.2503 N   0  3  0  0  0  0  0  0  0  0  0  0
   -0.9591    1.9053    0.0259 H   0  0  0  0  0  0  0  0  0  0  0  0
    1.1563    3.1654    0.0076 H   0  0  0  0  0  0  0  0  0  0  0  0
    3.3051    1.9634   -0.0196 H   0  0  0  0  0  0  0  0  0  0  0  0
    1.2231   -1.7588   -0.0176 H   0  0  0  0  0  0  0  0  0  0  0  0
   -0.9258   -0.5567    0.0082 H   0  0  0  0  0  0  0  0  0  0  0  0
    4.4992   -2.6789    0.7109 H   0  0  0  0  0  0  0  0  0  0  0  0
    2.7000   -2.6893    0.3053 H   0  0  0  0  0  0  0  0  0  0  0  0
    2.7771   -0.8424   -2.6594 H   0  0  0  0  0  0  0  0  0  0  0  0
    3.2457   -2.3918   -2.9673 H   0  0  0  0  0  0  0  0  0  0  0  0
    2.0898   -2.0908   -1.8324 H   0  0  0  0  0  0  0  0  0  0  0  0
  1  6  2  0  0  0  0
  1  2  1  0  0  0  0
  1 13  1  0  0  0  0
  2  3  2  0  0  0  0
  2 14  1  0  0  0  0
  3  4  1  0  0  0  0
  3 15  1  0  0  0  0
  4  5  2  0  0  0  0
  4  7  1  0  0  0  0
  5  6  1  0  0  0  0
  5 16  1  0  0  0  0
  6 17  1  0  0  0  0
  7  8  1  1  0  0  0
  7 10  1  0  0  0  0
  7  9  1  0  0  0  0
  9 10  1  0  0  0  0
  9 18  1  0  0  0  0
  9 19  1  0  0  0  0
 10 11  1  6  0  0  0
 10 12  1  0  0  0  0
 12 20  1  0  0  0  0
 12 21  1  0  0  0  0
 12 22  1  0  0  0  0
M  CHG  1  12   1
M  END
$$$$
