ZINC00897089
 OpenBabel08292219463D

 43 45  0  0  1  0  0  0  0  0999 V2000
   -0.0168    1.3889    0.0097 C   0  0  0  0  0  0  0  0  0  0  0  0
    1.1424    2.1034    0.0024 C   0  0  0  0  0  0  0  0  0  0  0  0
    2.3733    1.4284   -0.0129 C   0  0  0  0  0  0  0  0  0  0  0  0
    3.5939    2.1297   -0.0202 C   0  0  0  0  0  0  0  0  0  0  0  0
    4.7524    1.4066   -0.0348 C   0  0  0  0  0  0  0  0  0  0  0  0
    4.7030    0.0141   -0.0421 C   0  0  0  0  0  0  0  0  0  0  0  0
    3.5646   -0.6358   -0.0352 N   0  0  0  0  0  0  0  0  0  0  0  0
    2.3949    0.0115   -0.0208 C   0  0  0  0  0  0  0  0  0  0  0  0
    1.1773   -0.6905   -0.0134 C   0  0  0  0  0  0  0  0  0  0  0  0
    0.0021   -0.0041    0.0020 C   0  0  0  0  0  0  0  0  0  0  0  0
    1.1730   -2.1975   -0.0224 C   0  0  0  0  0  0  0  0  0  0  0  0
   -0.1473   -2.6601   -0.0125 F   0  0  0  0  0  0  0  0  0  0  0  0
    1.8201   -2.6588   -1.1737 F   0  0  0  0  0  0  0  0  0  0  0  0
    1.8420   -2.6725    1.1107 F   0  0  0  0  0  0  0  0  0  0  0  0
    5.9925   -0.7655   -0.0587 C   0  0  0  0  0  0  0  0  0  0  0  0
    6.4042   -1.0140    1.2550 F   0  0  0  0  0  0  0  0  0  0  0  0
    5.7943   -1.9806   -0.7231 F   0  0  0  0  0  0  0  0  0  0  0  0
    6.9762   -0.0255   -0.7236 F   0  0  0  0  0  0  0  0  0  0  0  0
    3.6215    3.6365   -0.0127 C   0  0  2  0  0  0  0  0  0  0  0  0
    2.7918    4.0120    0.5862 H   0  0  0  0  0  0  0  0  0  0  0  0
    3.4922    4.1561   -1.4459 C   0  0  2  0  0  0  0  0  0  0  0  0
    2.5946    3.7399   -1.9032 H   0  0  0  0  0  0  0  0  0  0  0  0
    4.7199    3.7312   -2.2545 C   0  0  0  0  0  0  0  0  0  0  0  0
    4.5859    4.2532   -3.6879 C   0  0  0  0  0  0  0  0  0  0  0  0
    4.4122    5.7743   -3.6527 C   0  0  0  0  0  0  0  0  0  0  0  0
    3.1960    6.1235   -2.7923 C   0  0  0  0  0  0  0  0  0  0  0  0
    3.3974    5.6207   -1.4280 N   0  3  0  0  0  0  0  0  0  0  0  0
    4.8561    4.0875    0.5480 O   0  0  0  0  0  0  0  0  0  0  0  0
   -0.9632    1.9089    0.0261 H   0  0  0  0  0  0  0  0  0  0  0  0
    1.1150    3.1831    0.0081 H   0  0  0  0  0  0  0  0  0  0  0  0
    5.7060    1.9136   -0.0411 H   0  0  0  0  0  0  0  0  0  0  0  0
   -0.9309   -0.5481    0.0084 H   0  0  0  0  0  0  0  0  0  0  0  0
    5.6181    4.1471   -1.7981 H   0  0  0  0  0  0  0  0  0  0  0  0
    4.7880    2.6434   -2.2682 H   0  0  0  0  0  0  0  0  0  0  0  0
    5.4836    4.0018   -4.2528 H   0  0  0  0  0  0  0  0  0  0  0  0
    3.7162    3.7979   -4.1618 H   0  0  0  0  0  0  0  0  0  0  0  0
    5.3040    6.2327   -3.2253 H   0  0  0  0  0  0  0  0  0  0  0  0
    4.2605    6.1469   -4.6657 H   0  0  0  0  0  0  0  0  0  0  0  0
    3.0693    7.2058   -2.7652 H   0  0  0  0  0  0  0  0  0  0  0  0
    2.3047    5.6649   -3.2206 H   0  0  0  0  0  0  0  0  0  0  0  0
    2.6186    5.8993   -0.8500 H   0  0  0  0  0  0  0  0  0  0  0  0
    5.6393    3.7902    0.0650 H   0  0  0  0  0  0  0  0  0  0  0  0
    4.2493    6.0073   -1.0500 H   0  0  0  0  0  0  0  0  0  0  0  0
  1 10  2  0  0  0  0
  1  2  1  0  0  0  0
  1 29  1  0  0  0  0
  2  3  2  0  0  0  0
  2 30  1  0  0  0  0
  3  8  1  0  0  0  0
  3  4  1  0  0  0  0
  4  5  2  0  0  0  0
  4 19  1  0  0  0  0
  5  6  1  0  0  0  0
  5 31  1  0  0  0  0
  6  7  2  0  0  0  0
  6 15  1  0  0  0  0
  7  8  1  0  0  0  0
  8  9  2  0  0  0  0
  9 10  1  0  0  0  0
  9 11  1  0  0  0  0
 10 32  1  0  0  0  0
 11 12  1  0  0  0  0
 11 13  1  0  0  0  0
 11 14  1  0  0  0  0
 15 16  1  0  0  0  0
 15 17  1  0  0  0  0
 15 18  1  0  0  0  0
 19 20  1  1  0  0  0
 19 21  1  0  0  0  0
 19 28  1  0  0  0  0
 21 22  1  6  0  0  0
 21 27  1  0  0  0  0
 21 23  1  0  0  0  0
 23 24  1  0  0  0  0
 23 33  1  0  0  0  0
 23 34  1  0  0  0  0
 24 25  1  0  0  0  0
 24 35  1  0  0  0  0
 24 36  1  0  0  0  0
 25 26  1  0  0  0  0
 25 37  1  0  0  0  0
 25 38  1  0  0  0  0
 26 27  1  0  0  0  0
 26 39  1  0  0  0  0
 26 40  1  0  0  0  0
 27 41  1  0  0  0  0
 27 43  1  0  0  0  0
 28 42  1  0  0  0  0
M  CHG  1  27   1
M  END
$$$$
