ZINC21303210
 OpenBabel08292219463D

 27 29  0  0  0  0  0  0  0  0999 V2000
    1.8032   -1.0148    2.6022 H   0  0  0  0  0  0  0  0  0  0  0  0
    1.3628   -0.3287    1.8787 C   0  0  0  0  0  0  0  0  0  0  0  0
    0.3012    0.5571    2.5554 C   0  0  0  0  0  0  0  0  0  0  0  0
    0.8051    1.9273    2.3886 N   0  0  0  0  0  0  0  0  0  0  0  0
    1.9910    1.8871    1.7145 C   0  0  0  0  0  0  0  0  0  0  0  0
    2.3738    0.6185    1.3887 N   0  0  0  0  0  0  0  0  0  0  0  0
    2.6904    2.9571    1.4113 N   0  0  0  0  0  0  0  0  0  0  0  0
    3.8050    2.8458    0.6259 C   0  0  0  0  0  0  0  0  0  0  0  0
    3.7359    2.1382   -0.5889 C   0  0  0  0  0  0  0  0  0  0  0  0
    4.8278    2.0143   -1.3845 C   0  0  0  0  0  0  0  0  0  0  0  0
    6.0507    2.5966   -1.0003 C   0  0  0  0  0  0  0  0  0  0  0  0
    6.1338    3.3129    0.2224 C   0  0  0  0  0  0  0  0  0  0  0  0
    4.9928    3.4354    1.0295 C   0  0  0  0  0  0  0  0  0  0  0  0
    5.0765    4.3911    2.6590 Br  0  0  0  0  0  0  0  0  0  0  0  0
    7.2969    3.8664    0.5862 N   0  0  0  0  0  0  0  0  0  0  0  0
    8.3489    3.7412   -0.1915 C   0  0  0  0  0  0  0  0  0  0  0  0
    8.2665    3.0372   -1.3930 C   0  0  0  0  0  0  0  0  0  0  0  0
    7.1359    2.4847   -1.7722 N   0  0  0  0  0  0  0  0  0  0  0  0
   -0.6624    0.4429    2.0588 H   0  0  0  0  0  0  0  0  0  0  0  0
    0.2167    0.3089    3.6134 H   0  0  0  0  0  0  0  0  0  0  0  0
    0.9256   -0.8823    1.0478 H   0  0  0  0  0  0  0  0  0  0  0  0
    3.1835    0.3801    0.9108 H   0  0  0  0  0  0  0  0  0  0  0  0
    2.8019    1.6880   -0.8914 H   0  0  0  0  0  0  0  0  0  0  0  0
    4.7590    1.4680   -2.3136 H   0  0  0  0  0  0  0  0  0  0  0  0
    9.2870    4.1885    0.1025 H   0  0  0  0  0  0  0  0  0  0  0  0
    9.1418    2.9451   -2.0189 H   0  0  0  0  0  0  0  0  0  0  0  0
    0.3652    2.7314    2.7063 H   0  0  0  0  0  0  0  0  0  0  0  0
  1  2  1  0  0  0  0
  2  6  1  0  0  0  0
  2  3  1  0  0  0  0
  2 21  1  0  0  0  0
  3  4  1  0  0  0  0
  3 19  1  0  0  0  0
  3 20  1  0  0  0  0
  4  5  1  0  0  0  0
  4 27  1  0  0  0  0
  5  6  1  0  0  0  0
  5  7  2  0  0  0  0
  6 22  1  0  0  0  0
  7  8  1  0  0  0  0
  8 13  2  0  0  0  0
  8  9  1  0  0  0  0
  9 10  2  0  0  0  0
  9 23  1  0  0  0  0
 10 11  1  0  0  0  0
 10 24  1  0  0  0  0
 11 18  2  0  0  0  0
 11 12  1  0  0  0  0
 12 13  1  0  0  0  0
 12 15  2  0  0  0  0
 13 14  1  0  0  0  0
 15 16  1  0  0  0  0
 16 17  2  0  0  0  0
 16 25  1  0  0  0  0
 17 18  1  0  0  0  0
 17 26  1  0  0  0  0
M  END
$$$$
