ZINC00607849
 OpenBabel08292219463D

 55 57  0  0  1  0  0  0  0  0999 V2000
    7.7541    1.8885   -5.8393 C   0  0  0  0  0  0  0  0  0  0  0  0
    6.4013    3.8068   -5.2475 C   0  0  0  0  0  0  0  0  0  0  0  0
    5.0702    4.2336   -4.6246 C   0  0  0  0  0  0  0  0  0  0  0  0
    3.9192    3.7506   -5.5114 C   0  0  0  0  0  0  0  0  0  0  0  0
    4.0082    2.2299   -5.6664 C   0  0  0  0  0  0  0  0  0  0  0  0
    5.3701    1.8612   -6.2590 C   0  0  2  0  0  0  0  0  0  0  0  0
    5.4758    2.3228   -7.2408 H   0  0  0  0  0  0  0  0  0  0  0  0
    5.4713    0.3408   -6.3970 C   0  0  0  0  0  0  0  0  0  0  0  0
    4.3679   -0.1612   -7.3306 C   0  0  0  0  0  0  0  0  0  0  0  0
    4.3921   -1.6674   -7.3726 C   0  0  0  0  0  0  0  0  0  0  0  0
    5.0823   -2.3201   -8.3754 C   0  0  0  0  0  0  0  0  0  0  0  0
    5.1058   -3.7019   -8.4142 C   0  0  0  0  0  0  0  0  0  0  0  0
    4.4380   -4.4353   -7.4503 C   0  0  0  0  0  0  0  0  0  0  0  0
    3.7506   -3.7890   -6.4420 C   0  0  0  0  0  0  0  0  0  0  0  0
    3.7210   -2.4007   -6.4029 C   0  0  0  0  0  0  0  0  0  0  0  0
    3.0217   -1.7430   -5.3860 N   0  0  0  0  0  0  0  0  0  0  0  0
    2.0005   -2.3621   -4.7612 C   0  0  0  0  0  0  0  0  0  0  0  0
    1.6194   -3.4494   -5.1498 O   0  0  0  0  0  0  0  0  0  0  0  0
    1.3447   -1.7202   -3.6055 C   0  0  0  0  0  0  0  0  0  0  0  0
    0.2856   -2.3604   -2.9563 C   0  0  0  0  0  0  0  0  0  0  0  0
   -0.3234   -1.7583   -1.8780 C   0  0  0  0  0  0  0  0  0  0  0  0
    0.1137   -0.5153   -1.4353 C   0  0  0  0  0  0  0  0  0  0  0  0
    1.1633    0.1272   -2.0815 C   0  0  0  0  0  0  0  0  0  0  0  0
    1.7813   -0.4708   -3.1570 C   0  0  0  0  0  0  0  0  0  0  0  0
   -0.4897    0.0752   -0.3727 O   0  0  0  0  0  0  0  0  0  0  0  0
    0.0094    1.3523    0.0295 C   0  0  0  0  0  0  0  0  0  0  0  0
    7.9719    2.3367   -6.8088 H   0  0  0  0  0  0  0  0  0  0  0  0
    8.5172    2.1879   -5.1209 H   0  0  0  0  0  0  0  0  0  0  0  0
    7.7502    0.8026   -5.9338 H   0  0  0  0  0  0  0  0  0  0  0  0
    7.2224    4.1368   -4.6111 H   0  0  0  0  0  0  0  0  0  0  0  0
    6.5021    4.2592   -6.2340 H   0  0  0  0  0  0  0  0  0  0  0  0
    4.9748    3.7927   -3.6323 H   0  0  0  0  0  0  0  0  0  0  0  0
    5.0372    5.3202   -4.5454 H   0  0  0  0  0  0  0  0  0  0  0  0
    2.9679    4.0146   -5.0495 H   0  0  0  0  0  0  0  0  0  0  0  0
    3.9923    4.2215   -6.4917 H   0  0  0  0  0  0  0  0  0  0  0  0
    3.2165    1.8849   -6.3314 H   0  0  0  0  0  0  0  0  0  0  0  0
    3.8960    1.7575   -4.6905 H   0  0  0  0  0  0  0  0  0  0  0  0
    5.3560   -0.1215   -5.4166 H   0  0  0  0  0  0  0  0  0  0  0  0
    6.4448    0.0775   -6.8106 H   0  0  0  0  0  0  0  0  0  0  0  0
    4.5332    0.2330   -8.3333 H   0  0  0  0  0  0  0  0  0  0  0  0
    3.3991    0.1765   -6.9625 H   0  0  0  0  0  0  0  0  0  0  0  0
    5.6045   -1.7503   -9.1299 H   0  0  0  0  0  0  0  0  0  0  0  0
    5.6464   -4.2098   -9.1992 H   0  0  0  0  0  0  0  0  0  0  0  0
    4.4580   -5.5146   -7.4836 H   0  0  0  0  0  0  0  0  0  0  0  0
    3.2331   -4.3622   -5.6870 H   0  0  0  0  0  0  0  0  0  0  0  0
    3.2717   -0.8414   -5.1302 H   0  0  0  0  0  0  0  0  0  0  0  0
   -0.0546   -3.3262   -3.2996 H   0  0  0  0  0  0  0  0  0  0  0  0
   -1.1419   -2.2524   -1.3757 H   0  0  0  0  0  0  0  0  0  0  0  0
    1.4972    1.0947   -1.7371 H   0  0  0  0  0  0  0  0  0  0  0  0
    2.5995    0.0272   -3.6560 H   0  0  0  0  0  0  0  0  0  0  0  0
    1.0607    1.2620    0.3027 H   0  0  0  0  0  0  0  0  0  0  0  0
   -0.0925    2.0583   -0.7947 H   0  0  0  0  0  0  0  0  0  0  0  0
   -0.5594    1.7109    0.8875 H   0  0  0  0  0  0  0  0  0  0  0  0
    6.4338    2.3322   -5.3466 N   0  3  1  0  0  0  0  0  0  0  0  0
    6.2742    1.9323   -4.4145 H   0  0  0  0  0  0  0  0  0  0  0  0
  1 27  1  0  0  0  0
  1 28  1  0  0  0  0
  1 29  1  0  0  0  0
  1 54  1  0  0  0  0
  2  3  1  0  0  0  0
  2 30  1  0  0  0  0
  2 31  1  0  0  0  0
  2 54  1  0  0  0  0
  3  4  1  0  0  0  0
  3 32  1  0  0  0  0
  3 33  1  0  0  0  0
  4  5  1  0  0  0  0
  4 34  1  0  0  0  0
  4 35  1  0  0  0  0
  5  6  1  0  0  0  0
  5 36  1  0  0  0  0
  5 37  1  0  0  0  0
  6  7  1  6  0  0  0
  6  8  1  0  0  0  0
  6 54  1  0  0  0  0
  8  9  1  0  0  0  0
  8 38  1  0  0  0  0
  8 39  1  0  0  0  0
  9 10  1  0  0  0  0
  9 40  1  0  0  0  0
  9 41  1  0  0  0  0
 10 15  2  0  0  0  0
 10 11  1  0  0  0  0
 11 12  2  0  0  0  0
 11 42  1  0  0  0  0
 12 13  1  0  0  0  0
 12 43  1  0  0  0  0
 13 14  2  0  0  0  0
 13 44  1  0  0  0  0
 14 15  1  0  0  0  0
 14 45  1  0  0  0  0
 15 16  1  0  0  0  0
 16 17  1  0  0  0  0
 16 46  1  0  0  0  0
 17 18  2  0  0  0  0
 17 19  1  0  0  0  0
 19 24  2  0  0  0  0
 19 20  1  0  0  0  0
 20 21  2  0  0  0  0
 20 47  1  0  0  0  0
 21 22  1  0  0  0  0
 21 48  1  0  0  0  0
 22 23  2  0  0  0  0
 22 25  1  0  0  0  0
 23 24  1  0  0  0  0
 23 49  1  0  0  0  0
 24 50  1  0  0  0  0
 25 26  1  0  0  0  0
 26 51  1  0  0  0  0
 26 52  1  0  0  0  0
 26 53  1  0  0  0  0
 54 55  1  1  0  0  0
M  CHG  1  54   1
M  END
$$$$
