ZINC03875332
 OpenBabel08292219463D

 57 60  0  0  1  0  0  0  0  0999 V2000
    1.7167    1.2309    1.5187 C   0  0  0  0  0  0  0  0  0  0  0  0
    1.3454   -0.1868    1.0794 C   0  0  2  0  0  0  0  0  0  0  0  0
    2.1316   -0.6004    0.4477 H   0  0  0  0  0  0  0  0  0  0  0  0
   -0.0035   -0.1703    0.3097 C   0  0  0  0  0  0  0  0  0  0  0  0
   -1.0253   -0.5076    1.4012 C   0  0  1  0  0  0  0  0  0  0  0  0
   -1.1939    0.3572    2.0429 H   0  0  0  0  0  0  0  0  0  0  0  0
   -2.3489   -1.0698    0.9157 C   0  0  2  0  0  0  0  0  0  0  0  0
   -2.1727   -1.9725    0.3308 H   0  0  0  0  0  0  0  0  0  0  0  0
   -3.0706   -0.0302    0.0559 C   0  0  0  0  0  0  0  0  0  0  0  0
   -4.3873   -0.6154   -0.4645 C   0  0  0  0  0  0  0  0  0  0  0  0
   -5.1933   -1.0974    0.7271 C   0  0  0  0  0  0  0  0  0  0  0  0
   -6.4507   -0.6977    0.8564 C   0  0  0  0  0  0  0  0  0  0  0  0
   -7.2574   -1.1277    2.0090 C   0  0  0  0  0  0  0  0  0  0  0  0
   -8.4233   -0.7949    2.1114 O   0  0  0  0  0  0  0  0  0  0  0  0
   -6.6219   -1.9706    3.0360 C   0  0  0  0  0  0  0  0  0  0  0  0
   -5.3670   -2.3631    2.8829 C   0  0  0  0  0  0  0  0  0  0  0  0
   -4.5212   -2.0131    1.7070 C   0  0  2  0  0  0  0  0  0  0  0  0
   -3.1875   -1.4118    2.1576 C   0  0  1  0  0  0  0  0  0  0  0  0
   -2.4590   -2.3846    3.0797 C   0  0  2  0  0  0  0  0  0  0  0  0
   -3.0477   -2.5237    3.9864 H   0  0  0  0  0  0  0  0  0  0  0  0
   -1.0633   -1.8673    3.4626 C   0  0  0  0  0  0  0  0  0  0  0  0
   -0.2906   -1.6287    2.1842 C   0  0  2  0  0  0  0  0  0  0  0  0
    1.1308   -1.0889    2.3202 C   0  0  1  0  0  0  0  0  0  0  0  0
    2.1234   -2.2228    2.3194 C   0  0  0  0  0  0  0  0  0  0  0  0
    2.5416   -2.6584    1.2736 O   0  0  0  0  0  0  0  0  0  0  0  0
    2.5942   -2.8131    3.6236 C   0  0  0  0  0  0  0  0  0  0  0  0
    3.5247   -3.8656    3.3618 O   0  0  0  0  0  0  0  0  0  0  0  0
    1.2564   -0.3206    3.5186 O   0  0  0  0  0  0  0  0  0  0  0  0
   -0.2826   -2.9176    1.3599 C   0  0  0  0  0  0  0  0  0  0  0  0
   -2.3223   -3.6426    2.4156 O   0  0  0  0  0  0  0  0  0  0  0  0
   -3.4514   -0.2383    2.8722 F   0  0  0  0  0  0  0  0  0  0  0  0
   -4.1781   -3.3115    0.9740 C   0  0  0  0  0  0  0  0  0  0  0  0
    2.6440    1.2029    2.0910 H   0  0  0  0  0  0  0  0  0  0  0  0
    1.8515    1.8603    0.6390 H   0  0  0  0  0  0  0  0  0  0  0  0
    0.9191    1.6397    2.1391 H   0  0  0  0  0  0  0  0  0  0  0  0
   -0.1972    0.8177   -0.1080 H   0  0  0  0  0  0  0  0  0  0  0  0
   -0.0104   -0.9291   -0.4728 H   0  0  0  0  0  0  0  0  0  0  0  0
   -3.2795    0.8552    0.6564 H   0  0  0  0  0  0  0  0  0  0  0  0
   -2.4377    0.2454   -0.7876 H   0  0  0  0  0  0  0  0  0  0  0  0
   -4.9453    0.1528   -0.9998 H   0  0  0  0  0  0  0  0  0  0  0  0
   -4.1799   -1.4524   -1.1313 H   0  0  0  0  0  0  0  0  0  0  0  0
   -6.8864   -0.0507    0.1094 H   0  0  0  0  0  0  0  0  0  0  0  0
   -7.1785   -2.2675    3.9126 H   0  0  0  0  0  0  0  0  0  0  0  0
   -4.9291   -2.9744    3.6581 H   0  0  0  0  0  0  0  0  0  0  0  0
   -1.1524   -0.9285    4.0092 H   0  0  0  0  0  0  0  0  0  0  0  0
   -0.5482   -2.6072    4.0751 H   0  0  0  0  0  0  0  0  0  0  0  0
    3.0790   -2.0392    4.2187 H   0  0  0  0  0  0  0  0  0  0  0  0
    1.7401   -3.2112    4.1715 H   0  0  0  0  0  0  0  0  0  0  0  0
    3.8701   -4.2922    4.1579 H   0  0  0  0  0  0  0  0  0  0  0  0
    2.1272    0.0825    3.6379 H   0  0  0  0  0  0  0  0  0  0  0  0
    0.3951   -2.8035    0.5138 H   0  0  0  0  0  0  0  0  0  0  0  0
    0.0519   -3.7461    1.9842 H   0  0  0  0  0  0  0  0  0  0  0  0
   -1.2891   -3.1213    0.9944 H   0  0  0  0  0  0  0  0  0  0  0  0
   -1.8675   -4.3164    2.9393 H   0  0  0  0  0  0  0  0  0  0  0  0
   -3.2905   -3.1585    0.3600 H   0  0  0  0  0  0  0  0  0  0  0  0
   -3.9848   -4.0995    1.7019 H   0  0  0  0  0  0  0  0  0  0  0  0
   -5.0143   -3.6016    0.3379 H   0  0  0  0  0  0  0  0  0  0  0  0
  1  2  1  0  0  0  0
  1 33  1  0  0  0  0
  1 34  1  0  0  0  0
  1 35  1  0  0  0  0
  2  3  1  6  0  0  0
  2 23  1  0  0  0  0
  2  4  1  0  0  0  0
  4  5  1  0  0  0  0
  4 36  1  0  0  0  0
  4 37  1  0  0  0  0
  5  6  1  1  0  0  0
  5 22  1  0  0  0  0
  5  7  1  0  0  0  0
  7  8  1  6  0  0  0
  7 18  1  0  0  0  0
  7  9  1  0  0  0  0
  9 10  1  0  0  0  0
  9 38  1  0  0  0  0
  9 39  1  0  0  0  0
 10 11  1  0  0  0  0
 10 40  1  0  0  0  0
 10 41  1  0  0  0  0
 11 17  1  0  0  0  0
 11 12  2  0  0  0  0
 12 13  1  0  0  0  0
 12 42  1  0  0  0  0
 13 14  2  0  0  0  0
 13 15  1  0  0  0  0
 15 16  2  0  0  0  0
 15 43  1  0  0  0  0
 16 17  1  0  0  0  0
 16 44  1  0  0  0  0
 17 18  1  0  0  0  0
 17 32  1  6  0  0  0
 18 19  1  0  0  0  0
 18 31  1  1  0  0  0
 19 20  1  1  0  0  0
 19 21  1  0  0  0  0
 19 30  1  0  0  0  0
 21 22  1  0  0  0  0
 21 45  1  0  0  0  0
 21 46  1  0  0  0  0
 22 23  1  0  0  0  0
 22 29  1  6  0  0  0
 23 24  1  6  0  0  0
 23 28  1  0  0  0  0
 24 25  2  0  0  0  0
 24 26  1  0  0  0  0
 26 27  1  0  0  0  0
 26 47  1  0  0  0  0
 26 48  1  0  0  0  0
 27 49  1  0  0  0  0
 28 50  1  0  0  0  0
 29 51  1  0  0  0  0
 29 52  1  0  0  0  0
 29 53  1  0  0  0  0
 30 54  1  0  0  0  0
 32 55  1  0  0  0  0
 32 56  1  0  0  0  0
 32 57  1  0  0  0  0
M  END
$$$$
