ZINC00020244
 OpenBabel08292219463D

 41 42  0  0  0  0  0  0  0  0999 V2000
    0.8641   -0.3579   -0.9947 C   0  0  0  0  0  0  0  0  0  0  0  0
   -0.0117   -0.0050    0.1306 N   0  3  0  0  0  0  0  0  0  0  0  0
   -0.0442    1.4554    0.2866 C   0  0  0  0  0  0  0  0  0  0  0  0
   -1.3698   -0.4997   -0.1319 C   0  0  0  0  0  0  0  0  0  0  0  0
   -1.3622   -2.0296   -0.1420 C   0  0  0  0  0  0  0  0  0  0  0  0
   -1.0213   -2.5128    1.1590 O   0  0  0  0  0  0  0  0  0  0  0  0
   -0.9859   -3.9379    1.2588 C   0  0  0  0  0  0  0  0  0  0  0  0
    0.4018   -4.4297    0.9370 C   0  0  0  0  0  0  0  0  0  0  0  0
    1.5051   -3.7373    1.3999 C   0  0  0  0  0  0  0  0  0  0  0  0
    2.7780   -4.1884    1.1047 C   0  0  0  0  0  0  0  0  0  0  0  0
    2.9476   -5.3321    0.3470 C   0  0  0  0  0  0  0  0  0  0  0  0
    1.8443   -6.0250   -0.1151 C   0  0  0  0  0  0  0  0  0  0  0  0
    0.5714   -5.5763    0.1838 C   0  0  0  0  0  0  0  0  0  0  0  0
   -1.3533   -4.3525    2.6603 C   0  0  0  0  0  0  0  0  0  0  0  0
   -0.9756   -3.5686    3.7345 C   0  0  0  0  0  0  0  0  0  0  0  0
   -1.3127   -3.9490    5.0200 C   0  0  0  0  0  0  0  0  0  0  0  0
   -2.0278   -5.1129    5.2314 C   0  0  0  0  0  0  0  0  0  0  0  0
   -2.4063   -5.8963    4.1572 C   0  0  0  0  0  0  0  0  0  0  0  0
   -2.0730   -5.5138    2.8713 C   0  0  0  0  0  0  0  0  0  0  0  0
    1.8718    0.0091   -0.7998 H   0  0  0  0  0  0  0  0  0  0  0  0
    0.8882   -1.4415   -1.1104 H   0  0  0  0  0  0  0  0  0  0  0  0
    0.4822    0.0967   -1.9088 H   0  0  0  0  0  0  0  0  0  0  0  0
   -0.4429    1.9089   -0.6208 H   0  0  0  0  0  0  0  0  0  0  0  0
   -0.6797    1.7164    1.1328 H   0  0  0  0  0  0  0  0  0  0  0  0
    0.9661    1.8244    0.4636 H   0  0  0  0  0  0  0  0  0  0  0  0
   -2.0429   -0.1448    0.6484 H   0  0  0  0  0  0  0  0  0  0  0  0
   -1.7096   -0.1317   -1.1000 H   0  0  0  0  0  0  0  0  0  0  0  0
   -2.3509   -2.3961   -0.4181 H   0  0  0  0  0  0  0  0  0  0  0  0
   -0.6280   -2.3846   -0.8653 H   0  0  0  0  0  0  0  0  0  0  0  0
   -1.6968   -4.3693    0.5541 H   0  0  0  0  0  0  0  0  0  0  0  0
    1.3726   -2.8437    1.9918 H   0  0  0  0  0  0  0  0  0  0  0  0
    3.6400   -3.6470    1.4657 H   0  0  0  0  0  0  0  0  0  0  0  0
    3.9421   -5.6841    0.1158 H   0  0  0  0  0  0  0  0  0  0  0  0
    1.9768   -6.9184   -0.7073 H   0  0  0  0  0  0  0  0  0  0  0  0
   -0.2906   -6.1197   -0.1741 H   0  0  0  0  0  0  0  0  0  0  0  0
   -0.4169   -2.6593    3.5693 H   0  0  0  0  0  0  0  0  0  0  0  0
   -1.0169   -3.3369    5.8593 H   0  0  0  0  0  0  0  0  0  0  0  0
   -2.2905   -5.4104    6.2358 H   0  0  0  0  0  0  0  0  0  0  0  0
   -2.9648   -6.8058    4.3223 H   0  0  0  0  0  0  0  0  0  0  0  0
   -2.3719   -6.1239    2.0318 H   0  0  0  0  0  0  0  0  0  0  0  0
    0.3418   -0.4258    0.9768 H   0  0  0  0  0  0  0  0  0  0  0  0
  1  2  1  0  0  0  0
  1 20  1  0  0  0  0
  1 21  1  0  0  0  0
  1 22  1  0  0  0  0
  2  3  1  0  0  0  0
  2  4  1  0  0  0  0
  2 41  1  0  0  0  0
  3 23  1  0  0  0  0
  3 24  1  0  0  0  0
  3 25  1  0  0  0  0
  4  5  1  0  0  0  0
  4 26  1  0  0  0  0
  4 27  1  0  0  0  0
  5  6  1  0  0  0  0
  5 28  1  0  0  0  0
  5 29  1  0  0  0  0
  6  7  1  0  0  0  0
  7  8  1  0  0  0  0
  7 14  1  0  0  0  0
  7 30  1  0  0  0  0
  8 13  2  0  0  0  0
  8  9  1  0  0  0  0
  9 10  2  0  0  0  0
  9 31  1  0  0  0  0
 10 11  1  0  0  0  0
 10 32  1  0  0  0  0
 11 12  2  0  0  0  0
 11 33  1  0  0  0  0
 12 13  1  0  0  0  0
 12 34  1  0  0  0  0
 13 35  1  0  0  0  0
 14 19  2  0  0  0  0
 14 15  1  0  0  0  0
 15 16  2  0  0  0  0
 15 36  1  0  0  0  0
 16 17  1  0  0  0  0
 16 37  1  0  0  0  0
 17 18  2  0  0  0  0
 17 38  1  0  0  0  0
 18 19  1  0  0  0  0
 18 39  1  0  0  0  0
 19 40  1  0  0  0  0
M  CHG  1   2   1
M  END
$$$$
