ZINC03812913
 OpenBabel08292219463D

 65 65  0  0  1  0  0  0  0  0999 V2000
   -0.0187    1.5258    0.0104 C   0  0  0  0  0  0  0  0  0  0  0  0
    0.0021   -0.0041    0.0020 C   0  0  0  0  0  0  0  0  0  0  0  0
    0.7182   -0.4975   -1.2568 C   0  0  0  0  0  0  0  0  0  0  0  0
    0.7390   -2.0273   -1.2652 C   0  0  0  0  0  0  0  0  0  0  0  0
    1.4551   -2.5207   -2.5240 C   0  0  1  0  0  0  0  0  0  0  0  0
    2.8905   -1.9912   -2.5349 C   0  0  0  0  0  0  0  0  0  0  0  0
    1.4758   -4.0506   -2.5324 C   0  0  0  0  0  0  0  0  0  0  0  0
    2.2864   -4.5355   -3.7067 C   0  0  0  0  0  0  0  0  0  0  0  0
    3.2905   -5.3549   -3.5158 C   0  0  0  0  0  0  0  0  0  0  0  0
    4.1011   -5.8398   -4.6901 C   0  0  1  0  0  0  0  0  0  0  0  0
    3.7276   -5.4053   -5.6174 H   0  0  0  0  0  0  0  0  0  0  0  0
    5.6004   -5.4996   -4.4945 C   0  0  1  0  0  0  0  0  0  0  0  0
    5.8907   -5.6135   -3.4500 H   0  0  0  0  0  0  0  0  0  0  0  0
    6.2988   -6.5619   -5.3793 C   0  0  0  0  0  0  0  0  0  0  0  0
    5.4666   -7.8179   -5.1907 C   0  0  0  0  0  0  0  0  0  0  0  0
    5.8405   -8.9549   -5.3516 O   0  0  0  0  0  0  0  0  0  0  0  0
    4.0778   -7.3806   -4.7655 C   0  0  2  0  0  0  0  0  0  0  0  0
    3.8397   -7.7979   -3.7871 H   0  0  0  0  0  0  0  0  0  0  0  0
    3.0432   -7.8382   -5.7956 C   0  0  0  0  0  0  0  0  0  0  0  0
    2.9407   -9.3645   -5.7721 C   0  0  0  0  0  0  0  0  0  0  0  0
    1.9061   -9.8221   -6.8021 C   0  0  0  0  0  0  0  0  0  0  0  0
    1.8036  -11.3485   -6.7786 C   0  0  0  0  0  0  0  0  0  0  0  0
    0.7689  -11.8061   -7.8087 C   0  0  0  0  0  0  0  0  0  0  0  0
    0.6664  -13.3325   -7.7852 C   0  0  0  0  0  0  0  0  0  0  0  0
   -0.3527  -13.7832   -8.7998 C   0  0  0  0  0  0  0  0  0  0  0  0
   -0.9370  -12.9673   -9.4727 O   0  0  0  0  0  0  0  0  0  0  0  0
   -0.6112  -15.0910   -8.9560 O   0  0  0  0  0  0  0  0  0  0  0  0
   -1.5888  -15.4466   -9.9358 C   0  0  0  0  0  0  0  0  0  0  0  0
    5.8865   -4.1786   -4.9581 O   0  0  0  0  0  0  0  0  0  0  0  0
    0.7640   -2.0474   -3.6817 O   0  0  0  0  0  0  0  0  0  0  0  0
    1.0039    1.9031    0.0027 H   0  0  0  0  0  0  0  0  0  0  0  0
   -0.5459    1.8868   -0.8726 H   0  0  0  0  0  0  0  0  0  0  0  0
   -0.5289    1.8773    0.9072 H   0  0  0  0  0  0  0  0  0  0  0  0
    0.5293   -0.3651    0.8851 H   0  0  0  0  0  0  0  0  0  0  0  0
   -1.0205   -0.3814    0.0098 H   0  0  0  0  0  0  0  0  0  0  0  0
    0.1910   -0.1364   -2.1398 H   0  0  0  0  0  0  0  0  0  0  0  0
    1.7408   -0.1202   -1.2645 H   0  0  0  0  0  0  0  0  0  0  0  0
    1.2661   -2.3884   -0.3821 H   0  0  0  0  0  0  0  0  0  0  0  0
   -0.2836   -2.4046   -1.2575 H   0  0  0  0  0  0  0  0  0  0  0  0
    3.4177   -2.3522   -1.6518 H   0  0  0  0  0  0  0  0  0  0  0  0
    3.4007   -2.3427   -3.4317 H   0  0  0  0  0  0  0  0  0  0  0  0
    2.8757   -0.9013   -2.5289 H   0  0  0  0  0  0  0  0  0  0  0  0
    1.9239   -4.4130   -1.6072 H   0  0  0  0  0  0  0  0  0  0  0  0
    0.4563   -4.4273   -2.6143 H   0  0  0  0  0  0  0  0  0  0  0  0
    2.0394   -4.2075   -4.7056 H   0  0  0  0  0  0  0  0  0  0  0  0
    3.5375   -5.6828   -2.5169 H   0  0  0  0  0  0  0  0  0  0  0  0
    6.2897   -6.2525   -6.4244 H   0  0  0  0  0  0  0  0  0  0  0  0
    7.3211   -6.7280   -5.0394 H   0  0  0  0  0  0  0  0  0  0  0  0
    2.0728   -7.4051   -5.5529 H   0  0  0  0  0  0  0  0  0  0  0  0
    3.3495   -7.5098   -6.7888 H   0  0  0  0  0  0  0  0  0  0  0  0
    3.9111   -9.7976   -6.0147 H   0  0  0  0  0  0  0  0  0  0  0  0
    2.6344   -9.6929   -4.7789 H   0  0  0  0  0  0  0  0  0  0  0  0
    0.9357   -9.3890   -6.5595 H   0  0  0  0  0  0  0  0  0  0  0  0
    2.2124   -9.4938   -7.7953 H   0  0  0  0  0  0  0  0  0  0  0  0
    2.7739  -11.7816   -7.0213 H   0  0  0  0  0  0  0  0  0  0  0  0
    1.4972  -11.6768   -5.7854 H   0  0  0  0  0  0  0  0  0  0  0  0
   -0.2015  -11.3730   -7.5661 H   0  0  0  0  0  0  0  0  0  0  0  0
    1.0753  -11.4777   -8.8019 H   0  0  0  0  0  0  0  0  0  0  0  0
    1.6368  -13.7656   -8.0279 H   0  0  0  0  0  0  0  0  0  0  0  0
    0.3601  -13.6608   -6.7920 H   0  0  0  0  0  0  0  0  0  0  0  0
   -2.5437  -14.9879   -9.6794 H   0  0  0  0  0  0  0  0  0  0  0  0
   -1.2670  -15.0926  -10.9152 H   0  0  0  0  0  0  0  0  0  0  0  0
   -1.7013  -16.5305   -9.9602 H   0  0  0  0  0  0  0  0  0  0  0  0
    6.8123   -3.9182   -4.8573 H   0  0  0  0  0  0  0  0  0  0  0  0
   -0.1543   -2.3449   -3.7407 H   0  0  0  0  0  0  0  0  0  0  0  0
  1  2  1  0  0  0  0
  1 31  1  0  0  0  0
  1 32  1  0  0  0  0
  1 33  1  0  0  0  0
  2  3  1  0  0  0  0
  2 34  1  0  0  0  0
  2 35  1  0  0  0  0
  3  4  1  0  0  0  0
  3 36  1  0  0  0  0
  3 37  1  0  0  0  0
  4  5  1  0  0  0  0
  4 38  1  0  0  0  0
  4 39  1  0  0  0  0
  5  6  1  0  0  0  0
  5  7  1  0  0  0  0
  5 30  1  6  0  0  0
  6 40  1  0  0  0  0
  6 41  1  0  0  0  0
  6 42  1  0  0  0  0
  7  8  1  0  0  0  0
  7 43  1  0  0  0  0
  7 44  1  0  0  0  0
  8  9  2  0  0  0  0
  8 45  1  0  0  0  0
  9 10  1  0  0  0  0
  9 46  1  0  0  0  0
 10 11  1  6  0  0  0
 10 17  1  0  0  0  0
 10 12  1  0  0  0  0
 12 13  1  1  0  0  0
 12 14  1  0  0  0  0
 12 29  1  0  0  0  0
 14 15  1  0  0  0  0
 14 47  1  0  0  0  0
 14 48  1  0  0  0  0
 15 16  2  0  0  0  0
 15 17  1  0  0  0  0
 17 18  1  1  0  0  0
 17 19  1  0  0  0  0
 19 20  1  0  0  0  0
 19 49  1  0  0  0  0
 19 50  1  0  0  0  0
 20 21  1  0  0  0  0
 20 51  1  0  0  0  0
 20 52  1  0  0  0  0
 21 22  1  0  0  0  0
 21 53  1  0  0  0  0
 21 54  1  0  0  0  0
 22 23  1  0  0  0  0
 22 55  1  0  0  0  0
 22 56  1  0  0  0  0
 23 24  1  0  0  0  0
 23 57  1  0  0  0  0
 23 58  1  0  0  0  0
 24 25  1  0  0  0  0
 24 59  1  0  0  0  0
 24 60  1  0  0  0  0
 25 26  2  0  0  0  0
 25 27  1  0  0  0  0
 27 28  1  0  0  0  0
 28 61  1  0  0  0  0
 28 62  1  0  0  0  0
 28 63  1  0  0  0  0
 29 64  1  0  0  0  0
 30 65  1  0  0  0  0
M  END
$$$$
