ZINC03978028
 OpenBabel08292219463D

 61 62  0  0  1  0  0  0  0  0999 V2000
   -2.1333    0.8318    0.5214 C   0  0  0  0  0  0  0  0  0  0  0  0
   -1.6773   -0.6276    0.4656 C   0  0  0  0  0  0  0  0  0  0  0  0
   -2.8728   -1.5458    0.7276 C   0  0  0  0  0  0  0  0  0  0  0  0
   -2.4168   -3.0053    0.6719 C   0  0  2  0  0  0  0  0  0  0  0  0
   -1.5834   -3.1781    1.3528 H   0  0  0  0  0  0  0  0  0  0  0  0
   -2.0449   -3.4163   -0.7771 C   0  0  0  0  0  0  0  0  0  0  0  0
   -2.2829   -4.9410   -0.7779 C   0  0  2  0  0  0  0  0  0  0  0  0
   -2.7153   -5.2484   -1.7301 H   0  0  0  0  0  0  0  0  0  0  0  0
   -3.2231   -5.2369    0.3187 N   0  3  1  0  0  0  0  0  0  0  0  0
   -3.5925   -3.9661    0.9787 C   0  0  0  0  0  0  0  0  0  0  0  0
   -4.4270   -5.8815   -0.2227 C   0  0  0  0  0  0  0  0  0  0  0  0
   -0.9802   -5.6634   -0.5497 C   0  0  0  0  0  0  0  0  0  0  0  0
   -0.8423   -6.3719    0.4250 O   0  0  0  0  0  0  0  0  0  0  0  0
    0.0317   -5.5221   -1.4287 N   0  0  0  0  0  0  0  0  0  0  0  0
    1.2981   -6.2244   -1.2068 C   0  0  1  0  0  0  0  0  0  0  0  0
    1.1006   -7.1945   -0.7509 H   0  0  0  0  0  0  0  0  0  0  0  0
    2.0110   -6.4257   -2.5456 C   0  0  2  0  0  0  0  0  0  0  0  0
    2.3067   -5.4573   -2.9491 H   0  0  0  0  0  0  0  0  0  0  0  0
    1.0650   -7.1210   -3.5282 C   0  0  1  0  0  0  0  0  0  0  0  0
    1.5581   -7.2284   -4.4943 H   0  0  0  0  0  0  0  0  0  0  0  0
    0.7017   -8.5053   -2.9822 C   0  0  1  0  0  0  0  0  0  0  0  0
    0.0732   -9.0281   -3.7032 H   0  0  0  0  0  0  0  0  0  0  0  0
    1.9879   -9.3040   -2.7495 C   0  0  2  0  0  0  0  0  0  0  0  0
    1.7420  -10.2702   -2.3091 H   0  0  0  0  0  0  0  0  0  0  0  0
    2.8981   -8.5244   -1.7970 C   0  0  2  0  0  0  0  0  0  0  0  0
    2.4019   -8.4084   -0.8335 H   0  0  0  0  0  0  0  0  0  0  0  0
    3.1722   -7.2353   -2.3501 O   0  0  0  0  0  0  0  0  0  0  0  0
    4.4541   -9.4291   -1.5711 S   0  0  0  0  0  0  0  0  0  0  0  0
    5.1702   -8.7030   -0.0710 C   0  0  0  0  0  0  0  0  0  0  0  0
    2.6580   -9.5038   -3.9958 O   0  0  0  0  0  0  0  0  0  0  0  0
   -0.0041   -8.3622   -1.7480 O   0  0  0  0  0  0  0  0  0  0  0  0
   -0.1219   -6.3403   -3.6819 O   0  0  0  0  0  0  0  0  0  0  0  0
    2.1851   -5.3947   -0.2764 C   0  0  1  0  0  0  0  0  0  0  0  0
    2.4673   -4.4673   -0.7749 H   0  0  0  0  0  0  0  0  0  0  0  0
    1.4165   -5.0708    1.0063 C   0  0  0  0  0  0  0  0  0  0  0  0
    3.6696   -6.3326    0.1331 Cl  0  0  0  0  0  0  0  0  0  0  0  0
   -1.2816    1.4859    0.3348 H   0  0  0  0  0  0  0  0  0  0  0  0
   -2.8963    1.0032   -0.2378 H   0  0  0  0  0  0  0  0  0  0  0  0
   -2.5467    1.0458    1.5069 H   0  0  0  0  0  0  0  0  0  0  0  0
   -1.2638   -0.8417   -0.5199 H   0  0  0  0  0  0  0  0  0  0  0  0
   -0.9142   -0.7991    1.2249 H   0  0  0  0  0  0  0  0  0  0  0  0
   -3.2863   -1.3318    1.7131 H   0  0  0  0  0  0  0  0  0  0  0  0
   -3.6358   -1.3744   -0.0316 H   0  0  0  0  0  0  0  0  0  0  0  0
   -2.6984   -2.9239   -1.4972 H   0  0  0  0  0  0  0  0  0  0  0  0
   -0.9994   -3.1894   -0.9858 H   0  0  0  0  0  0  0  0  0  0  0  0
   -3.6930   -4.1114    2.0542 H   0  0  0  0  0  0  0  0  0  0  0  0
   -4.5202   -3.5767    0.5592 H   0  0  0  0  0  0  0  0  0  0  0  0
   -4.1490   -6.8102   -0.7211 H   0  0  0  0  0  0  0  0  0  0  0  0
   -5.1196   -6.0988    0.5904 H   0  0  0  0  0  0  0  0  0  0  0  0
   -4.9056   -5.2139   -0.9391 H   0  0  0  0  0  0  0  0  0  0  0  0
   -0.0786   -4.9555   -2.2082 H   0  0  0  0  0  0  0  0  0  0  0  0
    6.0475   -9.2769    0.2274 H   0  0  0  0  0  0  0  0  0  0  0  0
    5.4611   -7.6715   -0.2698 H   0  0  0  0  0  0  0  0  0  0  0  0
    4.4322   -8.7242    0.7309 H   0  0  0  0  0  0  0  0  0  0  0  0
    3.4825  -10.0037   -3.9232 H   0  0  0  0  0  0  0  0  0  0  0  0
   -0.2659   -9.2014   -1.3450 H   0  0  0  0  0  0  0  0  0  0  0  0
   -0.7676   -6.7222   -4.2921 H   0  0  0  0  0  0  0  0  0  0  0  0
    1.1344   -5.9982    1.5047 H   0  0  0  0  0  0  0  0  0  0  0  0
    2.0484   -4.4798    1.6691 H   0  0  0  0  0  0  0  0  0  0  0  0
    0.5191   -4.5038    0.7587 H   0  0  0  0  0  0  0  0  0  0  0  0
   -2.7824   -5.8505    0.9875 H   0  0  0  0  0  0  0  0  0  0  0  0
  1  2  1  0  0  0  0
  1 37  1  0  0  0  0
  1 38  1  0  0  0  0
  1 39  1  0  0  0  0
  2  3  1  0  0  0  0
  2 40  1  0  0  0  0
  2 41  1  0  0  0  0
  3  4  1  0  0  0  0
  3 42  1  0  0  0  0
  3 43  1  0  0  0  0
  4  5  1  1  0  0  0
  4 10  1  0  0  0  0
  4  6  1  0  0  0  0
  6  7  1  0  0  0  0
  6 44  1  0  0  0  0
  6 45  1  0  0  0  0
  7  8  1  6  0  0  0
  7  9  1  0  0  0  0
  7 12  1  0  0  0  0
  9 10  1  0  0  0  0
  9 11  1  0  0  0  0
  9 61  1  1  0  0  0
 10 46  1  0  0  0  0
 10 47  1  0  0  0  0
 11 48  1  0  0  0  0
 11 49  1  0  0  0  0
 11 50  1  0  0  0  0
 12 13  2  0  0  0  0
 12 14  1  0  0  0  0
 14 15  1  0  0  0  0
 14 51  1  0  0  0  0
 15 16  1  1  0  0  0
 15 17  1  0  0  0  0
 15 33  1  0  0  0  0
 17 18  1  6  0  0  0
 17 27  1  0  0  0  0
 17 19  1  0  0  0  0
 19 20  1  6  0  0  0
 19 21  1  0  0  0  0
 19 32  1  0  0  0  0
 21 22  1  6  0  0  0
 21 23  1  0  0  0  0
 21 31  1  0  0  0  0
 23 24  1  1  0  0  0
 23 25  1  0  0  0  0
 23 30  1  0  0  0  0
 25 26  1  1  0  0  0
 25 27  1  0  0  0  0
 25 28  1  0  0  0  0
 28 29  1  0  0  0  0
 29 52  1  0  0  0  0
 29 53  1  0  0  0  0
 29 54  1  0  0  0  0
 30 55  1  0  0  0  0
 31 56  1  0  0  0  0
 32 57  1  0  0  0  0
 33 34  1  6  0  0  0
 33 35  1  0  0  0  0
 33 36  1  0  0  0  0
 35 58  1  0  0  0  0
 35 59  1  0  0  0  0
 35 60  1  0  0  0  0
M  CHG  1   9   1
M  END
$$$$
