ZINC03940470
 OpenBabel08292219463D

 31 33  0  0  1  0  0  0  0  0999 V2000
    7.3165   -1.0817    3.4851 C   0  0  0  0  0  0  0  0  0  0  0  0
    6.0683   -0.4726    3.4876 C   0  0  0  0  0  0  0  0  0  0  0  0
    5.2993   -0.4695    2.3374 C   0  0  0  0  0  0  0  0  0  0  0  0
    5.7862   -1.0859    1.1644 C   0  0  0  0  0  0  0  0  0  0  0  0
    7.0400   -1.6941    1.1733 C   0  0  0  0  0  0  0  0  0  0  0  0
    7.8002   -1.6858    2.3453 C   0  0  0  0  0  0  0  0  0  0  0  0
    7.5296   -2.3026    0.0271 N   0  0  0  0  0  0  0  0  0  0  0  0
    4.7373   -0.9042    0.1469 C   0  0  0  0  0  0  0  0  0  0  0  0
    4.7875   -1.3002   -1.0008 O   0  0  0  0  0  0  0  0  0  0  0  0
    3.7143   -0.2274    0.6990 N   0  0  0  0  0  0  0  0  0  0  0  0
    3.9696    0.0710    1.9858 C   0  0  0  0  0  0  0  0  0  0  0  0
    3.2307    0.6799    2.7332 O   0  0  0  0  0  0  0  0  0  0  0  0
    2.4862    0.1415   -0.0095 C   0  0  1  0  0  0  0  0  0  0  0  0
    2.5379   -0.2132   -1.0389 H   0  0  0  0  0  0  0  0  0  0  0  0
    1.2803   -0.4936    0.6911 C   0  0  0  0  0  0  0  0  0  0  0  0
    0.0021   -0.0041    0.0020 C   0  0  0  0  0  0  0  0  0  0  0  0
   -0.0183    1.5017    0.0103 C   0  0  0  0  0  0  0  0  0  0  0  0
   -1.0829    2.0816    0.0184 O   0  0  0  0  0  0  0  0  0  0  0  0
    1.1185    2.2137    0.0033 N   0  0  0  0  0  0  0  0  0  0  0  0
    2.3307    1.6393   -0.0006 C   0  0  0  0  0  0  0  0  0  0  0  0
    3.3202    2.3396    0.0027 O   0  0  0  0  0  0  0  0  0  0  0  0
    7.9134   -1.0821    4.3852 H   0  0  0  0  0  0  0  0  0  0  0  0
    5.6985   -0.0015    4.3863 H   0  0  0  0  0  0  0  0  0  0  0  0
    8.7725   -2.1560    2.3580 H   0  0  0  0  0  0  0  0  0  0  0  0
    6.9988   -2.3060   -0.7848 H   0  0  0  0  0  0  0  0  0  0  0  0
    8.4028   -2.7249    0.0373 H   0  0  0  0  0  0  0  0  0  0  0  0
    1.2677   -0.1961    1.7397 H   0  0  0  0  0  0  0  0  0  0  0  0
    1.3436   -1.5792    0.6166 H   0  0  0  0  0  0  0  0  0  0  0  0
   -0.8684   -0.3831    0.5374 H   0  0  0  0  0  0  0  0  0  0  0  0
   -0.0173   -0.3630   -1.0270 H   0  0  0  0  0  0  0  0  0  0  0  0
    1.0617    3.1820    0.0006 H   0  0  0  0  0  0  0  0  0  0  0  0
  1  6  2  0  0  0  0
  1  2  1  0  0  0  0
  1 22  1  0  0  0  0
  2  3  2  0  0  0  0
  2 23  1  0  0  0  0
  3 11  1  0  0  0  0
  3  4  1  0  0  0  0
  4  5  2  0  0  0  0
  4  8  1  0  0  0  0
  5  6  1  0  0  0  0
  5  7  1  0  0  0  0
  6 24  1  0  0  0  0
  7 25  1  0  0  0  0
  7 26  1  0  0  0  0
  8  9  2  0  0  0  0
  8 10  1  0  0  0  0
 10 11  1  0  0  0  0
 10 13  1  0  0  0  0
 11 12  2  0  0  0  0
 13 14  1  6  0  0  0
 13 20  1  0  0  0  0
 13 15  1  0  0  0  0
 15 16  1  0  0  0  0
 15 27  1  0  0  0  0
 15 28  1  0  0  0  0
 16 17  1  0  0  0  0
 16 29  1  0  0  0  0
 16 30  1  0  0  0  0
 17 18  2  0  0  0  0
 17 19  1  0  0  0  0
 19 20  1  0  0  0  0
 19 31  1  0  0  0  0
 20 21  2  0  0  0  0
M  END
$$$$
