ZINC18167382
 OpenBabel08292219463D

 29 29  0  0  0  0  0  0  0  0999 V2000
   -1.3296   -0.7476   -0.1190 C   0  0  0  0  0  0  0  0  0  0  0  0
    0.0021   -0.0041    0.0020 C   0  0  0  0  0  0  0  0  0  0  0  0
   -0.2624    1.4966    0.1400 C   0  0  0  0  0  0  0  0  0  0  0  0
    0.7554   -0.5047    1.2360 C   0  0  0  0  0  0  0  0  0  0  0  0
    2.1817    0.0062    1.1579 C   0  0  0  0  0  0  0  0  0  0  0  0
    2.8944   -0.2612    0.2143 O   0  0  0  0  0  0  0  0  0  0  0  0
    2.6278    0.7692    2.1782 N   0  0  0  0  0  0  0  0  0  0  0  0
    1.8542    1.0729    3.2266 C   0  0  0  0  0  0  0  0  0  0  0  0
    2.3364    1.7658    4.1002 O   0  0  0  0  0  0  0  0  0  0  0  0
    0.5881    0.6696    3.3830 N   0  0  0  0  0  0  0  0  0  0  0  0
   -0.0345   -0.1021    2.4669 C   0  0  0  0  0  0  0  0  0  0  0  0
   -1.1823   -0.4603    2.6223 O   0  0  0  0  0  0  0  0  0  0  0  0
    0.7976   -2.0330    1.1763 C   0  0  0  0  0  0  0  0  0  0  0  0
    1.5343   -2.5625    2.3796 C   0  0  0  0  0  0  0  0  0  0  0  0
    0.9615   -3.4418    3.1638 C   0  0  0  0  0  0  0  0  0  0  0  0
   -1.9300   -0.5650    0.7721 H   0  0  0  0  0  0  0  0  0  0  0  0
   -1.8663   -0.3909   -0.9981 H   0  0  0  0  0  0  0  0  0  0  0  0
   -1.1412   -1.8167   -0.2174 H   0  0  0  0  0  0  0  0  0  0  0  0
    0.6025   -0.1867   -0.8892 H   0  0  0  0  0  0  0  0  0  0  0  0
   -0.9442    1.6703    0.9725 H   0  0  0  0  0  0  0  0  0  0  0  0
    0.6778    2.0156    0.3261 H   0  0  0  0  0  0  0  0  0  0  0  0
   -0.7093    1.8729   -0.7802 H   0  0  0  0  0  0  0  0  0  0  0  0
    3.5366    1.1072    2.1505 H   0  0  0  0  0  0  0  0  0  0  0  0
    0.1032    0.9395    4.1786 H   0  0  0  0  0  0  0  0  0  0  0  0
   -0.2196   -2.4247    1.1717 H   0  0  0  0  0  0  0  0  0  0  0  0
    1.3121   -2.3471    0.2681 H   0  0  0  0  0  0  0  0  0  0  0  0
    2.5346   -2.2172    2.5955 H   0  0  0  0  0  0  0  0  0  0  0  0
   -0.0388   -3.7871    2.9479 H   0  0  0  0  0  0  0  0  0  0  0  0
    1.4894   -3.8212    4.0261 H   0  0  0  0  0  0  0  0  0  0  0  0
  1  2  1  0  0  0  0
  1 16  1  0  0  0  0
  1 17  1  0  0  0  0
  1 18  1  0  0  0  0
  2  3  1  0  0  0  0
  2  4  1  0  0  0  0
  2 19  1  0  0  0  0
  3 20  1  0  0  0  0
  3 21  1  0  0  0  0
  3 22  1  0  0  0  0
  4 11  1  0  0  0  0
  4  5  1  0  0  0  0
  4 13  1  0  0  0  0
  5  6  2  0  0  0  0
  5  7  1  0  0  0  0
  7  8  1  0  0  0  0
  7 23  1  0  0  0  0
  8  9  2  0  0  0  0
  8 10  1  0  0  0  0
 10 11  1  0  0  0  0
 10 24  1  0  0  0  0
 11 12  2  0  0  0  0
 13 14  1  0  0  0  0
 13 25  1  0  0  0  0
 13 26  1  0  0  0  0
 14 15  2  0  0  0  0
 14 27  1  0  0  0  0
 15 28  1  0  0  0  0
 15 29  1  0  0  0  0
M  END
$$$$
