ZINC53229445
 OpenBabel08292219463D

 91 96  0  0  1  0  0  0  0  0999 V2000
   -0.1073    1.4302    1.8613 C   0  0  0  0  0  0  0  0  0  0  0  0
   -0.0737   -0.0758    1.8164 C   0  0  0  0  0  0  0  0  0  0  0  0
    0.9450   -0.6484    1.5094 O   0  0  0  0  0  0  0  0  0  0  0  0
   -1.1754   -0.7810    2.1176 O   0  0  0  0  0  0  0  0  0  0  0  0
   -1.0717   -2.2048    2.0545 C   0  0  1  0  0  0  0  0  0  0  0  0
   -0.1602   -2.4938    1.5312 H   0  0  0  0  0  0  0  0  0  0  0  0
   -1.0856   -2.8079    3.4814 C   0  0  2  0  0  0  0  0  0  0  0  0
   -0.1519   -3.3365    3.6733 H   0  0  0  0  0  0  0  0  0  0  0  0
   -2.2792   -3.8009    3.5255 C   0  0  0  0  0  0  0  0  0  0  0  0
   -2.4726   -4.1704    2.0511 C   0  0  2  0  0  0  0  0  0  0  0  0
   -1.6958   -4.8637    1.7286 H   0  0  0  0  0  0  0  0  0  0  0  0
   -2.2923   -2.7932    1.3542 C   0  0  2  0  0  0  0  0  0  0  0  0
   -2.1613   -3.0490   -0.1344 C   0  0  0  0  0  0  0  0  0  0  0  0
   -3.4944   -3.6468   -0.6155 C   0  0  0  0  0  0  0  0  0  0  0  0
   -3.8390   -4.9208    0.1482 C   0  0  1  0  0  0  0  0  0  0  0  0
   -3.0880   -5.6788   -0.0741 H   0  0  0  0  0  0  0  0  0  0  0  0
   -3.8430   -4.7020    1.6751 C   0  0  1  0  0  0  0  0  0  0  0  0
   -4.6062   -3.9674    1.9321 H   0  0  0  0  0  0  0  0  0  0  0  0
   -4.1126   -6.0281    2.3874 C   0  0  0  0  0  0  0  0  0  0  0  0
   -5.4758   -6.5712    1.9536 C   0  0  0  0  0  0  0  0  0  0  0  0
   -5.4778   -6.7976    0.4405 C   0  0  2  0  0  0  0  0  0  0  0  0
   -4.7013   -7.5169    0.1802 H   0  0  0  0  0  0  0  0  0  0  0  0
   -5.2090   -5.4396   -0.2900 C   0  0  2  0  0  0  0  0  0  0  0  0
   -5.2067   -5.6704   -1.8026 C   0  0  0  0  0  0  0  0  0  0  0  0
   -6.5747   -6.1955   -2.2417 C   0  0  1  0  0  0  0  0  0  0  0  0
   -6.5720   -6.3597   -3.3193 H   0  0  0  0  0  0  0  0  0  0  0  0
   -6.8689   -7.5152   -1.5256 C   0  0  2  0  0  0  0  0  0  0  0  0
   -7.8436   -7.8893   -1.8388 H   0  0  0  0  0  0  0  0  0  0  0  0
   -6.8407   -7.3401    0.0068 C   0  0  0  0  0  0  0  0  0  0  0  0
   -5.8617   -8.4727   -1.8583 O   0  0  0  0  0  0  0  0  0  0  0  0
   -7.6100   -5.2113   -1.8990 N   0  0  0  0  0  0  0  0  0  0  0  0
   -8.9538   -5.7932   -2.0289 C   0  0  0  0  0  0  0  0  0  0  0  0
   -9.9966   -4.7551   -1.6060 C   0  0  0  0  0  0  0  0  0  0  0  0
   -9.8380   -3.5765   -2.4004 O   0  0  0  0  0  0  0  0  0  0  0  0
   -8.5408   -2.9831   -2.2974 C   0  0  0  0  0  0  0  0  0  0  0  0
   -7.4832   -4.0032   -2.7272 C   0  0  0  0  0  0  0  0  0  0  0  0
   -6.2832   -4.4111    0.0693 C   0  0  0  0  0  0  0  0  0  0  0  0
   -3.5159   -1.9146    1.6222 C   0  0  0  0  0  0  0  0  0  0  0  0
   -1.2761   -1.7443    4.4766 N   0  3  0  0  0  0  0  0  0  0  0  0
   -0.2030   -0.7366    4.3393 C   0  0  0  0  0  0  0  0  0  0  0  0
    0.0993   -0.2807    5.7886 C   0  0  0  0  0  0  0  0  0  0  0  0
   -0.0572   -1.6093    6.5741 C   0  0  0  0  0  0  0  0  0  0  0  0
   -1.2114   -2.3171    5.8337 C   0  0  0  0  0  0  0  0  0  0  0  0
   -2.5818   -1.1028    4.2724 C   0  0  0  0  0  0  0  0  0  0  0  0
   -2.7229    0.0615    5.2187 C   0  0  0  0  0  0  0  0  0  0  0  0
   -3.0001    1.2542    4.7530 C   0  0  0  0  0  0  0  0  0  0  0  0
    0.8718    1.8237    1.5882 H   0  0  0  0  0  0  0  0  0  0  0  0
   -0.8555    1.7979    1.1591 H   0  0  0  0  0  0  0  0  0  0  0  0
   -0.3625    1.7580    2.8690 H   0  0  0  0  0  0  0  0  0  0  0  0
   -2.0258   -4.6826    4.1141 H   0  0  0  0  0  0  0  0  0  0  0  0
   -3.1708   -3.3148    3.9215 H   0  0  0  0  0  0  0  0  0  0  0  0
   -1.9655   -2.1121   -0.6559 H   0  0  0  0  0  0  0  0  0  0  0  0
   -1.3507   -3.7538   -0.3196 H   0  0  0  0  0  0  0  0  0  0  0  0
   -4.2883   -2.9152   -0.4654 H   0  0  0  0  0  0  0  0  0  0  0  0
   -3.4193   -3.8772   -1.6782 H   0  0  0  0  0  0  0  0  0  0  0  0
   -3.3353   -6.7460    2.1254 H   0  0  0  0  0  0  0  0  0  0  0  0
   -4.1114   -5.8684    3.4656 H   0  0  0  0  0  0  0  0  0  0  0  0
   -5.6691   -7.5156    2.4624 H   0  0  0  0  0  0  0  0  0  0  0  0
   -6.2527   -5.8526    2.2144 H   0  0  0  0  0  0  0  0  0  0  0  0
   -4.9976   -4.7302   -2.3130 H   0  0  0  0  0  0  0  0  0  0  0  0
   -4.4385   -6.4005   -2.0574 H   0  0  0  0  0  0  0  0  0  0  0  0
   -7.0354   -8.2833    0.5172 H   0  0  0  0  0  0  0  0  0  0  0  0
   -7.6172   -6.6202    0.2653 H   0  0  0  0  0  0  0  0  0  0  0  0
   -5.9849   -9.3351   -1.4386 H   0  0  0  0  0  0  0  0  0  0  0  0
   -9.1269   -6.0816   -3.0657 H   0  0  0  0  0  0  0  0  0  0  0  0
   -9.0337   -6.6713   -1.3880 H   0  0  0  0  0  0  0  0  0  0  0  0
  -10.9967   -5.1624   -1.7548 H   0  0  0  0  0  0  0  0  0  0  0  0
   -9.8570   -4.5065   -0.5540 H   0  0  0  0  0  0  0  0  0  0  0  0
   -8.4880   -2.1088   -2.9461 H   0  0  0  0  0  0  0  0  0  0  0  0
   -8.3588   -2.6830   -1.2654 H   0  0  0  0  0  0  0  0  0  0  0  0
   -6.4897   -3.5747   -2.5961 H   0  0  0  0  0  0  0  0  0  0  0  0
   -7.6329   -4.2630   -3.7752 H   0  0  0  0  0  0  0  0  0  0  0  0
   -6.1905   -3.5449   -0.5858 H   0  0  0  0  0  0  0  0  0  0  0  0
   -7.2698   -4.8573   -0.0557 H   0  0  0  0  0  0  0  0  0  0  0  0
   -6.1547   -4.0983    1.1055 H   0  0  0  0  0  0  0  0  0  0  0  0
   -3.2877   -0.8826    1.3554 H   0  0  0  0  0  0  0  0  0  0  0  0
   -4.3550   -2.2677    1.0228 H   0  0  0  0  0  0  0  0  0  0  0  0
   -3.7767   -1.9674    2.6792 H   0  0  0  0  0  0  0  0  0  0  0  0
    0.6831   -1.1847    3.8898 H   0  0  0  0  0  0  0  0  0  0  0  0
   -0.5483    0.1063    3.7406 H   0  0  0  0  0  0  0  0  0  0  0  0
    1.1152    0.1053    5.8726 H   0  0  0  0  0  0  0  0  0  0  0  0
   -0.6270    0.4595    6.1246 H   0  0  0  0  0  0  0  0  0  0  0  0
    0.8568   -2.2004    6.5175 H   0  0  0  0  0  0  0  0  0  0  0  0
   -0.3275   -1.4140    7.6119 H   0  0  0  0  0  0  0  0  0  0  0  0
   -2.1514   -2.1395    6.3563 H   0  0  0  0  0  0  0  0  0  0  0  0
   -1.0135   -3.3874    5.7754 H   0  0  0  0  0  0  0  0  0  0  0  0
   -2.6550   -0.7468    3.2448 H   0  0  0  0  0  0  0  0  0  0  0  0
   -3.3754   -1.8251    4.4641 H   0  0  0  0  0  0  0  0  0  0  0  0
   -2.5956   -0.0873    6.2808 H   0  0  0  0  0  0  0  0  0  0  0  0
   -3.1274    1.4030    3.6909 H   0  0  0  0  0  0  0  0  0  0  0  0
   -3.1012    2.0886    5.4312 H   0  0  0  0  0  0  0  0  0  0  0  0
  1  2  1  0  0  0  0
  1 47  1  0  0  0  0
  1 48  1  0  0  0  0
  1 49  1  0  0  0  0
  2  3  2  0  0  0  0
  2  4  1  0  0  0  0
  4  5  1  0  0  0  0
  5  6  1  6  0  0  0
  5 12  1  0  0  0  0
  5  7  1  0  0  0  0
  7  8  1  1  0  0  0
  7  9  1  0  0  0  0
  7 39  1  0  0  0  0
  9 10  1  0  0  0  0
  9 50  1  0  0  0  0
  9 51  1  0  0  0  0
 10 11  1  6  0  0  0
 10 17  1  0  0  0  0
 10 12  1  0  0  0  0
 12 13  1  0  0  0  0
 12 38  1  1  0  0  0
 13 14  1  0  0  0  0
 13 52  1  0  0  0  0
 13 53  1  0  0  0  0
 14 15  1  0  0  0  0
 14 54  1  0  0  0  0
 14 55  1  0  0  0  0
 15 16  1  6  0  0  0
 15 23  1  0  0  0  0
 15 17  1  0  0  0  0
 17 18  1  1  0  0  0
 17 19  1  0  0  0  0
 19 20  1  0  0  0  0
 19 56  1  0  0  0  0
 19 57  1  0  0  0  0
 20 21  1  0  0  0  0
 20 58  1  0  0  0  0
 20 59  1  0  0  0  0
 21 22  1  6  0  0  0
 21 29  1  0  0  0  0
 21 23  1  0  0  0  0
 23 24  1  0  0  0  0
 23 37  1  1  0  0  0
 24 25  1  0  0  0  0
 24 60  1  0  0  0  0
 24 61  1  0  0  0  0
 25 26  1  6  0  0  0
 25 27  1  0  0  0  0
 25 31  1  0  0  0  0
 27 28  1  6  0  0  0
 27 29  1  0  0  0  0
 27 30  1  0  0  0  0
 29 62  1  0  0  0  0
 29 63  1  0  0  0  0
 30 64  1  0  0  0  0
 31 36  1  0  0  0  0
 31 32  1  0  0  0  0
 32 33  1  0  0  0  0
 32 65  1  0  0  0  0
 32 66  1  0  0  0  0
 33 34  1  0  0  0  0
 33 67  1  0  0  0  0
 33 68  1  0  0  0  0
 34 35  1  0  0  0  0
 35 36  1  0  0  0  0
 35 69  1  0  0  0  0
 35 70  1  0  0  0  0
 36 71  1  0  0  0  0
 36 72  1  0  0  0  0
 37 73  1  0  0  0  0
 37 74  1  0  0  0  0
 37 75  1  0  0  0  0
 38 76  1  0  0  0  0
 38 77  1  0  0  0  0
 38 78  1  0  0  0  0
 39 43  1  0  0  0  0
 39 40  1  0  0  0  0
 39 44  1  0  0  0  0
 40 41  1  0  0  0  0
 40 79  1  0  0  0  0
 40 80  1  0  0  0  0
 41 42  1  0  0  0  0
 41 81  1  0  0  0  0
 41 82  1  0  0  0  0
 42 43  1  0  0  0  0
 42 83  1  0  0  0  0
 42 84  1  0  0  0  0
 43 85  1  0  0  0  0
 43 86  1  0  0  0  0
 44 45  1  0  0  0  0
 44 87  1  0  0  0  0
 44 88  1  0  0  0  0
 45 46  2  0  0  0  0
 45 89  1  0  0  0  0
 46 90  1  0  0  0  0
 46 91  1  0  0  0  0
M  CHG  1  39   1
M  END
$$$$
