ZINC12503187
 OpenBabel08292219463D

 65 70  0  0  0  0  0  0  0  0999 V2000
    7.1529   -5.8985   -2.8062 C   0  0  0  0  0  0  0  0  0  0  0  0
    5.9660   -5.0463   -2.4374 C   0  0  0  0  0  0  0  0  0  0  0  0
    4.7646   -5.0596   -3.0629 N   0  0  0  0  0  0  0  0  0  0  0  0
    4.5154   -5.6155   -3.8178 H   0  0  0  0  0  0  0  0  0  0  0  0
    3.9735   -4.1506   -2.4367 C   0  0  0  0  0  0  0  0  0  0  0  0
    4.7193   -3.6112   -1.4264 C   0  0  0  0  0  0  0  0  0  0  0  0
    5.9293   -4.1798   -1.4587 N   0  0  0  0  0  4  0  0  0  0  0  0
    4.1666   -2.5925   -0.5021 C   0  0  0  0  0  0  0  0  0  0  0  0
    4.8674   -1.4533   -0.1436 C   0  0  0  0  0  0  0  0  0  0  0  0
    4.2810   -0.5312    0.7045 C   0  0  0  0  0  0  0  0  0  0  0  0
    3.0025   -0.7433    1.1897 C   0  0  0  0  0  0  0  0  0  0  0  0
    2.2986   -1.8832    0.8449 C   0  0  0  0  0  0  0  0  0  0  0  0
    2.8762   -2.8203    0.0081 C   0  0  0  0  0  0  0  0  0  0  0  0
    2.2374   -4.0150   -0.3170 N   0  0  0  0  0  0  0  0  0  0  0  0
    1.6221   -4.2466   -1.6279 C   0  0  0  0  0  0  0  0  0  0  0  0
    2.5563   -3.7489   -2.7378 C   0  0  0  0  0  0  0  0  0  0  0  0
    2.1834   -4.9943    0.6074 C   0  0  0  0  0  0  0  0  0  0  0  0
    1.5504   -6.0080    0.3829 O   0  0  0  0  0  0  0  0  0  0  0  0
    2.8923   -4.8364    1.8918 C   0  0  0  0  0  0  0  0  0  0  0  0
    2.2701   -5.2115    3.0859 C   0  0  0  0  0  0  0  0  0  0  0  0
    2.9342   -5.0628    4.2825 C   0  0  0  0  0  0  0  0  0  0  0  0
    4.2235   -4.5398    4.3041 C   0  0  0  0  0  0  0  0  0  0  0  0
    4.8457   -4.1649    3.1172 C   0  0  0  0  0  0  0  0  0  0  0  0
    4.1895   -4.3168    1.9166 C   0  0  0  0  0  0  0  0  0  0  0  0
    4.8930   -4.3906    5.5171 N   0  0  0  0  0  0  0  0  0  0  0  0
    4.2002   -4.1130    6.6394 C   0  0  0  0  0  0  0  0  0  0  0  0
    3.0049   -3.8992    6.5788 O   0  0  0  0  0  0  0  0  0  0  0  0
    4.8927   -4.0686    7.9420 C   0  0  0  0  0  0  0  0  0  0  0  0
    6.0360   -4.8393    8.1561 C   0  0  0  0  0  0  0  0  0  0  0  0
    6.6790   -4.7940    9.3754 C   0  0  0  0  0  0  0  0  0  0  0  0
    6.1971   -3.9865   10.3926 C   0  0  0  0  0  0  0  0  0  0  0  0
    5.0675   -3.2172   10.1991 C   0  0  0  0  0  0  0  0  0  0  0  0
    4.4077   -3.2448    8.9736 C   0  0  0  0  0  0  0  0  0  0  0  0
    3.1985   -2.4155    8.7592 C   0  0  0  0  0  0  0  0  0  0  0  0
    3.1487   -1.5117    7.6986 C   0  0  0  0  0  0  0  0  0  0  0  0
    2.0199   -0.7421    7.5040 C   0  0  0  0  0  0  0  0  0  0  0  0
    0.9394   -0.8656    8.3589 C   0  0  0  0  0  0  0  0  0  0  0  0
    0.9830   -1.7606    9.4129 C   0  0  0  0  0  0  0  0  0  0  0  0
    2.1038   -2.5400    9.6139 C   0  0  0  0  0  0  0  0  0  0  0  0
    7.1100   -6.8388   -2.2565 H   0  0  0  0  0  0  0  0  0  0  0  0
    7.1351   -6.1025   -3.8768 H   0  0  0  0  0  0  0  0  0  0  0  0
    8.0721   -5.3707   -2.5522 H   0  0  0  0  0  0  0  0  0  0  0  0
    5.8647   -1.2862   -0.5230 H   0  0  0  0  0  0  0  0  0  0  0  0
    4.8235    0.3581    0.9895 H   0  0  0  0  0  0  0  0  0  0  0  0
    2.5502   -0.0125    1.8437 H   0  0  0  0  0  0  0  0  0  0  0  0
    1.3012   -2.0408    1.2280 H   0  0  0  0  0  0  0  0  0  0  0  0
    1.4400   -5.3133   -1.7591 H   0  0  0  0  0  0  0  0  0  0  0  0
    0.6754   -3.7093   -1.6836 H   0  0  0  0  0  0  0  0  0  0  0  0
    2.4944   -2.6626   -2.8027 H   0  0  0  0  0  0  0  0  0  0  0  0
    2.2514   -4.1842   -3.6894 H   0  0  0  0  0  0  0  0  0  0  0  0
    1.2693   -5.6172    3.0698 H   0  0  0  0  0  0  0  0  0  0  0  0
    2.4539   -5.3522    5.2055 H   0  0  0  0  0  0  0  0  0  0  0  0
    5.8462   -3.7587    3.1375 H   0  0  0  0  0  0  0  0  0  0  0  0
    4.6749   -4.0305    0.9952 H   0  0  0  0  0  0  0  0  0  0  0  0
    5.8575   -4.4866    5.5538 H   0  0  0  0  0  0  0  0  0  0  0  0
    6.4169   -5.4714    7.3675 H   0  0  0  0  0  0  0  0  0  0  0  0
    7.5635   -5.3919    9.5382 H   0  0  0  0  0  0  0  0  0  0  0  0
    6.7084   -3.9590   11.3435 H   0  0  0  0  0  0  0  0  0  0  0  0
    4.6981   -2.5903   10.9971 H   0  0  0  0  0  0  0  0  0  0  0  0
    3.9919   -1.4139    7.0309 H   0  0  0  0  0  0  0  0  0  0  0  0
    1.9802   -0.0417    6.6829 H   0  0  0  0  0  0  0  0  0  0  0  0
    0.0584   -0.2607    8.2031 H   0  0  0  0  0  0  0  0  0  0  0  0
    0.1363   -1.8527   10.0771 H   0  0  0  0  0  0  0  0  0  0  0  0
    2.1349   -3.2418   10.4342 H   0  0  0  0  0  0  0  0  0  0  0  0
    6.6619   -3.9801   -0.8551 H   0  0  0  0  0  0  0  0  0  0  0  0
  1  2  1  0  0  0  0
  1 40  1  0  0  0  0
  1 41  1  0  0  0  0
  1 42  1  0  0  0  0
  2  7  2  0  0  0  0
  2  3  1  0  0  0  0
  3  4  1  0  0  0  0
  3  5  1  0  0  0  0
  5 16  1  0  0  0  0
  5  6  2  0  0  0  0
  6  7  1  0  0  0  0
  6  8  1  0  0  0  0
  7 65  1  0  0  0  0
  8 13  2  0  0  0  0
  8  9  1  0  0  0  0
  9 10  2  0  0  0  0
  9 43  1  0  0  0  0
 10 11  1  0  0  0  0
 10 44  1  0  0  0  0
 11 12  2  0  0  0  0
 11 45  1  0  0  0  0
 12 13  1  0  0  0  0
 12 46  1  0  0  0  0
 13 14  1  0  0  0  0
 14 15  1  0  0  0  0
 14 17  1  0  0  0  0
 15 16  1  0  0  0  0
 15 47  1  0  0  0  0
 15 48  1  0  0  0  0
 16 49  1  0  0  0  0
 16 50  1  0  0  0  0
 17 18  2  0  0  0  0
 17 19  1  0  0  0  0
 19 24  2  0  0  0  0
 19 20  1  0  0  0  0
 20 21  2  0  0  0  0
 20 51  1  0  0  0  0
 21 22  1  0  0  0  0
 21 52  1  0  0  0  0
 22 23  2  0  0  0  0
 22 25  1  0  0  0  0
 23 24  1  0  0  0  0
 23 53  1  0  0  0  0
 24 54  1  0  0  0  0
 25 26  1  0  0  0  0
 25 55  1  0  0  0  0
 26 27  2  0  0  0  0
 26 28  1  0  0  0  0
 28 33  2  0  0  0  0
 28 29  1  0  0  0  0
 29 30  2  0  0  0  0
 29 56  1  0  0  0  0
 30 31  1  0  0  0  0
 30 57  1  0  0  0  0
 31 32  2  0  0  0  0
 31 58  1  0  0  0  0
 32 33  1  0  0  0  0
 32 59  1  0  0  0  0
 33 34  1  0  0  0  0
 34 39  2  0  0  0  0
 34 35  1  0  0  0  0
 35 36  2  0  0  0  0
 35 60  1  0  0  0  0
 36 37  1  0  0  0  0
 36 61  1  0  0  0  0
 37 38  2  0  0  0  0
 37 62  1  0  0  0  0
 38 39  1  0  0  0  0
 38 63  1  0  0  0  0
 39 64  1  0  0  0  0
M  END
$$$$
