ZINC04097183
 OpenBabel08292219463D

 51 55  0  0  1  0  0  0  0  0999 V2000
    0.0983    6.1705   -0.5680 C   0  0  0  0  0  0  0  0  0  0  0  0
    0.9525    5.0122   -0.1210 C   0  0  0  0  0  0  0  0  0  0  0  0
    1.1608    4.8339    1.0558 O   0  0  0  0  0  0  0  0  0  0  0  0
    1.4819    4.1785   -1.0301 O   0  0  0  0  0  0  0  0  0  0  0  0
    2.1492    3.0921   -0.5570 C   0  0  0  0  0  0  0  0  0  0  0  0
    3.5405    3.0723   -0.4708 C   0  0  0  0  0  0  0  0  0  0  0  0
    4.2611    1.9817   -0.0120 C   0  0  0  0  0  0  0  0  0  0  0  0
    3.6017    0.8404    0.4096 C   0  0  0  0  0  0  0  0  0  0  0  0
    2.2299    0.8996    0.3790 C   0  0  0  0  0  0  0  0  0  0  0  0
    1.4709    1.9451   -0.1346 C   0  0  0  0  0  0  0  0  0  0  0  0
    0.1595    1.6138   -0.1148 O   0  0  0  0  0  0  0  0  0  0  0  0
    0.0840    0.1404   -0.1159 C   0  0  2  0  0  0  0  0  0  0  0  0
   -0.8717   -0.2547    0.2286 H   0  0  0  0  0  0  0  0  0  0  0  0
    1.2627   -0.1791    0.7975 C   0  0  2  0  0  0  0  0  0  0  0  0
    0.9404    0.0102    2.2824 C   0  0  0  0  0  0  0  0  0  0  0  0
    2.2676   -0.0075    3.0399 C   0  0  0  0  0  0  0  0  0  0  0  0
    3.2823   -1.4573    1.3459 C   0  0  2  0  0  0  0  0  0  0  0  0
    3.7611   -2.4318    1.2491 H   0  0  0  0  0  0  0  0  0  0  0  0
    4.2614   -0.4281    0.8440 C   0  0  0  0  0  0  0  0  0  0  0  0
    1.9482   -1.5125    0.6143 C   0  0  2  0  0  0  0  0  0  0  0  0
    1.3364   -2.2559    1.1253 H   0  0  0  0  0  0  0  0  0  0  0  0
    2.0424   -1.9281   -0.8070 C   0  0  0  0  0  0  0  0  0  0  0  0
    1.3353   -1.3690   -1.7370 C   0  0  0  0  0  0  0  0  0  0  0  0
    0.4054   -0.2233   -1.5699 C   0  0  2  0  0  0  0  0  0  0  0  0
   -0.5280   -0.4640   -2.0786 H   0  0  0  0  0  0  0  0  0  0  0  0
    0.9898    0.9390   -2.2146 O   0  0  0  0  0  0  0  0  0  0  0  0
    0.7804    1.0740   -3.5335 C   0  0  0  0  0  0  0  0  0  0  0  0
    0.1303    0.2482   -4.1296 O   0  0  0  0  0  0  0  0  0  0  0  0
    1.3562    2.2555   -4.2709 C   0  0  0  0  0  0  0  0  0  0  0  0
    4.2500   -1.2895    3.5627 C   0  0  0  0  0  0  0  0  0  0  0  0
    0.0240    6.1688   -1.6554 H   0  0  0  0  0  0  0  0  0  0  0  0
   -0.8978    6.0755   -0.1356 H   0  0  0  0  0  0  0  0  0  0  0  0
    0.5508    7.1049   -0.2361 H   0  0  0  0  0  0  0  0  0  0  0  0
    4.0850    3.9532   -0.7774 H   0  0  0  0  0  0  0  0  0  0  0  0
    5.3400    2.0222    0.0168 H   0  0  0  0  0  0  0  0  0  0  0  0
    0.4427    0.9679    2.4352 H   0  0  0  0  0  0  0  0  0  0  0  0
    0.3011   -0.8013    2.6301 H   0  0  0  0  0  0  0  0  0  0  0  0
    2.0753    0.0745    4.1096 H   0  0  0  0  0  0  0  0  0  0  0  0
    2.8658    0.8446    2.7171 H   0  0  0  0  0  0  0  0  0  0  0  0
    4.8102   -0.8442   -0.0009 H   0  0  0  0  0  0  0  0  0  0  0  0
    4.9702   -0.1992    1.6398 H   0  0  0  0  0  0  0  0  0  0  0  0
    2.7226   -2.7232   -1.0746 H   0  0  0  0  0  0  0  0  0  0  0  0
    1.4318   -1.7761   -2.7327 H   0  0  0  0  0  0  0  0  0  0  0  0
    2.3507    2.0042   -4.6394 H   0  0  0  0  0  0  0  0  0  0  0  0
    0.7104    2.5088   -5.1117 H   0  0  0  0  0  0  0  0  0  0  0  0
    1.4237    3.1078   -3.5949 H   0  0  0  0  0  0  0  0  0  0  0  0
    4.8721   -0.4309    3.3098 H   0  0  0  0  0  0  0  0  0  0  0  0
    4.0087   -1.2630    4.6253 H   0  0  0  0  0  0  0  0  0  0  0  0
    4.7898   -2.2088    3.3355 H   0  0  0  0  0  0  0  0  0  0  0  0
    2.9924   -1.2782    2.7959 N   0  3  1  0  0  0  0  0  0  0  0  0
    2.4037   -2.0580    3.1117 H   0  0  0  0  0  0  0  0  0  0  0  0
  1  2  1  0  0  0  0
  1 31  1  0  0  0  0
  1 32  1  0  0  0  0
  1 33  1  0  0  0  0
  2  3  2  0  0  0  0
  2  4  1  0  0  0  0
  4  5  1  0  0  0  0
  5 10  2  0  0  0  0
  5  6  1  0  0  0  0
  6  7  2  0  0  0  0
  6 34  1  0  0  0  0
  7  8  1  0  0  0  0
  7 35  1  0  0  0  0
  8 19  1  0  0  0  0
  8  9  2  0  0  0  0
  9 10  1  0  0  0  0
 10 11  1  0  0  0  0
 11 12  1  0  0  0  0
 12 13  1  1  0  0  0
 12 24  1  0  0  0  0
 12 14  1  0  0  0  0
 14  9  1  6  0  0  0
 14 20  1  0  0  0  0
 14 15  1  0  0  0  0
 15 16  1  0  0  0  0
 15 36  1  0  0  0  0
 15 37  1  0  0  0  0
 16 38  1  0  0  0  0
 16 39  1  0  0  0  0
 16 50  1  0  0  0  0
 17 18  1  6  0  0  0
 17 19  1  0  0  0  0
 17 20  1  0  0  0  0
 17 50  1  0  0  0  0
 19 40  1  0  0  0  0
 19 41  1  0  0  0  0
 20 21  1  1  0  0  0
 20 22  1  0  0  0  0
 22 23  2  0  0  0  0
 22 42  1  0  0  0  0
 23 24  1  0  0  0  0
 23 43  1  0  0  0  0
 24 25  1  6  0  0  0
 24 26  1  0  0  0  0
 26 27  1  0  0  0  0
 27 28  2  0  0  0  0
 27 29  1  0  0  0  0
 29 44  1  0  0  0  0
 29 45  1  0  0  0  0
 29 46  1  0  0  0  0
 30 47  1  0  0  0  0
 30 48  1  0  0  0  0
 30 49  1  0  0  0  0
 30 50  1  0  0  0  0
 50 51  1  1  0  0  0
M  CHG  1  50   1
M  END
$$$$
