ZINC01482039
 OpenBabel08292219463D

 45 47  0  0  0  0  0  0  0  0999 V2000
   -0.0178    1.4648    0.0101 C   0  0  0  0  0  0  0  0  0  0  0  0
    0.0021   -0.0041    0.0020 N   0  3  0  0  0  0  0  0  0  0  0  0
    0.6740   -0.4746   -1.2151 C   0  0  0  0  0  0  0  0  0  0  0  0
    2.0527    0.1862   -1.3259 C   0  0  0  0  0  0  0  0  0  0  0  0
    2.8115   -0.0850   -0.0433 C   0  0  0  0  0  0  0  0  0  0  0  0
    4.0713   -0.5358   -0.0658 C   0  0  0  0  0  0  0  0  0  0  0  0
    4.7897   -0.7926    1.2058 C   0  0  0  0  0  0  0  0  0  0  0  0
    5.0804    0.2614    2.0703 C   0  0  0  0  0  0  0  0  0  0  0  0
    5.7488    0.0165    3.2525 C   0  0  0  0  0  0  0  0  0  0  0  0
    6.1302   -1.2722    3.5803 C   0  0  0  0  0  0  0  0  0  0  0  0
    5.8449   -2.3221    2.7260 C   0  0  0  0  0  0  0  0  0  0  0  0
    5.1719   -2.0898    1.5438 C   0  0  0  0  0  0  0  0  0  0  0  0
    4.7489   -0.7786   -1.3624 C   0  0  0  0  0  0  0  0  0  0  0  0
    4.2774   -1.7680   -2.2237 C   0  0  0  0  0  0  0  0  0  0  0  0
    4.9117   -1.9892   -3.4292 C   0  0  0  0  0  0  0  0  0  0  0  0
    6.0133   -1.2312   -3.7834 C   0  0  0  0  0  0  0  0  0  0  0  0
    6.4859   -0.2483   -2.9325 C   0  0  0  0  0  0  0  0  0  0  0  0
    5.8561   -0.0144   -1.7270 C   0  0  0  0  0  0  0  0  0  0  0  0
    2.0941    0.1725    1.2656 C   0  0  0  0  0  0  0  0  0  0  0  0
    0.7124   -0.4873    1.1920 C   0  0  0  0  0  0  0  0  0  0  0  0
   -1.3771   -0.5096    0.0196 C   0  0  0  0  0  0  0  0  0  0  0  0
    1.0047    1.8421    0.0024 H   0  0  0  0  0  0  0  0  0  0  0  0
   -0.5450    1.8259   -0.8730 H   0  0  0  0  0  0  0  0  0  0  0  0
   -0.5280    1.8163    0.9069 H   0  0  0  0  0  0  0  0  0  0  0  0
    0.7926   -1.5572   -1.1692 H   0  0  0  0  0  0  0  0  0  0  0  0
    0.0739   -0.2115   -2.0862 H   0  0  0  0  0  0  0  0  0  0  0  0
    2.5961   -0.2362   -2.1711 H   0  0  0  0  0  0  0  0  0  0  0  0
    1.9353    1.2611   -1.4635 H   0  0  0  0  0  0  0  0  0  0  0  0
    4.7833    1.2680    1.8153 H   0  0  0  0  0  0  0  0  0  0  0  0
    5.9748    0.8324    3.9230 H   0  0  0  0  0  0  0  0  0  0  0  0
    6.6531   -1.4593    4.5066 H   0  0  0  0  0  0  0  0  0  0  0  0
    6.1457   -3.3261    2.9866 H   0  0  0  0  0  0  0  0  0  0  0  0
    4.9456   -2.9109    0.8796 H   0  0  0  0  0  0  0  0  0  0  0  0
    3.4176   -2.3606   -1.9480 H   0  0  0  0  0  0  0  0  0  0  0  0
    4.5475   -2.7557   -4.0972 H   0  0  0  0  0  0  0  0  0  0  0  0
    6.5065   -1.4078   -4.7279 H   0  0  0  0  0  0  0  0  0  0  0  0
    7.3468    0.3400   -3.2139 H   0  0  0  0  0  0  0  0  0  0  0  0
    6.2232    0.7563   -1.0654 H   0  0  0  0  0  0  0  0  0  0  0  0
    2.6642   -0.2587    2.0885 H   0  0  0  0  0  0  0  0  0  0  0  0
    1.9814    1.2459    1.4183 H   0  0  0  0  0  0  0  0  0  0  0  0
    0.1406   -0.2336    2.0845 H   0  0  0  0  0  0  0  0  0  0  0  0
    0.8293   -1.5693    1.1309 H   0  0  0  0  0  0  0  0  0  0  0  0
   -1.9081   -0.1475   -0.8607 H   0  0  0  0  0  0  0  0  0  0  0  0
   -1.3646   -1.5995    0.0137 H   0  0  0  0  0  0  0  0  0  0  0  0
   -1.8819   -0.1570    0.9190 H   0  0  0  0  0  0  0  0  0  0  0  0
  1  2  1  0  0  0  0
  1 22  1  0  0  0  0
  1 23  1  0  0  0  0
  1 24  1  0  0  0  0
  2 20  1  0  0  0  0
  2  3  1  0  0  0  0
  2 21  1  0  0  0  0
  3  4  1  0  0  0  0
  3 25  1  0  0  0  0
  3 26  1  0  0  0  0
  4  5  1  0  0  0  0
  4 27  1  0  0  0  0
  4 28  1  0  0  0  0
  5  6  2  0  0  0  0
  5 19  1  0  0  0  0
  6  7  1  0  0  0  0
  6 13  1  0  0  0  0
  7 12  2  0  0  0  0
  7  8  1  0  0  0  0
  8  9  2  0  0  0  0
  8 29  1  0  0  0  0
  9 10  1  0  0  0  0
  9 30  1  0  0  0  0
 10 11  2  0  0  0  0
 10 31  1  0  0  0  0
 11 12  1  0  0  0  0
 11 32  1  0  0  0  0
 12 33  1  0  0  0  0
 13 18  2  0  0  0  0
 13 14  1  0  0  0  0
 14 15  2  0  0  0  0
 14 34  1  0  0  0  0
 15 16  1  0  0  0  0
 15 35  1  0  0  0  0
 16 17  2  0  0  0  0
 16 36  1  0  0  0  0
 17 18  1  0  0  0  0
 17 37  1  0  0  0  0
 18 38  1  0  0  0  0
 19 20  1  0  0  0  0
 19 39  1  0  0  0  0
 19 40  1  0  0  0  0
 20 41  1  0  0  0  0
 20 42  1  0  0  0  0
 21 43  1  0  0  0  0
 21 44  1  0  0  0  0
 21 45  1  0  0  0  0
M  CHG  1   2   1
M  END
$$$$
