ZINC00266964
 OpenBabel08292219463D

 24 24  0  0  1  0  0  0  0  0999 V2000
   -0.0167    1.3784    0.0096 C   0  0  0  0  0  0  0  0  0  0  0  0
    1.1695    2.0865    0.0021 C   0  0  0  0  0  0  0  0  0  0  0  0
    2.3802    1.4093   -0.0131 C   0  0  0  0  0  0  0  0  0  0  0  0
    2.3963    0.0221   -0.0206 C   0  0  0  0  0  0  0  0  0  0  0  0
    1.2074   -0.6814   -0.0130 C   0  0  0  0  0  0  0  0  0  0  0  0
    0.0021   -0.0041    0.0020 C   0  0  0  0  0  0  0  0  0  0  0  0
   -1.2934   -0.7740    0.0107 C   0  0  0  0  0  0  0  0  0  0  0  0
   -1.7461   -1.0268   -1.4288 C   0  0  1  0  0  0  0  0  0  0  0  0
   -0.9477   -1.5255   -1.9784 H   0  0  0  0  0  0  0  0  0  0  0  0
   -2.9739   -1.9006   -1.4231 C   0  0  0  0  0  0  0  0  0  0  0  0
   -4.0822   -1.3943   -1.3795 O   0  0  0  0  0  0  0  0  0  0  0  0
   -2.8590   -3.1137   -1.4622 O   0  0  0  0  0  1  0  0  0  0  0  0
   -2.0597    0.2543   -2.0756 N   0  3  0  0  0  0  0  0  0  0  0  0
    3.5484    2.1036   -0.0209 O   0  0  0  0  0  0  0  0  0  0  0  0
   -0.9594    1.9052    0.0259 H   0  0  0  0  0  0  0  0  0  0  0  0
    1.1543    3.1664    0.0076 H   0  0  0  0  0  0  0  0  0  0  0  0
    3.3375   -0.5074   -0.0328 H   0  0  0  0  0  0  0  0  0  0  0  0
    1.2194   -1.7613   -0.0189 H   0  0  0  0  0  0  0  0  0  0  0  0
   -1.1460   -1.7274    0.5180 H   0  0  0  0  0  0  0  0  0  0  0  0
   -2.0553   -0.1973    0.5352 H   0  0  0  0  0  0  0  0  0  0  0  0
   -2.7987    0.7159   -1.5668 H   0  0  0  0  0  0  0  0  0  0  0  0
   -1.2376    0.8393   -2.0794 H   0  0  0  0  0  0  0  0  0  0  0  0
    3.8951    2.3001    0.8601 H   0  0  0  0  0  0  0  0  0  0  0  0
   -2.3582    0.0876   -3.0249 H   0  0  0  0  0  0  0  0  0  0  0  0
  1  6  2  0  0  0  0
  1  2  1  0  0  0  0
  1 15  1  0  0  0  0
  2  3  2  0  0  0  0
  2 16  1  0  0  0  0
  3  4  1  0  0  0  0
  3 14  1  0  0  0  0
  4  5  2  0  0  0  0
  4 17  1  0  0  0  0
  5  6  1  0  0  0  0
  5 18  1  0  0  0  0
  6  7  1  0  0  0  0
  7  8  1  0  0  0  0
  7 19  1  0  0  0  0
  7 20  1  0  0  0  0
  8  9  1  6  0  0  0
  8 10  1  0  0  0  0
  8 13  1  0  0  0  0
 10 11  2  0  0  0  0
 10 12  1  0  0  0  0
 13 21  1  0  0  0  0
 13 22  1  0  0  0  0
 13 24  1  0  0  0  0
 14 23  1  0  0  0  0
M  CHG  1  13   1
M  END
$$$$
