ZINC00014864
 OpenBabel08292219463D

 39 41  0  0  1  0  0  0  0  0999 V2000
   -0.0187    1.5258    0.0104 C   0  0  0  0  0  0  0  0  0  0  0  0
    0.0021   -0.0041    0.0020 C   0  0  1  0  0  0  0  0  0  0  0  0
    0.5123   -0.3556   -0.8948 H   0  0  0  0  0  0  0  0  0  0  0  0
    0.7309   -0.5033    1.2229 C   0  0  0  0  0  0  0  0  0  0  0  0
    1.8734   -1.2812    1.0916 C   0  0  0  0  0  0  0  0  0  0  0  0
    2.5099   -1.7174    2.2454 C   0  0  0  0  0  0  0  0  0  0  0  0
    2.0095   -1.3793    3.4229 N   0  0  0  0  0  0  0  0  0  0  0  0
    0.9227   -0.6391    3.5077 C   0  0  0  0  0  0  0  0  0  0  0  0
    0.2942   -0.2019    2.4349 N   0  0  0  0  0  0  0  0  0  0  0  0
    2.3534   -1.6060   -0.1288 F   0  0  0  0  0  0  0  0  0  0  0  0
   -1.4333   -0.5336    0.0129 C   0  0  2  0  0  0  0  0  0  0  0  0
   -1.4126   -2.0635    0.0045 C   0  0  0  0  0  0  0  0  0  0  0  0
   -2.7829   -2.5699   -0.1056 N   0  0  0  0  0  0  0  0  0  0  0  0
   -3.2537   -3.4259   -1.0289 C   0  0  0  0  0  0  0  0  0  0  0  0
   -4.5228   -3.6291   -0.7843 N   0  0  0  0  0  0  0  0  0  0  0  0
   -4.8963   -2.9231    0.2822 C   0  0  0  0  0  0  0  0  0  0  0  0
   -3.8641   -2.2621    0.7363 N   0  0  0  0  0  0  0  0  0  0  0  0
   -2.1622   -0.0344   -1.2080 C   0  0  0  0  0  0  0  0  0  0  0  0
   -3.2922    0.7489   -1.0659 C   0  0  0  0  0  0  0  0  0  0  0  0
   -3.9613    1.2078   -2.1845 C   0  0  0  0  0  0  0  0  0  0  0  0
   -3.5005    0.8828   -3.4495 C   0  0  0  0  0  0  0  0  0  0  0  0
   -2.3693    0.0985   -3.5930 C   0  0  0  0  0  0  0  0  0  0  0  0
   -1.6965   -0.3558   -2.4716 C   0  0  0  0  0  0  0  0  0  0  0  0
   -0.5888   -1.1168   -2.6102 F   0  0  0  0  0  0  0  0  0  0  0  0
   -4.1554    1.3308   -4.5429 F   0  0  0  0  0  0  0  0  0  0  0  0
   -2.1022   -0.0728    1.1886 O   0  0  0  0  0  0  0  0  0  0  0  0
    1.0039    1.9031    0.0027 H   0  0  0  0  0  0  0  0  0  0  0  0
   -0.5459    1.8868   -0.8726 H   0  0  0  0  0  0  0  0  0  0  0  0
   -0.5289    1.8773    0.9072 H   0  0  0  0  0  0  0  0  0  0  0  0
    3.4009   -2.3246    2.1830 H   0  0  0  0  0  0  0  0  0  0  0  0
    0.5388   -0.3798    4.4833 H   0  0  0  0  0  0  0  0  0  0  0  0
   -0.8263   -2.4142   -0.8449 H   0  0  0  0  0  0  0  0  0  0  0  0
   -0.9645   -2.4259    0.9297 H   0  0  0  0  0  0  0  0  0  0  0  0
   -2.6840   -3.8683   -1.8326 H   0  0  0  0  0  0  0  0  0  0  0  0
   -5.8897   -2.9036    0.7055 H   0  0  0  0  0  0  0  0  0  0  0  0
   -3.6526    1.0023   -0.0798 H   0  0  0  0  0  0  0  0  0  0  0  0
   -4.8440    1.8198   -2.0723 H   0  0  0  0  0  0  0  0  0  0  0  0
   -2.0093   -0.1554   -4.5791 H   0  0  0  0  0  0  0  0  0  0  0  0
   -2.1528    0.8902    1.2604 H   0  0  0  0  0  0  0  0  0  0  0  0
  1  2  1  0  0  0  0
  1 27  1  0  0  0  0
  1 28  1  0  0  0  0
  1 29  1  0  0  0  0
  2  3  1  6  0  0  0
  2  4  1  0  0  0  0
  2 11  1  0  0  0  0
  4  9  2  0  0  0  0
  4  5  1  0  0  0  0
  5  6  2  0  0  0  0
  5 10  1  0  0  0  0
  6  7  1  0  0  0  0
  6 30  1  0  0  0  0
  7  8  2  0  0  0  0
  8  9  1  0  0  0  0
  8 31  1  0  0  0  0
 11 12  1  0  0  0  0
 11 18  1  0  0  0  0
 11 26  1  1  0  0  0
 12 13  1  0  0  0  0
 12 32  1  0  0  0  0
 12 33  1  0  0  0  0
 13 17  1  0  0  0  0
 13 14  1  0  0  0  0
 14 15  2  0  0  0  0
 14 34  1  0  0  0  0
 15 16  1  0  0  0  0
 16 17  2  0  0  0  0
 16 35  1  0  0  0  0
 18 23  2  0  0  0  0
 18 19  1  0  0  0  0
 19 20  2  0  0  0  0
 19 36  1  0  0  0  0
 20 21  1  0  0  0  0
 20 37  1  0  0  0  0
 21 22  2  0  0  0  0
 21 25  1  0  0  0  0
 22 23  1  0  0  0  0
 22 38  1  0  0  0  0
 23 24  1  0  0  0  0
 26 39  1  0  0  0  0
M  END
$$$$
