ZINC95617678
 OpenBabel08292219463D

124127  0  0  1  0  0  0  0  0999 V2000
   -3.2440   -0.8649    2.4194 C   0  0  0  0  0  0  0  0  0  0  0  0
   -2.9929   -0.0680    1.1377 C   0  0  0  0  0  0  0  0  0  0  0  0
   -4.3323    0.3633    0.5342 C   0  0  2  0  0  0  0  0  0  0  0  0
   -4.1692    1.0077   -0.3228 H   0  0  0  0  0  0  0  0  0  0  0  0
   -5.1619    1.0725    1.5699 C   0  0  0  0  0  0  0  0  0  0  0  0
   -4.9022    2.2646    2.0270 C   0  0  0  0  0  0  0  0  0  0  0  0
   -3.7175    3.0849    1.5917 C   0  0  0  0  0  0  0  0  0  0  0  0
   -2.7053    3.1759    2.7293 C   0  0  1  0  0  0  0  0  0  0  0  0
   -2.9721    2.3968    3.4702 H   0  0  0  0  0  0  0  0  0  0  0  0
   -1.2803    2.9126    2.2755 C   0  0  0  0  0  0  0  0  0  0  0  0
   -0.7096    3.9902    1.3550 C   0  0  1  0  0  0  0  0  0  0  0  0
   -1.0936    4.9739    1.6082 H   0  0  0  0  0  0  0  0  0  0  0  0
    0.8187    3.9930    1.5024 C   0  0  2  0  0  0  0  0  0  0  0  0
    1.0588    4.0678    2.5686 H   0  0  0  0  0  0  0  0  0  0  0  0
    1.4298    5.1818    0.7653 C   0  0  2  0  0  0  0  0  0  0  0  0
    1.1471    5.1600   -0.2835 H   0  0  0  0  0  0  0  0  0  0  0  0
    2.9565    5.1183    0.8652 C   0  0  0  0  0  0  0  0  0  0  0  0
    3.4498    3.7788    0.3156 C   0  0  2  0  0  0  0  0  0  0  0  0
    3.2174    3.7194   -0.7485 H   0  0  0  0  0  0  0  0  0  0  0  0
    2.7656    2.6302    1.0573 C   0  0  1  0  0  0  0  0  0  0  0  0
    1.3496    2.7735    0.9790 O   0  0  0  0  0  0  0  0  0  0  0  0
    3.1659    1.3132    0.4384 C   0  0  0  0  0  0  0  0  0  0  0  0
    4.1104    0.7156    0.9001 O   0  0  0  0  0  0  0  0  0  0  0  0
    2.3923    0.7344   -0.6919 C   0  0  0  0  0  0  0  0  0  0  0  0
    1.3302    1.2519   -1.0112 O   0  0  0  0  0  0  0  0  0  0  0  0
    2.8361   -0.3151   -1.3996 N   0  0  0  0  0  0  0  0  0  0  0  0
    4.2565   -0.6872   -1.4211 C   0  0  0  0  0  0  0  0  0  0  0  0
    4.4183   -2.1471   -1.0149 C   0  0  0  0  0  0  0  0  0  0  0  0
    3.3896   -3.0415   -1.6895 C   0  0  0  0  0  0  0  0  0  0  0  0
    2.6395   -2.3170   -2.8030 C   0  0  0  0  0  0  0  0  0  0  0  0
    1.9075   -1.1007   -2.2239 C   0  0  1  0  0  0  0  0  0  0  0  0
    1.5516   -0.4759   -3.0473 H   0  0  0  0  0  0  0  0  0  0  0  0
    0.7350   -1.5536   -1.3943 C   0  0  0  0  0  0  0  0  0  0  0  0
    0.8920   -1.8963   -0.2472 O   0  0  0  0  0  0  0  0  0  0  0  0
   -0.4934   -1.5662   -1.9385 O   0  0  0  0  0  0  0  0  0  0  0  0
   -1.4032   -2.5925   -1.5158 C   0  0  1  0  0  0  0  0  0  0  0  0
   -1.4858   -2.5622   -0.4379 H   0  0  0  0  0  0  0  0  0  0  0  0
   -2.7493   -2.3736   -2.2058 C   0  0  2  0  0  0  0  0  0  0  0  0
   -2.7841   -1.3463   -2.5828 H   0  0  0  0  0  0  0  0  0  0  0  0
   -3.9349   -2.6203   -1.2811 C   0  0  2  0  0  0  0  0  0  0  0  0
   -4.4832   -3.4906   -1.6648 H   0  0  0  0  0  0  0  0  0  0  0  0
   -4.8783   -1.4166   -1.3054 C   0  0  0  0  0  0  0  0  0  0  0  0
   -5.0775   -0.8797    0.0877 C   0  0  0  0  0  0  0  0  0  0  0  0
   -5.8277   -1.4313    0.8515 O   0  0  0  0  0  0  0  0  0  0  0  0
   -3.5184   -2.9012    0.0444 O   0  0  0  0  0  0  0  0  0  0  0  0
   -2.8435   -3.3290   -3.4020 C   0  0  0  0  0  0  0  0  0  0  0  0
   -0.8545   -3.9355   -1.9443 C   0  0  0  0  0  0  0  0  0  0  0  0
   -0.8650   -4.9442   -1.1086 C   0  0  0  0  0  0  0  0  0  0  0  0
   -0.2179   -6.2493   -1.4946 C   0  0  2  0  0  0  0  0  0  0  0  0
    0.2805   -6.1369   -2.4574 H   0  0  0  0  0  0  0  0  0  0  0  0
   -1.2879   -7.3381   -1.5983 C   0  0  0  0  0  0  0  0  0  0  0  0
   -0.6309   -8.6631   -1.9902 C   0  0  0  0  0  0  0  0  0  0  0  0
    0.3964   -9.0571   -0.9270 C   0  0  1  0  0  0  0  0  0  0  0  0
    0.8644  -10.0011   -1.2062 H   0  0  0  0  0  0  0  0  0  0  0  0
    1.4663   -7.9684   -0.8233 C   0  0  1  0  0  0  0  0  0  0  0  0
    1.9648   -7.8560   -1.7862 H   0  0  0  0  0  0  0  0  0  0  0  0
    0.8093   -6.6434   -0.4314 C   0  0  0  0  0  0  0  0  0  0  0  0
    2.4257   -8.3364    0.1697 O   0  0  0  0  0  0  0  0  0  0  0  0
    3.5248   -9.0960   -0.3374 C   0  0  0  0  0  0  0  0  0  0  0  0
   -0.4282   -9.2430    0.6656 Cl  0  0  0  0  0  0  0  0  0  0  0  0
   -0.2958   -4.1130   -3.3326 C   0  0  0  0  0  0  0  0  0  0  0  0
    3.1745    2.6413    2.4284 O   0  0  0  0  0  0  0  0  0  0  0  0
    4.9680    3.6863    0.5028 C   0  0  0  0  0  0  0  0  0  0  0  0
    0.9735    6.4014    1.3570 O   0  0  0  0  0  0  0  0  0  0  0  0
    0.8890    7.4955    0.4417 C   0  0  0  0  0  0  0  0  0  0  0  0
   -1.0474    3.6825   -0.0029 O   0  0  0  0  0  0  0  0  0  0  0  0
   -1.7842    4.7118   -0.6661 C   0  0  0  0  0  0  0  0  0  0  0  0
   -2.8126    4.5302    3.4275 C   0  0  0  0  0  0  0  0  0  0  0  0
   -5.8592    2.8486    3.0463 C   0  0  0  0  0  0  0  0  0  0  0  0
   -2.2982   -1.2541    2.7965 H   0  0  0  0  0  0  0  0  0  0  0  0
   -3.6941   -0.2145    3.1694 H   0  0  0  0  0  0  0  0  0  0  0  0
   -3.9186   -1.6939    2.2055 H   0  0  0  0  0  0  0  0  0  0  0  0
   -2.3977    0.8152    1.3698 H   0  0  0  0  0  0  0  0  0  0  0  0
   -2.4556   -0.6905    0.4222 H   0  0  0  0  0  0  0  0  0  0  0  0
   -6.0381    0.5560    1.9694 H   0  0  0  0  0  0  0  0  0  0  0  0
   -3.2661    2.6658    0.6995 H   0  0  0  0  0  0  0  0  0  0  0  0
   -4.0735    4.0999    1.3569 H   0  0  0  0  0  0  0  0  0  0  0  0
   -0.6372    2.8557    3.1699 H   0  0  0  0  0  0  0  0  0  0  0  0
   -1.2144    1.9426    1.7782 H   0  0  0  0  0  0  0  0  0  0  0  0
    3.3900    5.9282    0.2786 H   0  0  0  0  0  0  0  0  0  0  0  0
    3.2626    5.2278    1.9030 H   0  0  0  0  0  0  0  0  0  0  0  0
    4.6236   -0.5666   -2.4468 H   0  0  0  0  0  0  0  0  0  0  0  0
    4.8349   -0.0475   -0.7666 H   0  0  0  0  0  0  0  0  0  0  0  0
    5.4150   -2.4811   -1.2895 H   0  0  0  0  0  0  0  0  0  0  0  0
    4.2975   -2.2294    0.0650 H   0  0  0  0  0  0  0  0  0  0  0  0
    3.8895   -3.9162   -2.1007 H   0  0  0  0  0  0  0  0  0  0  0  0
    2.6673   -3.3682   -0.9376 H   0  0  0  0  0  0  0  0  0  0  0  0
    3.3466   -1.9888   -3.5658 H   0  0  0  0  0  0  0  0  0  0  0  0
    1.9195   -2.9994   -3.2595 H   0  0  0  0  0  0  0  0  0  0  0  0
   -4.4620   -0.6334   -1.9432 H   0  0  0  0  0  0  0  0  0  0  0  0
   -5.8437   -1.7347   -1.7037 H   0  0  0  0  0  0  0  0  0  0  0  0
   -4.2467   -3.0633    0.6595 H   0  0  0  0  0  0  0  0  0  0  0  0
   -2.7135   -4.3553   -3.0584 H   0  0  0  0  0  0  0  0  0  0  0  0
   -3.8204   -3.2249   -3.8741 H   0  0  0  0  0  0  0  0  0  0  0  0
   -2.0634   -3.0859   -4.1235 H   0  0  0  0  0  0  0  0  0  0  0  0
   -1.3375   -4.8406   -0.1430 H   0  0  0  0  0  0  0  0  0  0  0  0
   -1.7863   -7.4505   -0.6355 H   0  0  0  0  0  0  0  0  0  0  0  0
   -2.0197   -7.0574   -2.3557 H   0  0  0  0  0  0  0  0  0  0  0  0
   -1.3931   -9.4387   -2.0640 H   0  0  0  0  0  0  0  0  0  0  0  0
   -0.1324   -8.5507   -2.9530 H   0  0  0  0  0  0  0  0  0  0  0  0
    1.5716   -5.8677   -0.3576 H   0  0  0  0  0  0  0  0  0  0  0  0
    0.3109   -6.7557    0.5314 H   0  0  0  0  0  0  0  0  0  0  0  0
    4.2077   -9.3356    0.4778 H   0  0  0  0  0  0  0  0  0  0  0  0
    3.1537  -10.0186   -0.7836 H   0  0  0  0  0  0  0  0  0  0  0  0
    4.0515   -8.5131   -1.0930 H   0  0  0  0  0  0  0  0  0  0  0  0
   -0.2873   -3.1517   -3.8465 H   0  0  0  0  0  0  0  0  0  0  0  0
    0.7214   -4.4995   -3.2682 H   0  0  0  0  0  0  0  0  0  0  0  0
   -0.9172   -4.8160   -3.8872 H   0  0  0  0  0  0  0  0  0  0  0  0
    2.7794    1.9387    2.9625 H   0  0  0  0  0  0  0  0  0  0  0  0
    5.2083    3.7575    1.5636 H   0  0  0  0  0  0  0  0  0  0  0  0
    5.3248    2.7331    0.1125 H   0  0  0  0  0  0  0  0  0  0  0  0
    5.4507    4.5025   -0.0347 H   0  0  0  0  0  0  0  0  0  0  0  0
    0.5356    8.3825    0.9675 H   0  0  0  0  0  0  0  0  0  0  0  0
    1.8740    7.6922    0.0186 H   0  0  0  0  0  0  0  0  0  0  0  0
    0.1927    7.2463   -0.3590 H   0  0  0  0  0  0  0  0  0  0  0  0
   -2.0621    4.3740   -1.6645 H   0  0  0  0  0  0  0  0  0  0  0  0
   -2.6847    4.9392   -0.0957 H   0  0  0  0  0  0  0  0  0  0  0  0
   -1.1676    5.6073   -0.7440 H   0  0  0  0  0  0  0  0  0  0  0  0
   -3.8166    4.6507    3.8343 H   0  0  0  0  0  0  0  0  0  0  0  0
   -2.0842    4.5804    4.2369 H   0  0  0  0  0  0  0  0  0  0  0  0
   -2.6135    5.3259    2.7097 H   0  0  0  0  0  0  0  0  0  0  0  0
   -6.6586    2.1347    3.2448 H   0  0  0  0  0  0  0  0  0  0  0  0
   -5.3216    3.0585    3.9710 H   0  0  0  0  0  0  0  0  0  0  0  0
   -6.2859    3.7727    2.6563 H   0  0  0  0  0  0  0  0  0  0  0  0
  1  2  1  0  0  0  0
  1 70  1  0  0  0  0
  1 71  1  0  0  0  0
  1 72  1  0  0  0  0
  2  3  1  0  0  0  0
  2 73  1  0  0  0  0
  2 74  1  0  0  0  0
  3  4  1  6  0  0  0
  3 43  1  0  0  0  0
  3  5  1  0  0  0  0
  5  6  2  0  0  0  0
  5 75  1  0  0  0  0
  6  7  1  0  0  0  0
  6 69  1  0  0  0  0
  7  8  1  0  0  0  0
  7 76  1  0  0  0  0
  7 77  1  0  0  0  0
  8  9  1  1  0  0  0
  8 10  1  0  0  0  0
  8 68  1  0  0  0  0
 10 11  1  0  0  0  0
 10 78  1  0  0  0  0
 10 79  1  0  0  0  0
 11 12  1  1  0  0  0
 11 13  1  0  0  0  0
 11 66  1  0  0  0  0
 13 14  1  1  0  0  0
 13 21  1  0  0  0  0
 13 15  1  0  0  0  0
 15 16  1  6  0  0  0
 15 17  1  0  0  0  0
 15 64  1  0  0  0  0
 17 18  1  0  0  0  0
 17 80  1  0  0  0  0
 17 81  1  0  0  0  0
 18 19  1  6  0  0  0
 18 20  1  0  0  0  0
 18 63  1  0  0  0  0
 20 21  1  0  0  0  0
 20 22  1  0  0  0  0
 20 62  1  1  0  0  0
 22 23  2  0  0  0  0
 22 24  1  0  0  0  0
 24 25  2  0  0  0  0
 24 26  1  0  0  0  0
 26 31  1  0  0  0  0
 26 27  1  0  0  0  0
 27 28  1  0  0  0  0
 27 82  1  0  0  0  0
 27 83  1  0  0  0  0
 28 29  1  0  0  0  0
 28 84  1  0  0  0  0
 28 85  1  0  0  0  0
 29 30  1  0  0  0  0
 29 86  1  0  0  0  0
 29 87  1  0  0  0  0
 30 31  1  0  0  0  0
 30 88  1  0  0  0  0
 30 89  1  0  0  0  0
 31 32  1  6  0  0  0
 31 33  1  0  0  0  0
 33 34  2  0  0  0  0
 33 35  1  0  0  0  0
 35 36  1  0  0  0  0
 36 37  1  1  0  0  0
 36 38  1  0  0  0  0
 36 47  1  0  0  0  0
 38 39  1  6  0  0  0
 38 40  1  0  0  0  0
 38 46  1  0  0  0  0
 40 41  1  6  0  0  0
 40 42  1  0  0  0  0
 40 45  1  0  0  0  0
 42 43  1  0  0  0  0
 42 90  1  0  0  0  0
 42 91  1  0  0  0  0
 43 44  2  0  0  0  0
 45 92  1  0  0  0  0
 46 93  1  0  0  0  0
 46 94  1  0  0  0  0
 46 95  1  0  0  0  0
 47 48  2  0  0  0  0
 47 61  1  0  0  0  0
 48 49  1  0  0  0  0
 48 96  1  0  0  0  0
 49 50  1  6  0  0  0
 49 57  1  0  0  0  0
 49 51  1  0  0  0  0
 51 52  1  0  0  0  0
 51 97  1  0  0  0  0
 51 98  1  0  0  0  0
 52 53  1  0  0  0  0
 52 99  1  0  0  0  0
 52100  1  0  0  0  0
 53 54  1  6  0  0  0
 53 55  1  0  0  0  0
 53 60  1  0  0  0  0
 55 56  1  6  0  0  0
 55 57  1  0  0  0  0
 55 58  1  0  0  0  0
 57101  1  0  0  0  0
 57102  1  0  0  0  0
 58 59  1  0  0  0  0
 59103  1  0  0  0  0
 59104  1  0  0  0  0
 59105  1  0  0  0  0
 61106  1  0  0  0  0
 61107  1  0  0  0  0
 61108  1  0  0  0  0
 62109  1  0  0  0  0
 63110  1  0  0  0  0
 63111  1  0  0  0  0
 63112  1  0  0  0  0
 64 65  1  0  0  0  0
 65113  1  0  0  0  0
 65114  1  0  0  0  0
 65115  1  0  0  0  0
 66 67  1  0  0  0  0
 67116  1  0  0  0  0
 67117  1  0  0  0  0
 67118  1  0  0  0  0
 68119  1  0  0  0  0
 68120  1  0  0  0  0
 68121  1  0  0  0  0
 69122  1  0  0  0  0
 69123  1  0  0  0  0
 69124  1  0  0  0  0
M  END
$$$$
