ZINC64622551
 OpenBabel08292219463D

 58 61  0  0  1  0  0  0  0  0999 V2000
   -1.6223    1.0250   -0.6105 C   0  0  0  0  0  0  0  0  0  0  0  0
   -1.8599    1.5899   -1.8523 C   0  0  0  0  0  0  0  0  0  0  0  0
   -1.4364    0.9490   -2.9984 C   0  0  0  0  0  0  0  0  0  0  0  0
   -0.7689   -0.2690   -2.9159 C   0  0  0  0  0  0  0  0  0  0  0  0
   -0.5291   -0.8444   -1.6646 C   0  0  0  0  0  0  0  0  0  0  0  0
   -0.9630   -0.1807   -0.5111 C   0  0  0  0  0  0  0  0  0  0  0  0
    0.1641   -2.1383   -1.5108 C   0  0  0  0  0  0  0  0  0  0  0  0
    0.0721   -2.7970   -0.3630 C   0  0  0  0  0  0  0  0  0  0  0  0
   -0.0804   -4.2963   -0.3647 C   0  0  0  0  0  0  0  0  0  0  0  0
   -1.2890   -4.6870    0.4882 C   0  0  0  0  0  0  0  0  0  0  0  0
   -1.4376   -6.1485    0.4865 N   0  3  0  0  0  0  0  0  0  0  0  0
   -1.7547   -6.6065   -0.8726 C   0  0  0  0  0  0  0  0  0  0  0  0
   -1.8911   -8.1306   -0.8786 C   0  0  0  0  0  0  0  0  0  0  0  0
   -2.9571   -8.5279    0.0520 N   0  0  0  0  0  0  0  0  0  0  0  0
   -2.6654   -8.0546    1.4125 C   0  0  0  0  0  0  0  0  0  0  0  0
   -2.5227   -6.5310    1.3996 C   0  0  0  0  0  0  0  0  0  0  0  0
   -3.1576   -9.9830    0.0325 C   0  0  0  0  0  0  0  0  0  0  0  0
   -4.4256  -10.3336    0.8136 C   0  0  0  0  0  0  0  0  0  0  0  0
   -5.5636   -9.7862    0.1448 O   0  0  0  0  0  0  0  0  0  0  0  0
    0.9732   -2.7212   -2.6377 C   0  0  1  0  0  0  0  0  0  0  0  0
    1.8418   -2.0908   -2.8280 H   0  0  0  0  0  0  0  0  0  0  0  0
    1.4267   -4.1140   -2.2930 C   0  0  0  0  0  0  0  0  0  0  0  0
    1.7067   -4.9749   -3.2682 C   0  0  0  0  0  0  0  0  0  0  0  0
    1.5806   -4.5511   -4.6732 C   0  0  0  0  0  0  0  0  0  0  0  0
    0.8082   -3.5121   -4.9810 C   0  0  0  0  0  0  0  0  0  0  0  0
    0.0851   -2.7660   -3.8904 C   0  0  2  0  0  0  0  0  0  0  0  0
   -0.8493   -3.2778   -3.6603 H   0  0  0  0  0  0  0  0  0  0  0  0
   -0.2401   -1.0551   -4.4037 S   0  0  0  0  0  0  0  0  0  0  0  0
    2.1510   -6.3763   -2.9368 C   0  0  0  0  0  0  0  0  0  0  0  0
    1.0449   -7.2326   -2.9539 F   0  0  0  0  0  0  0  0  0  0  0  0
    3.0872   -6.8049   -3.8840 F   0  0  0  0  0  0  0  0  0  0  0  0
    2.7336   -6.3923   -1.6650 F   0  0  0  0  0  0  0  0  0  0  0  0
   -1.9511    1.5336    0.2837 H   0  0  0  0  0  0  0  0  0  0  0  0
   -2.3785    2.5345   -1.9238 H   0  0  0  0  0  0  0  0  0  0  0  0
   -1.6242    1.3947   -3.9641 H   0  0  0  0  0  0  0  0  0  0  0  0
   -0.7803   -0.6153    0.4605 H   0  0  0  0  0  0  0  0  0  0  0  0
    0.1065   -2.2588    0.5728 H   0  0  0  0  0  0  0  0  0  0  0  0
   -0.2288   -4.6452   -1.3866 H   0  0  0  0  0  0  0  0  0  0  0  0
    0.8188   -4.7534    0.0483 H   0  0  0  0  0  0  0  0  0  0  0  0
   -1.1405   -4.3381    1.5102 H   0  0  0  0  0  0  0  0  0  0  0  0
   -2.1882   -4.2299    0.0752 H   0  0  0  0  0  0  0  0  0  0  0  0
   -2.6926   -6.1565   -1.1980 H   0  0  0  0  0  0  0  0  0  0  0  0
   -0.9550   -6.3106   -1.5515 H   0  0  0  0  0  0  0  0  0  0  0  0
   -2.1411   -8.4694   -1.8840 H   0  0  0  0  0  0  0  0  0  0  0  0
   -0.9490   -8.5813   -0.5663 H   0  0  0  0  0  0  0  0  0  0  0  0
   -3.4804   -8.3379    2.0786 H   0  0  0  0  0  0  0  0  0  0  0  0
   -1.7361   -8.5040    1.7626 H   0  0  0  0  0  0  0  0  0  0  0  0
   -2.2923   -6.1792    2.4052 H   0  0  0  0  0  0  0  0  0  0  0  0
   -3.4567   -6.0814    1.0625 H   0  0  0  0  0  0  0  0  0  0  0  0
   -3.2605  -10.3219   -0.9983 H   0  0  0  0  0  0  0  0  0  0  0  0
   -2.3000  -10.4741    0.4925 H   0  0  0  0  0  0  0  0  0  0  0  0
   -4.5266  -11.4172    0.8749 H   0  0  0  0  0  0  0  0  0  0  0  0
   -4.3599   -9.9173    1.8188 H   0  0  0  0  0  0  0  0  0  0  0  0
   -6.4047   -9.9699    0.5852 H   0  0  0  0  0  0  0  0  0  0  0  0
    1.5246   -4.4131   -1.2599 H   0  0  0  0  0  0  0  0  0  0  0  0
    2.1125   -5.0807   -5.4497 H   0  0  0  0  0  0  0  0  0  0  0  0
    0.7032   -3.1991   -6.0093 H   0  0  0  0  0  0  0  0  0  0  0  0
   -0.5754   -6.5744    0.7920 H   0  0  0  0  0  0  0  0  0  0  0  0
  1  6  2  0  0  0  0
  1  2  1  0  0  0  0
  1 33  1  0  0  0  0
  2  3  2  0  0  0  0
  2 34  1  0  0  0  0
  3  4  1  0  0  0  0
  3 35  1  0  0  0  0
  4 28  1  0  0  0  0
  4  5  2  0  0  0  0
  5  6  1  0  0  0  0
  5  7  1  0  0  0  0
  6 36  1  0  0  0  0
  7  8  2  0  0  0  0
  7 20  1  0  0  0  0
  8  9  1  0  0  0  0
  8 37  1  0  0  0  0
  9 10  1  0  0  0  0
  9 38  1  0  0  0  0
  9 39  1  0  0  0  0
 10 11  1  0  0  0  0
 10 40  1  0  0  0  0
 10 41  1  0  0  0  0
 11 16  1  0  0  0  0
 11 12  1  0  0  0  0
 11 58  1  0  0  0  0
 12 13  1  0  0  0  0
 12 42  1  0  0  0  0
 12 43  1  0  0  0  0
 13 14  1  0  0  0  0
 13 44  1  0  0  0  0
 13 45  1  0  0  0  0
 14 15  1  0  0  0  0
 14 17  1  0  0  0  0
 15 16  1  0  0  0  0
 15 46  1  0  0  0  0
 15 47  1  0  0  0  0
 16 48  1  0  0  0  0
 16 49  1  0  0  0  0
 17 18  1  0  0  0  0
 17 50  1  0  0  0  0
 17 51  1  0  0  0  0
 18 19  1  0  0  0  0
 18 52  1  0  0  0  0
 18 53  1  0  0  0  0
 19 54  1  0  0  0  0
 20 21  1  6  0  0  0
 20 26  1  0  0  0  0
 20 22  1  0  0  0  0
 22 23  2  0  0  0  0
 22 55  1  0  0  0  0
 23 24  1  0  0  0  0
 23 29  1  0  0  0  0
 24 25  2  0  0  0  0
 24 56  1  0  0  0  0
 25 26  1  0  0  0  0
 25 57  1  0  0  0  0
 26 27  1  1  0  0  0
 26 28  1  0  0  0  0
 29 30  1  0  0  0  0
 29 31  1  0  0  0  0
 29 32  1  0  0  0  0
M  CHG  1  11   1
M  END
$$$$
