ZINC64633719
 OpenBabel08292219463D

 64 65  0  0  1  0  0  0  0  0999 V2000
   -0.0187    1.5258    0.0104 C   0  0  0  0  0  0  0  0  0  0  0  0
    0.0021   -0.0041    0.0020 C   0  0  0  0  0  0  0  0  0  0  0  0
    0.8501   -0.5392   -1.1734 C   0  0  1  0  0  0  0  0  0  0  0  0
    1.1150    0.2971   -1.8203 H   0  0  0  0  0  0  0  0  0  0  0  0
    2.0804   -1.2157   -0.7563 N   0  0  0  0  0  0  0  0  0  0  0  0
    1.9273   -1.9186    0.5518 C   0  0  2  0  0  0  0  0  0  0  0  0
    1.3820   -2.8555    0.4383 H   0  0  0  0  0  0  0  0  0  0  0  0
    0.9234   -0.6597    1.4587 S   0  0  0  0  0  0  0  0  0  0  0  0
    3.2821   -2.1448    1.2258 C   0  0  2  0  0  0  0  0  0  0  0  0
    3.9437   -2.6770    0.5422 H   0  0  0  0  0  0  0  0  0  0  0  0
    3.0903   -2.9620    2.4773 C   0  0  0  0  0  0  0  0  0  0  0  0
    3.4180   -2.5090    3.5536 O   0  0  0  0  0  0  0  0  0  0  0  0
    2.5546   -4.1964    2.4007 N   0  0  0  0  0  0  0  0  0  0  0  0
    2.3682   -4.9909    3.6173 C   0  0  0  0  0  0  0  0  0  0  0  0
    1.7472   -6.3413    3.2545 C   0  0  0  0  0  0  0  0  0  0  0  0
    1.5525   -7.1710    4.5251 C   0  0  0  0  0  0  0  0  0  0  0  0
    0.9316   -8.5214    4.1623 C   0  0  0  0  0  0  0  0  0  0  0  0
    0.7368   -9.3511    5.4329 C   0  0  2  0  0  0  0  0  0  0  0  0
    1.6871   -9.4372    5.9598 H   0  0  0  0  0  0  0  0  0  0  0  0
    0.2405  -10.7255    5.0643 C   0  0  0  0  0  0  0  0  0  0  0  0
    1.0365  -11.6226    4.8452 O   0  0  0  0  0  0  0  0  0  0  0  0
   -0.9571  -10.9402    4.9852 O   0  0  0  0  0  1  0  0  0  0  0  0
   -0.2471   -8.6920    6.3021 N   0  3  0  0  0  0  0  0  0  0  0  0
    3.8767   -0.8518    1.5732 N   0  0  0  0  0  0  0  0  0  0  0  0
    4.5920   -0.1708    0.6562 C   0  0  0  0  0  0  0  0  0  0  0  0
    4.7435   -0.6284   -0.4567 O   0  0  0  0  0  0  0  0  0  0  0  0
    5.2036    1.1594    1.0136 C   0  0  0  0  0  0  0  0  0  0  0  0
    5.9453    1.7077   -0.1782 C   0  0  0  0  0  0  0  0  0  0  0  0
    7.2799    1.3988   -0.3637 C   0  0  0  0  0  0  0  0  0  0  0  0
    7.9602    1.9018   -1.4568 C   0  0  0  0  0  0  0  0  0  0  0  0
    7.3059    2.7132   -2.3648 C   0  0  0  0  0  0  0  0  0  0  0  0
    5.9711    3.0214   -2.1797 C   0  0  0  0  0  0  0  0  0  0  0  0
    5.2896    2.5149   -1.0889 C   0  0  0  0  0  0  0  0  0  0  0  0
    0.0151   -1.5121   -1.9653 C   0  0  0  0  0  0  0  0  0  0  0  0
   -0.6672   -1.1146   -2.8943 O   0  0  0  0  0  0  0  0  0  0  0  0
    0.0217   -2.6967   -1.6770 O   0  0  0  0  0  1  0  0  0  0  0  0
   -1.4194   -0.5680   -0.0460 C   0  0  0  0  0  0  0  0  0  0  0  0
    1.0039    1.9031    0.0027 H   0  0  0  0  0  0  0  0  0  0  0  0
   -0.5459    1.8868   -0.8726 H   0  0  0  0  0  0  0  0  0  0  0  0
   -0.5289    1.8773    0.9072 H   0  0  0  0  0  0  0  0  0  0  0  0
    2.4049   -1.8493   -1.4715 H   0  0  0  0  0  0  0  0  0  0  0  0
    2.2926   -4.5588    1.5399 H   0  0  0  0  0  0  0  0  0  0  0  0
    3.3333   -5.1520    4.0975 H   0  0  0  0  0  0  0  0  0  0  0  0
    1.7066   -4.4587    4.3009 H   0  0  0  0  0  0  0  0  0  0  0  0
    0.7821   -6.1801    2.7743 H   0  0  0  0  0  0  0  0  0  0  0  0
    2.4088   -6.8734    2.5709 H   0  0  0  0  0  0  0  0  0  0  0  0
    2.5176   -7.3321    5.0053 H   0  0  0  0  0  0  0  0  0  0  0  0
    0.8909   -6.6388    5.2087 H   0  0  0  0  0  0  0  0  0  0  0  0
   -0.0336   -8.3603    3.6821 H   0  0  0  0  0  0  0  0  0  0  0  0
    1.5931   -9.0536    3.4787 H   0  0  0  0  0  0  0  0  0  0  0  0
   -0.3755   -9.2392    7.1401 H   0  0  0  0  0  0  0  0  0  0  0  0
    0.0853   -7.7718    6.5489 H   0  0  0  0  0  0  0  0  0  0  0  0
    3.7555   -0.4857    2.4633 H   0  0  0  0  0  0  0  0  0  0  0  0
    4.4162    1.8553    1.3031 H   0  0  0  0  0  0  0  0  0  0  0  0
    5.8969    1.0290    1.8445 H   0  0  0  0  0  0  0  0  0  0  0  0
    7.7911    0.7649    0.3456 H   0  0  0  0  0  0  0  0  0  0  0  0
    9.0031    1.6611   -1.6014 H   0  0  0  0  0  0  0  0  0  0  0  0
    7.8376    3.1068   -3.2185 H   0  0  0  0  0  0  0  0  0  0  0  0
    5.4600    3.6556   -2.8889 H   0  0  0  0  0  0  0  0  0  0  0  0
    4.2458    2.7526   -0.9463 H   0  0  0  0  0  0  0  0  0  0  0  0
   -1.9142   -0.2291   -0.9562 H   0  0  0  0  0  0  0  0  0  0  0  0
   -1.3787   -1.6572   -0.0386 H   0  0  0  0  0  0  0  0  0  0  0  0
   -1.9781   -0.2194    0.8226 H   0  0  0  0  0  0  0  0  0  0  0  0
   -1.1267   -8.6123    5.8144 H   0  0  0  0  0  0  0  0  0  0  0  0
  1  2  1  0  0  0  0
  1 38  1  0  0  0  0
  1 39  1  0  0  0  0
  1 40  1  0  0  0  0
  2  8  1  0  0  0  0
  2  3  1  0  0  0  0
  2 37  1  0  0  0  0
  3  4  1  6  0  0  0
  3  5  1  0  0  0  0
  3 34  1  0  0  0  0
  5  6  1  0  0  0  0
  5 41  1  0  0  0  0
  6  7  1  6  0  0  0
  6  8  1  0  0  0  0
  6  9  1  0  0  0  0
  9 10  1  6  0  0  0
  9 11  1  0  0  0  0
  9 24  1  0  0  0  0
 11 12  2  0  0  0  0
 11 13  1  0  0  0  0
 13 14  1  0  0  0  0
 13 42  1  0  0  0  0
 14 15  1  0  0  0  0
 14 43  1  0  0  0  0
 14 44  1  0  0  0  0
 15 16  1  0  0  0  0
 15 45  1  0  0  0  0
 15 46  1  0  0  0  0
 16 17  1  0  0  0  0
 16 47  1  0  0  0  0
 16 48  1  0  0  0  0
 17 18  1  0  0  0  0
 17 49  1  0  0  0  0
 17 50  1  0  0  0  0
 18 19  1  1  0  0  0
 18 20  1  0  0  0  0
 18 23  1  0  0  0  0
 20 21  2  0  0  0  0
 20 22  1  0  0  0  0
 23 51  1  0  0  0  0
 23 52  1  0  0  0  0
 23 64  1  0  0  0  0
 24 25  1  0  0  0  0
 24 53  1  0  0  0  0
 25 26  2  0  0  0  0
 25 27  1  0  0  0  0
 27 28  1  0  0  0  0
 27 54  1  0  0  0  0
 27 55  1  0  0  0  0
 28 33  2  0  0  0  0
 28 29  1  0  0  0  0
 29 30  2  0  0  0  0
 29 56  1  0  0  0  0
 30 31  1  0  0  0  0
 30 57  1  0  0  0  0
 31 32  2  0  0  0  0
 31 58  1  0  0  0  0
 32 33  1  0  0  0  0
 32 59  1  0  0  0  0
 33 60  1  0  0  0  0
 34 35  2  0  0  0  0
 34 36  1  0  0  0  0
 37 61  1  0  0  0  0
 37 62  1  0  0  0  0
 37 63  1  0  0  0  0
M  CHG  1  23   1
M  END
$$$$
