ZINC04228231
 OpenBabel08292219463D

 50 52  0  0  1  0  0  0  0  0999 V2000
   -0.0225    1.8097    0.0120 C   0  0  0  0  0  0  0  0  0  0  0  0
    0.0021   -0.0041    0.0020 S   0  0  2  0  0  3  0  0  0  0  0  0
   -1.6997   -0.6320    0.0149 C   0  0  0  0  0  0  0  0  0  0  0  0
   -2.4397   -0.1251   -1.2246 C   0  0  0  0  0  0  0  0  0  0  0  0
   -3.8751   -0.6547   -1.2138 C   0  0  1  0  0  0  0  0  0  0  0  0
   -4.3574   -0.3780   -0.2762 H   0  0  0  0  0  0  0  0  0  0  0  0
   -4.6395   -0.0578   -2.3672 C   0  0  0  0  0  0  0  0  0  0  0  0
   -4.6552   -0.6245   -3.4466 O   0  0  0  0  0  0  0  0  0  0  0  0
   -5.2423    0.9919   -2.2210 O   0  0  0  0  0  1  0  0  0  0  0  0
   -3.8582   -2.1179   -1.3425 N   0  3  0  0  0  0  0  0  0  0  0  0
    0.8794   -0.6050    1.4716 C   0  0  0  0  0  0  0  0  0  0  0  0
    2.3148   -0.0754    1.4608 C   0  0  2  0  0  0  0  0  0  0  0  0
    2.7994   -0.3379    0.5204 H   0  0  0  0  0  0  0  0  0  0  0  0
    3.1032   -0.6743    2.6416 C   0  0  2  0  0  0  0  0  0  0  0  0
    2.4559   -1.3032    3.2527 H   0  0  0  0  0  0  0  0  0  0  0  0
    3.5764    0.5603    3.4470 C   0  0  2  0  0  0  0  0  0  0  0  0
    2.9066    0.7591    4.2835 H   0  0  0  0  0  0  0  0  0  0  0  0
    3.4910    1.6901    2.3894 C   0  0  1  0  0  0  0  0  0  0  0  0
    4.3735    1.6846    1.7496 H   0  0  0  0  0  0  0  0  0  0  0  0
    2.3103    1.3525    1.6264 O   0  0  0  0  0  0  0  0  0  0  0  0
    3.3347    2.9939    3.0389 N   0  0  0  0  0  0  0  0  0  0  0  0
    2.1581    3.6379    3.2824 C   0  0  0  0  0  0  0  0  0  0  0  0
    2.3873    4.7739    3.8745 N   0  0  0  0  0  0  0  0  0  0  0  0
    3.7216    4.9308    4.0481 C   0  0  0  0  0  0  0  0  0  0  0  0
    4.3452    3.7881    3.5189 C   0  0  0  0  0  0  0  0  0  0  0  0
    5.6697    3.6925    3.5710 N   0  0  0  0  0  0  0  0  0  0  0  0
    6.3908    4.6514    4.1127 C   0  0  0  0  0  0  0  0  0  0  0  0
    5.8500    5.7415    4.6254 N   0  0  0  0  0  0  0  0  0  0  0  0
    4.5343    5.9294    4.6108 C   0  0  0  0  0  0  0  0  0  0  0  0
    3.9766    7.0748    5.1516 N   0  0  0  0  0  0  0  0  0  0  0  0
    4.9199    0.3877    3.9024 O   0  0  0  0  0  0  0  0  0  0  0  0
    4.2231   -1.4240    2.1664 O   0  0  0  0  0  0  0  0  0  0  0  0
    1.0001    2.1870    0.0043 H   0  0  0  0  0  0  0  0  0  0  0  0
   -0.5497    2.1708   -0.8711 H   0  0  0  0  0  0  0  0  0  0  0  0
   -0.5327    2.1613    0.9088 H   0  0  0  0  0  0  0  0  0  0  0  0
   -1.6850   -1.7218    0.0089 H   0  0  0  0  0  0  0  0  0  0  0  0
   -2.2099   -0.2804    0.9117 H   0  0  0  0  0  0  0  0  0  0  0  0
   -2.4545    0.9648   -1.2186 H   0  0  0  0  0  0  0  0  0  0  0  0
   -1.9295   -0.4766   -2.1214 H   0  0  0  0  0  0  0  0  0  0  0  0
   -3.4117   -2.3741   -2.2104 H   0  0  0  0  0  0  0  0  0  0  0  0
   -3.3464   -2.5176   -0.5702 H   0  0  0  0  0  0  0  0  0  0  0  0
    0.3692   -0.2535    2.3684 H   0  0  0  0  0  0  0  0  0  0  0  0
    0.8942   -1.6949    1.4656 H   0  0  0  0  0  0  0  0  0  0  0  0
    1.1801    3.2610    3.0221 H   0  0  0  0  0  0  0  0  0  0  0  0
    7.4650    4.5424    4.1390 H   0  0  0  0  0  0  0  0  0  0  0  0
    3.0142    7.1953    5.1451 H   0  0  0  0  0  0  0  0  0  0  0  0
    4.5482    7.7570    5.5372 H   0  0  0  0  0  0  0  0  0  0  0  0
    5.0398   -0.3650    4.4975 H   0  0  0  0  0  0  0  0  0  0  0  0
    4.7552   -1.8237    2.8680 H   0  0  0  0  0  0  0  0  0  0  0  0
   -4.8048   -2.4672   -1.3353 H   0  0  0  0  0  0  0  0  0  0  0  0
  1 33  1  0  0  0  0
  1 34  1  0  0  0  0
  1 35  1  0  0  0  0
  2  1  1  1  0  0  0
  2  3  1  0  0  0  0
  2 11  1  0  0  0  0
  3  4  1  0  0  0  0
  3 36  1  0  0  0  0
  3 37  1  0  0  0  0
  4  5  1  0  0  0  0
  4 38  1  0  0  0  0
  4 39  1  0  0  0  0
  5  6  1  1  0  0  0
  5  7  1  0  0  0  0
  5 10  1  0  0  0  0
  7  8  2  0  0  0  0
  7  9  1  0  0  0  0
 10 40  1  0  0  0  0
 10 41  1  0  0  0  0
 10 50  1  0  0  0  0
 11 12  1  0  0  0  0
 11 42  1  0  0  0  0
 11 43  1  0  0  0  0
 12 13  1  6  0  0  0
 12 20  1  0  0  0  0
 12 14  1  0  0  0  0
 14 15  1  1  0  0  0
 14 16  1  0  0  0  0
 14 32  1  0  0  0  0
 16 17  1  1  0  0  0
 16 18  1  0  0  0  0
 16 31  1  0  0  0  0
 18 19  1  6  0  0  0
 18 20  1  0  0  0  0
 18 21  1  0  0  0  0
 21 25  1  0  0  0  0
 21 22  1  0  0  0  0
 22 23  2  0  0  0  0
 22 44  1  0  0  0  0
 23 24  1  0  0  0  0
 24 29  2  0  0  0  0
 24 25  1  0  0  0  0
 25 26  2  0  0  0  0
 26 27  1  0  0  0  0
 27 28  2  0  0  0  0
 27 45  1  0  0  0  0
 28 29  1  0  0  0  0
 29 30  1  0  0  0  0
 30 46  1  0  0  0  0
 30 47  1  0  0  0  0
 31 48  1  0  0  0  0
 32 49  1  0  0  0  0
M  CHG  1  10   1
M  END
$$$$
