ZINC00000301
 OpenBabel08292219463D

 31 32  0  0  1  0  0  0  0  0999 V2000
    0.1453    1.3776    0.0089 C   0  0  0  0  0  0  0  0  0  0  0  0
    0.0909   -0.1511   -0.0213 C   0  0  1  0  0  0  0  0  0  0  0  0
    0.6139   -0.5505    0.8477 H   0  0  0  0  0  0  0  0  0  0  0  0
   -1.3464   -0.6032    0.0059 C   0  0  0  0  0  0  0  0  0  0  0  0
   -2.2096   -0.2225   -1.0053 C   0  0  0  0  0  0  0  0  0  0  0  0
   -3.5287   -0.6359   -0.9836 C   0  0  0  0  0  0  0  0  0  0  0  0
   -3.9880   -1.4304    0.0491 C   0  0  0  0  0  0  0  0  0  0  0  0
   -3.1241   -1.8138    1.0647 C   0  0  0  0  0  0  0  0  0  0  0  0
   -1.7991   -1.4021    1.0376 C   0  0  0  0  0  0  0  0  0  0  0  0
   -3.5734   -2.5952    2.0816 O   0  0  0  0  0  0  0  0  0  0  0  0
   -3.6384   -2.0497    3.3245 C   0  0  0  0  0  0  0  0  0  0  0  0
   -3.3799   -0.6984    3.5048 C   0  0  0  0  0  0  0  0  0  0  0  0
   -3.4467   -0.1464    4.7693 C   0  0  0  0  0  0  0  0  0  0  0  0
   -3.7703   -0.9393    5.8549 C   0  0  0  0  0  0  0  0  0  0  0  0
   -4.0279   -2.2862    5.6781 C   0  0  0  0  0  0  0  0  0  0  0  0
   -3.9690   -2.8418    4.4147 C   0  0  0  0  0  0  0  0  0  0  0  0
    0.7515   -0.6525   -1.2795 C   0  0  0  0  0  0  0  0  0  0  0  0
    1.9233   -0.3952   -1.4970 O   0  0  0  0  0  0  0  0  0  0  0  0
    0.1143   -1.3156   -2.0800 O   0  0  0  0  0  1  0  0  0  0  0  0
    1.1849    1.7046   -0.0107 H   0  0  0  0  0  0  0  0  0  0  0  0
   -0.3777    1.7770   -0.8600 H   0  0  0  0  0  0  0  0  0  0  0  0
   -0.3325    1.7403    0.9190 H   0  0  0  0  0  0  0  0  0  0  0  0
   -1.8527    0.3992   -1.8131 H   0  0  0  0  0  0  0  0  0  0  0  0
   -4.2007   -0.3372   -1.7745 H   0  0  0  0  0  0  0  0  0  0  0  0
   -5.0187   -1.7525    0.0659 H   0  0  0  0  0  0  0  0  0  0  0  0
   -1.1235   -1.7026    1.8248 H   0  0  0  0  0  0  0  0  0  0  0  0
   -3.1264   -0.0788    2.6573 H   0  0  0  0  0  0  0  0  0  0  0  0
   -3.2455    0.9053    4.9102 H   0  0  0  0  0  0  0  0  0  0  0  0
   -3.8216   -0.5058    6.8428 H   0  0  0  0  0  0  0  0  0  0  0  0
   -4.2801   -2.9034    6.5277 H   0  0  0  0  0  0  0  0  0  0  0  0
   -4.1750   -3.8930    4.2764 H   0  0  0  0  0  0  0  0  0  0  0  0
  1  2  1  0  0  0  0
  1 20  1  0  0  0  0
  1 21  1  0  0  0  0
  1 22  1  0  0  0  0
  2  3  1  1  0  0  0
  2  4  1  0  0  0  0
  2 17  1  0  0  0  0
  4  9  2  0  0  0  0
  4  5  1  0  0  0  0
  5  6  2  0  0  0  0
  5 23  1  0  0  0  0
  6  7  1  0  0  0  0
  6 24  1  0  0  0  0
  7  8  2  0  0  0  0
  7 25  1  0  0  0  0
  8  9  1  0  0  0  0
  8 10  1  0  0  0  0
  9 26  1  0  0  0  0
 10 11  1  0  0  0  0
 11 16  2  0  0  0  0
 11 12  1  0  0  0  0
 12 13  2  0  0  0  0
 12 27  1  0  0  0  0
 13 14  1  0  0  0  0
 13 28  1  0  0  0  0
 14 15  2  0  0  0  0
 14 29  1  0  0  0  0
 15 16  1  0  0  0  0
 15 30  1  0  0  0  0
 16 31  1  0  0  0  0
 17 18  2  0  0  0  0
 17 19  1  0  0  0  0
M  END
$$$$
