ZINC01530805
 OpenBabel08292219463D

 21 21  0  0  1  0  0  0  0  0999 V2000
   -0.0187    1.5258    0.0104 C   0  0  0  0  0  0  0  0  0  0  0  0
    0.0021   -0.0041    0.0020 C   0  0  0  0  0  0  0  0  0  0  0  0
   -1.4333   -0.5336    0.0129 C   0  0  1  0  0  0  0  0  0  0  0  0
   -1.4434   -2.0725    0.1157 C   0  0  0  0  0  0  0  0  0  0  0  0
   -2.1699   -2.3362    1.4166 C   0  0  0  0  0  0  0  0  0  0  0  0
   -2.3990   -3.4313    1.8834 O   0  0  0  0  0  0  0  0  0  0  0  0
   -2.5193   -1.1686    1.9705 N   0  0  0  0  0  0  0  0  0  0  0  0
   -2.1553   -0.0897    1.2664 C   0  0  0  0  0  0  0  0  0  0  0  0
   -2.3697    1.0607    1.5831 O   0  0  0  0  0  0  0  0  0  0  0  0
   -2.1864   -0.0692   -1.2354 C   0  0  0  0  0  0  0  0  0  0  0  0
    1.0039    1.9031    0.0027 H   0  0  0  0  0  0  0  0  0  0  0  0
   -0.5459    1.8868   -0.8726 H   0  0  0  0  0  0  0  0  0  0  0  0
   -0.5289    1.8773    0.9072 H   0  0  0  0  0  0  0  0  0  0  0  0
    0.5123   -0.3556   -0.8948 H   0  0  0  0  0  0  0  0  0  0  0  0
    0.5293   -0.3651    0.8851 H   0  0  0  0  0  0  0  0  0  0  0  0
   -1.9863   -2.5094   -0.7223 H   0  0  0  0  0  0  0  0  0  0  0  0
   -0.4258   -2.4607    0.1592 H   0  0  0  0  0  0  0  0  0  0  0  0
   -2.9972   -1.1092    2.8125 H   0  0  0  0  0  0  0  0  0  0  0  0
   -1.6788   -0.4412   -2.1253 H   0  0  0  0  0  0  0  0  0  0  0  0
   -3.2052   -0.4556   -1.2098 H   0  0  0  0  0  0  0  0  0  0  0  0
   -2.2115    1.0203   -1.2601 H   0  0  0  0  0  0  0  0  0  0  0  0
  1  2  1  0  0  0  0
  1 11  1  0  0  0  0
  1 12  1  0  0  0  0
  1 13  1  0  0  0  0
  2 14  1  0  0  0  0
  2 15  1  0  0  0  0
  3  2  1  6  0  0  0
  3  8  1  0  0  0  0
  3  4  1  0  0  0  0
  3 10  1  0  0  0  0
  4  5  1  0  0  0  0
  4 16  1  0  0  0  0
  4 17  1  0  0  0  0
  5  6  2  0  0  0  0
  5  7  1  0  0  0  0
  7  8  1  0  0  0  0
  7 18  1  0  0  0  0
  8  9  2  0  0  0  0
 10 19  1  0  0  0  0
 10 20  1  0  0  0  0
 10 21  1  0  0  0  0
M  END
$$$$
