ZINC00000570
 OpenBabel08292219463D

 42 43  0  0  1  0  0  0  0  0999 V2000
   -0.0187    1.5258    0.0104 C   0  0  0  0  0  0  0  0  0  0  0  0
    0.0021   -0.0041    0.0020 C   0  0  0  0  0  0  0  0  0  0  0  0
   -1.4333   -0.5336    0.0129 C   0  0  0  0  0  0  0  0  0  0  0  0
    0.6897   -0.4778   -1.2066 N   0  3  0  0  0  0  0  0  0  0  0  0
    2.1002   -0.0703   -1.1590 C   0  0  0  0  0  0  0  0  0  0  0  0
    2.8163   -0.5637   -2.4178 C   0  0  1  0  0  0  0  0  0  0  0  0
    2.4046   -0.0659   -3.2958 H   0  0  0  0  0  0  0  0  0  0  0  0
    4.3183   -0.2695   -2.3103 C   0  0  0  0  0  0  0  0  0  0  0  0
    5.0012   -0.7074   -3.6058 C   0  0  0  0  0  0  0  0  0  0  0  0
    4.6254   -2.1254   -3.9464 C   0  0  0  0  0  0  0  0  0  0  0  0
    5.4392   -2.8467   -4.8041 C   0  0  0  0  0  0  0  0  0  0  0  0
    5.1196   -4.1482   -5.1383 C   0  0  0  0  0  0  0  0  0  0  0  0
    3.9832   -4.7403   -4.6178 C   0  0  0  0  0  0  0  0  0  0  0  0
    3.1673   -4.0291   -3.7613 C   0  0  0  0  0  0  0  0  0  0  0  0
    3.4876   -2.7188   -3.4225 C   0  0  0  0  0  0  0  0  0  0  0  0
    2.6506   -2.0178   -2.5469 N   0  0  0  0  0  0  0  0  0  0  0  0
    3.6421   -6.1344   -4.9792 N   0  0  0  0  0  4  0  0  0  0  0  0
    2.6485   -6.6512   -4.5238 O   0  0  0  0  0  0  0  0  0  0  0  0
    4.3571   -6.7565   -5.7299 O   0  5  0  0  0  0  0  0  0  0  0  0
    6.0111   -4.9249   -6.0727 C   0  0  0  0  0  0  0  0  0  0  0  0
    7.1112   -4.1052   -6.4727 O   0  0  0  0  0  0  0  0  0  0  0  0
    1.0039    1.9031    0.0027 H   0  0  0  0  0  0  0  0  0  0  0  0
   -0.5459    1.8868   -0.8726 H   0  0  0  0  0  0  0  0  0  0  0  0
   -0.5289    1.8773    0.9072 H   0  0  0  0  0  0  0  0  0  0  0  0
    0.5293   -0.3651    0.8851 H   0  0  0  0  0  0  0  0  0  0  0  0
   -1.9605   -0.1726   -0.8702 H   0  0  0  0  0  0  0  0  0  0  0  0
   -1.4185   -1.6235    0.0069 H   0  0  0  0  0  0  0  0  0  0  0  0
   -1.9435   -0.1821    0.9097 H   0  0  0  0  0  0  0  0  0  0  0  0
    0.6317   -1.4840   -1.2540 H   0  0  0  0  0  0  0  0  0  0  0  0
    2.1628    1.0167   -1.1079 H   0  0  0  0  0  0  0  0  0  0  0  0
    2.5740   -0.5034   -0.2781 H   0  0  0  0  0  0  0  0  0  0  0  0
    4.4713    0.7992   -2.1600 H   0  0  0  0  0  0  0  0  0  0  0  0
    4.7395   -0.8222   -1.4705 H   0  0  0  0  0  0  0  0  0  0  0  0
    4.6920   -0.0480   -4.4168 H   0  0  0  0  0  0  0  0  0  0  0  0
    6.0823   -0.6406   -3.4836 H   0  0  0  0  0  0  0  0  0  0  0  0
    6.3276   -2.3893   -5.2138 H   0  0  0  0  0  0  0  0  0  0  0  0
    2.2795   -4.4902   -3.3544 H   0  0  0  0  0  0  0  0  0  0  0  0
    1.9730   -2.4842   -2.0329 H   0  0  0  0  0  0  0  0  0  0  0  0
    6.3858   -5.8127   -5.5633 H   0  0  0  0  0  0  0  0  0  0  0  0
    5.4420   -5.2241   -6.9529 H   0  0  0  0  0  0  0  0  0  0  0  0
    7.7278   -4.5417   -7.0763 H   0  0  0  0  0  0  0  0  0  0  0  0
    0.2511   -0.0769   -2.0221 H   0  0  0  0  0  0  0  0  0  0  0  0
  1  2  1  0  0  0  0
  1 22  1  0  0  0  0
  1 23  1  0  0  0  0
  1 24  1  0  0  0  0
  2  3  1  0  0  0  0
  2  4  1  0  0  0  0
  2 25  1  0  0  0  0
  3 26  1  0  0  0  0
  3 27  1  0  0  0  0
  3 28  1  0  0  0  0
  4  5  1  0  0  0  0
  4 29  1  0  0  0  0
  4 42  1  0  0  0  0
  5  6  1  0  0  0  0
  5 30  1  0  0  0  0
  5 31  1  0  0  0  0
  6  7  1  6  0  0  0
  6 16  1  0  0  0  0
  6  8  1  0  0  0  0
  8  9  1  0  0  0  0
  8 32  1  0  0  0  0
  8 33  1  0  0  0  0
  9 10  1  0  0  0  0
  9 34  1  0  0  0  0
  9 35  1  0  0  0  0
 10 15  2  0  0  0  0
 10 11  1  0  0  0  0
 11 12  2  0  0  0  0
 11 36  1  0  0  0  0
 12 13  1  0  0  0  0
 12 20  1  0  0  0  0
 13 14  2  0  0  0  0
 13 17  1  0  0  0  0
 14 15  1  0  0  0  0
 14 37  1  0  0  0  0
 15 16  1  0  0  0  0
 16 38  1  0  0  0  0
 17 18  2  0  0  0  0
 17 19  1  0  0  0  0
 20 21  1  0  0  0  0
 20 39  1  0  0  0  0
 20 40  1  0  0  0  0
 21 41  1  0  0  0  0
M  CHG  2   4   1  19  -1
M  END
$$$$
