ZINC00896463
 OpenBabel08292219463D

 46 47  0  0  1  0  0  0  0  0999 V2000
   -0.0187    1.5258    0.0104 C   0  0  0  0  0  0  0  0  0  0  0  0
    0.0021   -0.0041    0.0020 C   0  0  0  0  0  0  0  0  0  0  0  0
    0.7421   -0.5109    1.2415 C   0  0  0  0  0  0  0  0  0  0  0  0
   -1.4333   -0.5336    0.0129 C   0  0  0  0  0  0  0  0  0  0  0  0
    0.6897   -0.4778   -1.2066 N   0  3  0  0  0  0  0  0  0  0  0  0
    2.0678    0.0307   -1.2170 C   0  0  0  0  0  0  0  0  0  0  0  0
    2.7840   -0.4628   -2.4758 C   0  0  1  0  0  0  0  0  0  0  0  0
    2.2568   -0.1017   -3.3589 H   0  0  0  0  0  0  0  0  0  0  0  0
    4.2193    0.0668   -2.4867 C   0  0  0  0  0  0  0  0  0  0  0  0
    4.8516   -0.2959   -3.7158 O   0  0  0  0  0  0  0  0  0  0  0  0
    6.1400    0.1007   -3.8874 C   0  0  0  0  0  0  0  0  0  0  0  0
    6.7847    0.8197   -2.8899 C   0  0  0  0  0  0  0  0  0  0  0  0
    8.0944    1.2240   -3.0638 C   0  0  0  0  0  0  0  0  0  0  0  0
    8.7674    0.9142   -4.2301 C   0  0  0  0  0  0  0  0  0  0  0  0
    8.1277    0.1947   -5.2310 C   0  0  0  0  0  0  0  0  0  0  0  0
    6.8138   -0.2169   -5.0554 C   0  0  0  0  0  0  0  0  0  0  0  0
    6.1227   -1.0031   -6.1387 C   0  0  0  0  0  0  0  0  0  0  0  0
    6.6245   -0.5389   -7.5065 C   0  0  0  0  0  0  0  0  0  0  0  0
    8.1287   -0.4910   -7.5111 C   0  0  0  0  0  0  0  0  0  0  0  0
    8.7345   -0.7801   -8.5213 O   0  0  0  0  0  0  0  0  0  0  0  0
    8.8058   -0.1214   -6.4122 N   0  0  0  0  0  0  0  0  0  0  0  0
    2.8033   -1.8916   -2.4837 O   0  0  0  0  0  0  0  0  0  0  0  0
    1.0039    1.9031    0.0027 H   0  0  0  0  0  0  0  0  0  0  0  0
   -0.5459    1.8868   -0.8726 H   0  0  0  0  0  0  0  0  0  0  0  0
   -0.5289    1.8773    0.9072 H   0  0  0  0  0  0  0  0  0  0  0  0
    0.2319   -0.1594    2.1383 H   0  0  0  0  0  0  0  0  0  0  0  0
    0.7568   -1.6008    1.2356 H   0  0  0  0  0  0  0  0  0  0  0  0
    1.7647   -0.1336    1.2338 H   0  0  0  0  0  0  0  0  0  0  0  0
   -1.9605   -0.1726   -0.8702 H   0  0  0  0  0  0  0  0  0  0  0  0
   -1.4185   -1.6235    0.0069 H   0  0  0  0  0  0  0  0  0  0  0  0
   -1.9435   -0.1821    0.9097 H   0  0  0  0  0  0  0  0  0  0  0  0
    0.7033   -1.4867   -1.2121 H   0  0  0  0  0  0  0  0  0  0  0  0
    2.0530    1.1205   -1.2110 H   0  0  0  0  0  0  0  0  0  0  0  0
    2.5950   -0.3304   -0.3340 H   0  0  0  0  0  0  0  0  0  0  0  0
    4.2068    1.1525   -2.3912 H   0  0  0  0  0  0  0  0  0  0  0  0
    4.7722   -0.3649   -1.6524 H   0  0  0  0  0  0  0  0  0  0  0  0
    6.2616    1.0637   -1.9771 H   0  0  0  0  0  0  0  0  0  0  0  0
    8.5932    1.7838   -2.2864 H   0  0  0  0  0  0  0  0  0  0  0  0
    9.7909    1.2319   -4.3636 H   0  0  0  0  0  0  0  0  0  0  0  0
    6.3403   -2.0638   -6.0128 H   0  0  0  0  0  0  0  0  0  0  0  0
    5.0465   -0.8432   -6.0733 H   0  0  0  0  0  0  0  0  0  0  0  0
    6.2821   -1.2343   -8.2729 H   0  0  0  0  0  0  0  0  0  0  0  0
    6.2299    0.4547   -7.7188 H   0  0  0  0  0  0  0  0  0  0  0  0
    9.7748   -0.0839   -6.4360 H   0  0  0  0  0  0  0  0  0  0  0  0
    3.2576   -2.2830   -1.7250 H   0  0  0  0  0  0  0  0  0  0  0  0
    0.2017   -0.1436   -2.0240 H   0  0  0  0  0  0  0  0  0  0  0  0
  1  2  1  0  0  0  0
  1 23  1  0  0  0  0
  1 24  1  0  0  0  0
  1 25  1  0  0  0  0
  2  3  1  0  0  0  0
  2  4  1  0  0  0  0
  2  5  1  0  0  0  0
  3 26  1  0  0  0  0
  3 27  1  0  0  0  0
  3 28  1  0  0  0  0
  4 29  1  0  0  0  0
  4 30  1  0  0  0  0
  4 31  1  0  0  0  0
  5  6  1  0  0  0  0
  5 32  1  0  0  0  0
  5 46  1  0  0  0  0
  6  7  1  0  0  0  0
  6 33  1  0  0  0  0
  6 34  1  0  0  0  0
  7  8  1  6  0  0  0
  7  9  1  0  0  0  0
  7 22  1  0  0  0  0
  9 10  1  0  0  0  0
  9 35  1  0  0  0  0
  9 36  1  0  0  0  0
 10 11  1  0  0  0  0
 11 16  2  0  0  0  0
 11 12  1  0  0  0  0
 12 13  2  0  0  0  0
 12 37  1  0  0  0  0
 13 14  1  0  0  0  0
 13 38  1  0  0  0  0
 14 15  2  0  0  0  0
 14 39  1  0  0  0  0
 15 21  1  0  0  0  0
 15 16  1  0  0  0  0
 16 17  1  0  0  0  0
 17 18  1  0  0  0  0
 17 40  1  0  0  0  0
 17 41  1  0  0  0  0
 18 19  1  0  0  0  0
 18 42  1  0  0  0  0
 18 43  1  0  0  0  0
 19 20  2  0  0  0  0
 19 21  1  0  0  0  0
 21 44  1  0  0  0  0
 22 45  1  0  0  0  0
M  CHG  1   5   1
M  END
$$$$
