ZINC26683062
 OpenBabel08292219463D

 60 64  0  0  0  0  0  0  0  0999 V2000
   -0.5563    0.4540    0.1162 C   0  0  0  0  0  0  0  0  0  0  0  0
    0.5240    1.3128    0.1959 C   0  0  0  0  0  0  0  0  0  0  0  0
    1.8109    0.8088    0.1713 C   0  0  0  0  0  0  0  0  0  0  0  0
    2.0176   -0.5541    0.0675 C   0  0  0  0  0  0  0  0  0  0  0  0
    0.9373   -1.4130   -0.0112 C   0  0  0  0  0  0  0  0  0  0  0  0
   -0.3496   -0.9088    0.0119 C   0  0  0  0  0  0  0  0  0  0  0  0
    3.4206   -1.1035    0.0397 C   0  0  0  0  0  0  0  0  0  0  0  0
    3.8801   -1.4012    1.4684 C   0  0  0  0  0  0  0  0  0  0  0  0
    5.3046   -1.9590    1.4402 C   0  0  0  0  0  0  0  0  0  0  0  0
    5.7640   -2.2568    2.8689 C   0  0  0  0  0  0  0  0  0  0  0  0
    7.0944   -2.7777    2.8426 O   0  0  0  0  0  0  0  0  0  0  0  0
    7.6552   -3.0961    4.0367 C   0  0  0  0  0  0  0  0  0  0  0  0
    6.9342   -2.9151    5.2112 C   0  0  0  0  0  0  0  0  0  0  0  0
    7.4995   -3.2368    6.4248 C   0  0  0  0  0  0  0  0  0  0  0  0
    8.7999   -3.7464    6.4746 C   0  0  0  0  0  0  0  0  0  0  0  0
    9.5212   -3.9273    5.2914 C   0  0  0  0  0  0  0  0  0  0  0  0
    8.9469   -3.6076    4.0814 C   0  0  0  0  0  0  0  0  0  0  0  0
    9.4098   -4.0921    7.7731 C   0  0  0  0  0  0  0  0  0  0  0  0
    8.7809   -3.9337    8.8015 O   0  0  0  0  0  0  0  0  0  0  0  0
   10.6640   -4.5835    7.8190 N   0  0  0  0  0  0  0  0  0  0  0  0
   11.2804   -4.8061    9.0486 C   0  0  0  0  0  0  0  0  0  0  0  0
   12.1704   -5.8725    9.1938 C   0  0  0  0  0  0  0  0  0  0  0  0
   12.7815   -6.1035   10.3903 C   0  0  0  0  0  0  0  0  0  0  0  0
   12.5154   -5.2658   11.4802 C   0  0  0  0  0  0  0  0  0  0  0  0
   13.1554   -5.4858   12.7792 C   0  0  0  0  0  0  0  0  0  0  0  0
   14.0229   -6.5038   12.9669 O   0  0  0  0  0  0  0  0  0  0  0  0
   12.8391   -4.6087   13.8142 C   0  0  0  0  0  0  0  0  0  0  0  0
   11.9466   -3.5760   13.5874 C   0  0  0  0  0  0  0  0  0  0  0  0
   11.3666   -3.3846   12.3948 O   0  0  0  0  0  0  0  0  0  0  0  0
   11.6189   -4.1876   11.3417 C   0  0  0  0  0  0  0  0  0  0  0  0
   11.0093   -3.9639   10.1156 C   0  0  0  0  0  0  0  0  0  0  0  0
   11.6235   -2.6584   14.6919 C   0  0  0  0  0  0  0  0  0  0  0  0
   10.7855   -1.6200   14.6489 N   0  0  0  0  0  0  0  0  0  0  0  0
   10.7818   -1.0771   15.8182 N   0  0  0  0  0  4  0  0  0  0  0  0
   10.2599   -0.3008   16.0749 H   0  0  0  0  0  0  0  0  0  0  0  0
   11.5787   -1.7274   16.5916 N   0  0  0  0  0  0  0  0  0  0  0  0
   12.1063   -2.7039   15.9358 N   0  0  0  0  0  0  0  0  0  0  0  0
   -1.5618    0.8474    0.1399 H   0  0  0  0  0  0  0  0  0  0  0  0
    0.3625    2.3776    0.2769 H   0  0  0  0  0  0  0  0  0  0  0  0
    2.6549    1.4798    0.2328 H   0  0  0  0  0  0  0  0  0  0  0  0
    1.0988   -2.4777   -0.0927 H   0  0  0  0  0  0  0  0  0  0  0  0
   -1.1936   -1.5798   -0.0500 H   0  0  0  0  0  0  0  0  0  0  0  0
    3.4396   -2.0220   -0.5469 H   0  0  0  0  0  0  0  0  0  0  0  0
    4.0891   -0.3702   -0.4115 H   0  0  0  0  0  0  0  0  0  0  0  0
    3.8611   -0.4827    2.0550 H   0  0  0  0  0  0  0  0  0  0  0  0
    3.2117   -2.1345    1.9197 H   0  0  0  0  0  0  0  0  0  0  0  0
    5.3235   -2.8775    0.8536 H   0  0  0  0  0  0  0  0  0  0  0  0
    5.9730   -1.2258    0.9889 H   0  0  0  0  0  0  0  0  0  0  0  0
    5.7451   -1.3383    3.4555 H   0  0  0  0  0  0  0  0  0  0  0  0
    5.0956   -2.9900    3.3202 H   0  0  0  0  0  0  0  0  0  0  0  0
    5.9293   -2.5212    5.1719 H   0  0  0  0  0  0  0  0  0  0  0  0
    6.9389   -3.0952    7.3370 H   0  0  0  0  0  0  0  0  0  0  0  0
   10.5264   -4.3209    5.3256 H   0  0  0  0  0  0  0  0  0  0  0  0
    9.5021   -3.7509    3.1663 H   0  0  0  0  0  0  0  0  0  0  0  0
   11.1375   -4.7820    6.9960 H   0  0  0  0  0  0  0  0  0  0  0  0
   12.3755   -6.5185    8.3529 H   0  0  0  0  0  0  0  0  0  0  0  0
   13.4684   -6.9301   10.4973 H   0  0  0  0  0  0  0  0  0  0  0  0
   13.2878   -4.7342   14.7885 H   0  0  0  0  0  0  0  0  0  0  0  0
   10.3232   -3.1387    9.9940 H   0  0  0  0  0  0  0  0  0  0  0  0
   14.3837   -6.5529   13.8628 H   0  0  0  0  0  0  0  0  0  0  0  0
  1  6  2  0  0  0  0
  1  2  1  0  0  0  0
  1 38  1  0  0  0  0
  2  3  2  0  0  0  0
  2 39  1  0  0  0  0
  3  4  1  0  0  0  0
  3 40  1  0  0  0  0
  4  5  2  0  0  0  0
  4  7  1  0  0  0  0
  5  6  1  0  0  0  0
  5 41  1  0  0  0  0
  6 42  1  0  0  0  0
  7  8  1  0  0  0  0
  7 43  1  0  0  0  0
  7 44  1  0  0  0  0
  8  9  1  0  0  0  0
  8 45  1  0  0  0  0
  8 46  1  0  0  0  0
  9 10  1  0  0  0  0
  9 47  1  0  0  0  0
  9 48  1  0  0  0  0
 10 11  1  0  0  0  0
 10 49  1  0  0  0  0
 10 50  1  0  0  0  0
 11 12  1  0  0  0  0
 12 17  2  0  0  0  0
 12 13  1  0  0  0  0
 13 14  2  0  0  0  0
 13 51  1  0  0  0  0
 14 15  1  0  0  0  0
 14 52  1  0  0  0  0
 15 16  2  0  0  0  0
 15 18  1  0  0  0  0
 16 17  1  0  0  0  0
 16 53  1  0  0  0  0
 17 54  1  0  0  0  0
 18 19  2  0  0  0  0
 18 20  1  0  0  0  0
 20 21  1  0  0  0  0
 20 55  1  0  0  0  0
 21 31  2  0  0  0  0
 21 22  1  0  0  0  0
 22 23  2  0  0  0  0
 22 56  1  0  0  0  0
 23 24  1  0  0  0  0
 23 57  1  0  0  0  0
 24 30  2  0  0  0  0
 24 25  1  0  0  0  0
 25 26  1  0  0  0  0
 25 27  2  0  0  0  0
 26 60  1  0  0  0  0
 27 28  1  0  0  0  0
 27 58  1  0  0  0  0
 28 29  1  0  0  0  0
 28 32  2  0  0  0  0
 29 30  1  0  0  0  0
 30 31  1  0  0  0  0
 31 59  1  0  0  0  0
 32 37  1  0  0  0  0
 32 33  1  0  0  0  0
 33 34  2  0  0  0  0
 34 35  1  0  0  0  0
 34 36  1  0  0  0  0
 36 37  2  0  0  0  0
M  END
$$$$
