ZINC00001930
 OpenBabel08292219463D

 25 25  0  0  1  0  0  0  0  0999 V2000
   -0.0187    1.5258    0.0104 C   0  0  0  0  0  0  0  0  0  0  0  0
    0.0021   -0.0041    0.0020 C   0  0  2  0  0  0  0  0  0  0  0  0
   -1.0205   -0.3814    0.0098 H   0  0  0  0  0  0  0  0  0  0  0  0
    0.7421   -0.5109    1.2415 C   0  0  2  0  0  0  0  0  0  0  0  0
    0.8346   -1.5958    1.1912 H   0  0  0  0  0  0  0  0  0  0  0  0
   -0.0298   -0.1295    2.4784 C   0  0  0  0  0  0  0  0  0  0  0  0
    0.0639    1.1540    2.9832 C   0  0  0  0  0  0  0  0  0  0  0  0
   -0.6441    1.5039    4.1177 C   0  0  0  0  0  0  0  0  0  0  0  0
   -1.4462    0.5705    4.7472 C   0  0  0  0  0  0  0  0  0  0  0  0
   -1.5406   -0.7127    4.2419 C   0  0  0  0  0  0  0  0  0  0  0  0
   -0.8359   -1.0614    3.1049 C   0  0  0  0  0  0  0  0  0  0  0  0
    2.0438    0.0763    1.2925 O   0  0  0  0  0  0  0  0  0  0  0  0
    0.6897   -0.4778   -1.2066 N   0  3  0  0  0  0  0  0  0  0  0  0
    1.0039    1.9031    0.0027 H   0  0  0  0  0  0  0  0  0  0  0  0
   -0.5459    1.8868   -0.8726 H   0  0  0  0  0  0  0  0  0  0  0  0
   -0.5289    1.8773    0.9072 H   0  0  0  0  0  0  0  0  0  0  0  0
    0.6905    1.8833    2.4914 H   0  0  0  0  0  0  0  0  0  0  0  0
   -0.5704    2.5065    4.5125 H   0  0  0  0  0  0  0  0  0  0  0  0
   -1.9988    0.8436    5.6340 H   0  0  0  0  0  0  0  0  0  0  0  0
   -2.1670   -1.4421    4.7338 H   0  0  0  0  0  0  0  0  0  0  0  0
   -0.9126   -2.0629    2.7079 H   0  0  0  0  0  0  0  0  0  0  0  0
    2.0381    1.0422    1.3386 H   0  0  0  0  0  0  0  0  0  0  0  0
    1.6363   -0.1286   -1.2138 H   0  0  0  0  0  0  0  0  0  0  0  0
    0.7033   -1.4867   -1.2121 H   0  0  0  0  0  0  0  0  0  0  0  0
    0.2017   -0.1436   -2.0240 H   0  0  0  0  0  0  0  0  0  0  0  0
  1  2  1  0  0  0  0
  1 14  1  0  0  0  0
  1 15  1  0  0  0  0
  1 16  1  0  0  0  0
  2  3  1  1  0  0  0
  2  4  1  0  0  0  0
  2 13  1  0  0  0  0
  4  5  1  6  0  0  0
  4  6  1  0  0  0  0
  4 12  1  0  0  0  0
  6 11  2  0  0  0  0
  6  7  1  0  0  0  0
  7  8  2  0  0  0  0
  7 17  1  0  0  0  0
  8  9  1  0  0  0  0
  8 18  1  0  0  0  0
  9 10  2  0  0  0  0
  9 19  1  0  0  0  0
 10 11  1  0  0  0  0
 10 20  1  0  0  0  0
 11 21  1  0  0  0  0
 12 22  1  0  0  0  0
 13 23  1  0  0  0  0
 13 24  1  0  0  0  0
 13 25  1  0  0  0  0
M  CHG  1  13   1
M  END
$$$$
