ZINC01812123
 OpenBabel08292219463D

 59 60  0  0  1  0  0  0  0  0999 V2000
    0.3694    0.0202   -3.5228 C   0  0  0  0  0  0  0  0  0  0  0  0
   -0.2116    0.3412   -2.1443 C   0  0  0  0  0  0  0  0  0  0  0  0
    0.5875   -0.3268   -1.1084 N   0  3  0  0  0  0  0  0  0  0  0  0
    0.0297   -0.0186    0.2151 C   0  0  0  0  0  0  0  0  0  0  0  0
    0.5567   -1.7792   -1.3267 C   0  0  0  0  0  0  0  0  0  0  0  0
   -0.8962   -2.2526   -1.4035 C   0  0  0  0  0  0  0  0  0  0  0  0
    1.9755    0.1494   -1.1778 C   0  0  0  0  0  0  0  0  0  0  0  0
    2.7727   -0.4305   -0.0077 C   0  0  0  0  0  0  0  0  0  0  0  0
    2.9184   -1.8412   -0.1833 O   0  0  0  0  0  0  0  0  0  0  0  0
    3.5984   -2.5062    0.7639 C   0  0  0  0  0  0  0  0  0  0  0  0
    4.0548   -1.9102    1.7108 O   0  0  0  0  0  0  0  0  0  0  0  0
    3.7926   -3.9960    0.6464 C   0  0  2  0  0  0  0  0  0  0  0  0
    2.5909   -4.7056    1.2149 C   0  0  0  0  0  0  0  0  0  0  0  0
    2.5574   -5.0433    2.5550 C   0  0  0  0  0  0  0  0  0  0  0  0
    1.4551   -5.6942    3.0764 C   0  0  0  0  0  0  0  0  0  0  0  0
    0.3859   -6.0071    2.2579 C   0  0  0  0  0  0  0  0  0  0  0  0
    0.4190   -5.6686    0.9181 C   0  0  0  0  0  0  0  0  0  0  0  0
    1.5195   -5.0139    0.3975 C   0  0  0  0  0  0  0  0  0  0  0  0
    5.0441   -4.4100    1.4232 C   0  0  0  0  0  0  0  0  0  0  0  0
    5.2413   -5.9225    1.3039 C   0  0  0  0  0  0  0  0  0  0  0  0
    6.4927   -6.3365    2.0806 C   0  0  0  0  0  0  0  0  0  0  0  0
    7.7128   -5.6160    1.5035 C   0  0  0  0  0  0  0  0  0  0  0  0
    7.5156   -4.1035    1.6228 C   0  0  0  0  0  0  0  0  0  0  0  0
    6.2642   -3.6895    0.8460 C   0  0  0  0  0  0  0  0  0  0  0  0
    3.9476   -4.3490   -0.7296 O   0  0  0  0  0  0  0  0  0  0  0  0
    1.3993    0.3735   -3.5743 H   0  0  0  0  0  0  0  0  0  0  0  0
    0.3465   -1.0575   -3.6848 H   0  0  0  0  0  0  0  0  0  0  0  0
   -0.2235    0.5158   -4.2915 H   0  0  0  0  0  0  0  0  0  0  0  0
   -0.1887    1.4188   -1.9824 H   0  0  0  0  0  0  0  0  0  0  0  0
   -1.2415   -0.0121   -2.0929 H   0  0  0  0  0  0  0  0  0  0  0  0
   -1.0406   -0.2253    0.2154 H   0  0  0  0  0  0  0  0  0  0  0  0
    0.5191   -0.6358    0.9684 H   0  0  0  0  0  0  0  0  0  0  0  0
    0.1964    1.0341    0.4435 H   0  0  0  0  0  0  0  0  0  0  0  0
    1.0662   -2.0171   -2.2605 H   0  0  0  0  0  0  0  0  0  0  0  0
    1.0593   -2.2816   -0.5003 H   0  0  0  0  0  0  0  0  0  0  0  0
   -1.3989   -1.7502   -2.2299 H   0  0  0  0  0  0  0  0  0  0  0  0
   -0.9192   -3.3302   -1.5655 H   0  0  0  0  0  0  0  0  0  0  0  0
   -1.4057   -2.0146   -0.4697 H   0  0  0  0  0  0  0  0  0  0  0  0
    2.4236   -0.1727   -2.1178 H   0  0  0  0  0  0  0  0  0  0  0  0
    1.9893    1.2379   -1.1228 H   0  0  0  0  0  0  0  0  0  0  0  0
    3.7577    0.0350    0.0271 H   0  0  0  0  0  0  0  0  0  0  0  0
    2.2445   -0.2332    0.9251 H   0  0  0  0  0  0  0  0  0  0  0  0
    3.3928   -4.7988    3.1944 H   0  0  0  0  0  0  0  0  0  0  0  0
    1.4293   -5.9587    4.1232 H   0  0  0  0  0  0  0  0  0  0  0  0
   -0.4750   -6.5163    2.6652 H   0  0  0  0  0  0  0  0  0  0  0  0
   -0.4162   -5.9134    0.2785 H   0  0  0  0  0  0  0  0  0  0  0  0
    1.5438   -4.7461   -0.6485 H   0  0  0  0  0  0  0  0  0  0  0  0
    4.9259   -4.1406    2.4728 H   0  0  0  0  0  0  0  0  0  0  0  0
    4.3721   -6.4358    1.7151 H   0  0  0  0  0  0  0  0  0  0  0  0
    5.3594   -6.1918    0.2543 H   0  0  0  0  0  0  0  0  0  0  0  0
    6.3746   -6.0672    3.1302 H   0  0  0  0  0  0  0  0  0  0  0  0
    6.6332   -7.4141    1.9956 H   0  0  0  0  0  0  0  0  0  0  0  0
    8.6044   -5.9110    2.0569 H   0  0  0  0  0  0  0  0  0  0  0  0
    7.8310   -5.8853    0.4539 H   0  0  0  0  0  0  0  0  0  0  0  0
    7.3975   -3.8342    2.6724 H   0  0  0  0  0  0  0  0  0  0  0  0
    8.3849   -3.5902    1.2116 H   0  0  0  0  0  0  0  0  0  0  0  0
    6.3824   -3.9588   -0.2035 H   0  0  0  0  0  0  0  0  0  0  0  0
    6.1237   -2.6119    0.9310 H   0  0  0  0  0  0  0  0  0  0  0  0
    4.7035   -3.9278   -1.1610 H   0  0  0  0  0  0  0  0  0  0  0  0
  1  2  1  0  0  0  0
  1 26  1  0  0  0  0
  1 27  1  0  0  0  0
  1 28  1  0  0  0  0
  2  3  1  0  0  0  0
  2 29  1  0  0  0  0
  2 30  1  0  0  0  0
  3  4  1  0  0  0  0
  3  5  1  0  0  0  0
  3  7  1  0  0  0  0
  4 31  1  0  0  0  0
  4 32  1  0  0  0  0
  4 33  1  0  0  0  0
  5  6  1  0  0  0  0
  5 34  1  0  0  0  0
  5 35  1  0  0  0  0
  6 36  1  0  0  0  0
  6 37  1  0  0  0  0
  6 38  1  0  0  0  0
  7  8  1  0  0  0  0
  7 39  1  0  0  0  0
  7 40  1  0  0  0  0
  8  9  1  0  0  0  0
  8 41  1  0  0  0  0
  8 42  1  0  0  0  0
  9 10  1  0  0  0  0
 10 11  2  0  0  0  0
 12 10  1  1  0  0  0
 12 13  1  0  0  0  0
 12 19  1  0  0  0  0
 12 25  1  0  0  0  0
 13 18  2  0  0  0  0
 13 14  1  0  0  0  0
 14 15  2  0  0  0  0
 14 43  1  0  0  0  0
 15 16  1  0  0  0  0
 15 44  1  0  0  0  0
 16 17  2  0  0  0  0
 16 45  1  0  0  0  0
 17 18  1  0  0  0  0
 17 46  1  0  0  0  0
 18 47  1  0  0  0  0
 19 24  1  0  0  0  0
 19 20  1  0  0  0  0
 19 48  1  0  0  0  0
 20 21  1  0  0  0  0
 20 49  1  0  0  0  0
 20 50  1  0  0  0  0
 21 22  1  0  0  0  0
 21 51  1  0  0  0  0
 21 52  1  0  0  0  0
 22 23  1  0  0  0  0
 22 53  1  0  0  0  0
 22 54  1  0  0  0  0
 23 24  1  0  0  0  0
 23 55  1  0  0  0  0
 23 56  1  0  0  0  0
 24 57  1  0  0  0  0
 24 58  1  0  0  0  0
 25 59  1  0  0  0  0
M  CHG  1   3   1
M  END
$$$$
