ZINC03830417
 OpenBabel08292219463D

 46 48  0  0  1  0  0  0  0  0999 V2000
   -0.1542    1.4350    0.0196 C   0  0  0  0  0  0  0  0  0  0  0  0
   -0.0862   -0.0284    0.0066 N   0  0  0  0  0  0  0  0  0  0  0  0
   -0.0456   -0.8399   -1.0764 C   0  0  0  0  0  0  0  0  0  0  0  0
    0.0107   -2.0764   -0.6312 N   0  0  0  0  0  0  0  0  0  0  0  0
    0.0081   -2.0926    0.6529 N   0  0  0  0  0  0  0  0  0  0  0  0
   -0.0428   -0.8907    1.1161 N   0  0  0  0  0  0  0  0  0  0  0  0
   -0.0652   -0.3349   -2.7644 S   0  0  0  0  0  0  0  0  0  0  0  0
    0.0099   -1.8933   -3.6897 C   0  0  0  0  0  0  0  0  0  0  0  0
   -0.0003   -1.6008   -5.1680 C   0  0  0  0  0  0  0  0  0  0  0  0
    1.1711   -1.6774   -5.7824 C   0  0  0  0  0  0  0  0  0  0  0  0
    1.2689   -1.4705   -7.1692 N   0  0  0  0  0  0  0  0  0  0  0  0
    0.2580   -0.8331   -8.0524 C   0  0  1  0  0  0  0  0  0  0  0  0
    0.2906    0.2555   -8.0981 H   0  0  0  0  0  0  0  0  0  0  0  0
    0.9495   -1.5473   -9.1938 C   0  0  1  0  0  0  0  0  0  0  0  0
    2.0567   -1.7532   -8.1964 C   0  0  0  0  0  0  0  0  0  0  0  0
    3.2258   -2.0608   -8.2951 O   0  0  0  0  0  0  0  0  0  0  0  0
    0.2862   -2.7843   -9.6135 N   0  0  0  0  0  0  0  0  0  0  0  0
    0.1264   -3.7945   -8.7358 C   0  0  0  0  0  0  0  0  0  0  0  0
    0.5317   -3.6795   -7.5985 O   0  0  0  0  0  0  0  0  0  0  0  0
   -0.5559   -5.0670   -9.1675 C   0  0  0  0  0  0  0  0  0  0  0  0
   -0.6168   -6.2240   -7.7718 S   0  0  0  0  0  0  0  0  0  0  0  0
   -1.4558   -7.6833   -8.4478 C   0  0  0  0  0  0  0  0  0  0  0  0
   -1.5707   -8.7120   -7.4011 C   0  0  0  0  0  0  0  0  0  0  0  0
   -1.6594   -9.5059   -6.5934 N   0  0  0  0  0  0  0  0  0  0  0  0
    1.3006   -0.6958  -10.2864 O   0  0  0  0  0  0  0  0  0  0  0  0
    1.8504   -1.3879  -11.4092 C   0  0  0  0  0  0  0  0  0  0  0  0
   -1.3591   -1.5138   -7.5486 S   0  0  0  0  0  0  0  0  0  0  0  0
   -1.3314   -1.2662   -5.7594 C   0  0  0  0  0  0  0  0  0  0  0  0
    2.3828   -1.9819   -5.0043 C   0  0  0  0  0  0  0  0  0  0  0  0
    2.7811   -3.1356   -4.9188 O   0  0  0  0  0  0  0  0  0  0  0  0
    2.9918   -1.0814   -4.4431 O   0  0  0  0  0  1  0  0  0  0  0  0
    0.8554    1.8457    0.0202 H   0  0  0  0  0  0  0  0  0  0  0  0
   -0.6870    1.7818   -0.8659 H   0  0  0  0  0  0  0  0  0  0  0  0
   -0.6818    1.7663    0.9140 H   0  0  0  0  0  0  0  0  0  0  0  0
    0.9251   -2.4257   -3.4309 H   0  0  0  0  0  0  0  0  0  0  0  0
   -0.8529   -2.5089   -3.4351 H   0  0  0  0  0  0  0  0  0  0  0  0
   -0.0379   -2.8763  -10.5231 H   0  0  0  0  0  0  0  0  0  0  0  0
   -1.5701   -4.8416   -9.4972 H   0  0  0  0  0  0  0  0  0  0  0  0
    0.0014   -5.5174   -9.9889 H   0  0  0  0  0  0  0  0  0  0  0  0
   -2.4512   -7.4030   -8.7925 H   0  0  0  0  0  0  0  0  0  0  0  0
   -0.8796   -8.0788   -9.2842 H   0  0  0  0  0  0  0  0  0  0  0  0
    1.1232   -2.1083  -11.7837 H   0  0  0  0  0  0  0  0  0  0  0  0
    2.0905   -0.6719  -12.1953 H   0  0  0  0  0  0  0  0  0  0  0  0
    2.7569   -1.9112  -11.1052 H   0  0  0  0  0  0  0  0  0  0  0  0
   -2.0933   -1.8942   -5.2977 H   0  0  0  0  0  0  0  0  0  0  0  0
   -1.5603   -0.2211   -5.5508 H   0  0  0  0  0  0  0  0  0  0  0  0
  1  2  1  0  0  0  0
  1 32  1  0  0  0  0
  1 33  1  0  0  0  0
  1 34  1  0  0  0  0
  2  6  1  0  0  0  0
  2  3  1  0  0  0  0
  3  4  2  0  0  0  0
  3  7  1  0  0  0  0
  4  5  1  0  0  0  0
  5  6  2  0  0  0  0
  7  8  1  0  0  0  0
  8  9  1  0  0  0  0
  8 35  1  0  0  0  0
  8 36  1  0  0  0  0
  9 28  1  0  0  0  0
  9 10  2  0  0  0  0
 10 11  1  0  0  0  0
 10 29  1  0  0  0  0
 11 15  1  0  0  0  0
 11 12  1  0  0  0  0
 12 13  1  6  0  0  0
 12 14  1  0  0  0  0
 12 27  1  0  0  0  0
 14 15  1  0  0  0  0
 14 17  1  0  0  0  0
 14 25  1  6  0  0  0
 15 16  2  0  0  0  0
 17 18  1  0  0  0  0
 17 37  1  0  0  0  0
 18 19  2  0  0  0  0
 18 20  1  0  0  0  0
 20 21  1  0  0  0  0
 20 38  1  0  0  0  0
 20 39  1  0  0  0  0
 21 22  1  0  0  0  0
 22 23  1  0  0  0  0
 22 40  1  0  0  0  0
 22 41  1  0  0  0  0
 23 24  3  0  0  0  0
 25 26  1  0  0  0  0
 26 42  1  0  0  0  0
 26 43  1  0  0  0  0
 26 44  1  0  0  0  0
 27 28  1  0  0  0  0
 28 45  1  0  0  0  0
 28 46  1  0  0  0  0
 29 30  2  0  0  0  0
 29 31  1  0  0  0  0
M  END
$$$$
