ZINC13129998
 OpenBabel08292219463D

 35 37  0  0  0  0  0  0  0  0999 V2000
   -3.8281    0.1080   -0.2180 C   0  0  0  0  0  0  0  0  0  0  0  0
   -2.8733   -1.0569   -0.1677 C   0  0  0  0  0  0  0  0  0  0  0  0
   -1.5519   -1.0792    0.1342 C   0  0  0  0  0  0  0  0  0  0  0  0
   -0.9488   -2.2533    0.1023 N   0  0  0  0  0  0  0  0  0  0  0  0
   -1.6085   -3.3482   -0.2098 C   0  0  0  0  0  0  0  0  0  0  0  0
   -3.1724   -2.7888   -0.4819 S   0  0  0  0  0  0  0  0  0  0  0  0
   -1.1317   -4.6497   -0.2894 N   0  0  0  0  0  0  0  0  0  0  0  0
    0.1646   -4.9097   -0.0274 C   0  0  0  0  0  0  0  0  0  0  0  0
    0.9484   -3.9922    0.1374 O   0  0  0  0  0  0  0  0  0  0  0  0
    0.6158   -6.2517    0.0565 C   0  0  0  0  0  0  0  0  0  0  0  0
    1.9424   -6.4875    0.1512 C   0  0  0  0  0  0  0  0  0  0  0  0
    2.5400   -7.8250    0.2503 C   0  0  0  0  0  0  0  0  0  0  0  0
    3.8641   -7.9776    0.6755 C   0  0  0  0  0  0  0  0  0  0  0  0
    4.4147   -9.2381    0.7662 C   0  0  0  0  0  0  0  0  0  0  0  0
    3.6677  -10.3566    0.4394 C   0  0  0  0  0  0  0  0  0  0  0  0
    2.3551  -10.2173    0.0167 C   0  0  0  0  0  0  0  0  0  0  0  0
    1.7977   -8.9659   -0.0774 C   0  0  0  0  0  0  0  0  0  0  0  0
    0.1290   -8.7501   -0.6167 S   0  0  0  0  0  0  0  0  0  0  0  0
   -0.6471   -9.7570    0.0183 O   0  0  0  0  0  0  0  0  0  0  0  0
    0.1659   -8.5818   -2.0272 O   0  0  0  0  0  0  0  0  0  0  0  0
   -0.3359   -7.2896    0.0439 N   0  0  0  0  0  0  0  0  0  0  0  0
   -1.6821   -7.0922    0.5869 C   0  0  0  0  0  0  0  0  0  0  0  0
    2.7765   -5.4197    0.1546 O   0  5  0  0  0  0  0  0  0  0  0  0
   -4.8209   -0.2477   -0.4936 H   0  0  0  0  0  0  0  0  0  0  0  0
   -3.8718    0.5844    0.7614 H   0  0  0  0  0  0  0  0  0  0  0  0
   -3.4822    0.8296   -0.9580 H   0  0  0  0  0  0  0  0  0  0  0  0
   -1.0163   -0.1768    0.3892 H   0  0  0  0  0  0  0  0  0  0  0  0
   -1.7314   -5.3719   -0.5336 H   0  0  0  0  0  0  0  0  0  0  0  0
    4.4534   -7.1098    0.9324 H   0  0  0  0  0  0  0  0  0  0  0  0
    5.4371   -9.3539    1.0943 H   0  0  0  0  0  0  0  0  0  0  0  0
    4.1085  -11.3397    0.5137 H   0  0  0  0  0  0  0  0  0  0  0  0
    1.7727  -11.0904   -0.2382 H   0  0  0  0  0  0  0  0  0  0  0  0
   -1.7763   -6.0736    0.9634 H   0  0  0  0  0  0  0  0  0  0  0  0
   -2.4189   -7.2587   -0.1989 H   0  0  0  0  0  0  0  0  0  0  0  0
   -1.8528   -7.7974    1.4004 H   0  0  0  0  0  0  0  0  0  0  0  0
  1  2  1  0  0  0  0
  1 24  1  0  0  0  0
  1 25  1  0  0  0  0
  1 26  1  0  0  0  0
  2  6  1  0  0  0  0
  2  3  2  0  0  0  0
  3  4  1  0  0  0  0
  3 27  1  0  0  0  0
  4  5  2  0  0  0  0
  5  6  1  0  0  0  0
  5  7  1  0  0  0  0
  7  8  1  0  0  0  0
  7 28  1  0  0  0  0
  8  9  2  0  0  0  0
  8 10  1  0  0  0  0
 10 21  1  0  0  0  0
 10 11  2  0  0  0  0
 11 12  1  0  0  0  0
 11 23  1  0  0  0  0
 12 17  2  0  0  0  0
 12 13  1  0  0  0  0
 13 14  2  0  0  0  0
 13 29  1  0  0  0  0
 14 15  1  0  0  0  0
 14 30  1  0  0  0  0
 15 16  2  0  0  0  0
 15 31  1  0  0  0  0
 16 17  1  0  0  0  0
 16 32  1  0  0  0  0
 17 18  1  0  0  0  0
 18 19  2  0  0  0  0
 18 20  2  0  0  0  0
 18 21  1  0  0  0  0
 21 22  1  0  0  0  0
 22 33  1  0  0  0  0
 22 34  1  0  0  0  0
 22 35  1  0  0  0  0
M  CHG  1  23  -1
M  END
$$$$
