ZINC00010164
 OpenBabel08292219463D

 31 33  0  0  1  0  0  0  0  0999 V2000
    3.5684    2.1288    3.0535 C   0  0  0  0  0  0  0  0  0  0  0  0
    3.2212    2.3738    1.5837 C   0  0  1  0  0  0  0  0  0  0  0  0
    4.0914    2.2304    0.9432 H   0  0  0  0  0  0  0  0  0  0  0  0
    2.1055    1.5479    1.1574 O   0  0  0  0  0  0  0  0  0  0  0  0
    1.4316    2.0375   -0.0007 C   0  0  1  0  0  0  0  0  0  0  0  0
    2.1304    1.5001   -1.2565 C   0  0  0  0  0  0  0  0  0  0  0  0
    0.7371   -0.4822   -1.2534 C   0  0  0  0  0  0  0  0  0  0  0  0
    0.0021   -0.0041    0.0020 C   0  0  0  0  0  0  0  0  0  0  0  0
   -0.0187    1.5292    0.0104 C   0  0  2  0  0  0  0  0  0  0  0  0
   -0.7177    2.0191   -1.2633 C   0  0  0  0  0  0  0  0  0  0  0  0
    0.0419    1.4868   -2.4817 C   0  0  0  0  0  0  0  0  0  0  0  0
    1.3962    3.5845   -0.0927 C   0  0  0  0  0  0  0  0  0  0  0  0
    2.4688    4.0443    1.3368 S   0  0  0  0  0  0  0  0  0  0  0  0
    2.6669    2.2178    3.6596 H   0  0  0  0  0  0  0  0  0  0  0  0
    3.9848    1.1278    3.1665 H   0  0  0  0  0  0  0  0  0  0  0  0
    4.3010    2.8662    3.3815 H   0  0  0  0  0  0  0  0  0  0  0  0
    2.9847    0.8895   -0.9641 H   0  0  0  0  0  0  0  0  0  0  0  0
    2.4723    2.3353   -1.8678 H   0  0  0  0  0  0  0  0  0  0  0  0
    1.6010   -1.0803   -0.9635 H   0  0  0  0  0  0  0  0  0  0  0  0
    0.0637   -1.0866   -1.8612 H   0  0  0  0  0  0  0  0  0  0  0  0
    0.5207   -0.3671    0.8893 H   0  0  0  0  0  0  0  0  0  0  0  0
   -1.0199   -0.3831   -0.0043 H   0  0  0  0  0  0  0  0  0  0  0  0
   -0.5361    1.8920    0.8986 H   0  0  0  0  0  0  0  0  0  0  0  0
   -1.7429    1.6495   -1.2822 H   0  0  0  0  0  0  0  0  0  0  0  0
   -0.7202    3.1089   -1.2821 H   0  0  0  0  0  0  0  0  0  0  0  0
    0.4007    2.3237   -3.0809 H   0  0  0  0  0  0  0  0  0  0  0  0
   -0.6229    0.8671   -3.0834 H   0  0  0  0  0  0  0  0  0  0  0  0
    1.8243    3.9321   -1.0329 H   0  0  0  0  0  0  0  0  0  0  0  0
    0.3825    3.9629    0.0390 H   0  0  0  0  0  0  0  0  0  0  0  0
    1.1992    0.6731   -2.0529 N   0  3  1  0  0  0  0  0  0  0  0  0
    1.6899    0.3269   -2.8856 H   0  0  0  0  0  0  0  0  0  0  0  0
  1  2  1  0  0  0  0
  1 14  1  0  0  0  0
  1 15  1  0  0  0  0
  1 16  1  0  0  0  0
  2  3  1  6  0  0  0
  2 13  1  0  0  0  0
  2  4  1  0  0  0  0
  5  4  1  1  0  0  0
  5  9  1  0  0  0  0
  5  6  1  0  0  0  0
  5 12  1  0  0  0  0
  6 17  1  0  0  0  0
  6 18  1  0  0  0  0
  6 30  1  0  0  0  0
  7  8  1  0  0  0  0
  7 19  1  0  0  0  0
  7 20  1  0  0  0  0
  7 30  1  0  0  0  0
  8  9  1  0  0  0  0
  8 21  1  0  0  0  0
  8 22  1  0  0  0  0
  9 10  1  0  0  0  0
  9 23  1  1  0  0  0
 10 11  1  0  0  0  0
 10 24  1  0  0  0  0
 10 25  1  0  0  0  0
 11 26  1  0  0  0  0
 11 27  1  0  0  0  0
 11 30  1  0  0  0  0
 12 13  1  0  0  0  0
 12 28  1  0  0  0  0
 12 29  1  0  0  0  0
 30 31  1  6  0  0  0
M  CHG  1  30   1
M  END
$$$$
