ZINC00000652
 OpenBabel08292219463D

 42 42  0  0  1  0  0  0  0  0999 V2000
   -0.0334    1.5172   -0.5288 C   0  0  0  0  0  0  0  0  0  0  0  0
   -0.0197   -0.0124   -0.5603 C   0  0  0  0  0  0  0  0  0  0  0  0
    0.8916   -0.5373    0.5509 C   0  0  0  0  0  0  0  0  0  0  0  0
   -1.3834   -0.5186   -0.3553 N   0  3  0  0  0  0  0  0  0  0  0  0
   -1.3908   -1.9800   -0.5045 C   0  0  0  0  0  0  0  0  0  0  0  0
   -2.8111   -2.5073   -0.2910 C   0  0  2  0  0  0  0  0  0  0  0  0
   -3.1835   -2.1671    0.6753 H   0  0  0  0  0  0  0  0  0  0  0  0
   -2.7975   -4.0369   -0.3225 C   0  0  0  0  0  0  0  0  0  0  0  0
   -4.1007   -4.5315   -0.0079 O   0  0  0  0  0  0  0  0  0  0  0  0
   -4.2615   -5.8815    0.0072 C   0  0  0  0  0  0  0  0  0  0  0  0
   -3.1847   -6.7111   -0.2696 C   0  0  0  0  0  0  0  0  0  0  0  0
   -3.3474   -8.0823   -0.2545 C   0  0  0  0  0  0  0  0  0  0  0  0
   -4.5890   -8.6306    0.0379 C   0  0  0  0  0  0  0  0  0  0  0  0
   -5.6664   -7.7997    0.3149 C   0  0  0  0  0  0  0  0  0  0  0  0
   -5.5010   -6.4288    0.3050 C   0  0  0  0  0  0  0  0  0  0  0  0
   -4.7549  -10.0218    0.0530 N   0  0  0  0  0  0  0  0  0  0  0  0
   -3.7422  -10.8169    0.4516 C   0  0  0  0  0  0  0  0  0  0  0  0
   -2.7219  -10.3269    0.8875 O   0  0  0  0  0  0  0  0  0  0  0  0
   -3.8777  -12.3147    0.3557 C   0  0  0  0  0  0  0  0  0  0  0  0
   -3.6623   -2.0170   -1.3289 O   0  0  0  0  0  0  0  0  0  0  0  0
    0.9785    1.8928   -0.6809 H   0  0  0  0  0  0  0  0  0  0  0  0
   -0.6826    1.8912   -1.3205 H   0  0  0  0  0  0  0  0  0  0  0  0
   -0.4058    1.8574    0.4375 H   0  0  0  0  0  0  0  0  0  0  0  0
    0.3527   -0.3526   -1.5266 H   0  0  0  0  0  0  0  0  0  0  0  0
    1.9034   -0.1617    0.3988 H   0  0  0  0  0  0  0  0  0  0  0  0
    0.5192   -0.1971    1.5172 H   0  0  0  0  0  0  0  0  0  0  0  0
    0.9013   -1.6270    0.5285 H   0  0  0  0  0  0  0  0  0  0  0  0
   -1.6973   -0.2736    0.5717 H   0  0  0  0  0  0  0  0  0  0  0  0
   -1.0517   -2.2448   -1.5060 H   0  0  0  0  0  0  0  0  0  0  0  0
   -0.7236   -2.4240    0.2343 H   0  0  0  0  0  0  0  0  0  0  0  0
   -2.5100   -4.3772   -1.3173 H   0  0  0  0  0  0  0  0  0  0  0  0
   -2.0810   -4.4090    0.4099 H   0  0  0  0  0  0  0  0  0  0  0  0
   -2.2191   -6.2845   -0.4974 H   0  0  0  0  0  0  0  0  0  0  0  0
   -2.5091   -8.7281   -0.4704 H   0  0  0  0  0  0  0  0  0  0  0  0
   -6.6325   -8.2255    0.5420 H   0  0  0  0  0  0  0  0  0  0  0  0
   -6.3378   -5.7824    0.5247 H   0  0  0  0  0  0  0  0  0  0  0  0
   -5.5985  -10.4127   -0.2234 H   0  0  0  0  0  0  0  0  0  0  0  0
   -4.8552  -12.5655   -0.0561 H   0  0  0  0  0  0  0  0  0  0  0  0
   -3.0972  -12.7092   -0.2950 H   0  0  0  0  0  0  0  0  0  0  0  0
   -3.7785  -12.7528    1.3488 H   0  0  0  0  0  0  0  0  0  0  0  0
   -3.3904   -2.2816   -2.2184 H   0  0  0  0  0  0  0  0  0  0  0  0
   -2.0011   -0.1076   -1.0392 H   0  0  0  0  0  0  0  0  0  0  0  0
  1  2  1  0  0  0  0
  1 21  1  0  0  0  0
  1 22  1  0  0  0  0
  1 23  1  0  0  0  0
  2  3  1  0  0  0  0
  2  4  1  0  0  0  0
  2 24  1  0  0  0  0
  3 25  1  0  0  0  0
  3 26  1  0  0  0  0
  3 27  1  0  0  0  0
  4  5  1  0  0  0  0
  4 28  1  0  0  0  0
  4 42  1  0  0  0  0
  5  6  1  0  0  0  0
  5 29  1  0  0  0  0
  5 30  1  0  0  0  0
  6  7  1  1  0  0  0
  6  8  1  0  0  0  0
  6 20  1  0  0  0  0
  8  9  1  0  0  0  0
  8 31  1  0  0  0  0
  8 32  1  0  0  0  0
  9 10  1  0  0  0  0
 10 15  2  0  0  0  0
 10 11  1  0  0  0  0
 11 12  2  0  0  0  0
 11 33  1  0  0  0  0
 12 13  1  0  0  0  0
 12 34  1  0  0  0  0
 13 14  2  0  0  0  0
 13 16  1  0  0  0  0
 14 15  1  0  0  0  0
 14 35  1  0  0  0  0
 15 36  1  0  0  0  0
 16 17  1  0  0  0  0
 16 37  1  0  0  0  0
 17 18  2  0  0  0  0
 17 19  1  0  0  0  0
 19 38  1  0  0  0  0
 19 39  1  0  0  0  0
 19 40  1  0  0  0  0
 20 41  1  0  0  0  0
M  CHG  1   4   1
M  END
$$$$
