ZINC03786192
 OpenBabel08292219463D

 41 43  0  0  0  0  0  0  0  0999 V2000
   -0.0445    1.3608   -0.6508 C   0  0  0  0  0  0  0  0  0  0  0  0
   -0.0027   -0.0408   -0.0987 C   0  0  0  0  0  0  0  0  0  0  0  0
   -1.0744   -0.7892    0.2213 C   0  0  0  0  0  0  0  0  0  0  0  0
   -0.6380   -2.0942    0.7261 C   0  0  0  0  0  0  0  0  0  0  0  0
   -1.3380   -3.2138    1.1845 C   0  0  0  0  0  0  0  0  0  0  0  0
   -0.6459   -4.3303    1.6095 C   0  0  0  0  0  0  0  0  0  0  0  0
    0.7422   -4.3522    1.5866 C   0  0  0  0  0  0  0  0  0  0  0  0
    1.4511   -3.2562    1.1379 C   0  0  0  0  0  0  0  0  0  0  0  0
    0.7722   -2.1229    0.7050 C   0  0  0  0  0  0  0  0  0  0  0  0
    1.2139   -0.8168    0.1726 C   0  0  0  0  0  0  0  0  0  0  0  0
    2.5017   -0.4100   -0.0251 C   0  0  0  0  0  0  0  0  0  0  0  0
    3.6000   -1.3789    0.0695 C   0  0  0  0  0  0  0  0  0  0  0  0
    3.4841   -2.6362   -0.5364 C   0  0  0  0  0  0  0  0  0  0  0  0
    4.5207   -3.5398   -0.4429 C   0  0  0  0  0  0  0  0  0  0  0  0
    5.6737   -3.2078    0.2477 C   0  0  0  0  0  0  0  0  0  0  0  0
    5.7967   -1.9671    0.8497 C   0  0  0  0  0  0  0  0  0  0  0  0
    4.7723   -1.0492    0.7613 C   0  0  0  0  0  0  0  0  0  0  0  0
    6.9921   -4.3712    0.3618 S   0  0  2  0  0  0  0  0  0  0  0  0
    7.6871   -3.9886    1.5407 O   0  0  0  0  0  0  0  0  0  0  0  0
    8.0201   -4.0131   -1.0893 C   0  0  0  0  0  0  0  0  0  0  0  0
   -1.3254   -5.4109    2.0520 F   0  0  0  0  0  0  0  0  0  0  0  0
   -2.5094   -0.3509    0.0814 C   0  0  0  0  0  0  0  0  0  0  0  0
   -3.0558   -0.8335   -1.2375 C   0  0  0  0  0  0  0  0  0  0  0  0
   -2.3458   -1.4741   -1.9938 O   0  0  0  0  0  0  0  0  0  0  0  0
   -4.2080   -0.5834   -1.5483 O   0  0  0  0  0  1  0  0  0  0  0  0
    0.9723    1.7154   -0.8195 H   0  0  0  0  0  0  0  0  0  0  0  0
   -0.5915    1.3638   -1.5936 H   0  0  0  0  0  0  0  0  0  0  0  0
   -0.5446    2.0171    0.0615 H   0  0  0  0  0  0  0  0  0  0  0  0
   -2.4177   -3.2054    1.2064 H   0  0  0  0  0  0  0  0  0  0  0  0
    1.2706   -5.2322    1.9224 H   0  0  0  0  0  0  0  0  0  0  0  0
    2.5308   -3.2791    1.1228 H   0  0  0  0  0  0  0  0  0  0  0  0
    2.7125    0.6248   -0.2511 H   0  0  0  0  0  0  0  0  0  0  0  0
    2.5851   -2.8971   -1.0749 H   0  0  0  0  0  0  0  0  0  0  0  0
    4.4331   -4.5099   -0.9095 H   0  0  0  0  0  0  0  0  0  0  0  0
    6.6995   -1.7164    1.3868 H   0  0  0  0  0  0  0  0  0  0  0  0
    4.8716   -0.0802    1.2276 H   0  0  0  0  0  0  0  0  0  0  0  0
    8.3751   -2.9838   -1.0380 H   0  0  0  0  0  0  0  0  0  0  0  0
    8.8733   -4.6913   -1.1064 H   0  0  0  0  0  0  0  0  0  0  0  0
    7.4296   -4.1491   -1.9953 H   0  0  0  0  0  0  0  0  0  0  0  0
   -3.0992   -0.7727    0.8953 H   0  0  0  0  0  0  0  0  0  0  0  0
   -2.5624    0.7372    0.1203 H   0  0  0  0  0  0  0  0  0  0  0  0
  1  2  1  0  0  0  0
  1 26  1  0  0  0  0
  1 27  1  0  0  0  0
  1 28  1  0  0  0  0
  2 10  1  0  0  0  0
  2  3  2  0  0  0  0
  3  4  1  0  0  0  0
  3 22  1  0  0  0  0
  4  9  2  0  0  0  0
  4  5  1  0  0  0  0
  5  6  2  0  0  0  0
  5 29  1  0  0  0  0
  6  7  1  0  0  0  0
  6 21  1  0  0  0  0
  7  8  2  0  0  0  0
  7 30  1  0  0  0  0
  8  9  1  0  0  0  0
  8 31  1  0  0  0  0
  9 10  1  0  0  0  0
 10 11  2  0  0  0  0
 11 12  1  0  0  0  0
 11 32  1  0  0  0  0
 12 17  2  0  0  0  0
 12 13  1  0  0  0  0
 13 14  2  0  0  0  0
 13 33  1  0  0  0  0
 14 15  1  0  0  0  0
 14 34  1  0  0  0  0
 15 16  2  0  0  0  0
 15 18  1  0  0  0  0
 16 17  1  0  0  0  0
 16 35  1  0  0  0  0
 17 36  1  0  0  0  0
 18 19  2  1  0  0  0
 18 20  1  0  0  0  0
 20 37  1  0  0  0  0
 20 38  1  0  0  0  0
 20 39  1  0  0  0  0
 22 23  1  0  0  0  0
 22 40  1  0  0  0  0
 22 41  1  0  0  0  0
 23 24  2  0  0  0  0
 23 25  1  0  0  0  0
M  END
$$$$
