ZINC19203912
 OpenBabel08292219463D

 57 60  0  0  0  0  0  0  0  0999 V2000
    3.4437   -4.9771    0.0368 C   0  0  0  0  0  0  0  0  0  0  0  0
    4.3861   -4.5771    0.9651 C   0  0  0  0  0  0  0  0  0  0  0  0
    4.2792   -3.3364    1.5664 C   0  0  0  0  0  0  0  0  0  0  0  0
    3.2267   -2.4926    1.2411 C   0  0  0  0  0  0  0  0  0  0  0  0
    2.2729   -2.8934    0.3097 C   0  0  0  0  0  0  0  0  0  0  0  0
    2.3926   -4.1422   -0.2915 C   0  0  0  0  0  0  0  0  0  0  0  0
    1.1945   -2.0826   -0.0347 N   0  0  0  0  0  0  0  0  0  0  0  0
    1.1709   -0.6955    0.0853 C   0  0  0  0  0  0  0  0  0  0  0  0
    0.3025    0.0332   -0.7210 C   0  0  0  0  0  0  0  0  0  0  0  0
    0.2496    1.4106   -0.6236 C   0  0  0  0  0  0  0  0  0  0  0  0
    1.0603    2.0760    0.2765 C   0  0  0  0  0  0  0  0  0  0  0  0
    1.9293    1.3621    1.0812 C   0  0  0  0  0  0  0  0  0  0  0  0
    1.9888   -0.0211    0.9875 C   0  0  0  0  0  0  0  0  0  0  0  0
    3.1095   -0.9136    2.0128 S   0  0  0  0  0  0  0  0  0  0  0  0
   -0.6948    2.1899   -1.5021 C   0  0  0  0  0  0  0  0  0  0  0  0
   -1.9265    2.3299   -0.8537 F   0  0  0  0  0  0  0  0  0  0  0  0
   -0.1562    3.4554   -1.7584 F   0  0  0  0  0  0  0  0  0  0  0  0
   -0.8783    1.5079   -2.7097 F   0  0  0  0  0  0  0  0  0  0  0  0
   -0.0045   -2.7378   -0.5632 C   0  0  0  0  0  0  0  0  0  0  0  0
    0.1003   -2.8415   -2.0861 C   0  0  0  0  0  0  0  0  0  0  0  0
   -1.1519   -3.5258   -2.6381 C   0  0  0  0  0  0  0  0  0  0  0  0
   -1.0512   -3.6254   -4.1003 N   0  3  0  0  0  0  0  0  0  0  0  0
   -1.0537   -2.2775   -4.6839 C   0  0  0  0  0  0  0  0  0  0  0  0
   -0.9298   -2.3801   -6.2057 C   0  0  0  0  0  0  0  0  0  0  0  0
   -2.0555   -3.1635   -6.7342 N   0  0  0  0  0  0  0  0  0  0  0  0
   -2.0806   -4.5075   -6.1400 C   0  0  0  0  0  0  0  0  0  0  0  0
   -2.1949   -4.3874   -4.6187 C   0  0  0  0  0  0  0  0  0  0  0  0
   -2.0033   -3.2371   -8.2004 C   0  0  0  0  0  0  0  0  0  0  0  0
   -3.3078   -3.8378   -8.7277 C   0  0  0  0  0  0  0  0  0  0  0  0
   -4.3924   -2.9556   -8.4318 O   0  0  0  0  0  0  0  0  0  0  0  0
    3.5314   -5.9436   -0.4370 H   0  0  0  0  0  0  0  0  0  0  0  0
    5.2052   -5.2329    1.2209 H   0  0  0  0  0  0  0  0  0  0  0  0
    5.0162   -3.0236    2.2912 H   0  0  0  0  0  0  0  0  0  0  0  0
    1.6604   -4.4608   -1.0187 H   0  0  0  0  0  0  0  0  0  0  0  0
   -0.3339   -0.4802   -1.4266 H   0  0  0  0  0  0  0  0  0  0  0  0
    1.0153    3.1525    0.3512 H   0  0  0  0  0  0  0  0  0  0  0  0
    2.5627    1.8822    1.7845 H   0  0  0  0  0  0  0  0  0  0  0  0
   -0.0908   -3.7369   -0.1361 H   0  0  0  0  0  0  0  0  0  0  0  0
   -0.8850   -2.1522   -0.2987 H   0  0  0  0  0  0  0  0  0  0  0  0
    0.1866   -1.8424   -2.5133 H   0  0  0  0  0  0  0  0  0  0  0  0
    0.9808   -3.4271   -2.3506 H   0  0  0  0  0  0  0  0  0  0  0  0
   -1.2382   -4.5248   -2.2109 H   0  0  0  0  0  0  0  0  0  0  0  0
   -2.0324   -2.9402   -2.3736 H   0  0  0  0  0  0  0  0  0  0  0  0
   -1.9853   -1.7726   -4.4284 H   0  0  0  0  0  0  0  0  0  0  0  0
   -0.2120   -1.7088   -4.2884 H   0  0  0  0  0  0  0  0  0  0  0  0
   -0.9466   -1.3806   -6.6402 H   0  0  0  0  0  0  0  0  0  0  0  0
    0.0081   -2.8727   -6.4619 H   0  0  0  0  0  0  0  0  0  0  0  0
   -2.9369   -5.0601   -6.5265 H   0  0  0  0  0  0  0  0  0  0  0  0
   -1.1616   -5.0352   -6.3950 H   0  0  0  0  0  0  0  0  0  0  0  0
   -2.1994   -5.3829   -4.1749 H   0  0  0  0  0  0  0  0  0  0  0  0
   -3.1207   -3.8717   -4.3635 H   0  0  0  0  0  0  0  0  0  0  0  0
   -1.8729   -2.2354   -8.6100 H   0  0  0  0  0  0  0  0  0  0  0  0
   -1.1655   -3.8653   -8.5031 H   0  0  0  0  0  0  0  0  0  0  0  0
   -3.2348   -3.9748   -9.8066 H   0  0  0  0  0  0  0  0  0  0  0  0
   -3.4830   -4.8019   -8.2501 H   0  0  0  0  0  0  0  0  0  0  0  0
   -5.2528   -3.2736   -8.7380 H   0  0  0  0  0  0  0  0  0  0  0  0
   -0.1938   -4.0966   -4.3468 H   0  0  0  0  0  0  0  0  0  0  0  0
  1  6  2  0  0  0  0
  1  2  1  0  0  0  0
  1 31  1  0  0  0  0
  2  3  2  0  0  0  0
  2 32  1  0  0  0  0
  3  4  1  0  0  0  0
  3 33  1  0  0  0  0
  4 14  1  0  0  0  0
  4  5  2  0  0  0  0
  5  6  1  0  0  0  0
  5  7  1  0  0  0  0
  6 34  1  0  0  0  0
  7  8  1  0  0  0  0
  7 19  1  0  0  0  0
  8 13  2  0  0  0  0
  8  9  1  0  0  0  0
  9 10  2  0  0  0  0
  9 35  1  0  0  0  0
 10 11  1  0  0  0  0
 10 15  1  0  0  0  0
 11 12  2  0  0  0  0
 11 36  1  0  0  0  0
 12 13  1  0  0  0  0
 12 37  1  0  0  0  0
 13 14  1  0  0  0  0
 15 16  1  0  0  0  0
 15 17  1  0  0  0  0
 15 18  1  0  0  0  0
 19 20  1  0  0  0  0
 19 38  1  0  0  0  0
 19 39  1  0  0  0  0
 20 21  1  0  0  0  0
 20 40  1  0  0  0  0
 20 41  1  0  0  0  0
 21 22  1  0  0  0  0
 21 42  1  0  0  0  0
 21 43  1  0  0  0  0
 22 27  1  0  0  0  0
 22 23  1  0  0  0  0
 22 57  1  0  0  0  0
 23 24  1  0  0  0  0
 23 44  1  0  0  0  0
 23 45  1  0  0  0  0
 24 25  1  0  0  0  0
 24 46  1  0  0  0  0
 24 47  1  0  0  0  0
 25 26  1  0  0  0  0
 25 28  1  0  0  0  0
 26 27  1  0  0  0  0
 26 48  1  0  0  0  0
 26 49  1  0  0  0  0
 27 50  1  0  0  0  0
 27 51  1  0  0  0  0
 28 29  1  0  0  0  0
 28 52  1  0  0  0  0
 28 53  1  0  0  0  0
 29 30  1  0  0  0  0
 29 54  1  0  0  0  0
 29 55  1  0  0  0  0
 30 56  1  0  0  0  0
M  CHG  1  22   1
M  END
$$$$
