ZINC00083315
 OpenBabel08292219463D

 27 28  0  0  1  0  0  0  0  0999 V2000
   -0.0165    1.3620    0.0095 C   0  0  0  0  0  0  0  0  0  0  0  0
    1.1697    2.0834    0.0021 C   0  0  0  0  0  0  0  0  0  0  0  0
    2.3856    1.4362   -0.0134 C   0  0  0  0  0  0  0  0  0  0  0  0
    2.4281    0.0456   -0.0212 C   0  0  0  0  0  0  0  0  0  0  0  0
    1.2234   -0.6807   -0.0132 C   0  0  0  0  0  0  0  0  0  0  0  0
    0.0021   -0.0041    0.0020 C   0  0  0  0  0  0  0  0  0  0  0  0
    1.6036   -2.0953   -0.0245 C   0  0  0  0  0  0  0  0  0  0  0  0
    2.9451   -2.1410   -0.0380 C   0  0  0  0  0  0  0  0  0  0  0  0
    3.4551   -0.8713   -0.0363 N   0  0  0  0  0  0  0  0  0  0  0  0
    4.3995   -0.6501   -0.0442 H   0  0  0  0  0  0  0  0  0  0  0  0
    0.6664   -3.2754   -0.0210 C   0  0  0  0  0  0  0  0  0  0  0  0
    0.2361   -3.5891   -1.4554 C   0  0  1  0  0  0  0  0  0  0  0  0
    1.1200   -3.7379   -2.0756 H   0  0  0  0  0  0  0  0  0  0  0  0
   -0.6016   -4.8418   -1.4659 C   0  0  0  0  0  0  0  0  0  0  0  0
   -1.8116   -4.7672   -1.3360 O   0  0  0  0  0  0  0  0  0  0  0  0
   -0.0693   -5.9300   -1.6044 O   0  0  0  0  0  1  0  0  0  0  0  0
   -0.5518   -2.4687   -1.9863 N   0  3  0  0  0  0  0  0  0  0  0  0
   -0.9613    1.8849    0.0259 H   0  0  0  0  0  0  0  0  0  0  0  0
    1.1388    3.1630    0.0081 H   0  0  0  0  0  0  0  0  0  0  0  0
    3.3028    2.0064   -0.0198 H   0  0  0  0  0  0  0  0  0  0  0  0
   -0.9246   -0.5587    0.0082 H   0  0  0  0  0  0  0  0  0  0  0  0
    3.5346   -3.0459   -0.0490 H   0  0  0  0  0  0  0  0  0  0  0  0
    1.1742   -4.1414    0.4036 H   0  0  0  0  0  0  0  0  0  0  0  0
   -0.2127   -3.0396    0.5787 H   0  0  0  0  0  0  0  0  0  0  0  0
    0.0090   -1.6300   -1.9793 H   0  0  0  0  0  0  0  0  0  0  0  0
   -0.8356   -2.6756   -2.9322 H   0  0  0  0  0  0  0  0  0  0  0  0
   -1.3700   -2.3311   -1.4122 H   0  0  0  0  0  0  0  0  0  0  0  0
  1  6  2  0  0  0  0
  1  2  1  0  0  0  0
  1 18  1  0  0  0  0
  2  3  2  0  0  0  0
  2 19  1  0  0  0  0
  3  4  1  0  0  0  0
  3 20  1  0  0  0  0
  4  9  1  0  0  0  0
  4  5  2  0  0  0  0
  5  6  1  0  0  0  0
  5  7  1  0  0  0  0
  6 21  1  0  0  0  0
  7  8  2  0  0  0  0
  7 11  1  0  0  0  0
  8  9  1  0  0  0  0
  8 22  1  0  0  0  0
  9 10  1  0  0  0  0
 11 12  1  0  0  0  0
 11 23  1  0  0  0  0
 11 24  1  0  0  0  0
 12 13  1  6  0  0  0
 12 14  1  0  0  0  0
 12 17  1  0  0  0  0
 14 15  2  0  0  0  0
 14 16  1  0  0  0  0
 17 25  1  0  0  0  0
 17 26  1  0  0  0  0
 17 27  1  0  0  0  0
M  CHG  1  17   1
M  END
$$$$
