ZINC03977764
 OpenBabel08292219463D

 84 86  0  0  1  0  0  0  0  0999 V2000
    0.3615    1.9175   -0.8227 C   0  0  0  0  0  0  0  0  0  0  0  0
    0.3416    0.3920   -0.9384 C   0  0  0  0  0  0  0  0  0  0  0  0
   -1.0464   -0.1160   -0.6445 C   0  0  0  0  0  0  0  0  0  0  0  0
   -1.9292    0.6623   -0.3706 O   0  0  0  0  0  0  0  0  0  0  0  0
   -1.3021   -1.4330   -0.6870 O   0  0  0  0  0  0  0  0  0  0  0  0
   -2.6613   -1.8505   -0.3928 C   0  0  2  0  0  0  0  0  0  0  0  0
   -2.9916   -1.3846    0.5356 H   0  0  0  0  0  0  0  0  0  0  0  0
   -2.7064   -3.3725   -0.2438 C   0  0  0  0  0  0  0  0  0  0  0  0
   -2.3400   -3.8382   -1.1587 H   0  0  0  0  0  0  0  0  0  0  0  0
   -1.8246   -3.7961    0.9325 C   0  0  0  0  0  0  0  0  0  0  0  0
   -4.1476   -3.8174    0.0130 C   0  0  0  0  0  0  0  0  0  0  0  0
   -3.5239   -1.4505   -1.4597 O   0  0  0  0  0  0  0  0  0  0  0  0
   -5.0159   -0.8951   -1.2197 P   0  0  2  0  0  0  0  0  0  0  0  0
   -5.8072   -1.9078   -0.4857 O   0  0  0  0  0  0  0  0  0  0  0  0
   -5.8043   -0.5568   -2.8282 C   0  0  0  0  0  0  0  0  0  0  0  0
   -5.9794   -1.8683   -3.5963 C   0  0  0  0  0  0  0  0  0  0  0  0
   -6.6411   -1.5843   -4.9463 C   0  0  0  0  0  0  0  0  0  0  0  0
   -6.8161   -2.8959   -5.7144 C   0  0  0  0  0  0  0  0  0  0  0  0
   -7.4679   -2.6162   -7.0441 C   0  0  0  0  0  0  0  0  0  0  0  0
   -8.8454   -2.6410   -7.1574 C   0  0  0  0  0  0  0  0  0  0  0  0
   -9.4434   -2.3797   -8.3760 C   0  0  0  0  0  0  0  0  0  0  0  0
   -8.6636   -2.1038   -9.4836 C   0  0  0  0  0  0  0  0  0  0  0  0
   -7.2860   -2.0841   -9.3714 C   0  0  0  0  0  0  0  0  0  0  0  0
   -6.6881   -2.3403   -8.1516 C   0  0  0  0  0  0  0  0  0  0  0  0
   -4.9421    0.6428   -0.2436 C   0  0  0  0  0  0  0  0  0  0  0  0
   -4.4774    0.3282    1.1550 C   0  0  0  0  0  0  0  0  0  0  0  0
   -3.2973    0.3843    1.4289 O   0  0  0  0  0  0  0  0  0  0  0  0
   -5.3733   -0.0154    2.1015 N   0  0  0  0  0  0  0  0  0  0  0  0
   -6.8146   -0.2336    1.8815 C   0  0  0  0  0  0  0  0  0  0  0  0
   -7.2548   -1.1687    3.0355 C   0  0  1  0  0  0  0  0  0  0  0  0
   -7.0101   -2.2070    2.8119 H   0  0  0  0  0  0  0  0  0  0  0  0
   -6.3967   -0.6353    4.2131 C   0  0  0  0  0  0  0  0  0  0  0  0
   -5.0740   -0.2408    3.5232 C   0  0  1  0  0  0  0  0  0  0  0  0
   -4.6839    0.6740    3.9694 H   0  0  0  0  0  0  0  0  0  0  0  0
   -4.0674   -1.3533    3.6648 C   0  0  0  0  0  0  0  0  0  0  0  0
   -3.9272   -2.1582    2.7747 O   0  0  0  0  0  0  0  0  0  0  0  0
   -8.7480   -1.0113    3.3296 C   0  0  0  0  0  0  0  0  0  0  0  0
   -8.9594    0.0254    3.5918 H   0  0  0  0  0  0  0  0  0  0  0  0
   -9.1367   -1.9218    4.4962 C   0  0  0  0  0  0  0  0  0  0  0  0
  -10.6299   -1.7644    4.7903 C   0  0  0  0  0  0  0  0  0  0  0  0
  -11.4377   -2.1516    3.5500 C   0  0  0  0  0  0  0  0  0  0  0  0
  -11.0489   -1.2411    2.3835 C   0  0  0  0  0  0  0  0  0  0  0  0
   -9.5557   -1.3985    2.0893 C   0  0  0  0  0  0  0  0  0  0  0  0
    1.3654    2.2849   -1.0353 H   0  0  0  0  0  0  0  0  0  0  0  0
   -0.3410    2.3454   -1.5379 H   0  0  0  0  0  0  0  0  0  0  0  0
    0.0743    2.2091    0.1875 H   0  0  0  0  0  0  0  0  0  0  0  0
    0.6288    0.1005   -1.9487 H   0  0  0  0  0  0  0  0  0  0  0  0
    1.0441   -0.0358   -0.2232 H   0  0  0  0  0  0  0  0  0  0  0  0
   -2.1910   -3.3305    1.8474 H   0  0  0  0  0  0  0  0  0  0  0  0
   -1.8567   -4.8805    1.0387 H   0  0  0  0  0  0  0  0  0  0  0  0
   -0.7978   -3.4792    0.7496 H   0  0  0  0  0  0  0  0  0  0  0  0
   -4.7456   -3.6464   -0.8821 H   0  0  0  0  0  0  0  0  0  0  0  0
   -4.1614   -4.8784    0.2620 H   0  0  0  0  0  0  0  0  0  0  0  0
   -4.5625   -3.2442    0.8421 H   0  0  0  0  0  0  0  0  0  0  0  0
   -6.7797   -0.0981   -2.6654 H   0  0  0  0  0  0  0  0  0  0  0  0
   -5.1758    0.1213   -3.4054 H   0  0  0  0  0  0  0  0  0  0  0  0
   -5.0040   -2.3270   -3.7591 H   0  0  0  0  0  0  0  0  0  0  0  0
   -6.6079   -2.5464   -3.0190 H   0  0  0  0  0  0  0  0  0  0  0  0
   -7.6164   -1.1257   -4.7835 H   0  0  0  0  0  0  0  0  0  0  0  0
   -6.0125   -0.9063   -5.5235 H   0  0  0  0  0  0  0  0  0  0  0  0
   -5.8408   -3.3546   -5.8772 H   0  0  0  0  0  0  0  0  0  0  0  0
   -7.4447   -3.5740   -5.1371 H   0  0  0  0  0  0  0  0  0  0  0  0
   -9.4545   -2.8609   -6.2931 H   0  0  0  0  0  0  0  0  0  0  0  0
  -10.5197   -2.3954   -8.4637 H   0  0  0  0  0  0  0  0  0  0  0  0
   -9.1307   -1.9040  -10.4366 H   0  0  0  0  0  0  0  0  0  0  0  0
   -6.6767   -1.8690  -10.2368 H   0  0  0  0  0  0  0  0  0  0  0  0
   -5.6118   -2.3253   -8.0641 H   0  0  0  0  0  0  0  0  0  0  0  0
   -4.2436    1.3367   -0.7111 H   0  0  0  0  0  0  0  0  0  0  0  0
   -5.9327    1.0959   -0.2041 H   0  0  0  0  0  0  0  0  0  0  0  0
   -7.3538    0.7123    1.9331 H   0  0  0  0  0  0  0  0  0  0  0  0
   -6.9828   -0.7133    0.9173 H   0  0  0  0  0  0  0  0  0  0  0  0
   -6.8698    0.2323    4.6729 H   0  0  0  0  0  0  0  0  0  0  0  0
   -6.2279   -1.4180    4.9526 H   0  0  0  0  0  0  0  0  0  0  0  0
   -8.9253   -2.9584    4.2340 H   0  0  0  0  0  0  0  0  0  0  0  0
   -8.5613   -1.6459    5.3798 H   0  0  0  0  0  0  0  0  0  0  0  0
  -10.8413   -0.7277    5.0525 H   0  0  0  0  0  0  0  0  0  0  0  0
  -10.9068   -2.4130    5.6214 H   0  0  0  0  0  0  0  0  0  0  0  0
  -12.5014   -2.0395    3.7596 H   0  0  0  0  0  0  0  0  0  0  0  0
  -11.2263   -3.1883    3.2878 H   0  0  0  0  0  0  0  0  0  0  0  0
  -11.2603   -0.2045    2.6456 H   0  0  0  0  0  0  0  0  0  0  0  0
  -11.6244   -1.5170    1.4998 H   0  0  0  0  0  0  0  0  0  0  0  0
   -9.2788   -0.7499    1.2582 H   0  0  0  0  0  0  0  0  0  0  0  0
   -9.3444   -2.4352    1.8271 H   0  0  0  0  0  0  0  0  0  0  0  0
   -3.3264   -1.4500    4.7799 O   0  0  0  0  0  1  0  0  0  0  0  0
  1  2  1  0  0  0  0
  1 44  1  0  0  0  0
  1 45  1  0  0  0  0
  1 46  1  0  0  0  0
  2  3  1  0  0  0  0
  2 47  1  0  0  0  0
  2 48  1  0  0  0  0
  3  4  2  0  0  0  0
  3  5  1  0  0  0  0
  5  6  1  0  0  0  0
  6  7  1  1  0  0  0
  6  8  1  0  0  0  0
  6 12  1  0  0  0  0
  8  9  1  0  0  0  0
  8 10  1  0  0  0  0
  8 11  1  0  0  0  0
 10 49  1  0  0  0  0
 10 50  1  0  0  0  0
 10 51  1  0  0  0  0
 11 52  1  0  0  0  0
 11 53  1  0  0  0  0
 11 54  1  0  0  0  0
 12 13  1  0  0  0  0
 13 14  2  1  0  0  0
 13 15  1  0  0  0  0
 13 25  1  0  0  0  0
 15 16  1  0  0  0  0
 15 55  1  0  0  0  0
 15 56  1  0  0  0  0
 16 17  1  0  0  0  0
 16 57  1  0  0  0  0
 16 58  1  0  0  0  0
 17 18  1  0  0  0  0
 17 59  1  0  0  0  0
 17 60  1  0  0  0  0
 18 19  1  0  0  0  0
 18 61  1  0  0  0  0
 18 62  1  0  0  0  0
 19 24  2  0  0  0  0
 19 20  1  0  0  0  0
 20 21  2  0  0  0  0
 20 63  1  0  0  0  0
 21 22  1  0  0  0  0
 21 64  1  0  0  0  0
 22 23  2  0  0  0  0
 22 65  1  0  0  0  0
 23 24  1  0  0  0  0
 23 66  1  0  0  0  0
 24 67  1  0  0  0  0
 25 26  1  0  0  0  0
 25 68  1  0  0  0  0
 25 69  1  0  0  0  0
 26 27  2  0  0  0  0
 26 28  1  0  0  0  0
 28 33  1  0  0  0  0
 28 29  1  0  0  0  0
 29 30  1  0  0  0  0
 29 70  1  0  0  0  0
 29 71  1  0  0  0  0
 30 31  1  6  0  0  0
 30 32  1  0  0  0  0
 30 37  1  0  0  0  0
 32 33  1  0  0  0  0
 32 72  1  0  0  0  0
 32 73  1  0  0  0  0
 33 34  1  1  0  0  0
 33 35  1  0  0  0  0
 35 36  2  0  0  0  0
 35 84  1  0  0  0  0
 37 38  1  0  0  0  0
 37 43  1  0  0  0  0
 37 39  1  0  0  0  0
 39 40  1  0  0  0  0
 39 74  1  0  0  0  0
 39 75  1  0  0  0  0
 40 41  1  0  0  0  0
 40 76  1  0  0  0  0
 40 77  1  0  0  0  0
 41 42  1  0  0  0  0
 41 78  1  0  0  0  0
 41 79  1  0  0  0  0
 42 43  1  0  0  0  0
 42 80  1  0  0  0  0
 42 81  1  0  0  0  0
 43 82  1  0  0  0  0
 43 83  1  0  0  0  0
M  END
$$$$
