ZINC01530816
 OpenBabel08292219463D

 37 37  0  0  1  0  0  0  0  0999 V2000
   -0.0196    1.5252   -0.0314 C   0  0  0  0  0  0  0  0  0  0  0  0
    0.0014   -0.0046   -0.0277 C   0  0  0  0  0  0  0  0  0  0  0  0
   -1.4339   -0.5344   -0.0153 C   0  0  0  0  0  0  0  0  0  0  0  0
   -1.4136   -2.0033   -0.0118 N   0  3  0  0  0  0  0  0  0  0  0  0
   -2.7917   -2.5119    0.0001 C   0  0  1  0  0  0  0  0  0  0  0  0
   -3.3302   -2.0826    0.8449 H   0  0  0  0  0  0  0  0  0  0  0  0
   -3.4912   -2.1199   -1.3030 C   0  0  0  0  0  0  0  0  0  0  0  0
   -2.7719   -4.0134    0.1276 C   0  0  0  0  0  0  0  0  0  0  0  0
   -1.7139   -4.6018    0.2013 O   0  0  0  0  0  0  0  0  0  0  0  0
   -3.9298   -4.7023    0.1596 N   0  0  0  0  0  0  0  0  0  0  0  0
   -3.9117   -6.1015    0.1613 C   0  0  0  0  0  0  0  0  0  0  0  0
   -2.8258   -6.7840   -0.3718 C   0  0  0  0  0  0  0  0  0  0  0  0
   -2.8110   -8.1648   -0.3687 C   0  0  0  0  0  0  0  0  0  0  0  0
   -3.8760   -8.8681    0.1641 C   0  0  0  0  0  0  0  0  0  0  0  0
   -4.9585   -8.1917    0.6952 C   0  0  0  0  0  0  0  0  0  0  0  0
   -4.9765   -6.8104    0.7011 C   0  0  0  0  0  0  0  0  0  0  0  0
   -6.1536   -6.0738    1.2867 C   0  0  0  0  0  0  0  0  0  0  0  0
    1.0029    1.9026   -0.0402 H   0  0  0  0  0  0  0  0  0  0  0  0
   -0.5452    1.8792   -0.9183 H   0  0  0  0  0  0  0  0  0  0  0  0
   -0.5316    1.8837    0.8616 H   0  0  0  0  0  0  0  0  0  0  0  0
    0.5134   -0.3631   -0.9207 H   0  0  0  0  0  0  0  0  0  0  0  0
    0.5270   -0.3586    0.8592 H   0  0  0  0  0  0  0  0  0  0  0  0
   -1.9458   -0.1759    0.8777 H   0  0  0  0  0  0  0  0  0  0  0  0
   -1.9594   -0.1804   -0.9022 H   0  0  0  0  0  0  0  0  0  0  0  0
   -0.9397   -2.3351   -0.8384 H   0  0  0  0  0  0  0  0  0  0  0  0
   -2.9527   -2.5492   -2.1478 H   0  0  0  0  0  0  0  0  0  0  0  0
   -4.5138   -2.4973   -1.2942 H   0  0  0  0  0  0  0  0  0  0  0  0
   -3.5056   -1.0339   -1.3952 H   0  0  0  0  0  0  0  0  0  0  0  0
   -4.7758   -4.2282    0.1816 H   0  0  0  0  0  0  0  0  0  0  0  0
   -1.9942   -6.2354   -0.7887 H   0  0  0  0  0  0  0  0  0  0  0  0
   -1.9669   -8.6961   -0.7831 H   0  0  0  0  0  0  0  0  0  0  0  0
   -3.8621   -9.9480    0.1651 H   0  0  0  0  0  0  0  0  0  0  0  0
   -5.7888   -8.7437    1.1102 H   0  0  0  0  0  0  0  0  0  0  0  0
   -6.8985   -5.9030    0.5095 H   0  0  0  0  0  0  0  0  0  0  0  0
   -6.5934   -6.6693    2.0868 H   0  0  0  0  0  0  0  0  0  0  0  0
   -5.8204   -5.1165    1.6874 H   0  0  0  0  0  0  0  0  0  0  0  0
   -0.9271   -2.3309    0.8092 H   0  0  0  0  0  0  0  0  0  0  0  0
  1  2  1  0  0  0  0
  1 18  1  0  0  0  0
  1 19  1  0  0  0  0
  1 20  1  0  0  0  0
  2  3  1  0  0  0  0
  2 21  1  0  0  0  0
  2 22  1  0  0  0  0
  3  4  1  0  0  0  0
  3 23  1  0  0  0  0
  3 24  1  0  0  0  0
  4  5  1  0  0  0  0
  4 25  1  0  0  0  0
  4 37  1  0  0  0  0
  5  6  1  1  0  0  0
  5  7  1  0  0  0  0
  5  8  1  0  0  0  0
  7 26  1  0  0  0  0
  7 27  1  0  0  0  0
  7 28  1  0  0  0  0
  8  9  2  0  0  0  0
  8 10  1  0  0  0  0
 10 11  1  0  0  0  0
 10 29  1  0  0  0  0
 11 16  2  0  0  0  0
 11 12  1  0  0  0  0
 12 13  2  0  0  0  0
 12 30  1  0  0  0  0
 13 14  1  0  0  0  0
 13 31  1  0  0  0  0
 14 15  2  0  0  0  0
 14 32  1  0  0  0  0
 15 16  1  0  0  0  0
 15 33  1  0  0  0  0
 16 17  1  0  0  0  0
 17 34  1  0  0  0  0
 17 35  1  0  0  0  0
 17 36  1  0  0  0  0
M  CHG  1   4   1
M  END
$$$$
