ZINC05065159
 OpenBabel08292219463D

 38 40  0  0  1  0  0  0  0  0999 V2000
    0.9752    3.6085   -4.0361 C   0  0  0  0  0  0  0  0  0  0  0  0
   -0.3392    3.6708   -3.2554 C   0  0  0  0  0  0  0  0  0  0  0  0
   -1.3874    3.1345   -1.1397 C   0  0  2  0  0  0  0  0  0  0  0  0
   -2.2129    2.7217   -1.7196 H   0  0  0  0  0  0  0  0  0  0  0  0
   -1.7079    4.5965   -0.7026 C   0  0  2  0  0  0  0  0  0  0  0  0
   -2.1871    5.2243   -1.4538 H   0  0  0  0  0  0  0  0  0  0  0  0
   -0.3699    5.1267   -0.1025 C   0  0  0  0  0  0  0  0  0  0  0  0
   -0.2016    4.3504    1.2236 C   0  0  0  0  0  0  0  0  0  0  0  0
   -1.4537    3.4242    1.2998 C   0  0  1  0  0  0  0  0  0  0  0  0
   -1.7125    3.0355    2.2847 H   0  0  0  0  0  0  0  0  0  0  0  0
   -2.5298    4.3338    0.6084 C   0  0  0  0  0  0  0  0  0  0  0  0
   -1.2191    2.3582    0.1863 C   0  0  2  0  0  0  0  0  0  0  0  0
   -1.9605    1.5623    0.2575 H   0  0  0  0  0  0  0  0  0  0  0  0
    0.1725    1.7890    0.2889 C   0  0  0  0  0  0  0  0  0  0  0  0
    0.7700    1.2201   -0.8203 C   0  0  0  0  0  0  0  0  0  0  0  0
    2.0439    0.6920   -0.7246 C   0  0  0  0  0  0  0  0  0  0  0  0
    2.7207    0.7336    0.4800 C   0  0  0  0  0  0  0  0  0  0  0  0
    2.1234    1.3029    1.5891 C   0  0  0  0  0  0  0  0  0  0  0  0
    0.8493    1.8306    1.4935 C   0  0  0  0  0  0  0  0  0  0  0  0
    1.7409    4.1731   -3.5040 H   0  0  0  0  0  0  0  0  0  0  0  0
    1.2913    2.5699   -4.1331 H   0  0  0  0  0  0  0  0  0  0  0  0
    0.8299    4.0382   -5.0272 H   0  0  0  0  0  0  0  0  0  0  0  0
   -1.1048    3.1061   -3.7875 H   0  0  0  0  0  0  0  0  0  0  0  0
   -0.6553    4.7094   -3.1584 H   0  0  0  0  0  0  0  0  0  0  0  0
    0.4599    4.9127   -0.7761 H   0  0  0  0  0  0  0  0  0  0  0  0
   -0.4377    6.1974    0.0900 H   0  0  0  0  0  0  0  0  0  0  0  0
   -0.1866    5.0394    2.0680 H   0  0  0  0  0  0  0  0  0  0  0  0
    0.7109    3.7546    1.2019 H   0  0  0  0  0  0  0  0  0  0  0  0
   -2.7104    5.2513    1.1685 H   0  0  0  0  0  0  0  0  0  0  0  0
   -3.4557    3.7943    0.4092 H   0  0  0  0  0  0  0  0  0  0  0  0
    0.2413    1.1876   -1.7615 H   0  0  0  0  0  0  0  0  0  0  0  0
    2.5106    0.2472   -1.5911 H   0  0  0  0  0  0  0  0  0  0  0  0
    3.7160    0.3210    0.5548 H   0  0  0  0  0  0  0  0  0  0  0  0
    2.6520    1.3351    2.5303 H   0  0  0  0  0  0  0  0  0  0  0  0
    0.3825    2.2750    2.3601 H   0  0  0  0  0  0  0  0  0  0  0  0
   -0.1340    3.0877   -1.9161 N   0  3  0  0  0  0  0  0  0  0  0  0
    0.5907    3.6212   -1.4218 H   0  0  0  0  0  0  0  0  0  0  0  0
    0.1672    2.1110   -2.0145 H   0  0  0  0  0  0  0  0  0  0  0  0
  1  2  1  0  0  0  0
  1 20  1  0  0  0  0
  1 21  1  0  0  0  0
  1 22  1  0  0  0  0
  2 23  1  0  0  0  0
  2 24  1  0  0  0  0
  2 36  1  0  0  0  0
  3  4  1  6  0  0  0
  3 12  1  0  0  0  0
  3  5  1  0  0  0  0
  3 36  1  0  0  0  0
  5  6  1  6  0  0  0
  5 11  1  0  0  0  0
  5  7  1  0  0  0  0
  7  8  1  0  0  0  0
  7 25  1  0  0  0  0
  7 26  1  0  0  0  0
  8  9  1  0  0  0  0
  8 27  1  0  0  0  0
  8 28  1  0  0  0  0
  9 10  1  1  0  0  0
  9 11  1  0  0  0  0
  9 12  1  0  0  0  0
 11 29  1  0  0  0  0
 11 30  1  0  0  0  0
 12 13  1  1  0  0  0
 12 14  1  0  0  0  0
 14 19  2  0  0  0  0
 14 15  1  0  0  0  0
 15 16  2  0  0  0  0
 15 31  1  0  0  0  0
 16 17  1  0  0  0  0
 16 32  1  0  0  0  0
 17 18  2  0  0  0  0
 17 33  1  0  0  0  0
 18 19  1  0  0  0  0
 18 34  1  0  0  0  0
 19 35  1  0  0  0  0
 36 37  1  0  0  0  0
 36 38  1  0  0  0  0
M  CHG  1  36   1
M  END
$$$$
