ZINC00897240
 OpenBabel08292219463D

 52 55  0  0  1  0  0  0  0  0999 V2000
   -0.0178    1.4648    0.0101 C   0  0  0  0  0  0  0  0  0  0  0  0
    0.0021   -0.0041    0.0020 N   0  3  1  0  0  0  0  0  0  0  0  0
    0.7139   -0.4781   -1.1627 C   0  0  0  0  0  0  0  0  0  0  0  0
    0.0698   -1.7553   -1.7290 C   0  0  0  0  0  0  0  0  0  0  0  0
   -0.3700   -2.7383   -0.6264 C   0  0  0  0  0  0  0  0  0  0  0  0
    0.6379   -2.8770    0.4844 C   0  0  1  0  0  0  0  0  0  0  0  0
    1.6384   -2.6913    0.0936 H   0  0  0  0  0  0  0  0  0  0  0  0
    0.3172   -1.8472    1.5946 C   0  0  0  0  0  0  0  0  0  0  0  0
    0.7132   -0.5007    1.1930 C   0  0  0  0  0  0  0  0  0  0  0  0
    0.5725   -4.2317    1.0383 N   0  0  0  0  0  0  0  0  0  0  0  0
    1.6733   -5.0111    0.9992 C   0  0  0  0  0  0  0  0  0  0  0  0
    2.7096   -4.5974    0.5106 O   0  0  0  0  0  0  0  0  0  0  0  0
    1.5984   -6.3670    1.5570 C   0  0  0  0  0  0  0  0  0  0  0  0
    2.6939   -7.2295    1.5528 C   0  0  0  0  0  0  0  0  0  0  0  0
    2.5633   -8.4908    2.0914 C   0  0  0  0  0  0  0  0  0  0  0  0
    1.3552   -8.9081    2.6353 C   0  0  0  0  0  0  0  0  0  0  0  0
    0.2683   -8.0794    2.6502 C   0  0  0  0  0  0  0  0  0  0  0  0
    0.3708   -6.7953    2.1119 C   0  0  0  0  0  0  0  0  0  0  0  0
   -0.7616   -5.8690    2.1032 C   0  0  0  0  0  0  0  0  0  0  0  0
   -0.6246   -4.6796    1.5974 N   0  0  0  0  0  0  0  0  0  0  0  0
   -2.0853   -6.2919    2.6863 C   0  0  0  0  0  0  0  0  0  0  0  0
   -3.0760   -5.1641    2.5535 C   0  0  0  0  0  0  0  0  0  0  0  0
   -3.1898   -4.2225    3.5593 C   0  0  0  0  0  0  0  0  0  0  0  0
   -4.0982   -3.1879    3.4381 C   0  0  0  0  0  0  0  0  0  0  0  0
   -4.8937   -3.0947    2.3100 C   0  0  0  0  0  0  0  0  0  0  0  0
   -4.7793   -4.0373    1.3038 C   0  0  0  0  0  0  0  0  0  0  0  0
   -3.8665   -5.0683    1.4235 C   0  0  0  0  0  0  0  0  0  0  0  0
   -6.0353   -1.7958    2.1574 Cl  0  0  0  0  0  0  0  0  0  0  0  0
    1.0047    1.8421    0.0024 H   0  0  0  0  0  0  0  0  0  0  0  0
   -0.5450    1.8259   -0.8730 H   0  0  0  0  0  0  0  0  0  0  0  0
   -0.5280    1.8163    0.9069 H   0  0  0  0  0  0  0  0  0  0  0  0
    0.7021    0.2975   -1.9285 H   0  0  0  0  0  0  0  0  0  0  0  0
    1.7469   -0.6910   -0.8877 H   0  0  0  0  0  0  0  0  0  0  0  0
   -0.8022   -1.4771   -2.3208 H   0  0  0  0  0  0  0  0  0  0  0  0
    0.7891   -2.2539   -2.3787 H   0  0  0  0  0  0  0  0  0  0  0  0
   -1.3119   -2.3900   -0.2026 H   0  0  0  0  0  0  0  0  0  0  0  0
   -0.5325   -3.7180   -1.0756 H   0  0  0  0  0  0  0  0  0  0  0  0
   -0.7541   -1.8599    1.7955 H   0  0  0  0  0  0  0  0  0  0  0  0
    0.8537   -2.1218    2.5029 H   0  0  0  0  0  0  0  0  0  0  0  0
    1.7833   -0.4997    0.9853 H   0  0  0  0  0  0  0  0  0  0  0  0
    0.5219    0.1805    2.0221 H   0  0  0  0  0  0  0  0  0  0  0  0
    3.6360   -6.9120    1.1310 H   0  0  0  0  0  0  0  0  0  0  0  0
    3.4091   -9.1624    2.0903 H   0  0  0  0  0  0  0  0  0  0  0  0
    1.2735   -9.9012    3.0518 H   0  0  0  0  0  0  0  0  0  0  0  0
   -0.6652   -8.4164    3.0761 H   0  0  0  0  0  0  0  0  0  0  0  0
   -2.4557   -7.1659    2.1505 H   0  0  0  0  0  0  0  0  0  0  0  0
   -1.9557   -6.5396    3.7398 H   0  0  0  0  0  0  0  0  0  0  0  0
   -2.5691   -4.2956    4.4401 H   0  0  0  0  0  0  0  0  0  0  0  0
   -4.1873   -2.4525    4.2241 H   0  0  0  0  0  0  0  0  0  0  0  0
   -5.4002   -3.9653    0.4230 H   0  0  0  0  0  0  0  0  0  0  0  0
   -3.7738   -5.8015    0.6360 H   0  0  0  0  0  0  0  0  0  0  0  0
   -0.9424   -0.3589   -0.0052 H   0  0  0  0  0  0  0  0  0  0  0  0
  1  2  1  0  0  0  0
  1 29  1  0  0  0  0
  1 30  1  0  0  0  0
  1 31  1  0  0  0  0
  2  9  1  0  0  0  0
  2  3  1  0  0  0  0
  2 52  1  6  0  0  0
  3  4  1  0  0  0  0
  3 32  1  0  0  0  0
  3 33  1  0  0  0  0
  4  5  1  0  0  0  0
  4 34  1  0  0  0  0
  4 35  1  0  0  0  0
  5  6  1  0  0  0  0
  5 36  1  0  0  0  0
  5 37  1  0  0  0  0
  6  7  1  6  0  0  0
  6  8  1  0  0  0  0
  6 10  1  0  0  0  0
  8  9  1  0  0  0  0
  8 38  1  0  0  0  0
  8 39  1  0  0  0  0
  9 40  1  0  0  0  0
  9 41  1  0  0  0  0
 10 20  1  0  0  0  0
 10 11  1  0  0  0  0
 11 12  2  0  0  0  0
 11 13  1  0  0  0  0
 13 18  2  0  0  0  0
 13 14  1  0  0  0  0
 14 15  2  0  0  0  0
 14 42  1  0  0  0  0
 15 16  1  0  0  0  0
 15 43  1  0  0  0  0
 16 17  2  0  0  0  0
 16 44  1  0  0  0  0
 17 18  1  0  0  0  0
 17 45  1  0  0  0  0
 18 19  1  0  0  0  0
 19 20  2  0  0  0  0
 19 21  1  0  0  0  0
 21 22  1  0  0  0  0
 21 46  1  0  0  0  0
 21 47  1  0  0  0  0
 22 27  2  0  0  0  0
 22 23  1  0  0  0  0
 23 24  2  0  0  0  0
 23 48  1  0  0  0  0
 24 25  1  0  0  0  0
 24 49  1  0  0  0  0
 25 26  2  0  0  0  0
 25 28  1  0  0  0  0
 26 27  1  0  0  0  0
 26 50  1  0  0  0  0
 27 51  1  0  0  0  0
M  CHG  1   2   1
M  END
$$$$
