ZINC00014007
 OpenBabel08292219463D

 42 42  0  0  1  0  0  0  0  0999 V2000
   -0.0187    1.5258    0.0104 C   0  0  0  0  0  0  0  0  0  0  0  0
    0.0021   -0.0041    0.0020 C   0  0  0  0  0  0  0  0  0  0  0  0
    0.7421   -0.5109    1.2415 C   0  0  0  0  0  0  0  0  0  0  0  0
   -1.3761   -0.5125    0.0124 N   0  3  0  0  0  0  0  0  0  0  0  0
   -2.0500   -0.1262   -1.2343 C   0  0  0  0  0  0  0  0  0  0  0  0
   -3.4854   -0.6557   -1.2235 C   0  0  2  0  0  0  0  0  0  0  0  0
   -3.4743   -1.7319   -1.0509 H   0  0  0  0  0  0  0  0  0  0  0  0
   -4.1475   -0.3621   -2.5712 C   0  0  0  0  0  0  0  0  0  0  0  0
   -5.4460   -0.9578   -2.6037 O   0  0  0  0  0  0  0  0  0  0  0  0
   -6.1735   -0.7901   -3.7393 C   0  0  0  0  0  0  0  0  0  0  0  0
   -5.6460   -0.0719   -4.8027 C   0  0  0  0  0  0  0  0  0  0  0  0
   -6.3873    0.0968   -5.9561 C   0  0  0  0  0  0  0  0  0  0  0  0
   -7.6541   -0.4490   -6.0512 C   0  0  0  0  0  0  0  0  0  0  0  0
   -8.1822   -1.1649   -4.9927 C   0  0  0  0  0  0  0  0  0  0  0  0
   -7.4425   -1.3416   -3.8394 C   0  0  0  0  0  0  0  0  0  0  0  0
   -8.4607   -0.2631   -7.3105 C   0  0  0  0  0  0  0  0  0  0  0  0
   -8.1748   -1.3960   -8.2621 C   0  0  0  0  0  0  0  0  0  0  0  0
   -7.3929   -2.2686   -7.9487 O   0  0  0  0  0  0  0  0  0  0  0  0
   -8.7879   -1.4396   -9.4616 N   0  0  0  0  0  0  0  0  0  0  0  0
   -4.2221   -0.0137   -0.1809 O   0  0  0  0  0  0  0  0  0  0  0  0
    1.0039    1.9031    0.0027 H   0  0  0  0  0  0  0  0  0  0  0  0
   -0.5459    1.8868   -0.8726 H   0  0  0  0  0  0  0  0  0  0  0  0
   -0.5289    1.8773    0.9072 H   0  0  0  0  0  0  0  0  0  0  0  0
    0.5123   -0.3556   -0.8948 H   0  0  0  0  0  0  0  0  0  0  0  0
    0.2319   -0.1594    2.1383 H   0  0  0  0  0  0  0  0  0  0  0  0
    0.7568   -1.6008    1.2356 H   0  0  0  0  0  0  0  0  0  0  0  0
    1.7647   -0.1336    1.2338 H   0  0  0  0  0  0  0  0  0  0  0  0
   -1.3629   -1.5185    0.0898 H   0  0  0  0  0  0  0  0  0  0  0  0
   -2.0643    0.9605   -1.3179 H   0  0  0  0  0  0  0  0  0  0  0  0
   -1.5132   -0.5489   -2.0836 H   0  0  0  0  0  0  0  0  0  0  0  0
   -4.2389    0.7159   -2.7039 H   0  0  0  0  0  0  0  0  0  0  0  0
   -3.5374   -0.7766   -3.3737 H   0  0  0  0  0  0  0  0  0  0  0  0
   -4.6569    0.3553   -4.7286 H   0  0  0  0  0  0  0  0  0  0  0  0
   -5.9771    0.6558   -6.7841 H   0  0  0  0  0  0  0  0  0  0  0  0
   -9.1721   -1.5900   -5.0693 H   0  0  0  0  0  0  0  0  0  0  0  0
   -7.8537   -1.9046   -3.0146 H   0  0  0  0  0  0  0  0  0  0  0  0
   -9.5225   -0.2548   -7.0640 H   0  0  0  0  0  0  0  0  0  0  0  0
   -8.1893    0.6827   -7.7795 H   0  0  0  0  0  0  0  0  0  0  0  0
   -9.4132   -0.7418   -9.7123 H   0  0  0  0  0  0  0  0  0  0  0  0
   -8.6038   -2.1689  -10.0741 H   0  0  0  0  0  0  0  0  0  0  0  0
   -4.2734    0.9478   -0.2701 H   0  0  0  0  0  0  0  0  0  0  0  0
   -1.8730   -0.1212    0.7986 H   0  0  0  0  0  0  0  0  0  0  0  0
  1  2  1  0  0  0  0
  1 21  1  0  0  0  0
  1 22  1  0  0  0  0
  1 23  1  0  0  0  0
  2  3  1  0  0  0  0
  2  4  1  0  0  0  0
  2 24  1  0  0  0  0
  3 25  1  0  0  0  0
  3 26  1  0  0  0  0
  3 27  1  0  0  0  0
  4  5  1  0  0  0  0
  4 28  1  0  0  0  0
  4 42  1  0  0  0  0
  5  6  1  0  0  0  0
  5 29  1  0  0  0  0
  5 30  1  0  0  0  0
  6  7  1  1  0  0  0
  6  8  1  0  0  0  0
  6 20  1  0  0  0  0
  8  9  1  0  0  0  0
  8 31  1  0  0  0  0
  8 32  1  0  0  0  0
  9 10  1  0  0  0  0
 10 15  2  0  0  0  0
 10 11  1  0  0  0  0
 11 12  2  0  0  0  0
 11 33  1  0  0  0  0
 12 13  1  0  0  0  0
 12 34  1  0  0  0  0
 13 14  2  0  0  0  0
 13 16  1  0  0  0  0
 14 15  1  0  0  0  0
 14 35  1  0  0  0  0
 15 36  1  0  0  0  0
 16 17  1  0  0  0  0
 16 37  1  0  0  0  0
 16 38  1  0  0  0  0
 17 18  2  0  0  0  0
 17 19  1  0  0  0  0
 19 39  1  0  0  0  0
 19 40  1  0  0  0  0
 20 41  1  0  0  0  0
M  CHG  1   4   1
M  END
$$$$
