ZINC03831475
 OpenBabel08292219463D

 14 13  0  0  1  0  0  0  0  0999 V2000
   -1.3295    1.9397    0.0189 C   0  0  2  0  0  0  0  0  0  0  0  0
   -1.2145    2.8966   -0.4903 H   0  0  0  0  0  0  0  0  0  0  0  0
   -2.3879    1.1024   -0.7019 C   0  0  1  0  0  0  0  0  0  0  0  0
   -2.5028    0.1455   -0.1927 H   0  0  0  0  0  0  0  0  0  0  0  0
   -3.7031    1.8381   -0.6917 C   0  0  0  0  0  0  0  0  0  0  0  0
   -3.7218    3.0432   -0.7762 O   0  0  0  0  0  0  0  0  0  0  0  0
   -1.8683    0.8165   -2.4162 S   0  0  0  0  0  0  0  0  0  0  0  0
   -0.0143    1.2041    0.0087 C   0  0  0  0  0  0  0  0  0  0  0  0
    0.0021   -0.0041    0.0020 O   0  0  0  0  0  0  0  0  0  0  0  0
   -1.8491    2.2256    1.7332 S   0  0  0  0  0  0  0  0  0  0  0  0
   -1.7613    2.0531   -2.9343 H   0  0  0  0  0  0  0  0  0  0  0  0
   -1.9561    0.9890    2.2513 H   0  0  0  0  0  0  0  0  0  0  0  0
   -4.8537    1.1545   -0.5886 O   0  0  0  0  0  1  0  0  0  0  0  0
    1.1389    1.8910    0.0013 O   0  0  0  0  0  1  0  0  0  0  0  0
  1  2  1  6  0  0  0
  1  3  1  0  0  0  0
  1  8  1  0  0  0  0
  1 10  1  0  0  0  0
  3  4  1  1  0  0  0
  3  5  1  0  0  0  0
  3  7  1  0  0  0  0
  5  6  2  0  0  0  0
  5 13  1  0  0  0  0
  7 11  1  0  0  0  0
  8  9  2  0  0  0  0
  8 14  1  0  0  0  0
 10 12  1  0  0  0  0
M  END
$$$$
