ZINC00003911
 OpenBabel08292219463D

 46 47  0  0  1  0  0  0  0  0999 V2000
   -0.0187    1.5258    0.0104 C   0  0  0  0  0  0  0  0  0  0  0  0
    0.0021   -0.0041    0.0020 C   0  0  2  0  0  0  0  0  0  0  0  0
    0.5123   -0.3556   -0.8948 H   0  0  0  0  0  0  0  0  0  0  0  0
   -1.4333   -0.5336    0.0129 C   0  0  0  0  0  0  0  0  0  0  0  0
   -1.4157   -2.0577   -0.1212 C   0  0  0  0  0  0  0  0  0  0  0  0
   -2.8295   -2.5793   -0.1105 C   0  0  0  0  0  0  0  0  0  0  0  0
   -3.4314   -2.9172    1.0875 C   0  0  0  0  0  0  0  0  0  0  0  0
   -4.7271   -3.3960    1.1000 C   0  0  0  0  0  0  0  0  0  0  0  0
   -5.4247   -3.5373   -0.0909 C   0  0  0  0  0  0  0  0  0  0  0  0
   -4.8186   -3.1971   -1.2916 C   0  0  0  0  0  0  0  0  0  0  0  0
   -3.5245   -2.7138   -1.2982 C   0  0  0  0  0  0  0  0  0  0  0  0
   -6.6993   -4.0085   -0.0813 O   0  0  0  0  0  0  0  0  0  0  0  0
    0.7126   -0.4907    1.1921 N   0  3  0  0  0  0  0  0  0  0  0  0
    2.1220   -0.0825    1.1220 C   0  0  0  0  0  0  0  0  0  0  0  0
    2.8620   -0.5894    2.3615 C   0  0  0  0  0  0  0  0  0  0  0  0
    4.3078   -0.1706    2.2896 C   0  0  0  0  0  0  0  0  0  0  0  0
    5.2346   -0.9936    1.6770 C   0  0  0  0  0  0  0  0  0  0  0  0
    6.5621   -0.6140    1.6084 C   0  0  0  0  0  0  0  0  0  0  0  0
    6.9663    0.5939    2.1541 C   0  0  0  0  0  0  0  0  0  0  0  0
    6.0335    1.4224    2.7703 C   0  0  0  0  0  0  0  0  0  0  0  0
    4.7036    1.0381    2.8314 C   0  0  0  0  0  0  0  0  0  0  0  0
    6.4254    2.6087    3.3074 O   0  0  0  0  0  0  0  0  0  0  0  0
    8.2720    0.9686    2.0879 O   0  0  0  0  0  0  0  0  0  0  0  0
    1.0039    1.9031    0.0027 H   0  0  0  0  0  0  0  0  0  0  0  0
   -0.5459    1.8868   -0.8726 H   0  0  0  0  0  0  0  0  0  0  0  0
   -0.5289    1.8773    0.9072 H   0  0  0  0  0  0  0  0  0  0  0  0
   -1.9156   -0.2570    0.9504 H   0  0  0  0  0  0  0  0  0  0  0  0
   -1.9862   -0.1019   -0.8214 H   0  0  0  0  0  0  0  0  0  0  0  0
   -0.9334   -2.3344   -1.0587 H   0  0  0  0  0  0  0  0  0  0  0  0
   -0.8628   -2.4894    0.7131 H   0  0  0  0  0  0  0  0  0  0  0  0
   -2.8879   -2.8071    2.0143 H   0  0  0  0  0  0  0  0  0  0  0  0
   -5.1966   -3.6605    2.0359 H   0  0  0  0  0  0  0  0  0  0  0  0
   -5.3596   -3.3061   -2.2200 H   0  0  0  0  0  0  0  0  0  0  0  0
   -3.0538   -2.4447   -2.2322 H   0  0  0  0  0  0  0  0  0  0  0  0
   -7.3727   -3.3195    0.0019 H   0  0  0  0  0  0  0  0  0  0  0  0
    0.2896   -0.0986    2.0201 H   0  0  0  0  0  0  0  0  0  0  0  0
    2.5788   -0.5061    0.2276 H   0  0  0  0  0  0  0  0  0  0  0  0
    2.1837    1.0050    1.0814 H   0  0  0  0  0  0  0  0  0  0  0  0
    2.4051   -0.1658    3.2560 H   0  0  0  0  0  0  0  0  0  0  0  0
    2.8002   -1.6769    2.4022 H   0  0  0  0  0  0  0  0  0  0  0  0
    4.9208   -1.9352    1.2513 H   0  0  0  0  0  0  0  0  0  0  0  0
    7.2841   -1.2590    1.1299 H   0  0  0  0  0  0  0  0  0  0  0  0
    3.9769    1.6810    3.3058 H   0  0  0  0  0  0  0  0  0  0  0  0
    6.3843    3.3524    2.6906 H   0  0  0  0  0  0  0  0  0  0  0  0
    8.4955    1.4774    1.2965 H   0  0  0  0  0  0  0  0  0  0  0  0
    0.6554   -1.4974    1.2298 H   0  0  0  0  0  0  0  0  0  0  0  0
  1  2  1  0  0  0  0
  1 24  1  0  0  0  0
  1 25  1  0  0  0  0
  1 26  1  0  0  0  0
  2  3  1  6  0  0  0
  2  4  1  0  0  0  0
  2 13  1  0  0  0  0
  4  5  1  0  0  0  0
  4 27  1  0  0  0  0
  4 28  1  0  0  0  0
  5  6  1  0  0  0  0
  5 29  1  0  0  0  0
  5 30  1  0  0  0  0
  6 11  2  0  0  0  0
  6  7  1  0  0  0  0
  7  8  2  0  0  0  0
  7 31  1  0  0  0  0
  8  9  1  0  0  0  0
  8 32  1  0  0  0  0
  9 10  2  0  0  0  0
  9 12  1  0  0  0  0
 10 11  1  0  0  0  0
 10 33  1  0  0  0  0
 11 34  1  0  0  0  0
 12 35  1  0  0  0  0
 13 14  1  0  0  0  0
 13 36  1  0  0  0  0
 13 46  1  0  0  0  0
 14 15  1  0  0  0  0
 14 37  1  0  0  0  0
 14 38  1  0  0  0  0
 15 16  1  0  0  0  0
 15 39  1  0  0  0  0
 15 40  1  0  0  0  0
 16 21  2  0  0  0  0
 16 17  1  0  0  0  0
 17 18  2  0  0  0  0
 17 41  1  0  0  0  0
 18 19  1  0  0  0  0
 18 42  1  0  0  0  0
 19 20  2  0  0  0  0
 19 23  1  0  0  0  0
 20 21  1  0  0  0  0
 20 22  1  0  0  0  0
 21 43  1  0  0  0  0
 22 44  1  0  0  0  0
 23 45  1  0  0  0  0
M  CHG  1  13   1
M  END
$$$$
