ZINC13831151
 OpenBabel08292219463D

 68 71  0  0  1  0  0  0  0  0999 V2000
   -3.3205   -3.2969    2.7402 C   0  0  0  0  0  0  0  0  0  0  0  0
   -2.0626   -2.4521    2.5285 C   0  0  0  0  0  0  0  0  0  0  0  0
   -0.8777   -3.1163    3.2326 C   0  0  0  0  0  0  0  0  0  0  0  0
    0.3802   -2.2715    3.0209 C   0  0  0  0  0  0  0  0  0  0  0  0
    1.4901   -2.8433    3.7950 N   0  3  0  0  0  0  0  0  0  0  0  0
    1.2002   -2.7212    5.2300 C   0  0  0  0  0  0  0  0  0  0  0  0
    1.1615   -1.2418    5.6183 C   0  0  0  0  0  0  0  0  0  0  0  0
    0.9946   -1.1166    7.1340 C   0  0  0  0  0  0  0  0  0  0  0  0
    0.9558    0.3628    7.5223 C   0  0  0  0  0  0  0  0  0  0  0  0
    1.6505   -4.2614    3.4468 C   0  0  0  0  0  0  0  0  0  0  0  0
    2.1188   -4.3803    1.9951 C   0  0  1  0  0  0  0  0  0  0  0  0
    3.0001   -3.7568    1.8455 H   0  0  0  0  0  0  0  0  0  0  0  0
    2.4625   -5.8164    1.6942 C   0  0  0  0  0  0  0  0  0  0  0  0
    1.5251   -6.6418    1.1080 C   0  0  0  0  0  0  0  0  0  0  0  0
    1.8298   -7.9645    0.8265 C   0  0  0  0  0  0  0  0  0  0  0  0
    3.0779   -8.4728    1.1302 C   0  0  0  0  0  0  0  0  0  0  0  0
    4.0357   -7.6529    1.7222 C   0  0  0  0  0  0  0  0  0  0  0  0
    3.7293   -6.3093    2.0030 C   0  0  0  0  0  0  0  0  0  0  0  0
    4.9143   -5.6727    2.6160 C   0  0  0  0  0  0  0  0  0  0  0  0
    5.1403   -4.3775    3.0805 C   0  0  0  0  0  0  0  0  0  0  0  0
    6.3649   -4.0417    3.6191 C   0  0  0  0  0  0  0  0  0  0  0  0
    7.3788   -4.9838    3.7043 C   0  0  0  0  0  0  0  0  0  0  0  0
    7.1742   -6.2717    3.2497 C   0  0  0  0  0  0  0  0  0  0  0  0
    5.9430   -6.6273    2.7029 C   0  0  0  0  0  0  0  0  0  0  0  0
    5.4268   -7.8998    2.1561 C   0  0  0  0  0  0  0  0  0  0  0  0
    6.1077   -9.0714    2.0570 C   0  0  0  0  0  0  0  0  0  0  0  0
    5.6021  -10.1438    1.1890 C   0  0  0  0  0  0  0  0  0  0  0  0
    5.1373   -9.8471   -0.0974 C   0  0  0  0  0  0  0  0  0  0  0  0
    4.6651  -10.8584   -0.9058 C   0  0  0  0  0  0  0  0  0  0  0  0
    4.6497  -12.1661   -0.4480 C   0  0  0  0  0  0  0  0  0  0  0  0
    5.1078  -12.4675    0.8244 C   0  0  0  0  0  0  0  0  0  0  0  0
    5.5884  -11.4678    1.6424 C   0  0  0  0  0  0  0  0  0  0  0  0
    4.0530  -13.4332   -1.4737 Cl  0  0  0  0  0  0  0  0  0  0  0  0
    8.9132   -4.5420    4.3854 Cl  0  0  0  0  0  0  0  0  0  0  0  0
    0.6367   -8.9876    0.0892 Cl  0  0  0  0  0  0  0  0  0  0  0  0
    1.0747   -3.9472    1.1208 O   0  0  0  0  0  0  0  0  0  0  0  0
   -3.5297   -3.3760    3.8070 H   0  0  0  0  0  0  0  0  0  0  0  0
   -4.1647   -2.8237    2.2385 H   0  0  0  0  0  0  0  0  0  0  0  0
   -3.1634   -4.2928    2.3259 H   0  0  0  0  0  0  0  0  0  0  0  0
   -1.8534   -2.3730    1.4617 H   0  0  0  0  0  0  0  0  0  0  0  0
   -2.2197   -1.4563    2.9427 H   0  0  0  0  0  0  0  0  0  0  0  0
   -1.0869   -3.1954    4.2995 H   0  0  0  0  0  0  0  0  0  0  0  0
   -0.7206   -4.1122    2.8184 H   0  0  0  0  0  0  0  0  0  0  0  0
    0.6404   -2.2662    1.9624 H   0  0  0  0  0  0  0  0  0  0  0  0
    0.1927   -1.2508    3.3541 H   0  0  0  0  0  0  0  0  0  0  0  0
    0.2349   -3.1789    5.4459 H   0  0  0  0  0  0  0  0  0  0  0  0
    1.9782   -3.2267    5.8021 H   0  0  0  0  0  0  0  0  0  0  0  0
    2.0917   -0.7619    5.3143 H   0  0  0  0  0  0  0  0  0  0  0  0
    0.3225   -0.7570    5.1191 H   0  0  0  0  0  0  0  0  0  0  0  0
    0.0643   -1.5965    7.4380 H   0  0  0  0  0  0  0  0  0  0  0  0
    1.8335   -1.6014    7.6332 H   0  0  0  0  0  0  0  0  0  0  0  0
    1.8861    0.8427    7.2184 H   0  0  0  0  0  0  0  0  0  0  0  0
    0.1169    0.8476    7.0231 H   0  0  0  0  0  0  0  0  0  0  0  0
    0.8369    0.4520    8.6022 H   0  0  0  0  0  0  0  0  0  0  0  0
    2.3904   -4.7159    4.1057 H   0  0  0  0  0  0  0  0  0  0  0  0
    0.6959   -4.7745    3.5639 H   0  0  0  0  0  0  0  0  0  0  0  0
    0.5462   -6.2545    0.8668 H   0  0  0  0  0  0  0  0  0  0  0  0
    3.3104   -9.5041    0.9092 H   0  0  0  0  0  0  0  0  0  0  0  0
    4.3565   -3.6371    3.0181 H   0  0  0  0  0  0  0  0  0  0  0  0
    6.5356   -3.0370    3.9769 H   0  0  0  0  0  0  0  0  0  0  0  0
    7.9670   -7.0019    3.3182 H   0  0  0  0  0  0  0  0  0  0  0  0
    7.0205   -9.2144    2.6162 H   0  0  0  0  0  0  0  0  0  0  0  0
    5.1483   -8.8282   -0.4554 H   0  0  0  0  0  0  0  0  0  0  0  0
    4.3057  -10.6310   -1.8986 H   0  0  0  0  0  0  0  0  0  0  0  0
    5.0921  -13.4891    1.1746 H   0  0  0  0  0  0  0  0  0  0  0  0
    5.9497  -11.7050    2.6322 H   0  0  0  0  0  0  0  0  0  0  0  0
    0.2579   -4.4587    1.2000 H   0  0  0  0  0  0  0  0  0  0  0  0
    2.3413   -2.3459    3.5803 H   0  0  0  0  0  0  0  0  0  0  0  0
  1  2  1  0  0  0  0
  1 37  1  0  0  0  0
  1 38  1  0  0  0  0
  1 39  1  0  0  0  0
  2  3  1  0  0  0  0
  2 40  1  0  0  0  0
  2 41  1  0  0  0  0
  3  4  1  0  0  0  0
  3 42  1  0  0  0  0
  3 43  1  0  0  0  0
  4  5  1  0  0  0  0
  4 44  1  0  0  0  0
  4 45  1  0  0  0  0
  5  6  1  0  0  0  0
  5 10  1  0  0  0  0
  5 68  1  0  0  0  0
  6  7  1  0  0  0  0
  6 46  1  0  0  0  0
  6 47  1  0  0  0  0
  7  8  1  0  0  0  0
  7 48  1  0  0  0  0
  7 49  1  0  0  0  0
  8  9  1  0  0  0  0
  8 50  1  0  0  0  0
  8 51  1  0  0  0  0
  9 52  1  0  0  0  0
  9 53  1  0  0  0  0
  9 54  1  0  0  0  0
 10 11  1  0  0  0  0
 10 55  1  0  0  0  0
 10 56  1  0  0  0  0
 11 12  1  6  0  0  0
 11 13  1  0  0  0  0
 11 36  1  0  0  0  0
 13 18  2  0  0  0  0
 13 14  1  0  0  0  0
 14 15  2  0  0  0  0
 14 57  1  0  0  0  0
 15 16  1  0  0  0  0
 15 35  1  0  0  0  0
 16 17  2  0  0  0  0
 16 58  1  0  0  0  0
 17 25  1  0  0  0  0
 17 18  1  0  0  0  0
 18 19  1  0  0  0  0
 19 24  2  0  0  0  0
 19 20  1  0  0  0  0
 20 21  2  0  0  0  0
 20 59  1  0  0  0  0
 21 22  1  0  0  0  0
 21 60  1  0  0  0  0
 22 23  2  0  0  0  0
 22 34  1  0  0  0  0
 23 24  1  0  0  0  0
 23 61  1  0  0  0  0
 24 25  1  0  0  0  0
 25 26  2  0  0  0  0
 26 27  1  0  0  0  0
 26 62  1  0  0  0  0
 27 32  2  0  0  0  0
 27 28  1  0  0  0  0
 28 29  2  0  0  0  0
 28 63  1  0  0  0  0
 29 30  1  0  0  0  0
 29 64  1  0  0  0  0
 30 31  2  0  0  0  0
 30 33  1  0  0  0  0
 31 32  1  0  0  0  0
 31 65  1  0  0  0  0
 32 66  1  0  0  0  0
 36 67  1  0  0  0  0
M  CHG  1   5   1
M  END
$$$$
