ZINC11677376
 OpenBabel08292219463D

 37 40  0  0  1  0  0  0  0  0999 V2000
    5.2805   -1.1611   -3.2424 C   0  0  0  0  0  0  0  0  0  0  0  0
    4.4350   -2.4539   -1.3563 C   0  0  0  0  0  0  0  0  0  0  0  0
    4.0234   -2.0777    0.0869 C   0  0  2  0  0  0  0  0  0  0  0  0
    4.9532   -2.1841    0.6457 H   0  0  0  0  0  0  0  0  0  0  0  0
    3.1050   -3.0641    0.6799 C   0  0  0  0  0  0  0  0  0  0  0  0
    3.6867   -4.1156    1.3938 C   0  0  0  0  0  0  0  0  0  0  0  0
    2.9202   -5.1191    1.9399 C   0  0  0  0  0  0  0  0  0  0  0  0
    1.5461   -5.0935    1.7844 C   0  0  0  0  0  0  0  0  0  0  0  0
    0.9621   -4.0533    1.1000 C   0  0  0  0  0  0  0  0  0  0  0  0
    1.7380   -3.0202    0.5558 C   0  0  0  0  0  0  0  0  0  0  0  0
    1.0753   -2.0435   -0.0501 O   0  0  0  0  0  0  0  0  0  0  0  0
    1.2076   -0.7216   -0.0048 C   0  0  0  0  0  0  0  0  0  0  0  0
    0.0021   -0.0041    0.0020 C   0  0  0  0  0  0  0  0  0  0  0  0
   -0.0166    1.3695    0.0096 C   0  0  0  0  0  0  0  0  0  0  0  0
    1.1833    2.0598    0.0018 C   0  0  0  0  0  0  0  0  0  0  0  0
    2.3672    1.3624   -0.0007 C   0  0  0  0  0  0  0  0  0  0  0  0
    2.4033   -0.0385    0.0081 C   0  0  0  0  0  0  0  0  0  0  0  0
    3.7707   -0.6167    0.0486 C   0  0  2  0  0  0  0  0  0  0  0  0
    4.2580   -0.1896    0.9251 H   0  0  0  0  0  0  0  0  0  0  0  0
    4.5605   -0.0928   -1.1803 C   0  0  0  0  0  0  0  0  0  0  0  0
    1.1922    3.7958   -0.0052 Cl  0  0  0  0  0  0  0  0  0  0  0  0
    5.8320   -0.2637   -3.5226 H   0  0  0  0  0  0  0  0  0  0  0  0
    5.7792   -2.0379   -3.6556 H   0  0  0  0  0  0  0  0  0  0  0  0
    4.2656   -1.1015   -3.6354 H   0  0  0  0  0  0  0  0  0  0  0  0
    5.0469   -3.3558   -1.3623 H   0  0  0  0  0  0  0  0  0  0  0  0
    3.5569   -2.5756   -1.9906 H   0  0  0  0  0  0  0  0  0  0  0  0
    4.7590   -4.1406    1.5195 H   0  0  0  0  0  0  0  0  0  0  0  0
    3.3893   -5.9233    2.4871 H   0  0  0  0  0  0  0  0  0  0  0  0
    0.9366   -5.8837    2.1974 H   0  0  0  0  0  0  0  0  0  0  0  0
   -0.1110   -4.0319    0.9801 H   0  0  0  0  0  0  0  0  0  0  0  0
   -0.9332   -0.5442    0.0010 H   0  0  0  0  0  0  0  0  0  0  0  0
   -0.9551    1.9038    0.0169 H   0  0  0  0  0  0  0  0  0  0  0  0
    3.2979    1.9103   -0.0102 H   0  0  0  0  0  0  0  0  0  0  0  0
    3.8765    0.3538   -1.9019 H   0  0  0  0  0  0  0  0  0  0  0  0
    5.3019    0.6407   -0.8634 H   0  0  0  0  0  0  0  0  0  0  0  0
    5.2197   -1.2756   -1.7528 N   0  3  2  0  0  0  0  0  0  0  0  0
    6.1738   -1.3548   -1.3818 H   0  0  0  0  0  0  0  0  0  0  0  0
  1 22  1  0  0  0  0
  1 23  1  0  0  0  0
  1 24  1  0  0  0  0
  1 36  1  0  0  0  0
  2  3  1  0  0  0  0
  2 25  1  0  0  0  0
  2 26  1  0  0  0  0
  2 36  1  0  0  0  0
  3  4  1  1  0  0  0
  3 18  1  0  0  0  0
  3  5  1  0  0  0  0
  5 10  2  0  0  0  0
  5  6  1  0  0  0  0
  6  7  2  0  0  0  0
  6 27  1  0  0  0  0
  7  8  1  0  0  0  0
  7 28  1  0  0  0  0
  8  9  2  0  0  0  0
  8 29  1  0  0  0  0
  9 10  1  0  0  0  0
  9 30  1  0  0  0  0
 10 11  1  0  0  0  0
 11 12  1  0  0  0  0
 12 17  2  0  0  0  0
 12 13  1  0  0  0  0
 13 14  2  0  0  0  0
 13 31  1  0  0  0  0
 14 15  1  0  0  0  0
 14 32  1  0  0  0  0
 15 16  2  0  0  0  0
 15 21  1  0  0  0  0
 16 17  1  0  0  0  0
 16 33  1  0  0  0  0
 17 18  1  0  0  0  0
 18 19  1  1  0  0  0
 18 20  1  0  0  0  0
 20 34  1  0  0  0  0
 20 35  1  0  0  0  0
 20 36  1  0  0  0  0
 36 37  1  1  0  0  0
M  CHG  1  36   1
M  END
$$$$
