ZINC00896484
 OpenBabel08292219463D

 23 24  0  0  0  0  0  0  0  0999 V2000
   -0.0167    1.3793    0.0096 C   0  0  0  0  0  0  0  0  0  0  0  0
    1.1680    2.0938    0.0022 C   0  0  0  0  0  0  0  0  0  0  0  0
    2.3785    1.4297   -0.0129 C   0  0  0  0  0  0  0  0  0  0  0  0
    2.4050    0.0334   -0.0206 C   0  0  0  0  0  0  0  0  0  0  0  0
    1.2052   -0.6814   -0.0130 C   0  0  0  0  0  0  0  0  0  0  0  0
    0.0021   -0.0041    0.0020 C   0  0  0  0  0  0  0  0  0  0  0  0
    1.2264   -2.4172   -0.0231 Cl  0  0  0  0  0  0  0  0  0  0  0  0
    3.6030   -0.6324   -0.0361 N   0  0  0  0  0  0  0  0  0  0  0  0
    4.1879   -0.9573    1.0933 C   0  0  0  0  0  0  0  0  0  0  0  0
    3.6659   -0.6737    2.3229 N   0  0  0  0  0  0  0  0  0  0  0  0
    4.5775   -1.1780    3.3591 C   0  0  0  0  0  0  0  0  0  0  0  0
    5.7389   -1.8145    2.5745 C   0  0  0  0  0  0  0  0  0  0  0  0
    5.3800   -1.6198    1.1630 N   0  0  0  0  0  0  0  0  0  0  0  0
    3.8638    2.3282   -0.0229 Cl  0  0  0  0  0  0  0  0  0  0  0  0
   -0.9606    1.9039    0.0260 H   0  0  0  0  0  0  0  0  0  0  0  0
    1.1460    3.1736    0.0078 H   0  0  0  0  0  0  0  0  0  0  0  0
   -0.9265   -0.5555    0.0082 H   0  0  0  0  0  0  0  0  0  0  0  0
    4.9410   -0.3577    3.9780 H   0  0  0  0  0  0  0  0  0  0  0  0
    4.0780   -1.9269    3.9736 H   0  0  0  0  0  0  0  0  0  0  0  0
    6.6764   -1.3088    2.8056 H   0  0  0  0  0  0  0  0  0  0  0  0
    5.8134   -2.8781    2.8012 H   0  0  0  0  0  0  0  0  0  0  0  0
    5.9064   -1.9129    0.4028 H   0  0  0  0  0  0  0  0  0  0  0  0
    2.8280   -0.2130    2.4861 H   0  0  0  0  0  0  0  0  0  0  0  0
  1  6  2  0  0  0  0
  1  2  1  0  0  0  0
  1 15  1  0  0  0  0
  2  3  2  0  0  0  0
  2 16  1  0  0  0  0
  3  4  1  0  0  0  0
  3 14  1  0  0  0  0
  4  5  2  0  0  0  0
  4  8  1  0  0  0  0
  5  6  1  0  0  0  0
  5  7  1  0  0  0  0
  6 17  1  0  0  0  0
  8  9  2  0  0  0  0
  9 13  1  0  0  0  0
  9 10  1  0  0  0  0
 10 11  1  0  0  0  0
 10 23  1  0  0  0  0
 11 12  1  0  0  0  0
 11 18  1  0  0  0  0
 11 19  1  0  0  0  0
 12 13  1  0  0  0  0
 12 20  1  0  0  0  0
 12 21  1  0  0  0  0
 13 22  1  0  0  0  0
M  END
$$$$
