ZINC03956788
 OpenBabel08292219463D

 30 31  0  0  0  0  0  0  0  0999 V2000
   -1.2652    1.4388   -1.3966 C   0  0  0  0  0  0  0  0  0  0  0  0
   -1.1858   -0.0652   -1.3455 C   0  0  0  0  0  0  0  0  0  0  0  0
   -2.1889   -0.7277   -1.4673 O   0  0  0  0  0  0  0  0  0  0  0  0
    0.0001   -0.6693   -1.1647 O   0  0  0  0  0  0  0  0  0  0  0  0
    0.0123   -2.0188   -1.0207 C   0  0  0  0  0  0  0  0  0  0  0  0
   -0.0328   -2.5845    0.2444 C   0  0  0  0  0  0  0  0  0  0  0  0
   -0.0208   -3.9578    0.3895 C   0  0  0  0  0  0  0  0  0  0  0  0
    0.0368   -4.7796   -0.7242 C   0  0  0  0  0  0  0  0  0  0  0  0
    0.0823   -4.2342   -1.9890 C   0  0  0  0  0  0  0  0  0  0  0  0
    0.0648   -2.8466   -2.1502 C   0  0  0  0  0  0  0  0  0  0  0  0
    0.1071   -2.2561   -3.5016 C   0  0  0  0  0  0  0  0  0  0  0  0
    0.0964   -1.0479   -3.6377 O   0  0  0  0  0  0  0  0  0  0  0  0
    0.1575   -3.0559   -4.5852 N   0  0  0  0  0  0  0  0  0  0  0  0
    0.1973   -2.4999   -5.8574 C   0  0  0  0  0  0  0  0  0  0  0  0
    0.1990   -1.2281   -6.1942 N   0  0  0  0  0  0  0  0  0  0  0  0
    0.2401   -0.8578   -7.4607 C   0  0  0  0  0  0  0  0  0  0  0  0
    0.2800   -1.8440   -8.3901 C   0  0  0  0  0  0  0  0  0  0  0  0
    0.2625   -3.2896   -7.3423 S   0  0  0  0  0  0  0  0  0  0  0  0
    0.3298   -1.7486   -9.8667 N   0  0  0  0  0  4  0  0  0  0  0  0
    0.3392   -0.6649  -10.4024 O   0  0  0  0  0  0  0  0  0  0  0  0
    0.3611   -2.7545  -10.5367 O   0  5  0  0  0  0  0  0  0  0  0  0
   -1.4257    1.8285   -0.3914 H   0  0  0  0  0  0  0  0  0  0  0  0
   -0.3334    1.8385   -1.7968 H   0  0  0  0  0  0  0  0  0  0  0  0
   -2.0940    1.7373   -2.0387 H   0  0  0  0  0  0  0  0  0  0  0  0
   -0.0771   -1.9504    1.1175 H   0  0  0  0  0  0  0  0  0  0  0  0
   -0.0561   -4.3936    1.3770 H   0  0  0  0  0  0  0  0  0  0  0  0
    0.0466   -5.8524   -0.6007 H   0  0  0  0  0  0  0  0  0  0  0  0
    0.1271   -4.8786   -2.8545 H   0  0  0  0  0  0  0  0  0  0  0  0
    0.1661   -4.0198   -4.4766 H   0  0  0  0  0  0  0  0  0  0  0  0
    0.2414    0.1844   -7.7439 H   0  0  0  0  0  0  0  0  0  0  0  0
  1  2  1  0  0  0  0
  1 22  1  0  0  0  0
  1 23  1  0  0  0  0
  1 24  1  0  0  0  0
  2  3  2  0  0  0  0
  2  4  1  0  0  0  0
  4  5  1  0  0  0  0
  5 10  2  0  0  0  0
  5  6  1  0  0  0  0
  6  7  2  0  0  0  0
  6 25  1  0  0  0  0
  7  8  1  0  0  0  0
  7 26  1  0  0  0  0
  8  9  2  0  0  0  0
  8 27  1  0  0  0  0
  9 10  1  0  0  0  0
  9 28  1  0  0  0  0
 10 11  1  0  0  0  0
 11 12  2  0  0  0  0
 11 13  1  0  0  0  0
 13 14  1  0  0  0  0
 13 29  1  0  0  0  0
 14 18  1  0  0  0  0
 14 15  2  0  0  0  0
 15 16  1  0  0  0  0
 16 17  2  0  0  0  0
 16 30  1  0  0  0  0
 17 18  1  0  0  0  0
 17 19  1  0  0  0  0
 19 20  2  0  0  0  0
 19 21  1  0  0  0  0
M  CHG  1  21  -1
M  END
$$$$
