ZINC04214767
 OpenBabel08292219463D

 54 57  0  0  1  0  0  0  0  0999 V2000
    5.0892    5.1213   -0.3105 C   0  0  0  0  0  0  0  0  0  0  0  0
    4.7066    4.9290   -1.7794 C   0  0  2  0  0  0  0  0  0  0  0  0
    3.4131    5.6642   -2.0741 C   0  0  0  0  0  0  0  0  0  0  0  0
    2.3693    5.1702   -1.0600 C   0  0  0  0  0  0  0  0  0  0  0  0
    2.1782    3.6567   -1.1122 C   0  0  1  0  0  0  0  0  0  0  0  0
    1.7149    3.3961   -2.0638 H   0  0  0  0  0  0  0  0  0  0  0  0
    3.5178    2.9154   -0.9825 C   0  0  2  0  0  0  0  0  0  0  0  0
    3.9515    3.1075   -0.0011 H   0  0  0  0  0  0  0  0  0  0  0  0
    4.4525    3.4243   -2.0646 C   0  0  2  0  0  0  0  0  0  0  0  0
    4.0005    3.2939   -3.0478 H   0  0  0  0  0  0  0  0  0  0  0  0
    5.8765    2.8581   -2.0354 C   0  0  0  0  0  0  0  0  0  0  0  0
    6.6951    3.9360   -2.7970 C   0  0  0  0  0  0  0  0  0  0  0  0
    5.8989    5.2588   -2.6716 C   0  0  1  0  0  0  0  0  0  0  0  0
    5.4185    5.7209   -4.0488 C   0  0  0  0  0  0  0  0  0  0  0  0
    6.6067    5.9238   -4.9533 C   0  0  0  0  0  0  0  0  0  0  0  0
    6.6659    5.3042   -6.1059 C   0  0  0  0  0  0  0  0  0  0  0  0
    6.7067    6.2694   -2.0650 O   0  0  0  0  0  0  0  0  0  0  0  0
    3.2861    1.4133   -1.1602 C   0  0  0  0  0  0  0  0  0  0  0  0
    2.4035    0.8938   -0.0220 C   0  0  0  0  0  0  0  0  0  0  0  0
    1.1228    1.7111    0.0005 C   0  0  0  0  0  0  0  0  0  0  0  0
   -0.0126    1.0758    0.0080 C   0  0  0  0  0  0  0  0  0  0  0  0
   -1.3426    1.7732    0.0183 C   0  0  0  0  0  0  0  0  0  0  0  0
   -1.1745    3.1535    0.6672 C   0  0  0  0  0  0  0  0  0  0  0  0
   -0.0927    3.9137   -0.1000 C   0  0  0  0  0  0  0  0  0  0  0  0
    1.2462    3.2062    0.0176 C   0  0  2  0  0  0  0  0  0  0  0  0
    1.6948    3.5006    0.9663 H   0  0  0  0  0  0  0  0  0  0  0  0
    5.9955    4.5556   -0.0941 H   0  0  0  0  0  0  0  0  0  0  0  0
    5.2662    6.1792   -0.1167 H   0  0  0  0  0  0  0  0  0  0  0  0
    4.2785    4.7660    0.3256 H   0  0  0  0  0  0  0  0  0  0  0  0
    3.5621    6.7379   -1.9603 H   0  0  0  0  0  0  0  0  0  0  0  0
    3.0811    5.4398   -3.0878 H   0  0  0  0  0  0  0  0  0  0  0  0
    2.6933    5.4422   -0.0554 H   0  0  0  0  0  0  0  0  0  0  0  0
    1.4148    5.6535   -1.2684 H   0  0  0  0  0  0  0  0  0  0  0  0
    6.2309    2.7583   -1.0094 H   0  0  0  0  0  0  0  0  0  0  0  0
    5.9217    1.9009   -2.5549 H   0  0  0  0  0  0  0  0  0  0  0  0
    6.7953    3.6576   -3.8461 H   0  0  0  0  0  0  0  0  0  0  0  0
    7.6803    4.0480   -2.3443 H   0  0  0  0  0  0  0  0  0  0  0  0
    4.7610    4.9643   -4.4770 H   0  0  0  0  0  0  0  0  0  0  0  0
    4.8744    6.6599   -3.9476 H   0  0  0  0  0  0  0  0  0  0  0  0
    7.4095    6.5800   -4.6511 H   0  0  0  0  0  0  0  0  0  0  0  0
    7.5174    5.4496   -6.7541 H   0  0  0  0  0  0  0  0  0  0  0  0
    5.8631    4.6480   -6.4081 H   0  0  0  0  0  0  0  0  0  0  0  0
    7.4807    6.5204   -2.5875 H   0  0  0  0  0  0  0  0  0  0  0  0
    4.2440    0.8935   -1.1431 H   0  0  0  0  0  0  0  0  0  0  0  0
    2.7918    1.2324   -2.1147 H   0  0  0  0  0  0  0  0  0  0  0  0
    2.9264    1.0042    0.9280 H   0  0  0  0  0  0  0  0  0  0  0  0
    2.1661   -0.1564   -0.1914 H   0  0  0  0  0  0  0  0  0  0  0  0
    0.0021   -0.0041    0.0020 H   0  0  0  0  0  0  0  0  0  0  0  0
   -1.7020    1.8883   -1.0043 H   0  0  0  0  0  0  0  0  0  0  0  0
   -2.0580    1.1857    0.5937 H   0  0  0  0  0  0  0  0  0  0  0  0
   -0.8744    3.0394    1.7088 H   0  0  0  0  0  0  0  0  0  0  0  0
   -2.1155    3.7009    0.6141 H   0  0  0  0  0  0  0  0  0  0  0  0
   -0.0038    4.9206    0.3078 H   0  0  0  0  0  0  0  0  0  0  0  0
   -0.3747    3.9763   -1.1510 H   0  0  0  0  0  0  0  0  0  0  0  0
  1 27  1  0  0  0  0
  1 28  1  0  0  0  0
  1 29  1  0  0  0  0
  2  1  1  1  0  0  0
  2  9  1  0  0  0  0
  2 13  1  0  0  0  0
  2  3  1  0  0  0  0
  3  4  1  0  0  0  0
  3 30  1  0  0  0  0
  3 31  1  0  0  0  0
  4  5  1  0  0  0  0
  4 32  1  0  0  0  0
  4 33  1  0  0  0  0
  5  6  1  6  0  0  0
  5 25  1  0  0  0  0
  5  7  1  0  0  0  0
  7  8  1  1  0  0  0
  7  9  1  0  0  0  0
  7 18  1  0  0  0  0
  9 10  1  6  0  0  0
  9 11  1  0  0  0  0
 11 12  1  0  0  0  0
 11 34  1  0  0  0  0
 11 35  1  0  0  0  0
 12 13  1  0  0  0  0
 12 36  1  0  0  0  0
 12 37  1  0  0  0  0
 13 14  1  0  0  0  0
 13 17  1  1  0  0  0
 14 15  1  0  0  0  0
 14 38  1  0  0  0  0
 14 39  1  0  0  0  0
 15 16  2  0  0  0  0
 15 40  1  0  0  0  0
 16 41  1  0  0  0  0
 16 42  1  0  0  0  0
 17 43  1  0  0  0  0
 18 19  1  0  0  0  0
 18 44  1  0  0  0  0
 18 45  1  0  0  0  0
 19 20  1  0  0  0  0
 19 46  1  0  0  0  0
 19 47  1  0  0  0  0
 20 25  1  0  0  0  0
 20 21  2  0  0  0  0
 21 22  1  0  0  0  0
 21 48  1  0  0  0  0
 22 23  1  0  0  0  0
 22 49  1  0  0  0  0
 22 50  1  0  0  0  0
 23 24  1  0  0  0  0
 23 51  1  0  0  0  0
 23 52  1  0  0  0  0
 24 25  1  0  0  0  0
 24 53  1  0  0  0  0
 24 54  1  0  0  0  0
 25 26  1  1  0  0  0
M  END
$$$$
