ZINC00601310
 OpenBabel08292219463D

 48 51  0  0  0  0  0  0  0  0999 V2000
    0.0531    1.1183   -1.4438 C   0  0  0  0  0  0  0  0  0  0  0  0
    0.1270    0.3836   -0.2746 C   0  0  0  0  0  0  0  0  0  0  0  0
    1.3136   -0.2234    0.0875 C   0  0  0  0  0  0  0  0  0  0  0  0
    2.4333   -0.0953   -0.7242 C   0  0  0  0  0  0  0  0  0  0  0  0
    2.3556    0.6433   -1.8979 C   0  0  0  0  0  0  0  0  0  0  0  0
    1.1661    1.2478   -2.2542 C   0  0  0  0  0  0  0  0  0  0  0  0
    3.6365   -0.7082   -0.3603 N   0  0  0  0  0  0  0  0  0  0  0  0
    4.8598   -0.1164   -0.3405 C   0  0  0  0  0  0  0  0  0  0  0  0
    5.1237    1.1520   -0.6642 O   0  5  0  0  0  0  0  0  0  0  0  0
    5.7860   -1.0617    0.0761 C   0  0  0  0  0  0  0  0  0  0  0  0
    5.1077   -2.2487    0.3125 C   0  0  0  0  0  0  0  0  0  0  0  0
    5.6524   -3.3949    0.7283 O   0  0  0  0  0  0  0  0  0  0  0  0
    3.7903   -2.0378    0.0531 N   0  0  0  0  0  0  0  0  0  0  0  0
    2.7677   -2.9839    0.1741 C   0  0  0  0  0  0  0  0  0  0  0  0
    1.8596   -3.1635   -0.8614 C   0  0  0  0  0  0  0  0  0  0  0  0
    0.8508   -4.0987   -0.7388 C   0  0  0  0  0  0  0  0  0  0  0  0
    0.7441   -4.8558    0.4135 C   0  0  0  0  0  0  0  0  0  0  0  0
    1.6466   -4.6795    1.4463 C   0  0  0  0  0  0  0  0  0  0  0  0
    2.6612   -3.7500    1.3277 C   0  0  0  0  0  0  0  0  0  0  0  0
    7.2672   -0.8387    0.2419 C   0  0  0  0  0  0  0  0  0  0  0  0
    7.5701   -0.4888    1.7002 C   0  0  0  0  0  0  0  0  0  0  0  0
    9.3530   -0.2204    1.8999 S   0  0  2  0  0  0  0  0  0  0  0  0
   10.0376   -1.4569    1.7527 O   0  0  0  0  0  0  0  0  0  0  0  0
    9.5370    0.1679    3.6087 C   0  0  0  0  0  0  0  0  0  0  0  0
    9.4563    1.4815    4.0315 C   0  0  0  0  0  0  0  0  0  0  0  0
    9.6006    1.7862    5.3722 C   0  0  0  0  0  0  0  0  0  0  0  0
    9.8251    0.7771    6.2900 C   0  0  0  0  0  0  0  0  0  0  0  0
    9.9048   -0.5366    5.8672 C   0  0  0  0  0  0  0  0  0  0  0  0
    9.7563   -0.8416    4.5272 C   0  0  0  0  0  0  0  0  0  0  0  0
   -0.8772    1.5882   -1.7269 H   0  0  0  0  0  0  0  0  0  0  0  0
   -0.7439    0.2846    0.3563 H   0  0  0  0  0  0  0  0  0  0  0  0
    1.3708   -0.7968    1.0009 H   0  0  0  0  0  0  0  0  0  0  0  0
    3.2246    0.7452   -2.5311 H   0  0  0  0  0  0  0  0  0  0  0  0
    1.1050    1.8222   -3.1667 H   0  0  0  0  0  0  0  0  0  0  0  0
    1.9421   -2.5722   -1.7614 H   0  0  0  0  0  0  0  0  0  0  0  0
    0.1442   -4.2385   -1.5435 H   0  0  0  0  0  0  0  0  0  0  0  0
   -0.0459   -5.5862    0.5070 H   0  0  0  0  0  0  0  0  0  0  0  0
    1.5605   -5.2724    2.3449 H   0  0  0  0  0  0  0  0  0  0  0  0
    3.3683   -3.6159    2.1329 H   0  0  0  0  0  0  0  0  0  0  0  0
    7.8043   -1.7464   -0.0331 H   0  0  0  0  0  0  0  0  0  0  0  0
    7.5855   -0.0189   -0.4021 H   0  0  0  0  0  0  0  0  0  0  0  0
    7.0330    0.4189    1.9753 H   0  0  0  0  0  0  0  0  0  0  0  0
    7.2518   -1.3086    2.3442 H   0  0  0  0  0  0  0  0  0  0  0  0
    9.2810    2.2699    3.3145 H   0  0  0  0  0  0  0  0  0  0  0  0
    9.5383    2.8125    5.7025 H   0  0  0  0  0  0  0  0  0  0  0  0
    9.9385    1.0152    7.3373 H   0  0  0  0  0  0  0  0  0  0  0  0
   10.0805   -1.3249    6.5842 H   0  0  0  0  0  0  0  0  0  0  0  0
    9.8148   -1.8684    4.1973 H   0  0  0  0  0  0  0  0  0  0  0  0
  1  6  2  0  0  0  0
  1  2  1  0  0  0  0
  1 30  1  0  0  0  0
  2  3  2  0  0  0  0
  2 31  1  0  0  0  0
  3  4  1  0  0  0  0
  3 32  1  0  0  0  0
  4  5  2  0  0  0  0
  4  7  1  0  0  0  0
  5  6  1  0  0  0  0
  5 33  1  0  0  0  0
  6 34  1  0  0  0  0
  7 13  1  0  0  0  0
  7  8  1  0  0  0  0
  8  9  1  0  0  0  0
  8 10  2  0  0  0  0
 10 11  1  0  0  0  0
 10 20  1  0  0  0  0
 11 12  2  0  0  0  0
 11 13  1  0  0  0  0
 13 14  1  0  0  0  0
 14 19  2  0  0  0  0
 14 15  1  0  0  0  0
 15 16  2  0  0  0  0
 15 35  1  0  0  0  0
 16 17  1  0  0  0  0
 16 36  1  0  0  0  0
 17 18  2  0  0  0  0
 17 37  1  0  0  0  0
 18 19  1  0  0  0  0
 18 38  1  0  0  0  0
 19 39  1  0  0  0  0
 20 21  1  0  0  0  0
 20 40  1  0  0  0  0
 20 41  1  0  0  0  0
 21 22  1  0  0  0  0
 21 42  1  0  0  0  0
 21 43  1  0  0  0  0
 22 23  2  1  0  0  0
 22 24  1  0  0  0  0
 24 29  2  0  0  0  0
 24 25  1  0  0  0  0
 25 26  2  0  0  0  0
 25 44  1  0  0  0  0
 26 27  1  0  0  0  0
 26 45  1  0  0  0  0
 27 28  2  0  0  0  0
 27 46  1  0  0  0  0
 28 29  1  0  0  0  0
 28 47  1  0  0  0  0
 29 48  1  0  0  0  0
M  CHG  1   9  -1
M  END
$$$$
