ZINC19632614
 OpenBabel08292219463D

 55 58  0  0  0  0  0  0  0  0999 V2000
   -0.7374    1.4118    0.5253 C   0  0  0  0  0  0  0  0  0  0  0  0
   -0.7263   -0.0171    0.5247 O   0  0  0  0  0  0  0  0  0  0  0  0
    0.0734   -0.6280    1.4373 C   0  0  0  0  0  0  0  0  0  0  0  0
    0.8188    0.1348    2.3090 C   0  0  0  0  0  0  0  0  0  0  0  0
    1.6420   -0.4976    3.2485 C   0  0  0  0  0  0  0  0  0  0  0  0
    1.6952   -1.9130    3.2874 C   0  0  0  0  0  0  0  0  0  0  0  0
    0.9277   -2.6653    2.3903 C   0  0  0  0  0  0  0  0  0  0  0  0
    0.1268   -2.0280    1.4855 C   0  0  0  0  0  0  0  0  0  0  0  0
   -0.6229   -2.7597    0.6185 O   0  0  0  0  0  0  0  0  0  0  0  0
   -0.5255   -4.1819    0.7171 C   0  0  0  0  0  0  0  0  0  0  0  0
   -1.4334   -4.8292   -0.3307 C   0  0  0  0  0  0  0  0  0  0  0  0
   -1.3291   -6.3519   -0.2252 C   0  0  0  0  0  0  0  0  0  0  0  0
   -2.2008   -6.9733   -1.2311 N   0  0  0  0  0  0  0  0  0  0  0  0
   -3.6165   -6.7053   -0.9393 C   0  0  0  0  0  0  0  0  0  0  0  0
   -4.4841   -7.3184   -2.0416 C   0  0  0  0  0  0  0  0  0  0  0  0
   -4.2065   -8.7181   -2.1368 O   0  0  0  0  0  0  0  0  0  0  0  0
   -2.8368   -9.0154   -2.4209 C   0  0  0  0  0  0  0  0  0  0  0  0
   -1.9524   -8.4195   -1.3224 C   0  0  0  0  0  0  0  0  0  0  0  0
    2.5361   -2.5234    4.2482 C   0  0  0  0  0  0  0  0  0  0  0  0
    3.2308   -1.7396    5.0625 N   0  0  0  0  0  0  0  0  0  0  0  0
    3.1493   -0.4206    4.9892 C   0  0  0  0  0  0  0  0  0  0  0  0
    2.3876    0.1999    4.1200 N   0  0  0  0  0  0  0  0  0  0  0  0
    2.6306   -3.8977    4.3362 N   0  0  0  0  0  0  0  0  0  0  0  0
    3.3713   -4.4833    5.3684 C   0  0  0  0  0  0  0  0  0  0  0  0
    3.4039   -3.8902    6.6240 C   0  0  0  0  0  0  0  0  0  0  0  0
    4.1353   -4.4698    7.6421 C   0  0  0  0  0  0  0  0  0  0  0  0
    4.8362   -5.6416    7.4124 C   0  0  0  0  0  0  0  0  0  0  0  0
    4.8054   -6.2354    6.1608 C   0  0  0  0  0  0  0  0  0  0  0  0
    4.0703   -5.6613    5.1406 C   0  0  0  0  0  0  0  0  0  0  0  0
    5.6852   -7.7046    5.8756 Cl  0  0  0  0  0  0  0  0  0  0  0  0
    5.5513   -6.2065    8.4097 F   0  0  0  0  0  0  0  0  0  0  0  0
    0.2683    1.7831    0.3285 H   0  0  0  0  0  0  0  0  0  0  0  0
   -1.4151    1.7702   -0.2495 H   0  0  0  0  0  0  0  0  0  0  0  0
   -1.0740    1.7722    1.4974 H   0  0  0  0  0  0  0  0  0  0  0  0
    0.7687    1.2128    2.2678 H   0  0  0  0  0  0  0  0  0  0  0  0
    0.9651   -3.7443    2.4164 H   0  0  0  0  0  0  0  0  0  0  0  0
    0.5060   -4.4884    0.5431 H   0  0  0  0  0  0  0  0  0  0  0  0
   -0.8359   -4.4993    1.7126 H   0  0  0  0  0  0  0  0  0  0  0  0
   -2.4649   -4.5227   -0.1568 H   0  0  0  0  0  0  0  0  0  0  0  0
   -1.1230   -4.5118   -1.3262 H   0  0  0  0  0  0  0  0  0  0  0  0
   -0.2976   -6.6584   -0.3991 H   0  0  0  0  0  0  0  0  0  0  0  0
   -1.6394   -6.6693    0.7704 H   0  0  0  0  0  0  0  0  0  0  0  0
   -3.8805   -7.1489    0.0207 H   0  0  0  0  0  0  0  0  0  0  0  0
   -3.7829   -5.6288   -0.9016 H   0  0  0  0  0  0  0  0  0  0  0  0
   -5.5369   -7.1717   -1.8001 H   0  0  0  0  0  0  0  0  0  0  0  0
   -4.2579   -6.8370   -2.9930 H   0  0  0  0  0  0  0  0  0  0  0  0
   -2.6980  -10.0960   -2.4536 H   0  0  0  0  0  0  0  0  0  0  0  0
   -2.5626   -8.5833   -3.3833 H   0  0  0  0  0  0  0  0  0  0  0  0
   -0.9041   -8.5942   -1.5643 H   0  0  0  0  0  0  0  0  0  0  0  0
   -2.1898   -8.8905   -0.3685 H   0  0  0  0  0  0  0  0  0  0  0  0
    3.7361    0.1714    5.6759 H   0  0  0  0  0  0  0  0  0  0  0  0
    2.1833   -4.4574    3.6823 H   0  0  0  0  0  0  0  0  0  0  0  0
    2.8578   -2.9760    6.8040 H   0  0  0  0  0  0  0  0  0  0  0  0
    4.1608   -4.0084    8.6183 H   0  0  0  0  0  0  0  0  0  0  0  0
    4.0430   -6.1262    4.1662 H   0  0  0  0  0  0  0  0  0  0  0  0
  1  2  1  0  0  0  0
  1 32  1  0  0  0  0
  1 33  1  0  0  0  0
  1 34  1  0  0  0  0
  2  3  1  0  0  0  0
  3  8  2  0  0  0  0
  3  4  1  0  0  0  0
  4  5  2  0  0  0  0
  4 35  1  0  0  0  0
  5 22  1  0  0  0  0
  5  6  1  0  0  0  0
  6  7  2  0  0  0  0
  6 19  1  0  0  0  0
  7  8  1  0  0  0  0
  7 36  1  0  0  0  0
  8  9  1  0  0  0  0
  9 10  1  0  0  0  0
 10 11  1  0  0  0  0
 10 37  1  0  0  0  0
 10 38  1  0  0  0  0
 11 12  1  0  0  0  0
 11 39  1  0  0  0  0
 11 40  1  0  0  0  0
 12 13  1  0  0  0  0
 12 41  1  0  0  0  0
 12 42  1  0  0  0  0
 13 18  1  0  0  0  0
 13 14  1  0  0  0  0
 14 15  1  0  0  0  0
 14 43  1  0  0  0  0
 14 44  1  0  0  0  0
 15 16  1  0  0  0  0
 15 45  1  0  0  0  0
 15 46  1  0  0  0  0
 16 17  1  0  0  0  0
 17 18  1  0  0  0  0
 17 47  1  0  0  0  0
 17 48  1  0  0  0  0
 18 49  1  0  0  0  0
 18 50  1  0  0  0  0
 19 20  2  0  0  0  0
 19 23  1  0  0  0  0
 20 21  1  0  0  0  0
 21 22  2  0  0  0  0
 21 51  1  0  0  0  0
 23 24  1  0  0  0  0
 23 52  1  0  0  0  0
 24 29  2  0  0  0  0
 24 25  1  0  0  0  0
 25 26  2  0  0  0  0
 25 53  1  0  0  0  0
 26 27  1  0  0  0  0
 26 54  1  0  0  0  0
 27 28  2  0  0  0  0
 27 31  1  0  0  0  0
 28 29  1  0  0  0  0
 28 30  1  0  0  0  0
 29 55  1  0  0  0  0
M  END
$$$$
