ZINC01530752
 OpenBabel08292219463D

 58 59  0  0  1  0  0  0  0  0999 V2000
    0.2991    1.0752   -0.2917 C   0  0  0  0  0  0  0  0  0  0  0  0
    0.2487   -0.4286   -0.0143 C   0  0  0  0  0  0  0  0  0  0  0  0
    0.7545   -0.6942    1.3391 N   0  3  0  0  0  0  0  0  0  0  0  0
   -0.1471   -0.0863    2.3268 C   0  0  0  0  0  0  0  0  0  0  0  0
   -1.5739   -0.5857    2.0902 C   0  0  0  0  0  0  0  0  0  0  0  0
    0.8186   -2.1448    1.5620 C   0  0  0  0  0  0  0  0  0  0  0  0
    1.4440   -2.4134    2.8672 C   0  0  0  0  0  0  0  0  0  0  0  0
    1.9427   -2.6277    3.9081 C   0  0  0  0  0  0  0  0  0  0  0  0
    2.5681   -2.8964    5.2133 C   0  0  0  0  0  0  0  0  0  0  0  0
    2.6305   -4.3075    5.4302 O   0  0  0  0  0  0  0  0  0  0  0  0
    3.1776   -4.7232    6.5833 C   0  0  0  0  0  0  0  0  0  0  0  0
    3.5898   -3.9158    7.3820 O   0  0  0  0  0  0  0  0  0  0  0  0
    3.2776   -6.1970    6.8816 C   0  0  2  0  0  0  0  0  0  0  0  0
    1.9845   -6.6752    7.4902 C   0  0  0  0  0  0  0  0  0  0  0  0
    1.8111   -6.6395    8.8612 C   0  0  0  0  0  0  0  0  0  0  0  0
    0.6250   -7.0782    9.4194 C   0  0  0  0  0  0  0  0  0  0  0  0
   -0.3878   -7.5520    8.6067 C   0  0  0  0  0  0  0  0  0  0  0  0
   -0.2147   -7.5869    7.2357 C   0  0  0  0  0  0  0  0  0  0  0  0
    0.9697   -7.1442    6.6771 C   0  0  0  0  0  0  0  0  0  0  0  0
    4.4248   -6.4418    7.8638 C   0  0  0  0  0  0  0  0  0  0  0  0
    4.5263   -7.9381    8.1667 C   0  0  0  0  0  0  0  0  0  0  0  0
    5.6736   -8.1829    9.1490 C   0  0  0  0  0  0  0  0  0  0  0  0
    6.9864   -7.6974    8.5311 C   0  0  0  0  0  0  0  0  0  0  0  0
    6.8848   -6.2011    8.2282 C   0  0  0  0  0  0  0  0  0  0  0  0
    5.7376   -5.9563    7.2459 C   0  0  0  0  0  0  0  0  0  0  0  0
    3.5270   -6.9124    5.6700 O   0  0  0  0  0  0  0  0  0  0  0  0
    1.3286    1.4247   -0.2135 H   0  0  0  0  0  0  0  0  0  0  0  0
   -0.0762    1.2722   -1.2959 H   0  0  0  0  0  0  0  0  0  0  0  0
   -0.3191    1.5999    0.4367 H   0  0  0  0  0  0  0  0  0  0  0  0
   -0.7808   -0.7782   -0.0925 H   0  0  0  0  0  0  0  0  0  0  0  0
    0.8669   -0.9534   -0.7427 H   0  0  0  0  0  0  0  0  0  0  0  0
    0.1734   -0.3644    3.3308 H   0  0  0  0  0  0  0  0  0  0  0  0
   -0.1201    0.9985    2.2242 H   0  0  0  0  0  0  0  0  0  0  0  0
   -1.5833   -1.6756    2.0977 H   0  0  0  0  0  0  0  0  0  0  0  0
   -2.2254   -0.2113    2.8798 H   0  0  0  0  0  0  0  0  0  0  0  0
   -1.9293   -0.2258    1.1247 H   0  0  0  0  0  0  0  0  0  0  0  0
   -0.1895   -2.5591    1.5500 H   0  0  0  0  0  0  0  0  0  0  0  0
    1.4112   -2.6078    0.7730 H   0  0  0  0  0  0  0  0  0  0  0  0
    3.5762   -2.4820    5.2254 H   0  0  0  0  0  0  0  0  0  0  0  0
    1.9755   -2.4334    6.0023 H   0  0  0  0  0  0  0  0  0  0  0  0
    2.6024   -6.2693    9.4961 H   0  0  0  0  0  0  0  0  0  0  0  0
    0.4898   -7.0510   10.4906 H   0  0  0  0  0  0  0  0  0  0  0  0
   -1.3142   -7.8954    9.0429 H   0  0  0  0  0  0  0  0  0  0  0  0
   -1.0059   -7.9574    6.6007 H   0  0  0  0  0  0  0  0  0  0  0  0
    1.1036   -7.1679    5.6057 H   0  0  0  0  0  0  0  0  0  0  0  0
    4.2345   -5.8961    8.7880 H   0  0  0  0  0  0  0  0  0  0  0  0
    3.5911   -8.2840    8.6069 H   0  0  0  0  0  0  0  0  0  0  0  0
    4.7166   -8.4838    7.2425 H   0  0  0  0  0  0  0  0  0  0  0  0
    5.4833   -7.6372   10.0731 H   0  0  0  0  0  0  0  0  0  0  0  0
    5.7459   -9.2489    9.3647 H   0  0  0  0  0  0  0  0  0  0  0  0
    7.8037   -7.8718    9.2308 H   0  0  0  0  0  0  0  0  0  0  0  0
    7.1766   -8.2431    7.6069 H   0  0  0  0  0  0  0  0  0  0  0  0
    6.6946   -5.6554    9.1524 H   0  0  0  0  0  0  0  0  0  0  0  0
    7.8201   -5.8552    7.7880 H   0  0  0  0  0  0  0  0  0  0  0  0
    5.9279   -6.5020    6.3218 H   0  0  0  0  0  0  0  0  0  0  0  0
    5.6653   -4.8903    7.0302 H   0  0  0  0  0  0  0  0  0  0  0  0
    4.3451   -6.6556    5.2229 H   0  0  0  0  0  0  0  0  0  0  0  0
    1.6771   -0.2977    1.4371 H   0  0  0  0  0  0  0  0  0  0  0  0
  1  2  1  0  0  0  0
  1 27  1  0  0  0  0
  1 28  1  0  0  0  0
  1 29  1  0  0  0  0
  2  3  1  0  0  0  0
  2 30  1  0  0  0  0
  2 31  1  0  0  0  0
  3  4  1  0  0  0  0
  3  6  1  0  0  0  0
  3 58  1  0  0  0  0
  4  5  1  0  0  0  0
  4 32  1  0  0  0  0
  4 33  1  0  0  0  0
  5 34  1  0  0  0  0
  5 35  1  0  0  0  0
  5 36  1  0  0  0  0
  6  7  1  0  0  0  0
  6 37  1  0  0  0  0
  6 38  1  0  0  0  0
  7  8  3  0  0  0  0
  8  9  1  0  0  0  0
  9 10  1  0  0  0  0
  9 39  1  0  0  0  0
  9 40  1  0  0  0  0
 10 11  1  0  0  0  0
 11 12  2  0  0  0  0
 13 11  1  6  0  0  0
 13 14  1  0  0  0  0
 13 20  1  0  0  0  0
 13 26  1  0  0  0  0
 14 19  2  0  0  0  0
 14 15  1  0  0  0  0
 15 16  2  0  0  0  0
 15 41  1  0  0  0  0
 16 17  1  0  0  0  0
 16 42  1  0  0  0  0
 17 18  2  0  0  0  0
 17 43  1  0  0  0  0
 18 19  1  0  0  0  0
 18 44  1  0  0  0  0
 19 45  1  0  0  0  0
 20 25  1  0  0  0  0
 20 21  1  0  0  0  0
 20 46  1  0  0  0  0
 21 22  1  0  0  0  0
 21 47  1  0  0  0  0
 21 48  1  0  0  0  0
 22 23  1  0  0  0  0
 22 49  1  0  0  0  0
 22 50  1  0  0  0  0
 23 24  1  0  0  0  0
 23 51  1  0  0  0  0
 23 52  1  0  0  0  0
 24 25  1  0  0  0  0
 24 53  1  0  0  0  0
 24 54  1  0  0  0  0
 25 55  1  0  0  0  0
 25 56  1  0  0  0  0
 26 57  1  0  0  0  0
M  CHG  1   3   1
M  END
$$$$
