ZINC00001464
 OpenBabel08292219463D

 36 38  0  0  0  0  0  0  0  0999 V2000
   -0.0187    1.5258    0.0104 C   0  0  0  0  0  0  0  0  0  0  0  0
    0.0021   -0.0041    0.0020 C   0  0  0  0  0  0  0  0  0  0  0  0
   -1.3386   -0.4987    0.0122 O   0  0  0  0  0  0  0  0  0  0  0  0
   -1.4970   -1.8373    0.0065 C   0  0  0  0  0  0  0  0  0  0  0  0
   -0.5232   -2.5645   -0.0067 O   0  0  0  0  0  0  0  0  0  0  0  0
   -2.8491   -2.4182    0.0163 C   0  0  0  0  0  0  0  0  0  0  0  0
   -3.1574   -3.7441    0.0176 C   0  0  0  0  0  0  0  0  0  0  0  0
   -4.5094   -3.8420    0.0002 N   0  0  0  0  0  0  0  0  0  0  0  0
   -5.0118   -2.5765    0.0278 C   0  0  0  0  0  0  0  0  0  0  0  0
   -4.0219   -1.7299    0.0316 N   0  0  0  0  0  0  0  0  0  0  0  0
   -5.2437   -5.0283   -0.0696 C   0  0  0  0  0  0  0  0  0  0  0  0
   -6.4178   -5.0243   -0.8179 C   0  0  0  0  0  0  0  0  0  0  0  0
   -7.1677   -6.1733   -0.9504 C   0  0  0  0  0  0  0  0  0  0  0  0
   -6.7527   -7.3466   -0.3378 C   0  0  0  0  0  0  0  0  0  0  0  0
   -5.6005   -7.3636    0.4163 C   0  0  0  0  0  0  0  0  0  0  0  0
   -4.8343   -6.1965    0.5748 C   0  0  0  0  0  0  0  0  0  0  0  0
   -3.6619   -6.2637    1.4502 C   0  0  0  0  0  0  0  0  0  0  0  0
   -3.7840   -6.9146    2.4698 O   0  0  0  0  0  0  0  0  0  0  0  0
   -2.4758   -5.6895    1.2509 N   0  0  0  0  0  0  0  0  0  0  0  0
   -2.1949   -4.9033    0.0447 C   0  0  0  0  0  0  0  0  0  0  0  0
   -1.4269   -5.8469    2.2614 C   0  0  0  0  0  0  0  0  0  0  0  0
   -7.4809   -8.4755   -0.4809 F   0  0  0  0  0  0  0  0  0  0  0  0
    1.0039    1.9031    0.0027 H   0  0  0  0  0  0  0  0  0  0  0  0
   -0.5459    1.8868   -0.8726 H   0  0  0  0  0  0  0  0  0  0  0  0
   -0.5289    1.8773    0.9072 H   0  0  0  0  0  0  0  0  0  0  0  0
    0.5123   -0.3556   -0.8948 H   0  0  0  0  0  0  0  0  0  0  0  0
    0.5293   -0.3651    0.8851 H   0  0  0  0  0  0  0  0  0  0  0  0
   -6.0600   -2.3172    0.0476 H   0  0  0  0  0  0  0  0  0  0  0  0
   -6.7439   -4.1135   -1.2980 H   0  0  0  0  0  0  0  0  0  0  0  0
   -8.0784   -6.1600   -1.5308 H   0  0  0  0  0  0  0  0  0  0  0  0
   -5.2835   -8.2812    0.8896 H   0  0  0  0  0  0  0  0  0  0  0  0
   -2.3373   -5.5225   -0.8409 H   0  0  0  0  0  0  0  0  0  0  0  0
   -1.1705   -4.5322    0.0760 H   0  0  0  0  0  0  0  0  0  0  0  0
   -1.8034   -6.4548    3.0841 H   0  0  0  0  0  0  0  0  0  0  0  0
   -0.5619   -6.3366    1.8141 H   0  0  0  0  0  0  0  0  0  0  0  0
   -1.1351   -4.8666    2.6380 H   0  0  0  0  0  0  0  0  0  0  0  0
  1  2  1  0  0  0  0
  1 23  1  0  0  0  0
  1 24  1  0  0  0  0
  1 25  1  0  0  0  0
  2  3  1  0  0  0  0
  2 26  1  0  0  0  0
  2 27  1  0  0  0  0
  3  4  1  0  0  0  0
  4  5  2  0  0  0  0
  4  6  1  0  0  0  0
  6 10  1  0  0  0  0
  6  7  2  0  0  0  0
  7 20  1  0  0  0  0
  7  8  1  0  0  0  0
  8  9  1  0  0  0  0
  8 11  1  0  0  0  0
  9 10  2  0  0  0  0
  9 28  1  0  0  0  0
 11 16  2  0  0  0  0
 11 12  1  0  0  0  0
 12 13  2  0  0  0  0
 12 29  1  0  0  0  0
 13 14  1  0  0  0  0
 13 30  1  0  0  0  0
 14 15  2  0  0  0  0
 14 22  1  0  0  0  0
 15 16  1  0  0  0  0
 15 31  1  0  0  0  0
 16 17  1  0  0  0  0
 17 18  2  0  0  0  0
 17 19  1  0  0  0  0
 19 20  1  0  0  0  0
 19 21  1  0  0  0  0
 20 32  1  0  0  0  0
 20 33  1  0  0  0  0
 21 34  1  0  0  0  0
 21 35  1  0  0  0  0
 21 36  1  0  0  0  0
M  END
$$$$
