ZINC00120286
 OpenBabel08292219463D

 30 32  0  0  0  0  0  0  0  0999 V2000
    0.0900    1.5471    0.2563 C   0  0  0  0  0  0  0  0  0  0  0  0
    0.6469    1.0128    1.4045 C   0  0  0  0  0  0  0  0  0  0  0  0
    1.8264    0.3000    1.3354 C   0  0  0  0  0  0  0  0  0  0  0  0
    2.4572    0.1188    0.1050 C   0  0  0  0  0  0  0  0  0  0  0  0
    1.8910    0.6597   -1.0489 C   0  0  0  0  0  0  0  0  0  0  0  0
    0.7112    1.3706   -0.9672 C   0  0  0  0  0  0  0  0  0  0  0  0
    3.7241   -0.6452    0.0241 C   0  0  0  0  0  0  0  0  0  0  0  0
    3.8617   -1.8586    0.7391 C   0  0  0  0  0  0  0  0  0  0  0  0
    4.9865   -2.5483    0.6747 N   0  0  0  0  0  0  0  0  0  0  0  0
    5.9989   -2.0951   -0.0711 C   0  0  0  0  0  0  0  0  0  0  0  0
    5.8574   -0.8796   -0.7856 C   0  0  0  0  0  0  0  0  0  0  0  0
    4.7181   -0.1931   -0.7195 N   0  0  0  0  0  0  0  0  0  0  0  0
    6.9526   -0.4296   -1.5671 C   0  0  0  0  0  0  0  0  0  0  0  0
    8.0539   -1.1660   -1.5917 N   0  0  0  0  0  0  0  0  0  0  0  0
    8.1431   -2.3008   -0.9052 C   0  0  0  0  0  0  0  0  0  0  0  0
    7.1548   -2.7652   -0.1626 N   0  0  0  0  0  0  0  0  0  0  0  0
    9.3185   -3.0248   -0.9717 N   0  0  0  0  0  0  0  0  0  0  0  0
    6.8727    0.7451   -2.2839 N   0  0  0  0  0  0  0  0  0  0  0  0
    2.8131   -2.3247    1.5099 N   0  0  0  0  0  0  0  0  0  0  0  0
   -0.8356    2.1005    0.3147 H   0  0  0  0  0  0  0  0  0  0  0  0
    0.1576    1.1542    2.3569 H   0  0  0  0  0  0  0  0  0  0  0  0
    2.2603   -0.1163    2.2325 H   0  0  0  0  0  0  0  0  0  0  0  0
    2.3752    0.5229   -2.0045 H   0  0  0  0  0  0  0  0  0  0  0  0
    0.2718    1.7900   -1.8601 H   0  0  0  0  0  0  0  0  0  0  0  0
   10.0570   -2.7020   -1.5114 H   0  0  0  0  0  0  0  0  0  0  0  0
    9.4050   -3.8556   -0.4786 H   0  0  0  0  0  0  0  0  0  0  0  0
    6.0606    1.2750   -2.2578 H   0  0  0  0  0  0  0  0  0  0  0  0
    7.6286    1.0419   -2.8144 H   0  0  0  0  0  0  0  0  0  0  0  0
    1.9462   -1.8920    1.4621 H   0  0  0  0  0  0  0  0  0  0  0  0
    2.9441   -3.0844    2.0986 H   0  0  0  0  0  0  0  0  0  0  0  0
  1  6  2  0  0  0  0
  1  2  1  0  0  0  0
  1 20  1  0  0  0  0
  2  3  2  0  0  0  0
  2 21  1  0  0  0  0
  3  4  1  0  0  0  0
  3 22  1  0  0  0  0
  4  5  2  0  0  0  0
  4  7  1  0  0  0  0
  5  6  1  0  0  0  0
  5 23  1  0  0  0  0
  6 24  1  0  0  0  0
  7 12  2  0  0  0  0
  7  8  1  0  0  0  0
  8  9  2  0  0  0  0
  8 19  1  0  0  0  0
  9 10  1  0  0  0  0
 10 16  2  0  0  0  0
 10 11  1  0  0  0  0
 11 12  1  0  0  0  0
 11 13  2  0  0  0  0
 13 14  1  0  0  0  0
 13 18  1  0  0  0  0
 14 15  2  0  0  0  0
 15 16  1  0  0  0  0
 15 17  1  0  0  0  0
 17 25  1  0  0  0  0
 17 26  1  0  0  0  0
 18 27  1  0  0  0  0
 18 28  1  0  0  0  0
 19 29  1  0  0  0  0
 19 30  1  0  0  0  0
M  END
$$$$
