ZINC04097286
 OpenBabel08292219463D

 65 69  0  0  1  0  0  0  0  0999 V2000
    2.2830    2.0087   -2.6783 C   0  0  0  0  0  0  0  0  0  0  0  0
    1.6861    0.6415   -2.3385 C   0  0  0  0  0  0  0  0  0  0  0  0
    2.4675   -0.4521   -3.0695 C   0  0  0  0  0  0  0  0  0  0  0  0
    1.8706   -1.8192   -2.7297 C   0  0  1  0  0  0  0  0  0  0  0  0
    1.8348   -1.9541   -1.6487 H   0  0  0  0  0  0  0  0  0  0  0  0
    0.5454   -1.9348   -3.2884 O   0  0  0  0  0  0  0  0  0  0  0  0
    0.3272   -3.3633   -3.3524 C   0  0  2  0  0  0  0  0  0  0  0  0
   -0.4354   -3.6428   -4.0793 H   0  0  0  0  0  0  0  0  0  0  0  0
    0.0051   -3.8660   -1.9243 C   0  0  0  0  0  0  0  0  0  0  0  0
    1.2711   -4.5689   -1.4462 C   0  0  1  0  0  0  0  0  0  0  0  0
    1.9438   -3.8445   -0.9869 H   0  0  0  0  0  0  0  0  0  0  0  0
    1.0766   -5.7499   -0.5151 C   0  0  2  0  0  0  0  0  0  0  0  0
    0.4834   -6.5166   -1.0135 H   0  0  0  0  0  0  0  0  0  0  0  0
    0.3661   -5.2978    0.7621 C   0  0  0  0  0  0  0  0  0  0  0  0
    0.1315   -6.5053    1.6755 C   0  0  0  0  0  0  0  0  0  0  0  0
    1.4686   -7.1798    1.9188 C   0  0  0  0  0  0  0  0  0  0  0  0
    1.8423   -7.4333    3.1653 C   0  0  0  0  0  0  0  0  0  0  0  0
    3.1406   -8.0669    3.4428 C   0  0  0  0  0  0  0  0  0  0  0  0
    3.4703   -8.3369    4.5826 O   0  0  0  0  0  0  0  0  0  0  0  0
    4.0320   -8.3674    2.3098 C   0  0  0  0  0  0  0  0  0  0  0  0
    3.6353   -8.1122    1.0729 C   0  0  0  0  0  0  0  0  0  0  0  0
    2.3071   -7.5324    0.7259 C   0  0  2  0  0  0  0  0  0  0  0  0
    2.4688   -6.3088   -0.1796 C   0  0  1  0  0  0  0  0  0  0  0  0
    3.0391   -5.5521    0.3591 H   0  0  0  0  0  0  0  0  0  0  0  0
    3.2401   -6.6907   -1.4394 C   0  0  2  0  0  0  0  0  0  0  0  0
    4.2499   -6.9916   -1.1605 H   0  0  0  0  0  0  0  0  0  0  0  0
    3.3220   -5.5206   -2.4322 C   0  0  0  0  0  0  0  0  0  0  0  0
    1.8979   -5.1082   -2.7589 C   0  0  2  0  0  0  0  0  0  0  0  0
    1.7449   -3.9088   -3.7174 C   0  0  2  0  0  0  0  0  0  0  0  0
    2.6524   -2.8635   -3.3325 O   0  0  0  0  0  0  0  0  0  0  0  0
    1.8662   -4.2896   -5.1704 C   0  0  0  0  0  0  0  0  0  0  0  0
    1.6445   -5.4247   -5.5177 O   0  0  0  0  0  0  0  0  0  0  0  0
    2.2641   -3.2537   -6.1901 C   0  0  0  0  0  0  0  0  0  0  0  0
    2.3097   -3.8540   -7.4861 O   0  0  0  0  0  0  0  0  0  0  0  0
    1.1030   -6.3091   -3.2753 C   0  0  0  0  0  0  0  0  0  0  0  0
    2.5840   -7.7915   -2.0718 O   0  0  0  0  0  0  0  0  0  0  0  0
    1.5412   -8.5740   -0.0922 C   0  0  0  0  0  0  0  0  0  0  0  0
    3.3268    2.0372   -2.3656 H   0  0  0  0  0  0  0  0  0  0  0  0
    2.2212    2.1750   -3.7537 H   0  0  0  0  0  0  0  0  0  0  0  0
    1.7263    2.7878   -2.1575 H   0  0  0  0  0  0  0  0  0  0  0  0
    1.7479    0.4752   -1.2631 H   0  0  0  0  0  0  0  0  0  0  0  0
    0.6423    0.6130   -2.6512 H   0  0  0  0  0  0  0  0  0  0  0  0
    2.4057   -0.2857   -4.1449 H   0  0  0  0  0  0  0  0  0  0  0  0
    3.5113   -0.4235   -2.7568 H   0  0  0  0  0  0  0  0  0  0  0  0
   -0.2286   -3.0246   -1.2720 H   0  0  0  0  0  0  0  0  0  0  0  0
   -0.8289   -4.5672   -1.9504 H   0  0  0  0  0  0  0  0  0  0  0  0
    0.9839   -4.5649    1.2810 H   0  0  0  0  0  0  0  0  0  0  0  0
   -0.5919   -4.8465    0.5040 H   0  0  0  0  0  0  0  0  0  0  0  0
   -0.2910   -6.1729    2.6237 H   0  0  0  0  0  0  0  0  0  0  0  0
   -0.5511   -7.2047    1.1928 H   0  0  0  0  0  0  0  0  0  0  0  0
    1.1881   -7.1722    3.9840 H   0  0  0  0  0  0  0  0  0  0  0  0
    5.0077   -8.7949    2.4877 H   0  0  0  0  0  0  0  0  0  0  0  0
    4.3165   -8.3374    0.2656 H   0  0  0  0  0  0  0  0  0  0  0  0
    3.8555   -4.6854   -1.9784 H   0  0  0  0  0  0  0  0  0  0  0  0
    3.8336   -5.8395   -3.3404 H   0  0  0  0  0  0  0  0  0  0  0  0
    1.5338   -2.4445   -6.1900 H   0  0  0  0  0  0  0  0  0  0  0  0
    3.2474   -2.8558   -5.9392 H   0  0  0  0  0  0  0  0  0  0  0  0
    2.5597   -3.2440   -8.1935 H   0  0  0  0  0  0  0  0  0  0  0  0
    0.1498   -5.9675   -3.6789 H   0  0  0  0  0  0  0  0  0  0  0  0
    1.6706   -6.8108   -4.0590 H   0  0  0  0  0  0  0  0  0  0  0  0
    0.9221   -7.0047   -2.4557 H   0  0  0  0  0  0  0  0  0  0  0  0
    3.0157   -8.0936   -2.8826 H   0  0  0  0  0  0  0  0  0  0  0  0
    0.7606   -8.0796   -0.6704 H   0  0  0  0  0  0  0  0  0  0  0  0
    2.2285   -9.0815   -0.7691 H   0  0  0  0  0  0  0  0  0  0  0  0
    1.0888   -9.3031    0.5801 H   0  0  0  0  0  0  0  0  0  0  0  0
  1  2  1  0  0  0  0
  1 38  1  0  0  0  0
  1 39  1  0  0  0  0
  1 40  1  0  0  0  0
  2  3  1  0  0  0  0
  2 41  1  0  0  0  0
  2 42  1  0  0  0  0
  3  4  1  0  0  0  0
  3 43  1  0  0  0  0
  3 44  1  0  0  0  0
  4  5  1  1  0  0  0
  4 30  1  0  0  0  0
  4  6  1  0  0  0  0
  6  7  1  0  0  0  0
  7  8  1  6  0  0  0
  7 29  1  0  0  0  0
  7  9  1  0  0  0  0
  9 10  1  0  0  0  0
  9 45  1  0  0  0  0
  9 46  1  0  0  0  0
 10 11  1  1  0  0  0
 10 28  1  0  0  0  0
 10 12  1  0  0  0  0
 12 13  1  6  0  0  0
 12 23  1  0  0  0  0
 12 14  1  0  0  0  0
 14 15  1  0  0  0  0
 14 47  1  0  0  0  0
 14 48  1  0  0  0  0
 15 16  1  0  0  0  0
 15 49  1  0  0  0  0
 15 50  1  0  0  0  0
 16 22  1  0  0  0  0
 16 17  2  0  0  0  0
 17 18  1  0  0  0  0
 17 51  1  0  0  0  0
 18 19  2  0  0  0  0
 18 20  1  0  0  0  0
 20 21  2  0  0  0  0
 20 52  1  0  0  0  0
 21 22  1  0  0  0  0
 21 53  1  0  0  0  0
 22 23  1  0  0  0  0
 22 37  1  6  0  0  0
 23 24  1  1  0  0  0
 23 25  1  0  0  0  0
 25 26  1  1  0  0  0
 25 27  1  0  0  0  0
 25 36  1  0  0  0  0
 27 28  1  0  0  0  0
 27 54  1  0  0  0  0
 27 55  1  0  0  0  0
 28 29  1  0  0  0  0
 28 35  1  6  0  0  0
 29 30  1  0  0  0  0
 29 31  1  6  0  0  0
 31 32  2  0  0  0  0
 31 33  1  0  0  0  0
 33 34  1  0  0  0  0
 33 56  1  0  0  0  0
 33 57  1  0  0  0  0
 34 58  1  0  0  0  0
 35 59  1  0  0  0  0
 35 60  1  0  0  0  0
 35 61  1  0  0  0  0
 36 62  1  0  0  0  0
 37 63  1  0  0  0  0
 37 64  1  0  0  0  0
 37 65  1  0  0  0  0
M  END
$$$$
