ZINC03938751
 OpenBabel08292219463D

 65 69  0  0  1  0  0  0  0  0999 V2000
   -0.8858    1.3108   -2.5678 C   0  0  0  0  0  0  0  0  0  0  0  0
   -0.8138   -0.2172   -2.5389 C   0  0  0  0  0  0  0  0  0  0  0  0
    0.4588   -0.6813   -3.2503 C   0  0  0  0  0  0  0  0  0  0  0  0
    0.5309   -2.2093   -3.2215 C   0  0  2  0  0  0  0  0  0  0  0  0
   -0.3811   -2.6400   -3.6348 H   0  0  0  0  0  0  0  0  0  0  0  0
    0.7424   -2.6778   -1.8732 O   0  0  0  0  0  0  0  0  0  0  0  0
    1.3067   -3.9970   -2.0202 C   0  0  2  0  0  0  0  0  0  0  0  0
    0.5639   -4.7836   -1.8870 H   0  0  0  0  0  0  0  0  0  0  0  0
    2.4890   -4.1257   -1.0213 C   0  0  0  0  0  0  0  0  0  0  0  0
    3.6801   -3.5873   -1.8210 C   0  0  1  0  0  0  0  0  0  0  0  0
    3.6371   -2.4997   -1.8798 H   0  0  0  0  0  0  0  0  0  0  0  0
    5.0500   -4.0361   -1.3448 C   0  0  2  0  0  0  0  0  0  0  0  0
    5.1039   -5.1248   -1.3531 H   0  0  0  0  0  0  0  0  0  0  0  0
    5.3022   -3.5177    0.0724 C   0  0  0  0  0  0  0  0  0  0  0  0
    6.6696   -4.0029    0.5641 C   0  0  0  0  0  0  0  0  0  0  0  0
    7.7151   -3.5688   -0.4461 C   0  0  0  0  0  0  0  0  0  0  0  0
    8.7843   -2.9099   -0.0217 C   0  0  0  0  0  0  0  0  0  0  0  0
    9.8089   -2.4543   -0.9740 C   0  0  0  0  0  0  0  0  0  0  0  0
   10.8100   -1.8825   -0.5847 O   0  0  0  0  0  0  0  0  0  0  0  0
    9.5951   -2.7054   -2.4093 C   0  0  0  0  0  0  0  0  0  0  0  0
    8.5236   -3.3716   -2.8096 C   0  0  0  0  0  0  0  0  0  0  0  0
    7.4850   -3.9127   -1.8881 C   0  0  2  0  0  0  0  0  0  0  0  0
    6.0883   -3.4580   -2.3193 C   0  0  1  0  0  0  0  0  0  0  0  0
    6.0527   -2.3694   -2.2770 H   0  0  0  0  0  0  0  0  0  0  0  0
    5.8159   -3.8939   -3.7558 C   0  0  2  0  0  0  0  0  0  0  0  0
    6.5181   -3.3899   -4.4198 H   0  0  0  0  0  0  0  0  0  0  0  0
    4.3817   -3.5518   -4.1896 C   0  0  0  0  0  0  0  0  0  0  0  0
    3.4313   -4.2161   -3.2179 C   0  0  2  0  0  0  0  0  0  0  0  0
    1.9274   -4.0003   -3.4486 C   0  0  2  0  0  0  0  0  0  0  0  0
    1.6844   -2.6730   -3.9557 O   0  0  0  0  0  0  0  0  0  0  0  0
    1.3237   -5.0693   -4.3226 C   0  0  0  0  0  0  0  0  0  0  0  0
    1.7673   -6.1922   -4.2967 O   0  0  0  0  0  0  0  0  0  0  0  0
    0.1665   -4.7371   -5.2289 C   0  0  0  0  0  0  0  0  0  0  0  0
   -0.2252   -5.9071   -5.9498 O   0  0  0  0  0  0  0  0  0  0  0  0
    3.7345   -5.7151   -3.1729 C   0  0  0  0  0  0  0  0  0  0  0  0
    6.0085   -5.3061   -3.8591 O   0  0  0  0  0  0  0  0  0  0  0  0
    7.4958   -5.4375   -2.0130 C   0  0  0  0  0  0  0  0  0  0  0  0
   -0.0145    1.7253   -2.0608 H   0  0  0  0  0  0  0  0  0  0  0  0
   -0.9019    1.6543   -3.6021 H   0  0  0  0  0  0  0  0  0  0  0  0
   -1.7925    1.6414   -2.0609 H   0  0  0  0  0  0  0  0  0  0  0  0
   -0.7977   -0.5608   -1.5046 H   0  0  0  0  0  0  0  0  0  0  0  0
   -1.6851   -0.6317   -3.0459 H   0  0  0  0  0  0  0  0  0  0  0  0
    0.4427   -0.3378   -4.2846 H   0  0  0  0  0  0  0  0  0  0  0  0
    1.3302   -0.2668   -2.7433 H   0  0  0  0  0  0  0  0  0  0  0  0
    2.3127   -3.5157   -0.1353 H   0  0  0  0  0  0  0  0  0  0  0  0
    2.6493   -5.1682   -0.7466 H   0  0  0  0  0  0  0  0  0  0  0  0
    5.2840   -2.4278    0.0684 H   0  0  0  0  0  0  0  0  0  0  0  0
    4.5241   -3.8902    0.7386 H   0  0  0  0  0  0  0  0  0  0  0  0
    6.8899   -3.5599    1.5353 H   0  0  0  0  0  0  0  0  0  0  0  0
    6.6666   -5.0897    0.6467 H   0  0  0  0  0  0  0  0  0  0  0  0
    8.9041   -2.7057    1.0320 H   0  0  0  0  0  0  0  0  0  0  0  0
   10.3114   -2.3470   -3.1338 H   0  0  0  0  0  0  0  0  0  0  0  0
    8.3940   -3.5329   -3.8696 H   0  0  0  0  0  0  0  0  0  0  0  0
    4.2318   -2.4727   -4.1576 H   0  0  0  0  0  0  0  0  0  0  0  0
    4.2005   -3.9229   -5.1983 H   0  0  0  0  0  0  0  0  0  0  0  0
   -0.6725   -4.3808   -4.6312 H   0  0  0  0  0  0  0  0  0  0  0  0
    0.4671   -3.9606   -5.9323 H   0  0  0  0  0  0  0  0  0  0  0  0
   -0.9669   -5.7669   -6.5542 H   0  0  0  0  0  0  0  0  0  0  0  0
    2.9488   -6.2283   -2.6185 H   0  0  0  0  0  0  0  0  0  0  0  0
    3.7780   -6.1076   -4.1889 H   0  0  0  0  0  0  0  0  0  0  0  0
    4.6928   -5.8773   -2.6794 H   0  0  0  0  0  0  0  0  0  0  0  0
    5.8535   -5.6604   -4.7454 H   0  0  0  0  0  0  0  0  0  0  0  0
    6.5423   -5.8371   -1.6678 H   0  0  0  0  0  0  0  0  0  0  0  0
    7.6503   -5.7156   -3.0556 H   0  0  0  0  0  0  0  0  0  0  0  0
    8.3026   -5.8462   -1.4046 H   0  0  0  0  0  0  0  0  0  0  0  0
  1  2  1  0  0  0  0
  1 38  1  0  0  0  0
  1 39  1  0  0  0  0
  1 40  1  0  0  0  0
  2  3  1  0  0  0  0
  2 41  1  0  0  0  0
  2 42  1  0  0  0  0
  3  4  1  0  0  0  0
  3 43  1  0  0  0  0
  3 44  1  0  0  0  0
  4  5  1  6  0  0  0
  4 30  1  0  0  0  0
  4  6  1  0  0  0  0
  6  7  1  0  0  0  0
  7  8  1  1  0  0  0
  7 29  1  0  0  0  0
  7  9  1  0  0  0  0
  9 10  1  0  0  0  0
  9 45  1  0  0  0  0
  9 46  1  0  0  0  0
 10 11  1  6  0  0  0
 10 28  1  0  0  0  0
 10 12  1  0  0  0  0
 12 13  1  6  0  0  0
 12 23  1  0  0  0  0
 12 14  1  0  0  0  0
 14 15  1  0  0  0  0
 14 47  1  0  0  0  0
 14 48  1  0  0  0  0
 15 16  1  0  0  0  0
 15 49  1  0  0  0  0
 15 50  1  0  0  0  0
 16 22  1  0  0  0  0
 16 17  2  0  0  0  0
 17 18  1  0  0  0  0
 17 51  1  0  0  0  0
 18 19  2  0  0  0  0
 18 20  1  0  0  0  0
 20 21  2  0  0  0  0
 20 52  1  0  0  0  0
 21 22  1  0  0  0  0
 21 53  1  0  0  0  0
 22 23  1  0  0  0  0
 22 37  1  6  0  0  0
 23 24  1  1  0  0  0
 23 25  1  0  0  0  0
 25 26  1  6  0  0  0
 25 27  1  0  0  0  0
 25 36  1  0  0  0  0
 27 28  1  0  0  0  0
 27 54  1  0  0  0  0
 27 55  1  0  0  0  0
 28 29  1  0  0  0  0
 28 35  1  1  0  0  0
 29 30  1  0  0  0  0
 29 31  1  6  0  0  0
 31 32  2  0  0  0  0
 31 33  1  0  0  0  0
 33 34  1  0  0  0  0
 33 56  1  0  0  0  0
 33 57  1  0  0  0  0
 34 58  1  0  0  0  0
 35 59  1  0  0  0  0
 35 60  1  0  0  0  0
 35 61  1  0  0  0  0
 36 62  1  0  0  0  0
 37 63  1  0  0  0  0
 37 64  1  0  0  0  0
 37 65  1  0  0  0  0
M  END
$$$$
