ZINC04016817
 OpenBabel08292219463D

 60 62  0  0  0  0  0  0  0  0999 V2000
    5.8694    2.3943   -0.8713 C   0  0  0  0  0  0  0  0  0  0  0  0
    4.6625    1.4540   -0.8665 C   0  0  0  0  0  0  0  0  0  0  0  0
    3.5333    2.1313   -0.3115 O   0  0  0  0  0  0  0  0  0  0  0  0
    2.3698    1.4309   -0.2340 C   0  0  0  0  0  0  0  0  0  0  0  0
    2.3208    0.1198   -0.6838 C   0  0  0  0  0  0  0  0  0  0  0  0
    1.1439   -0.5954   -0.6083 C   0  0  0  0  0  0  0  0  0  0  0  0
   -0.0035    0.0016   -0.0772 C   0  0  0  0  0  0  0  0  0  0  0  0
    0.0470    1.3233    0.3759 C   0  0  0  0  0  0  0  0  0  0  0  0
    1.2311    2.0327    0.2964 C   0  0  0  0  0  0  0  0  0  0  0  0
    1.2839    3.3186    0.7357 O   0  0  0  0  0  0  0  0  0  0  0  0
    0.0786    3.8725    1.2671 C   0  0  0  0  0  0  0  0  0  0  0  0
    0.3312    5.3162    1.7064 C   0  0  0  0  0  0  0  0  0  0  0  0
   -1.2612   -0.7592    0.0042 C   0  0  0  0  0  0  0  0  0  0  0  0
   -1.2440   -2.1060   -0.0998 C   0  0  0  0  0  0  0  0  0  0  0  0
   -2.4934   -2.8982   -0.2001 C   0  0  0  0  0  0  0  0  0  0  0  0
   -3.7292   -2.2683   -0.0526 C   0  0  0  0  0  0  0  0  0  0  0  0
   -4.8934   -3.0063   -0.1596 C   0  0  0  0  0  0  0  0  0  0  0  0
   -4.8244   -4.3736   -0.4195 C   0  0  0  0  0  0  0  0  0  0  0  0
   -3.5956   -4.9963   -0.5676 C   0  0  0  0  0  0  0  0  0  0  0  0
   -2.4249   -4.2671   -0.4600 C   0  0  0  0  0  0  0  0  0  0  0  0
   -1.1050   -4.9725   -0.6186 C   0  0  0  0  0  0  0  0  0  0  0  0
   -0.0025   -3.9952   -1.0225 C   0  0  0  0  0  0  0  0  0  0  0  0
   -0.0407   -2.8321   -0.1188 N   0  0  0  0  0  0  0  0  0  0  0  0
   -5.9683   -5.1000   -0.5278 O   0  0  0  0  0  0  0  0  0  0  0  0
   -5.8270   -6.4968   -0.7946 C   0  0  0  0  0  0  0  0  0  0  0  0
   -7.2115   -7.1420   -0.8816 C   0  0  0  0  0  0  0  0  0  0  0  0
   -6.1017   -2.3998   -0.0120 O   0  0  0  0  0  0  0  0  0  0  0  0
   -6.0948   -0.9956    0.2528 C   0  0  0  0  0  0  0  0  0  0  0  0
   -7.5343   -0.4948    0.3867 C   0  0  0  0  0  0  0  0  0  0  0  0
    6.7308    1.8776   -1.2947 H   0  0  0  0  0  0  0  0  0  0  0  0
    5.6419    3.2744   -1.4729 H   0  0  0  0  0  0  0  0  0  0  0  0
    6.0954    2.7007    0.1500 H   0  0  0  0  0  0  0  0  0  0  0  0
    4.8900    0.5739   -0.2650 H   0  0  0  0  0  0  0  0  0  0  0  0
    4.4366    1.1475   -1.8878 H   0  0  0  0  0  0  0  0  0  0  0  0
    3.2064   -0.3421   -1.0945 H   0  0  0  0  0  0  0  0  0  0  0  0
    1.1088   -1.6163   -0.9590 H   0  0  0  0  0  0  0  0  0  0  0  0
   -0.8376    1.7903    0.7828 H   0  0  0  0  0  0  0  0  0  0  0  0
   -0.6973    3.8562    0.5017 H   0  0  0  0  0  0  0  0  0  0  0  0
   -0.2448    3.2830    2.1250 H   0  0  0  0  0  0  0  0  0  0  0  0
    1.1070    5.3327    2.4718 H   0  0  0  0  0  0  0  0  0  0  0  0
    0.6546    5.9057    0.8485 H   0  0  0  0  0  0  0  0  0  0  0  0
   -0.5882    5.7387    2.1119 H   0  0  0  0  0  0  0  0  0  0  0  0
   -2.1977   -0.2406    0.1472 H   0  0  0  0  0  0  0  0  0  0  0  0
   -3.7762   -1.2081    0.1480 H   0  0  0  0  0  0  0  0  0  0  0  0
   -3.5515   -6.0566   -0.7684 H   0  0  0  0  0  0  0  0  0  0  0  0
   -1.2003   -5.7408   -1.3859 H   0  0  0  0  0  0  0  0  0  0  0  0
   -0.8360   -5.4442    0.3265 H   0  0  0  0  0  0  0  0  0  0  0  0
   -0.1649   -3.6656   -2.0487 H   0  0  0  0  0  0  0  0  0  0  0  0
    0.9681   -4.4853   -0.9458 H   0  0  0  0  0  0  0  0  0  0  0  0
   -1.6494   -0.8605   -0.9118 H   0  0  0  0  0  0  0  0  0  0  0  0
   -5.3017   -6.6348   -1.7397 H   0  0  0  0  0  0  0  0  0  0  0  0
   -5.2580   -6.9644    0.0089 H   0  0  0  0  0  0  0  0  0  0  0  0
   -7.1037   -8.2074   -1.0851 H   0  0  0  0  0  0  0  0  0  0  0  0
   -7.7368   -7.0040    0.0634 H   0  0  0  0  0  0  0  0  0  0  0  0
   -7.7805   -6.6744   -1.6852 H   0  0  0  0  0  0  0  0  0  0  0  0
   -5.5554   -0.8034    1.1803 H   0  0  0  0  0  0  0  0  0  0  0  0
   -5.6033   -0.4735   -0.5682 H   0  0  0  0  0  0  0  0  0  0  0  0
   -7.5290    0.5763    0.5887 H   0  0  0  0  0  0  0  0  0  0  0  0
   -8.0736   -0.6870   -0.5408 H   0  0  0  0  0  0  0  0  0  0  0  0
   -8.0257   -1.0169    1.2076 H   0  0  0  0  0  0  0  0  0  0  0  0
  1  2  1  0  0  0  0
  1 30  1  0  0  0  0
  1 31  1  0  0  0  0
  1 32  1  0  0  0  0
  2  3  1  0  0  0  0
  2 33  1  0  0  0  0
  2 34  1  0  0  0  0
  3  4  1  0  0  0  0
  4  9  2  0  0  0  0
  4  5  1  0  0  0  0
  5  6  2  0  0  0  0
  5 35  1  0  0  0  0
  6  7  1  0  0  0  0
  6 36  1  0  0  0  0
  7  8  2  0  0  0  0
  7 13  1  0  0  0  0
  8  9  1  0  0  0  0
  8 37  1  0  0  0  0
  9 10  1  0  0  0  0
 10 11  1  0  0  0  0
 11 12  1  0  0  0  0
 11 38  1  0  0  0  0
 11 39  1  0  0  0  0
 12 40  1  0  0  0  0
 12 41  1  0  0  0  0
 12 42  1  0  0  0  0
 13 43  1  0  0  0  0
 13 50  1  0  0  0  0
 13 14  1  0  0  0  0
 14 15  1  0  0  0  0
 14 23  2  0  0  0  0
 15 20  2  0  0  0  0
 15 16  1  0  0  0  0
 16 17  2  0  0  0  0
 16 44  1  0  0  0  0
 17 18  1  0  0  0  0
 17 27  1  0  0  0  0
 18 19  2  0  0  0  0
 18 24  1  0  0  0  0
 19 20  1  0  0  0  0
 19 45  1  0  0  0  0
 20 21  1  0  0  0  0
 21 22  1  0  0  0  0
 21 46  1  0  0  0  0
 21 47  1  0  0  0  0
 22 48  1  0  0  0  0
 22 49  1  0  0  0  0
 22 23  1  0  0  0  0
 24 25  1  0  0  0  0
 25 26  1  0  0  0  0
 25 51  1  0  0  0  0
 25 52  1  0  0  0  0
 26 53  1  0  0  0  0
 26 54  1  0  0  0  0
 26 55  1  0  0  0  0
 27 28  1  0  0  0  0
 28 29  1  0  0  0  0
 28 56  1  0  0  0  0
 28 57  1  0  0  0  0
 29 58  1  0  0  0  0
 29 59  1  0  0  0  0
 29 60  1  0  0  0  0
M  END
$$$$
