ZINC01542901
 OpenBabel08292219463D

 57 59  0  0  1  0  0  0  0  0999 V2000
   -0.0184    1.5028    0.0103 C   0  0  0  0  0  0  0  0  0  0  0  0
    0.0021   -0.0041    0.0020 C   0  0  0  0  0  0  0  0  0  0  0  0
    0.0074   -0.7688   -1.1009 C   0  0  0  0  0  0  0  0  0  0  0  0
    0.0284   -2.1638   -0.6544 C   0  0  0  0  0  0  0  0  0  0  0  0
    0.0343   -2.1233    0.7506 C   0  0  0  0  0  0  0  0  0  0  0  0
    0.0239   -0.7965    1.1186 N   0  0  0  0  0  0  0  0  0  0  0  0
    0.0291   -0.4715    2.0326 H   0  0  0  0  0  0  0  0  0  0  0  0
    0.0538   -3.3147    1.4698 C   0  0  0  0  0  0  0  0  0  0  0  0
    0.0676   -4.5211    0.8049 C   0  0  0  0  0  0  0  0  0  0  0  0
    0.0618   -4.5662   -0.5819 C   0  0  0  0  0  0  0  0  0  0  0  0
    0.0425   -3.3969   -1.3176 C   0  0  0  0  0  0  0  0  0  0  0  0
    0.0372   -3.4433   -2.6756 O   0  0  0  0  0  0  0  0  0  0  0  0
    0.0523   -4.7378   -3.2806 C   0  0  0  0  0  0  0  0  0  0  0  0
    0.0436   -4.5892   -4.8033 C   0  0  2  0  0  0  0  0  0  0  0  0
    0.1447   -5.5715   -5.2648 H   0  0  0  0  0  0  0  0  0  0  0  0
    1.2112   -3.7000   -5.2357 C   0  0  0  0  0  0  0  0  0  0  0  0
    1.2029   -3.5573   -6.6977 N   0  3  0  0  0  0  0  0  0  0  0  0
    2.3239   -2.7035   -7.1128 C   0  0  0  0  0  0  0  0  0  0  0  0
    3.6421   -3.3417   -6.6702 C   0  0  0  0  0  0  0  0  0  0  0  0
    2.3152   -2.5549   -8.6356 C   0  0  0  0  0  0  0  0  0  0  0  0
    2.1820   -1.3247   -6.4650 C   0  0  0  0  0  0  0  0  0  0  0  0
   -1.1876   -3.9931   -5.2167 O   0  0  0  0  0  0  0  0  0  0  0  0
   -1.6505   -4.3290   -6.4364 C   0  0  0  0  0  0  0  0  0  0  0  0
   -1.0262   -5.1066   -7.1300 O   0  0  0  0  0  0  0  0  0  0  0  0
   -2.9174   -3.7517   -6.9303 C   0  0  0  0  0  0  0  0  0  0  0  0
   -3.6346   -2.8532   -6.1379 C   0  0  0  0  0  0  0  0  0  0  0  0
   -4.8170   -2.3179   -6.6053 C   0  0  0  0  0  0  0  0  0  0  0  0
   -5.2925   -2.6695   -7.8562 C   0  0  0  0  0  0  0  0  0  0  0  0
   -4.5870   -3.5597   -8.6465 C   0  0  0  0  0  0  0  0  0  0  0  0
   -3.4001   -4.0977   -8.1940 C   0  0  0  0  0  0  0  0  0  0  0  0
    1.0042    1.8801    0.0026 H   0  0  0  0  0  0  0  0  0  0  0  0
   -0.5455    1.8639   -0.8728 H   0  0  0  0  0  0  0  0  0  0  0  0
   -0.5286    1.8543    0.9071 H   0  0  0  0  0  0  0  0  0  0  0  0
   -0.0026   -0.4216   -2.1235 H   0  0  0  0  0  0  0  0  0  0  0  0
    0.0585   -3.2934    2.5496 H   0  0  0  0  0  0  0  0  0  0  0  0
    0.0834   -5.4419    1.3691 H   0  0  0  0  0  0  0  0  0  0  0  0
    0.0731   -5.5199   -1.0886 H   0  0  0  0  0  0  0  0  0  0  0  0
    0.9511   -5.2721   -2.9728 H   0  0  0  0  0  0  0  0  0  0  0  0
   -0.8286   -5.2967   -2.9650 H   0  0  0  0  0  0  0  0  0  0  0  0
    1.1101   -2.7177   -4.7742 H   0  0  0  0  0  0  0  0  0  0  0  0
    2.1504   -4.1546   -4.9204 H   0  0  0  0  0  0  0  0  0  0  0  0
    1.2964   -4.4666   -7.1249 H   0  0  0  0  0  0  0  0  0  0  0  0
    3.7432   -4.3240   -7.1317 H   0  0  0  0  0  0  0  0  0  0  0  0
    4.4740   -2.7083   -6.9782 H   0  0  0  0  0  0  0  0  0  0  0  0
    3.6483   -3.4476   -5.5854 H   0  0  0  0  0  0  0  0  0  0  0  0
    1.3761   -2.1003   -8.9509 H   0  0  0  0  0  0  0  0  0  0  0  0
    3.1470   -1.9215   -8.9436 H   0  0  0  0  0  0  0  0  0  0  0  0
    2.4163   -3.5372   -9.0971 H   0  0  0  0  0  0  0  0  0  0  0  0
    2.1882   -1.4306   -5.3802 H   0  0  0  0  0  0  0  0  0  0  0  0
    3.0138   -0.6912   -6.7730 H   0  0  0  0  0  0  0  0  0  0  0  0
    1.2429   -0.8701   -6.7803 H   0  0  0  0  0  0  0  0  0  0  0  0
   -3.2648   -2.5782   -5.1612 H   0  0  0  0  0  0  0  0  0  0  0  0
   -5.3729   -1.6231   -5.9933 H   0  0  0  0  0  0  0  0  0  0  0  0
   -6.2187   -2.2475   -8.2173 H   0  0  0  0  0  0  0  0  0  0  0  0
   -4.9642   -3.8304   -9.6216 H   0  0  0  0  0  0  0  0  0  0  0  0
   -2.8480   -4.7886   -8.8138 H   0  0  0  0  0  0  0  0  0  0  0  0
    0.3335   -3.1364   -6.9896 H   0  0  0  0  0  0  0  0  0  0  0  0
  1  2  1  0  0  0  0
  1 31  1  0  0  0  0
  1 32  1  0  0  0  0
  1 33  1  0  0  0  0
  2  6  1  0  0  0  0
  2  3  2  0  0  0  0
  3  4  1  0  0  0  0
  3 34  1  0  0  0  0
  4 11  2  0  0  0  0
  4  5  1  0  0  0  0
  5  6  1  0  0  0  0
  5  8  2  0  0  0  0
  6  7  1  0  0  0  0
  8  9  1  0  0  0  0
  8 35  1  0  0  0  0
  9 10  2  0  0  0  0
  9 36  1  0  0  0  0
 10 11  1  0  0  0  0
 10 37  1  0  0  0  0
 11 12  1  0  0  0  0
 12 13  1  0  0  0  0
 13 14  1  0  0  0  0
 13 38  1  0  0  0  0
 13 39  1  0  0  0  0
 14 15  1  6  0  0  0
 14 16  1  0  0  0  0
 14 22  1  0  0  0  0
 16 17  1  0  0  0  0
 16 40  1  0  0  0  0
 16 41  1  0  0  0  0
 17 18  1  0  0  0  0
 17 42  1  0  0  0  0
 17 57  1  0  0  0  0
 18 19  1  0  0  0  0
 18 20  1  0  0  0  0
 18 21  1  0  0  0  0
 19 43  1  0  0  0  0
 19 44  1  0  0  0  0
 19 45  1  0  0  0  0
 20 46  1  0  0  0  0
 20 47  1  0  0  0  0
 20 48  1  0  0  0  0
 21 49  1  0  0  0  0
 21 50  1  0  0  0  0
 21 51  1  0  0  0  0
 22 23  1  0  0  0  0
 23 24  2  0  0  0  0
 23 25  1  0  0  0  0
 25 30  2  0  0  0  0
 25 26  1  0  0  0  0
 26 27  2  0  0  0  0
 26 52  1  0  0  0  0
 27 28  1  0  0  0  0
 27 53  1  0  0  0  0
 28 29  2  0  0  0  0
 28 54  1  0  0  0  0
 29 30  1  0  0  0  0
 29 55  1  0  0  0  0
 30 56  1  0  0  0  0
M  CHG  1  17   1
M  END
$$$$
