ZINC00000903
 OpenBabel08292219463D

 35 38  0  0  0  0  0  0  0  0999 V2000
   -0.0220    1.5069    0.0179 C   0  0  0  0  0  0  0  0  0  0  0  0
   -0.0001    0.0001    0.0066 C   0  0  0  0  0  0  0  0  0  0  0  0
   -0.0845   -0.7720   -1.0454 N   0  0  0  0  0  0  0  0  0  0  0  0
   -0.0140   -2.0077   -0.6894 N   0  0  0  0  0  0  0  0  0  0  0  0
    0.1276   -2.0833    0.6024 C   0  0  0  0  0  0  0  0  0  0  0  0
    0.1172   -0.8159    1.0872 N   0  0  0  0  0  0  0  0  0  0  0  0
    0.1743   -0.4512    2.4330 C   0  0  0  0  0  0  0  0  0  0  0  0
   -0.5684    0.6483    2.8512 C   0  0  0  0  0  0  0  0  0  0  0  0
   -0.5714    1.0275    4.1771 C   0  0  0  0  0  0  0  0  0  0  0  0
    0.1672    0.3095    5.1044 C   0  0  0  0  0  0  0  0  0  0  0  0
    0.9183   -0.7724    4.7035 C   0  0  0  0  0  0  0  0  0  0  0  0
    0.9456   -1.1610    3.3555 C   0  0  0  0  0  0  0  0  0  0  0  0
    1.8244   -2.2727    2.9758 C   0  0  0  0  0  0  0  0  0  0  0  0
    1.5841   -3.2218    2.1400 N   0  0  0  0  0  0  0  0  0  0  0  0
    0.2951   -3.3284    1.4362 C   0  0  0  0  0  0  0  0  0  0  0  0
    3.1508   -2.3071    3.6347 C   0  0  0  0  0  0  0  0  0  0  0  0
    3.8355   -3.5149    3.7677 C   0  0  0  0  0  0  0  0  0  0  0  0
    5.0708   -3.5404    4.3818 C   0  0  0  0  0  0  0  0  0  0  0  0
    5.6302   -2.3712    4.8656 C   0  0  0  0  0  0  0  0  0  0  0  0
    4.9560   -1.1700    4.7366 C   0  0  0  0  0  0  0  0  0  0  0  0
    3.7226   -1.1308    4.1192 C   0  0  0  0  0  0  0  0  0  0  0  0
    0.1457    0.7763    6.7763 Cl  0  0  0  0  0  0  0  0  0  0  0  0
    1.0002    1.8852    0.0261 H   0  0  0  0  0  0  0  0  0  0  0  0
   -0.5365    1.8695   -0.8720 H   0  0  0  0  0  0  0  0  0  0  0  0
   -0.5457    1.8560    0.9079 H   0  0  0  0  0  0  0  0  0  0  0  0
   -1.1467    1.2093    2.1320 H   0  0  0  0  0  0  0  0  0  0  0  0
   -1.1489    1.8838    4.4928 H   0  0  0  0  0  0  0  0  0  0  0  0
    1.4910   -1.3265    5.4324 H   0  0  0  0  0  0  0  0  0  0  0  0
   -0.5214   -3.4046    2.1543 H   0  0  0  0  0  0  0  0  0  0  0  0
    0.3034   -4.2067    0.7908 H   0  0  0  0  0  0  0  0  0  0  0  0
    3.3994   -4.4284    3.3911 H   0  0  0  0  0  0  0  0  0  0  0  0
    5.6019   -4.4750    4.4854 H   0  0  0  0  0  0  0  0  0  0  0  0
    6.5971   -2.3963    5.3461 H   0  0  0  0  0  0  0  0  0  0  0  0
    5.3978   -0.2606    5.1162 H   0  0  0  0  0  0  0  0  0  0  0  0
    3.1992   -0.1919    4.0151 H   0  0  0  0  0  0  0  0  0  0  0  0
  1  2  1  0  0  0  0
  1 23  1  0  0  0  0
  1 24  1  0  0  0  0
  1 25  1  0  0  0  0
  2  6  1  0  0  0  0
  2  3  2  0  0  0  0
  3  4  1  0  0  0  0
  4  5  2  0  0  0  0
  5 15  1  0  0  0  0
  5  6  1  0  0  0  0
  6  7  1  0  0  0  0
  7 12  2  0  0  0  0
  7  8  1  0  0  0  0
  8  9  2  0  0  0  0
  8 26  1  0  0  0  0
  9 10  1  0  0  0  0
  9 27  1  0  0  0  0
 10 11  2  0  0  0  0
 10 22  1  0  0  0  0
 11 12  1  0  0  0  0
 11 28  1  0  0  0  0
 12 13  1  0  0  0  0
 13 14  2  0  0  0  0
 13 16  1  0  0  0  0
 14 15  1  0  0  0  0
 15 29  1  0  0  0  0
 15 30  1  0  0  0  0
 16 21  2  0  0  0  0
 16 17  1  0  0  0  0
 17 18  2  0  0  0  0
 17 31  1  0  0  0  0
 18 19  1  0  0  0  0
 18 32  1  0  0  0  0
 19 20  2  0  0  0  0
 19 33  1  0  0  0  0
 20 21  1  0  0  0  0
 20 34  1  0  0  0  0
 21 35  1  0  0  0  0
M  END
$$$$
