ZINC01534965
 OpenBabel08292219463D

 54 57  0  0  1  0  0  0  0  0999 V2000
    0.0272    1.3534    0.4046 C   0  0  0  0  0  0  0  0  0  0  0  0
    1.2231    2.0662    0.4443 C   0  0  0  0  0  0  0  0  0  0  0  0
    2.4221    1.4336    0.3184 C   0  0  0  0  0  0  0  0  0  0  0  0
    2.4614    0.0392    0.1457 C   0  0  0  0  0  0  0  0  0  0  0  0
    1.2433   -0.6821    0.1062 C   0  0  0  0  0  0  0  0  0  0  0  0
    0.0264    0.0009    0.2386 C   0  0  0  0  0  0  0  0  0  0  0  0
    1.2817   -2.0874   -0.0677 C   0  0  0  0  0  0  0  0  0  0  0  0
    2.5392   -2.6952   -0.1929 C   0  0  0  0  0  0  0  0  0  0  0  0
    3.6942   -1.8999   -0.1419 C   0  0  0  0  0  0  0  0  0  0  0  0
    3.6291   -0.6027    0.0203 N   0  0  0  0  0  0  0  0  0  0  0  0
    5.0441   -2.5562   -0.2767 C   0  0  0  0  0  0  0  0  0  0  0  0
    6.2791   -1.6918   -0.0153 C   0  0  0  0  0  0  0  0  0  0  0  0
    5.9304   -2.1156   -1.4434 C   0  0  0  0  0  0  0  0  0  0  0  0
    2.6467   -4.1553   -0.3759 C   0  0  0  0  0  0  0  0  0  0  0  0
    2.0387   -4.7425   -1.3994 C   0  0  0  0  0  0  0  0  0  0  0  0
    2.0534   -6.2443   -1.5237 C   0  0  2  0  0  0  0  0  0  0  0  0
    2.6119   -6.5297   -2.4152 H   0  0  0  0  0  0  0  0  0  0  0  0
    0.6175   -6.7609   -1.6344 C   0  0  0  0  0  0  0  0  0  0  0  0
    0.6364   -8.2701   -1.8854 C   0  0  2  0  0  0  0  0  0  0  0  0
    1.2444   -8.4846   -2.7643 H   0  0  0  0  0  0  0  0  0  0  0  0
   -0.7919   -8.7660   -2.1200 C   0  0  0  0  0  0  0  0  0  0  0  0
   -0.7623  -10.2271   -2.4880 C   0  0  0  0  0  0  0  0  0  0  0  0
    0.3025  -10.8170   -2.5564 O   0  0  0  0  0  0  0  0  0  0  0  0
   -1.8031  -10.8192   -2.7174 O   0  0  0  0  0  1  0  0  0  0  0  0
    1.1909   -8.9352   -0.7486 O   0  0  0  0  0  0  0  0  0  0  0  0
    2.6762   -6.8118   -0.3695 O   0  0  0  0  0  0  0  0  0  0  0  0
    0.0384   -2.8861   -0.1151 C   0  0  0  0  0  0  0  0  0  0  0  0
   -0.2611   -3.7780    0.9163 C   0  0  0  0  0  0  0  0  0  0  0  0
   -1.4222   -4.5201    0.8673 C   0  0  0  0  0  0  0  0  0  0  0  0
   -2.2914   -4.3817   -0.2035 C   0  0  0  0  0  0  0  0  0  0  0  0
   -1.9990   -3.4976   -1.2303 C   0  0  0  0  0  0  0  0  0  0  0  0
   -0.8433   -2.7468   -1.1887 C   0  0  0  0  0  0  0  0  0  0  0  0
   -3.4275   -5.1115   -0.2469 F   0  0  0  0  0  0  0  0  0  0  0  0
   -0.9106    1.8785    0.5110 H   0  0  0  0  0  0  0  0  0  0  0  0
    1.1990    3.1378    0.5768 H   0  0  0  0  0  0  0  0  0  0  0  0
    3.3402    2.0015    0.3507 H   0  0  0  0  0  0  0  0  0  0  0  0
   -0.9068   -0.5419    0.2096 H   0  0  0  0  0  0  0  0  0  0  0  0
    5.0897   -3.6033    0.0225 H   0  0  0  0  0  0  0  0  0  0  0  0
    6.1153   -0.6484    0.2543 H   0  0  0  0  0  0  0  0  0  0  0  0
    7.1376   -2.1701    0.4562 H   0  0  0  0  0  0  0  0  0  0  0  0
    6.5594   -2.8728   -1.9115 H   0  0  0  0  0  0  0  0  0  0  0  0
    5.5371   -1.3511   -2.1135 H   0  0  0  0  0  0  0  0  0  0  0  0
    3.2201   -4.7463    0.3229 H   0  0  0  0  0  0  0  0  0  0  0  0
    1.5335   -4.1440   -2.1431 H   0  0  0  0  0  0  0  0  0  0  0  0
    0.0842   -6.5536   -0.7066 H   0  0  0  0  0  0  0  0  0  0  0  0
    0.1143   -6.2612   -2.4621 H   0  0  0  0  0  0  0  0  0  0  0  0
   -1.3769   -8.6324   -1.2100 H   0  0  0  0  0  0  0  0  0  0  0  0
   -1.2458   -8.1962   -2.9307 H   0  0  0  0  0  0  0  0  0  0  0  0
    0.6996   -8.7884    0.0713 H   0  0  0  0  0  0  0  0  0  0  0  0
    2.2313   -6.5987    0.4622 H   0  0  0  0  0  0  0  0  0  0  0  0
    0.4156   -3.8869    1.7510 H   0  0  0  0  0  0  0  0  0  0  0  0
   -1.6547   -5.2106    1.6645 H   0  0  0  0  0  0  0  0  0  0  0  0
   -2.6797   -3.3937   -2.0623 H   0  0  0  0  0  0  0  0  0  0  0  0
   -0.6186   -2.0549   -1.9870 H   0  0  0  0  0  0  0  0  0  0  0  0
  1  6  2  0  0  0  0
  1  2  1  0  0  0  0
  1 34  1  0  0  0  0
  2  3  2  0  0  0  0
  2 35  1  0  0  0  0
  3  4  1  0  0  0  0
  3 36  1  0  0  0  0
  4 10  2  0  0  0  0
  4  5  1  0  0  0  0
  5  6  1  0  0  0  0
  5  7  2  0  0  0  0
  6 37  1  0  0  0  0
  7  8  1  0  0  0  0
  7 27  1  0  0  0  0
  8  9  2  0  0  0  0
  8 14  1  0  0  0  0
  9 10  1  0  0  0  0
  9 11  1  0  0  0  0
 11 13  1  0  0  0  0
 11 12  1  0  0  0  0
 11 38  1  0  0  0  0
 12 13  1  0  0  0  0
 12 39  1  0  0  0  0
 12 40  1  0  0  0  0
 13 41  1  0  0  0  0
 13 42  1  0  0  0  0
 14 15  2  0  0  0  0
 14 43  1  0  0  0  0
 15 16  1  0  0  0  0
 15 44  1  0  0  0  0
 16 17  1  6  0  0  0
 16 18  1  0  0  0  0
 16 26  1  0  0  0  0
 18 19  1  0  0  0  0
 18 45  1  0  0  0  0
 18 46  1  0  0  0  0
 19 20  1  6  0  0  0
 19 21  1  0  0  0  0
 19 25  1  0  0  0  0
 21 22  1  0  0  0  0
 21 47  1  0  0  0  0
 21 48  1  0  0  0  0
 22 23  2  0  0  0  0
 22 24  1  0  0  0  0
 25 49  1  0  0  0  0
 26 50  1  0  0  0  0
 27 32  2  0  0  0  0
 27 28  1  0  0  0  0
 28 29  2  0  0  0  0
 28 51  1  0  0  0  0
 29 30  1  0  0  0  0
 29 52  1  0  0  0  0
 30 31  2  0  0  0  0
 30 33  1  0  0  0  0
 31 32  1  0  0  0  0
 31 53  1  0  0  0  0
 32 54  1  0  0  0  0
M  END
$$$$
