ZINC96006023
 OpenBabel08292219463D

 62 66  0  0  1  0  0  0  0  0999 V2000
   -0.2514    1.4645   -0.4195 C   0  0  0  0  0  0  0  0  0  0  0  0
   -0.1768   -0.0619   -0.3460 C   0  0  0  0  0  0  0  0  0  0  0  0
    0.5772   -0.5559   -1.4548 O   0  0  0  0  0  0  0  0  0  0  0  0
    0.7067   -1.9657   -1.4809 N   0  0  0  0  0  0  0  0  0  0  0  0
    1.3713   -2.5406   -2.4410 C   0  0  0  0  0  0  0  0  0  0  0  0
    1.9922   -1.7200   -3.5064 C   0  0  0  0  0  0  0  0  0  0  0  0
    1.8890   -0.4010   -3.5005 N   0  0  0  0  0  0  0  0  0  0  0  0
    2.4692    0.2635   -4.4831 C   0  0  0  0  0  0  0  0  0  0  0  0
    3.1534   -0.9625   -5.4059 S   0  0  0  0  0  0  0  0  0  0  0  0
    2.6705   -2.2797   -4.4888 N   0  0  0  0  0  0  0  0  0  0  0  0
    2.5042    1.6288   -4.6993 N   0  0  0  0  0  0  0  0  0  0  0  0
    3.2950    2.2326   -6.0029 P   0  0  0  0  0  0  0  0  0  0  0  0
    4.8267    1.9312   -5.8703 O   0  0  0  0  0  0  0  0  0  0  0  0
    2.7418    1.5618   -7.3062 O   0  0  0  0  0  1  0  0  0  0  0  0
    3.0721    3.7815   -6.0778 O   0  0  0  0  0  1  0  0  0  0  0  0
    1.5067   -4.0154   -2.4683 C   0  0  0  0  0  0  0  0  0  0  0  0
    2.1273   -4.5520   -3.3647 O   0  0  0  0  0  0  0  0  0  0  0  0
    0.9418   -4.7620   -1.4989 N   0  0  0  0  0  0  0  0  0  0  0  0
    1.0757   -6.2206   -1.5259 C   0  0  1  0  0  0  0  0  0  0  0  0
    1.9635   -6.5494   -2.0660 H   0  0  0  0  0  0  0  0  0  0  0  0
    0.9357   -6.8615   -0.1550 C   0  0  2  0  0  0  0  0  0  0  0  0
    1.6330   -7.6692    0.0675 H   0  0  0  0  0  0  0  0  0  0  0  0
   -0.4053   -7.2595   -0.6778 N   0  0  0  0  0  0  0  0  0  0  0  0
   -0.1868   -6.9283   -1.9650 C   0  0  0  0  0  0  0  0  0  0  0  0
   -0.7544   -7.1156   -3.0207 O   0  0  0  0  0  0  0  0  0  0  0  0
   -1.5125   -7.6816    0.1008 C   0  0  0  0  0  0  0  0  0  0  0  0
   -1.5723   -7.3757    1.4093 C   0  0  0  0  0  0  0  0  0  0  0  0
   -0.5474   -6.6748    2.2399 C   0  0  0  0  0  0  0  0  0  0  0  0
    0.6341   -5.7073    1.2251 S   0  0  0  0  0  0  0  0  0  0  0  0
   -3.0435   -7.8619    2.2483 S   0  0  0  0  0  0  0  0  0  0  0  0
   -3.8074   -6.3362    2.6882 C   0  0  0  0  0  0  0  0  0  0  0  0
   -4.8881   -6.1225    3.4160 N   0  0  0  0  0  0  0  0  0  0  0  0
   -5.3278   -4.8950    3.6504 C   0  0  0  0  0  0  0  0  0  0  0  0
   -4.6487   -3.8283    3.1280 C   0  0  0  0  0  0  0  0  0  0  0  0
   -3.3203   -4.6671    2.2742 S   0  0  0  0  0  0  0  0  0  0  0  0
   -6.5436   -4.6794    4.4698 C   0  0  0  0  0  0  0  0  0  0  0  0
   -7.0222   -3.3890    4.7197 C   0  0  0  0  0  0  0  0  0  0  0  0
   -8.1571   -3.2336    5.4875 C   0  0  0  0  0  3  0  0  0  0  0  0
   -8.7885   -4.2812    5.9831 N   0  0  0  0  0  0  0  0  0  0  0  0
   -8.3702   -5.5149    5.7716 C   0  0  0  0  0  0  0  0  0  0  0  0
   -7.2473   -5.7609    5.0099 C   0  0  0  0  0  0  0  0  0  0  0  0
   -9.9903   -4.0681    6.7932 C   0  0  0  0  0  0  0  0  0  0  0  0
   -2.5532   -8.4232   -0.4978 C   0  0  0  0  0  0  0  0  0  0  0  0
   -3.5324   -8.9246    0.2546 O   0  0  0  0  0  0  0  0  0  0  0  0
   -2.5570   -8.6222   -1.8157 O   0  0  0  0  0  1  0  0  0  0  0  0
    0.7560    1.8795   -0.3876 H   0  0  0  0  0  0  0  0  0  0  0  0
   -0.7369    1.7602   -1.3496 H   0  0  0  0  0  0  0  0  0  0  0  0
   -0.8265    1.8414    0.4263 H   0  0  0  0  0  0  0  0  0  0  0  0
    0.3087   -0.3575    0.5841 H   0  0  0  0  0  0  0  0  0  0  0  0
   -1.1842   -0.4768   -0.3778 H   0  0  0  0  0  0  0  0  0  0  0  0
    2.0610    2.2294   -4.0798 H   0  0  0  0  0  0  0  0  0  0  0  0
    0.4465   -4.3336   -0.7833 H   0  0  0  0  0  0  0  0  0  0  0  0
   -1.0526   -6.0040    2.9349 H   0  0  0  0  0  0  0  0  0  0  0  0
    0.0143   -7.4153    2.8093 H   0  0  0  0  0  0  0  0  0  0  0  0
   -4.8552   -2.7716    3.2121 H   0  0  0  0  0  0  0  0  0  0  0  0
   -6.5103   -2.5272    4.3176 H   0  0  0  0  0  0  0  0  0  0  0  0
   -8.5341   -2.2413    5.6862 H   0  0  0  0  0  0  0  0  0  0  0  0
   -8.9174   -6.3433    6.1968 H   0  0  0  0  0  0  0  0  0  0  0  0
   -6.9137   -6.7734    4.8364 H   0  0  0  0  0  0  0  0  0  0  0  0
  -10.8683   -4.0663    6.1473 H   0  0  0  0  0  0  0  0  0  0  0  0
  -10.0807   -4.8691    7.5269 H   0  0  0  0  0  0  0  0  0  0  0  0
   -9.9162   -3.1103    7.3082 H   0  0  0  0  0  0  0  0  0  0  0  0
  1  2  1  0  0  0  0
  1 46  1  0  0  0  0
  1 47  1  0  0  0  0
  1 48  1  0  0  0  0
  2  3  1  0  0  0  0
  2 49  1  0  0  0  0
  2 50  1  0  0  0  0
  3  4  1  0  0  0  0
  4  5  2  0  0  0  0
  5  6  1  0  0  0  0
  5 16  1  0  0  0  0
  6 10  2  0  0  0  0
  6  7  1  0  0  0  0
  7  8  2  0  0  0  0
  8  9  1  0  0  0  0
  8 11  1  0  0  0  0
  9 10  1  0  0  0  0
 11 12  1  0  0  0  0
 11 51  1  0  0  0  0
 12 13  2  0  0  0  0
 12 14  1  0  0  0  0
 12 15  1  0  0  0  0
 16 17  2  0  0  0  0
 16 18  1  0  0  0  0
 18 19  1  0  0  0  0
 18 52  1  0  0  0  0
 19 20  1  6  0  0  0
 19 24  1  0  0  0  0
 19 21  1  0  0  0  0
 21 22  1  1  0  0  0
 21 29  1  0  0  0  0
 21 23  1  0  0  0  0
 23 24  1  0  0  0  0
 23 26  1  0  0  0  0
 24 25  2  0  0  0  0
 26 27  2  0  0  0  0
 26 43  1  0  0  0  0
 27 28  1  0  0  0  0
 27 30  1  0  0  0  0
 28 29  1  0  0  0  0
 28 53  1  0  0  0  0
 28 54  1  0  0  0  0
 30 31  1  0  0  0  0
 31 35  1  0  0  0  0
 31 32  2  0  0  0  0
 32 33  1  0  0  0  0
 33 34  2  0  0  0  0
 33 36  1  0  0  0  0
 34 35  1  0  0  0  0
 34 55  1  0  0  0  0
 36 41  1  0  0  0  0
 36 37  2  0  0  0  0
 37 38  1  0  0  0  0
 37 56  1  0  0  0  0
 38 39  1  0  0  0  0
 38 57  1  0  0  0  0
 39 40  1  0  0  0  0
 39 42  1  0  0  0  0
 40 41  2  0  0  0  0
 40 58  1  0  0  0  0
 41 59  1  0  0  0  0
 42 60  1  0  0  0  0
 42 61  1  0  0  0  0
 42 62  1  0  0  0  0
 43 44  2  0  0  0  0
 43 45  1  0  0  0  0
M  END
$$$$
