ZINC00897408
 OpenBabel08292219463D

 43 44  0  0  1  0  0  0  0  0999 V2000
   -0.0295    1.5317    0.0187 C   0  0  0  0  0  0  0  0  0  0  0  0
   -0.0000    0.0020    0.0023 C   0  0  1  0  0  0  0  0  0  0  0  0
    0.7447   -0.5070    1.2381 C   0  0  0  0  0  0  0  0  0  0  0  0
    2.3930    0.2476    1.3042 S   0  0  0  0  0  0  0  0  0  0  0  0
    3.1950   -0.2340    0.2346 O   0  0  0  0  0  0  0  0  0  0  0  0
    2.2833    1.6417    1.5566 O   0  0  0  0  0  0  0  0  0  0  0  0
    3.1366   -0.4153    2.7576 C   0  0  0  0  0  0  0  0  0  0  0  0
    2.9811    0.2315    3.9695 C   0  0  0  0  0  0  0  0  0  0  0  0
    3.5634   -0.2877    5.1102 C   0  0  0  0  0  0  0  0  0  0  0  0
    4.3028   -1.4562    5.0389 C   0  0  0  0  0  0  0  0  0  0  0  0
    4.4578   -2.1031    3.8246 C   0  0  0  0  0  0  0  0  0  0  0  0
    3.8702   -1.5848    2.6862 C   0  0  0  0  0  0  0  0  0  0  0  0
    4.8729   -1.9645    6.1533 F   0  0  0  0  0  0  0  0  0  0  0  0
   -1.4108   -0.5278    0.0124 C   0  0  0  0  0  0  0  0  0  0  0  0
   -1.9347   -0.8376    1.0614 O   0  0  0  0  0  0  0  0  0  0  0  0
   -2.0902   -0.6573   -1.1443 N   0  0  0  0  0  0  0  0  0  0  0  0
   -3.3595   -1.2371   -1.1468 C   0  0  0  0  0  0  0  0  0  0  0  0
   -4.2221   -1.0235   -0.0763 C   0  0  0  0  0  0  0  0  0  0  0  0
   -5.4751   -1.5939   -0.0753 C   0  0  0  0  0  0  0  0  0  0  0  0
   -5.8803   -2.3886   -1.1517 C   0  0  0  0  0  0  0  0  0  0  0  0
   -5.0111   -2.6010   -2.2252 C   0  0  0  0  0  0  0  0  0  0  0  0
   -3.7613   -2.0225   -2.2220 C   0  0  0  0  0  0  0  0  0  0  0  0
   -5.4433   -3.4568   -3.3879 C   0  0  0  0  0  0  0  0  0  0  0  0
   -4.4107   -3.5200   -4.3297 F   0  0  0  0  0  0  0  0  0  0  0  0
   -5.7393   -4.7463   -2.9331 F   0  0  0  0  0  0  0  0  0  0  0  0
   -6.5812   -2.8986   -3.9803 F   0  0  0  0  0  0  0  0  0  0  0  0
   -7.1826   -2.9840   -1.1540 C   0  0  0  0  0  0  0  0  0  0  0  0
   -8.2158   -3.4563   -1.1558 N   0  0  0  0  0  0  0  0  0  0  0  0
    0.6697   -0.4489   -1.1767 O   0  0  0  0  0  0  0  0  0  0  0  0
    0.9909    1.9149    0.0114 H   0  0  0  0  0  0  0  0  0  0  0  0
   -0.5601    1.8943   -0.8617 H   0  0  0  0  0  0  0  0  0  0  0  0
   -0.5404    1.8756    0.9181 H   0  0  0  0  0  0  0  0  0  0  0  0
    0.1862   -0.2389    2.1350 H   0  0  0  0  0  0  0  0  0  0  0  0
    0.8434   -1.5910    1.1820 H   0  0  0  0  0  0  0  0  0  0  0  0
    2.4046    1.1431    4.0248 H   0  0  0  0  0  0  0  0  0  0  0  0
    3.4421    0.2179    6.0568 H   0  0  0  0  0  0  0  0  0  0  0  0
    5.0346   -3.0144    3.7678 H   0  0  0  0  0  0  0  0  0  0  0  0
    3.9873   -2.0916    1.7397 H   0  0  0  0  0  0  0  0  0  0  0  0
   -1.6970   -0.3474   -1.9751 H   0  0  0  0  0  0  0  0  0  0  0  0
   -3.9082   -0.4097    0.7550 H   0  0  0  0  0  0  0  0  0  0  0  0
   -6.1441   -1.4279    0.7561 H   0  0  0  0  0  0  0  0  0  0  0  0
   -3.0908   -2.1826   -3.0533 H   0  0  0  0  0  0  0  0  0  0  0  0
    0.7258   -1.4112   -1.2536 H   0  0  0  0  0  0  0  0  0  0  0  0
  1  2  1  0  0  0  0
  1 30  1  0  0  0  0
  1 31  1  0  0  0  0
  1 32  1  0  0  0  0
  2  3  1  0  0  0  0
  2 14  1  1  0  0  0
  2 29  1  0  0  0  0
  3  4  1  0  0  0  0
  3 33  1  0  0  0  0
  3 34  1  0  0  0  0
  4  5  2  0  0  0  0
  4  6  2  0  0  0  0
  4  7  1  0  0  0  0
  7 12  2  0  0  0  0
  7  8  1  0  0  0  0
  8  9  2  0  0  0  0
  8 35  1  0  0  0  0
  9 10  1  0  0  0  0
  9 36  1  0  0  0  0
 10 11  2  0  0  0  0
 10 13  1  0  0  0  0
 11 12  1  0  0  0  0
 11 37  1  0  0  0  0
 12 38  1  0  0  0  0
 14 15  2  0  0  0  0
 14 16  1  0  0  0  0
 16 17  1  0  0  0  0
 16 39  1  0  0  0  0
 17 22  2  0  0  0  0
 17 18  1  0  0  0  0
 18 19  2  0  0  0  0
 18 40  1  0  0  0  0
 19 20  1  0  0  0  0
 19 41  1  0  0  0  0
 20 21  2  0  0  0  0
 20 27  1  0  0  0  0
 21 22  1  0  0  0  0
 21 23  1  0  0  0  0
 22 42  1  0  0  0  0
 23 24  1  0  0  0  0
 23 25  1  0  0  0  0
 23 26  1  0  0  0  0
 27 28  3  0  0  0  0
 29 43  1  0  0  0  0
M  END
$$$$
