ZINC19795961
 OpenBabel08292219463D

 52 55  0  0  1  0  0  0  0  0999 V2000
    0.0538    1.3918   -0.2149 C   0  0  0  0  0  0  0  0  0  0  0  0
    0.0196   -0.0587    0.0153 N   0  0  0  0  0  0  0  0  0  0  0  0
    0.7252   -0.4118    1.2544 C   0  0  0  0  0  0  0  0  0  0  0  0
   -1.3625   -0.5559    0.0365 C   0  0  1  0  0  0  0  0  0  0  0  0
   -1.9023   -0.1688   -0.8276 H   0  0  0  0  0  0  0  0  0  0  0  0
   -1.3566   -2.0844   -0.0072 C   0  0  2  0  0  0  0  0  0  0  0  0
   -0.8143   -2.4689    0.8567 H   0  0  0  0  0  0  0  0  0  0  0  0
   -0.6928   -2.5801   -1.2808 C   0  0  0  0  0  0  0  0  0  0  0  0
   -1.5025   -2.3188   -2.5322 C   0  0  2  0  0  0  0  0  0  0  0  0
   -1.5901   -3.2696   -3.0579 H   0  0  0  0  0  0  0  0  0  0  0  0
   -0.7385   -1.3719   -3.4574 C   0  0  1  0  0  0  0  0  0  0  0  0
    0.2207   -1.8197   -3.7173 H   0  0  0  0  0  0  0  0  0  0  0  0
   -1.5227   -1.1136   -4.7155 C   0  0  0  0  0  0  0  0  0  0  0  0
   -0.8693   -0.9643   -5.9218 C   0  0  0  0  0  0  0  0  0  0  0  0
   -1.5894   -0.7078   -7.0780 C   0  0  0  0  0  0  0  0  0  0  0  0
   -2.9655   -0.5974   -7.0362 C   0  0  0  0  0  0  0  0  0  0  0  0
   -3.6385   -0.7516   -5.8331 C   0  0  0  0  0  0  0  0  0  0  0  0
   -2.9141   -1.0211   -4.6658 C   0  0  0  0  0  0  0  0  0  0  0  0
   -3.6132   -1.2394   -3.3839 C   0  0  0  0  0  0  0  0  0  0  0  0
   -2.8905   -1.8184   -2.3025 C   0  0  0  0  0  0  0  0  0  0  0  0
   -3.5225   -1.9181   -1.1172 C   0  0  0  0  0  0  0  0  0  0  0  0
   -4.7777   -1.4492   -0.9703 O   0  5  0  0  0  0  0  0  0  0  0  0
   -2.8065   -2.5904    0.0346 C   0  0  2  0  0  0  0  0  0  0  0  0
   -3.4453   -2.1158    1.3167 C   0  0  0  0  0  0  0  0  0  0  0  0
   -4.3051   -2.7878    1.8497 O   0  0  0  0  0  0  0  0  0  0  0  0
   -3.0463   -0.8937    1.8983 C   0  0  0  0  0  0  0  0  0  0  0  0
   -3.6564   -0.4609    3.0856 C   0  0  0  0  0  0  0  0  0  0  0  0
   -4.5160   -1.2736    3.7388 N   0  0  0  0  0  0  0  0  0  0  0  0
   -3.3856    0.7623    3.5733 O   0  0  0  0  0  0  0  0  0  0  0  0
   -2.0431   -0.0991    1.3020 C   0  0  0  0  0  0  0  0  0  0  0  0
   -1.7248    0.9563    1.8116 O   0  0  0  0  0  0  0  0  0  0  0  0
   -2.8497   -4.0148   -0.0708 O   0  0  0  0  0  0  0  0  0  0  0  0
   -4.7808   -0.9194   -3.2519 O   0  0  0  0  0  0  0  0  0  0  0  0
   -4.9902   -0.6417   -5.7878 O   0  0  0  0  0  0  0  0  0  0  0  0
    0.8602   -1.0977   -5.9914 Cl  0  0  0  0  0  0  0  0  0  0  0  0
   -0.5124   -0.1333   -2.7814 O   0  0  0  0  0  0  0  0  0  0  0  0
    1.0896    1.7251   -0.2792 H   0  0  0  0  0  0  0  0  0  0  0  0
   -0.4612    1.6239   -1.1471 H   0  0  0  0  0  0  0  0  0  0  0  0
   -0.4417    1.9025    0.6108 H   0  0  0  0  0  0  0  0  0  0  0  0
    0.2078    0.0303    2.1058 H   0  0  0  0  0  0  0  0  0  0  0  0
    0.7455   -1.4960    1.3646 H   0  0  0  0  0  0  0  0  0  0  0  0
    1.7459   -0.0317    1.2122 H   0  0  0  0  0  0  0  0  0  0  0  0
    0.2747   -2.0885   -1.3832 H   0  0  0  0  0  0  0  0  0  0  0  0
   -0.5266   -3.6537   -1.1916 H   0  0  0  0  0  0  0  0  0  0  0  0
   -1.0707   -0.5930   -8.0183 H   0  0  0  0  0  0  0  0  0  0  0  0
   -3.5180   -0.3904   -7.9408 H   0  0  0  0  0  0  0  0  0  0  0  0
   -4.4438   -2.2359    3.6399 H   0  0  0  0  0  0  0  0  0  0  0  0
   -5.2052   -0.8948    4.3066 H   0  0  0  0  0  0  0  0  0  0  0  0
   -3.8525    0.9708    4.3940 H   0  0  0  0  0  0  0  0  0  0  0  0
   -3.7433   -4.3838   -0.0494 H   0  0  0  0  0  0  0  0  0  0  0  0
   -5.4576   -1.4765   -5.9281 H   0  0  0  0  0  0  0  0  0  0  0  0
   -0.0312    0.5199   -3.3077 H   0  0  0  0  0  0  0  0  0  0  0  0
  1  2  1  0  0  0  0
  1 37  1  0  0  0  0
  1 38  1  0  0  0  0
  1 39  1  0  0  0  0
  2  3  1  0  0  0  0
  2  4  1  0  0  0  0
  3 40  1  0  0  0  0
  3 41  1  0  0  0  0
  3 42  1  0  0  0  0
  4  5  1  6  0  0  0
  4 30  1  0  0  0  0
  4  6  1  0  0  0  0
  6  7  1  1  0  0  0
  6 23  1  0  0  0  0
  6  8  1  0  0  0  0
  8  9  1  0  0  0  0
  8 43  1  0  0  0  0
  8 44  1  0  0  0  0
  9 10  1  6  0  0  0
  9 20  1  0  0  0  0
  9 11  1  0  0  0  0
 11 12  1  6  0  0  0
 11 13  1  0  0  0  0
 11 36  1  0  0  0  0
 13 18  2  0  0  0  0
 13 14  1  0  0  0  0
 14 15  2  0  0  0  0
 14 35  1  0  0  0  0
 15 16  1  0  0  0  0
 15 45  1  0  0  0  0
 16 17  2  0  0  0  0
 16 46  1  0  0  0  0
 17 18  1  0  0  0  0
 17 34  1  0  0  0  0
 18 19  1  0  0  0  0
 19 20  1  0  0  0  0
 19 33  2  0  0  0  0
 20 21  2  0  0  0  0
 21 22  1  0  0  0  0
 21 23  1  0  0  0  0
 23 24  1  0  0  0  0
 23 32  1  6  0  0  0
 24 25  2  0  0  0  0
 24 26  1  0  0  0  0
 26 27  2  0  0  0  0
 26 30  1  0  0  0  0
 27 28  1  0  0  0  0
 27 29  1  0  0  0  0
 28 47  1  0  0  0  0
 28 48  1  0  0  0  0
 29 49  1  0  0  0  0
 30 31  2  0  0  0  0
 32 50  1  0  0  0  0
 34 51  1  0  0  0  0
 36 52  1  0  0  0  0
M  CHG  1  22  -1
M  END
$$$$
