ZINC00897222
 OpenBabel08292219463D

 41 43  0  0  1  0  0  0  0  0999 V2000
    3.1857   -4.4503   -2.0275 C   0  0  0  0  0  0  0  0  0  0  0  0
    2.1323   -3.8808   -1.3369 C   0  0  0  0  0  0  0  0  0  0  0  0
    2.3024   -2.6695   -0.6928 C   0  0  0  0  0  0  0  0  0  0  0  0
    3.5260   -2.0281   -0.7389 C   0  0  0  0  0  0  0  0  0  0  0  0
    4.5797   -2.5980   -1.4287 C   0  0  0  0  0  0  0  0  0  0  0  0
    4.4092   -3.8086   -2.0740 C   0  0  0  0  0  0  0  0  0  0  0  0
    3.7112   -0.7071   -0.0376 C   0  0  0  0  0  0  0  0  0  0  0  0
    4.0508   -0.9540    1.4337 C   0  0  1  0  0  0  0  0  0  0  0  0
    3.2893   -1.5918    1.8826 H   0  0  0  0  0  0  0  0  0  0  0  0
    5.3553   -1.6039    1.5332 N   0  0  0  0  0  0  0  0  0  0  0  0
    6.5546   -0.9619    1.2366 C   0  0  0  0  0  0  0  0  0  0  0  0
    7.6688   -1.7350    0.9131 C   0  0  0  0  0  0  0  0  0  0  0  0
    8.8753   -1.1297    0.6307 C   0  0  0  0  0  0  0  0  0  0  0  0
    8.9898    0.2481    0.6676 C   0  0  0  0  0  0  0  0  0  0  0  0
    7.8875    1.0224    0.9815 C   0  0  0  0  0  0  0  0  0  0  0  0
    6.6771    0.4208    1.2561 C   0  0  0  0  0  0  0  0  0  0  0  0
    5.2616    1.4157    1.6177 S   0  0  0  0  0  0  0  0  0  0  0  0
    5.6041    2.2385    2.7244 O   0  0  0  0  0  0  0  0  0  0  0  0
    4.7979    1.9427    0.3821 O   0  0  0  0  0  0  0  0  0  0  0  0
    4.1045    0.3349    2.1529 N   0  0  0  0  0  0  0  0  0  0  0  0
   10.5365    1.0154    0.3160 S   0  0  0  0  0  0  0  0  0  0  0  0
   11.0134    0.4341   -0.8898 O   0  0  0  0  0  0  0  0  0  0  0  0
   10.3378    2.4150    0.4604 O   0  0  0  0  0  0  0  0  0  0  0  0
   11.5908    0.5613    1.5096 N   0  0  0  0  0  0  0  0  0  0  0  0
   10.0741   -1.9731    0.2809 C   0  0  0  0  0  0  0  0  0  0  0  0
    9.7169   -3.3255    0.3083 F   0  0  0  0  0  0  0  0  0  0  0  0
   10.5240   -1.6356   -1.0001 F   0  0  0  0  0  0  0  0  0  0  0  0
   11.0944   -1.7413    1.2096 F   0  0  0  0  0  0  0  0  0  0  0  0
    3.0541   -5.3988   -2.5269 H   0  0  0  0  0  0  0  0  0  0  0  0
    1.1763   -4.3820   -1.3009 H   0  0  0  0  0  0  0  0  0  0  0  0
    1.4792   -2.2242   -0.1539 H   0  0  0  0  0  0  0  0  0  0  0  0
    5.5356   -2.0967   -1.4650 H   0  0  0  0  0  0  0  0  0  0  0  0
    5.2323   -4.2537   -2.6132 H   0  0  0  0  0  0  0  0  0  0  0  0
    4.5237   -0.1555   -0.5104 H   0  0  0  0  0  0  0  0  0  0  0  0
    2.7906   -0.1274   -0.1056 H   0  0  0  0  0  0  0  0  0  0  0  0
    5.3877   -2.5298    1.8207 H   0  0  0  0  0  0  0  0  0  0  0  0
    7.5869   -2.8115    0.8839 H   0  0  0  0  0  0  0  0  0  0  0  0
    7.9746    2.0985    1.0119 H   0  0  0  0  0  0  0  0  0  0  0  0
    3.5073    0.5387    2.8896 H   0  0  0  0  0  0  0  0  0  0  0  0
   11.2932   -0.0258    2.2220 H   0  0  0  0  0  0  0  0  0  0  0  0
   12.5060    0.8825    1.4963 H   0  0  0  0  0  0  0  0  0  0  0  0
  1  6  2  0  0  0  0
  1  2  1  0  0  0  0
  1 29  1  0  0  0  0
  2  3  2  0  0  0  0
  2 30  1  0  0  0  0
  3  4  1  0  0  0  0
  3 31  1  0  0  0  0
  4  5  2  0  0  0  0
  4  7  1  0  0  0  0
  5  6  1  0  0  0  0
  5 32  1  0  0  0  0
  6 33  1  0  0  0  0
  7  8  1  0  0  0  0
  7 34  1  0  0  0  0
  7 35  1  0  0  0  0
  8  9  1  1  0  0  0
  8 20  1  0  0  0  0
  8 10  1  0  0  0  0
 10 11  1  0  0  0  0
 10 36  1  0  0  0  0
 11 16  2  0  0  0  0
 11 12  1  0  0  0  0
 12 13  2  0  0  0  0
 12 37  1  0  0  0  0
 13 14  1  0  0  0  0
 13 25  1  0  0  0  0
 14 15  2  0  0  0  0
 14 21  1  0  0  0  0
 15 16  1  0  0  0  0
 15 38  1  0  0  0  0
 16 17  1  0  0  0  0
 17 18  2  0  0  0  0
 17 19  2  0  0  0  0
 17 20  1  0  0  0  0
 20 39  1  0  0  0  0
 21 22  2  0  0  0  0
 21 23  2  0  0  0  0
 21 24  1  0  0  0  0
 24 40  1  0  0  0  0
 24 41  1  0  0  0  0
 25 26  1  0  0  0  0
 25 27  1  0  0  0  0
 25 28  1  0  0  0  0
M  END
$$$$
