ZINC01552908
 OpenBabel08292219463D

 68 69  0  0  1  0  0  0  0  0999 V2000
    2.4975    5.5203    2.6503 C   0  0  0  0  0  0  0  0  0  0  0  0
    2.8525    4.1789    3.2949 C   0  0  0  0  0  0  0  0  0  0  0  0
    3.8443    4.4085    4.4370 C   0  0  0  0  0  0  0  0  0  0  0  0
    1.6022    3.5355    3.8370 C   0  0  0  0  0  0  0  0  0  0  0  0
    0.5365    4.0927    3.7198 O   0  0  0  0  0  0  0  0  0  0  0  0
    1.6725    2.3432    4.4502 O   0  0  0  0  0  0  0  0  0  0  0  0
    0.4972    1.7693    4.8201 C   0  0  0  0  0  0  0  0  0  0  0  0
    0.0018    1.9639    6.1015 C   0  0  0  0  0  0  0  0  0  0  0  0
   -1.1926    1.3792    6.4751 C   0  0  0  0  0  0  0  0  0  0  0  0
   -1.8944    0.6005    5.5732 C   0  0  0  0  0  0  0  0  0  0  0  0
   -1.4057    0.4097    4.2942 C   0  0  0  0  0  0  0  0  0  0  0  0
   -0.2087    0.9877    3.9174 C   0  0  0  0  0  0  0  0  0  0  0  0
    0.3266    0.7742    2.5249 C   0  0  2  0  0  0  0  0  0  0  0  0
    1.3056    1.2450    2.4358 H   0  0  0  0  0  0  0  0  0  0  0  0
   -0.6330    1.3965    1.5087 C   0  0  0  0  0  0  0  0  0  0  0  0
   -0.0302    1.2901    0.1065 C   0  0  0  0  0  0  0  0  0  0  0  0
   -1.1796    3.1833   -0.8719 C   0  0  0  0  0  0  0  0  0  0  0  0
   -2.2618    3.5690    0.1385 C   0  0  0  0  0  0  0  0  0  0  0  0
    0.1459    3.8352   -0.4734 C   0  0  0  0  0  0  0  0  0  0  0  0
   -0.6650    1.2457   -2.2297 C   0  0  0  0  0  0  0  0  0  0  0  0
   -0.4673   -0.2711   -2.1962 C   0  0  0  0  0  0  0  0  0  0  0  0
   -1.7879    1.5922   -3.2094 C   0  0  0  0  0  0  0  0  0  0  0  0
    0.4535   -0.7033    2.2566 C   0  0  0  0  0  0  0  0  0  0  0  0
    1.6340   -1.3601    2.5497 C   0  0  0  0  0  0  0  0  0  0  0  0
    1.7489   -2.7163    2.3077 C   0  0  0  0  0  0  0  0  0  0  0  0
    0.6865   -3.4138    1.7640 C   0  0  0  0  0  0  0  0  0  0  0  0
   -0.4922   -2.7559    1.4660 C   0  0  0  0  0  0  0  0  0  0  0  0
   -0.6086   -1.4007    1.7121 C   0  0  0  0  0  0  0  0  0  0  0  0
   -3.1970   -0.0367    5.9836 C   0  0  0  0  0  0  0  0  0  0  0  0
   -4.2758    0.8533    5.6901 O   0  0  0  0  0  0  0  0  0  0  0  0
    2.0468    6.1742    3.3968 H   0  0  0  0  0  0  0  0  0  0  0  0
    3.4018    5.9856    2.2581 H   0  0  0  0  0  0  0  0  0  0  0  0
    1.7909    5.3566    1.8366 H   0  0  0  0  0  0  0  0  0  0  0  0
    3.3032    3.5250    2.5483 H   0  0  0  0  0  0  0  0  0  0  0  0
    4.0972    3.4529    4.8963 H   0  0  0  0  0  0  0  0  0  0  0  0
    4.7486    4.8739    4.0449 H   0  0  0  0  0  0  0  0  0  0  0  0
    3.3936    5.0624    5.1836 H   0  0  0  0  0  0  0  0  0  0  0  0
    0.5493    2.5723    6.8060 H   0  0  0  0  0  0  0  0  0  0  0  0
   -1.5784    1.5301    7.4724 H   0  0  0  0  0  0  0  0  0  0  0  0
   -1.9579   -0.1953    3.5902 H   0  0  0  0  0  0  0  0  0  0  0  0
   -0.7941    2.4457    1.7563 H   0  0  0  0  0  0  0  0  0  0  0  0
   -1.5851    0.8664    1.5361 H   0  0  0  0  0  0  0  0  0  0  0  0
    0.2532    0.2560   -0.0897 H   0  0  0  0  0  0  0  0  0  0  0  0
    0.8517    1.9272    0.0408 H   0  0  0  0  0  0  0  0  0  0  0  0
   -1.4700    3.5277   -1.8645 H   0  0  0  0  0  0  0  0  0  0  0  0
   -1.9293    3.3099    1.1437 H   0  0  0  0  0  0  0  0  0  0  0  0
   -2.4458    4.6419    0.0820 H   0  0  0  0  0  0  0  0  0  0  0  0
   -3.1812    3.0301   -0.0902 H   0  0  0  0  0  0  0  0  0  0  0  0
    0.9034    3.6058   -1.2228 H   0  0  0  0  0  0  0  0  0  0  0  0
    0.0145    4.9153   -0.4083 H   0  0  0  0  0  0  0  0  0  0  0  0
    0.4642    3.4489    0.4949 H   0  0  0  0  0  0  0  0  0  0  0  0
    0.2592    1.7255   -2.5519 H   0  0  0  0  0  0  0  0  0  0  0  0
   -0.2024   -0.6251   -3.1924 H   0  0  0  0  0  0  0  0  0  0  0  0
    0.3327   -0.5179   -1.4982 H   0  0  0  0  0  0  0  0  0  0  0  0
   -1.3915   -0.7508   -1.8739 H   0  0  0  0  0  0  0  0  0  0  0  0
   -1.8578    2.6749   -3.3139 H   0  0  0  0  0  0  0  0  0  0  0  0
   -1.5731    1.1466   -4.1807 H   0  0  0  0  0  0  0  0  0  0  0  0
   -2.7329    1.2019   -2.8317 H   0  0  0  0  0  0  0  0  0  0  0  0
    2.4654   -0.8144    2.9710 H   0  0  0  0  0  0  0  0  0  0  0  0
    2.6697   -3.2303    2.5408 H   0  0  0  0  0  0  0  0  0  0  0  0
    0.7772   -4.4728    1.5724 H   0  0  0  0  0  0  0  0  0  0  0  0
   -1.3223   -3.3009    1.0413 H   0  0  0  0  0  0  0  0  0  0  0  0
   -1.5295   -0.8867    1.4793 H   0  0  0  0  0  0  0  0  0  0  0  0
   -3.3347   -0.9681    5.4346 H   0  0  0  0  0  0  0  0  0  0  0  0
   -3.1785   -0.2448    7.0534 H   0  0  0  0  0  0  0  0  0  0  0  0
   -5.1468    0.5076    5.9287 H   0  0  0  0  0  0  0  0  0  0  0  0
   -1.0473    1.7111   -0.8799 N   0  3  0  0  0  0  0  0  0  0  0  0
   -1.9505    1.2937   -0.6265 H   0  0  0  0  0  0  0  0  0  0  0  0
  1  2  1  0  0  0  0
  1 31  1  0  0  0  0
  1 32  1  0  0  0  0
  1 33  1  0  0  0  0
  2  3  1  0  0  0  0
  2  4  1  0  0  0  0
  2 34  1  0  0  0  0
  3 35  1  0  0  0  0
  3 36  1  0  0  0  0
  3 37  1  0  0  0  0
  4  5  2  0  0  0  0
  4  6  1  0  0  0  0
  6  7  1  0  0  0  0
  7 12  2  0  0  0  0
  7  8  1  0  0  0  0
  8  9  2  0  0  0  0
  8 38  1  0  0  0  0
  9 10  1  0  0  0  0
  9 39  1  0  0  0  0
 10 11  2  0  0  0  0
 10 29  1  0  0  0  0
 11 12  1  0  0  0  0
 11 40  1  0  0  0  0
 12 13  1  0  0  0  0
 13 14  1  6  0  0  0
 13 15  1  0  0  0  0
 13 23  1  0  0  0  0
 15 16  1  0  0  0  0
 15 41  1  0  0  0  0
 15 42  1  0  0  0  0
 16 43  1  0  0  0  0
 16 44  1  0  0  0  0
 16 67  1  0  0  0  0
 17 18  1  0  0  0  0
 17 19  1  0  0  0  0
 17 45  1  0  0  0  0
 17 67  1  0  0  0  0
 18 46  1  0  0  0  0
 18 47  1  0  0  0  0
 18 48  1  0  0  0  0
 19 49  1  0  0  0  0
 19 50  1  0  0  0  0
 19 51  1  0  0  0  0
 20 21  1  0  0  0  0
 20 22  1  0  0  0  0
 20 52  1  0  0  0  0
 20 67  1  0  0  0  0
 21 53  1  0  0  0  0
 21 54  1  0  0  0  0
 21 55  1  0  0  0  0
 22 56  1  0  0  0  0
 22 57  1  0  0  0  0
 22 58  1  0  0  0  0
 23 28  2  0  0  0  0
 23 24  1  0  0  0  0
 24 25  2  0  0  0  0
 24 59  1  0  0  0  0
 25 26  1  0  0  0  0
 25 60  1  0  0  0  0
 26 27  2  0  0  0  0
 26 61  1  0  0  0  0
 27 28  1  0  0  0  0
 27 62  1  0  0  0  0
 28 63  1  0  0  0  0
 29 30  1  0  0  0  0
 29 64  1  0  0  0  0
 29 65  1  0  0  0  0
 30 66  1  0  0  0  0
 67 68  1  0  0  0  0
M  CHG  1  67   1
M  END
$$$$
