ZINC03814395
 OpenBabel08292219463D

 51 54  0  0  1  0  0  0  0  0999 V2000
   -0.0140    1.5249    0.0561 C   0  0  0  0  0  0  0  0  0  0  0  0
    0.0021   -0.0041    0.0020 C   0  0  0  0  0  0  0  0  0  0  0  0
   -1.4266   -0.5342    0.1385 C   0  0  2  0  0  0  0  0  0  0  0  0
   -2.0545    0.0024    1.4106 C   0  0  0  0  0  0  0  0  0  0  0  0
   -1.1103   -0.3574    2.5685 C   0  0  0  0  0  0  0  0  0  0  0  0
   -0.8665   -1.8612    2.6524 C   0  0  1  0  0  0  0  0  0  0  0  0
   -1.7992   -2.3575    2.9203 H   0  0  0  0  0  0  0  0  0  0  0  0
   -0.3611   -2.4328    1.3198 C   0  0  2  0  0  0  0  0  0  0  0  0
    0.6065   -1.9971    1.0706 H   0  0  0  0  0  0  0  0  0  0  0  0
   -1.4045   -2.0819    0.2578 C   0  0  2  0  0  0  0  0  0  0  0  0
   -2.3878   -2.4563    0.5425 H   0  0  0  0  0  0  0  0  0  0  0  0
   -1.0516   -2.4982   -1.1746 C   0  0  0  0  0  0  0  0  0  0  0  0
   -1.9102   -1.5348   -2.0387 C   0  0  0  0  0  0  0  0  0  0  0  0
   -2.1936   -0.2928   -1.1574 C   0  0  1  0  0  0  0  0  0  0  0  0
   -3.6355   -0.1802   -0.8833 C   0  0  0  0  0  0  0  0  0  0  0  0
   -4.7855   -0.0905   -0.6647 C   0  0  0  0  0  0  0  0  0  0  0  0
   -1.7173    0.8905   -1.8016 O   0  0  0  0  0  0  0  0  0  0  0  0
   -0.2331   -3.9537    1.4460 C   0  0  0  0  0  0  0  0  0  0  0  0
    0.8536   -4.2831    2.4717 C   0  0  0  0  0  0  0  0  0  0  0  0
    0.5208   -3.5852    3.7778 C   0  0  0  0  0  0  0  0  0  0  0  0
    0.5651   -4.3090    4.8961 C   0  0  0  0  0  0  0  0  0  0  0  0
    0.2688   -3.6813    6.1884 C   0  0  0  0  0  0  0  0  0  0  0  0
   -0.0762   -4.3337    7.1514 O   0  0  0  0  0  0  0  0  0  0  0  0
    0.4171   -2.1739    6.2569 C   0  0  0  0  0  0  0  0  0  0  0  0
   -0.3419   -1.5857    5.0682 C   0  0  0  0  0  0  0  0  0  0  0  0
    0.1779   -2.1410    3.7405 C   0  0  2  0  0  0  0  0  0  0  0  0
    1.0846   -1.5929    3.4846 H   0  0  0  0  0  0  0  0  0  0  0  0
    1.0092    1.8975    0.1057 H   0  0  0  0  0  0  0  0  0  0  0  0
   -0.4997    1.9150   -0.8384 H   0  0  0  0  0  0  0  0  0  0  0  0
   -0.5629    1.8515    0.9393 H   0  0  0  0  0  0  0  0  0  0  0  0
    0.4210   -0.3296   -0.9502 H   0  0  0  0  0  0  0  0  0  0  0  0
    0.6124   -0.3901    0.8184 H   0  0  0  0  0  0  0  0  0  0  0  0
   -2.1636    1.0848    1.3429 H   0  0  0  0  0  0  0  0  0  0  0  0
   -3.0286   -0.4608    1.5680 H   0  0  0  0  0  0  0  0  0  0  0  0
   -0.1568    0.1495    2.4201 H   0  0  0  0  0  0  0  0  0  0  0  0
   -1.5506   -0.0160    3.5053 H   0  0  0  0  0  0  0  0  0  0  0  0
    0.0103   -2.3481   -1.3692 H   0  0  0  0  0  0  0  0  0  0  0  0
   -1.3351   -3.5350   -1.3557 H   0  0  0  0  0  0  0  0  0  0  0  0
   -1.3588   -1.2416   -2.9321 H   0  0  0  0  0  0  0  0  0  0  0  0
   -2.8469   -2.0170   -2.3180 H   0  0  0  0  0  0  0  0  0  0  0  0
   -5.8140   -0.0102   -0.4691 H   0  0  0  0  0  0  0  0  0  0  0  0
   -2.1686    1.0951   -2.6320 H   0  0  0  0  0  0  0  0  0  0  0  0
   -1.1838   -4.3732    1.7752 H   0  0  0  0  0  0  0  0  0  0  0  0
    0.0380   -4.3779    0.4792 H   0  0  0  0  0  0  0  0  0  0  0  0
    0.8901   -5.3606    2.6322 H   0  0  0  0  0  0  0  0  0  0  0  0
    1.8191   -3.9332    2.1062 H   0  0  0  0  0  0  0  0  0  0  0  0
    0.8187   -5.3579    4.8507 H   0  0  0  0  0  0  0  0  0  0  0  0
   -0.0083   -1.8017    7.1889 H   0  0  0  0  0  0  0  0  0  0  0  0
    1.4708   -1.9020    6.1949 H   0  0  0  0  0  0  0  0  0  0  0  0
   -1.3994   -1.8318    5.1648 H   0  0  0  0  0  0  0  0  0  0  0  0
   -0.2287   -0.5017    5.0755 H   0  0  0  0  0  0  0  0  0  0  0  0
  1  2  1  0  0  0  0
  1 28  1  0  0  0  0
  1 29  1  0  0  0  0
  1 30  1  0  0  0  0
  2 31  1  0  0  0  0
  2 32  1  0  0  0  0
  3  2  1  6  0  0  0
  3 10  1  0  0  0  0
  3 14  1  0  0  0  0
  3  4  1  0  0  0  0
  4  5  1  0  0  0  0
  4 33  1  0  0  0  0
  4 34  1  0  0  0  0
  5  6  1  0  0  0  0
  5 35  1  0  0  0  0
  5 36  1  0  0  0  0
  6  7  1  1  0  0  0
  6 26  1  0  0  0  0
  6  8  1  0  0  0  0
  8  9  1  6  0  0  0
  8 10  1  0  0  0  0
  8 18  1  0  0  0  0
 10 11  1  1  0  0  0
 10 12  1  0  0  0  0
 12 13  1  0  0  0  0
 12 37  1  0  0  0  0
 12 38  1  0  0  0  0
 13 14  1  0  0  0  0
 13 39  1  0  0  0  0
 13 40  1  0  0  0  0
 14 15  1  1  0  0  0
 14 17  1  0  0  0  0
 15 16  3  0  0  0  0
 16 41  1  0  0  0  0
 17 42  1  0  0  0  0
 18 19  1  0  0  0  0
 18 43  1  0  0  0  0
 18 44  1  0  0  0  0
 19 20  1  0  0  0  0
 19 45  1  0  0  0  0
 19 46  1  0  0  0  0
 20 26  1  0  0  0  0
 20 21  2  0  0  0  0
 21 22  1  0  0  0  0
 21 47  1  0  0  0  0
 22 23  2  0  0  0  0
 22 24  1  0  0  0  0
 24 25  1  0  0  0  0
 24 48  1  0  0  0  0
 24 49  1  0  0  0  0
 25 26  1  0  0  0  0
 25 50  1  0  0  0  0
 25 51  1  0  0  0  0
 26 27  1  6  0  0  0
M  END
$$$$
