ZINC12503099
 OpenBabel08292219463D

 44 46  0  0  0  0  0  0  0  0999 V2000
   -0.0184    1.5028    0.0103 C   0  0  0  0  0  0  0  0  0  0  0  0
    0.0021   -0.0041    0.0020 C   0  0  0  0  0  0  0  0  0  0  0  0
    0.0057   -0.6865   -1.2013 C   0  0  0  0  0  0  0  0  0  0  0  0
    0.0244   -2.0663   -1.2149 C   0  0  0  0  0  0  0  0  0  0  0  0
    0.0396   -2.7724   -0.0132 C   0  0  0  0  0  0  0  0  0  0  0  0
    0.0359   -2.0794    1.1962 C   0  0  0  0  0  0  0  0  0  0  0  0
    0.0229   -0.6994    1.1977 C   0  0  0  0  0  0  0  0  0  0  0  0
    0.0592   -4.2552   -0.0214 C   0  0  0  0  0  0  0  0  0  0  0  0
    1.1210   -4.9132    0.4597 C   0  0  0  0  0  0  0  0  0  0  0  0
    2.2965   -4.1471    1.0095 C   0  0  0  0  0  0  0  0  0  0  0  0
    2.5741   -4.5941    2.3811 N   0  3  0  0  0  0  0  0  0  0  0  0
    3.0907   -5.9867    2.3712 C   0  0  0  0  0  0  0  0  0  0  0  0
    3.8387   -6.0969    3.7235 C   0  0  0  0  0  0  0  0  0  0  0  0
    4.4838   -4.7003    3.8766 C   0  0  0  0  0  0  0  0  0  0  0  0
    3.6471   -3.7702    2.9787 C   0  0  0  0  0  0  0  0  0  0  0  0
   -1.0971   -5.0089   -0.5623 C   0  0  0  0  0  0  0  0  0  0  0  0
   -1.0752   -6.4026   -0.5620 C   0  0  0  0  0  0  0  0  0  0  0  0
   -2.1622   -7.0922   -1.0698 C   0  0  0  0  0  0  0  0  0  0  0  0
   -3.2370   -6.3650   -1.5621 C   0  0  0  0  0  0  0  0  0  0  0  0
   -3.1921   -4.9835   -1.5316 C   0  0  0  0  0  0  0  0  0  0  0  0
   -2.1469   -4.3512   -1.0378 N   0  0  0  0  0  0  0  0  0  0  0  0
    1.0042    1.8801    0.0026 H   0  0  0  0  0  0  0  0  0  0  0  0
   -0.5455    1.8639   -0.8728 H   0  0  0  0  0  0  0  0  0  0  0  0
   -0.5286    1.8543    0.9071 H   0  0  0  0  0  0  0  0  0  0  0  0
   -0.0065   -0.1384   -2.1318 H   0  0  0  0  0  0  0  0  0  0  0  0
    0.0268   -2.5981   -2.1550 H   0  0  0  0  0  0  0  0  0  0  0  0
    0.0473   -2.6214    2.1303 H   0  0  0  0  0  0  0  0  0  0  0  0
    0.0248   -0.1614    2.1341 H   0  0  0  0  0  0  0  0  0  0  0  0
    1.1353   -5.9931    0.4537 H   0  0  0  0  0  0  0  0  0  0  0  0
    3.1715   -4.3265    0.3848 H   0  0  0  0  0  0  0  0  0  0  0  0
    2.0658   -3.0818    1.0143 H   0  0  0  0  0  0  0  0  0  0  0  0
    2.2691   -6.7015    2.3267 H   0  0  0  0  0  0  0  0  0  0  0  0
    3.7777   -6.1362    1.5383 H   0  0  0  0  0  0  0  0  0  0  0  0
    3.1390   -6.2898    4.5368 H   0  0  0  0  0  0  0  0  0  0  0  0
    4.6035   -6.8723    3.6792 H   0  0  0  0  0  0  0  0  0  0  0  0
    4.4321   -4.3714    4.9145 H   0  0  0  0  0  0  0  0  0  0  0  0
    5.5194   -4.7227    3.5372 H   0  0  0  0  0  0  0  0  0  0  0  0
    4.2743   -3.3501    2.1925 H   0  0  0  0  0  0  0  0  0  0  0  0
    3.2113   -2.9700    3.5770 H   0  0  0  0  0  0  0  0  0  0  0  0
   -0.2217   -6.9368   -0.1712 H   0  0  0  0  0  0  0  0  0  0  0  0
   -2.1737   -8.1720   -1.0832 H   0  0  0  0  0  0  0  0  0  0  0  0
   -4.1002   -6.8735   -1.9655 H   0  0  0  0  0  0  0  0  0  0  0  0
   -4.0268   -4.4148   -1.9142 H   0  0  0  0  0  0  0  0  0  0  0  0
    1.7375   -4.5364    2.9423 H   0  0  0  0  0  0  0  0  0  0  0  0
  1  2  1  0  0  0  0
  1 22  1  0  0  0  0
  1 23  1  0  0  0  0
  1 24  1  0  0  0  0
  2  7  2  0  0  0  0
  2  3  1  0  0  0  0
  3  4  2  0  0  0  0
  3 25  1  0  0  0  0
  4  5  1  0  0  0  0
  4 26  1  0  0  0  0
  5  6  2  0  0  0  0
  5  8  1  0  0  0  0
  6  7  1  0  0  0  0
  6 27  1  0  0  0  0
  7 28  1  0  0  0  0
  8  9  2  0  0  0  0
  8 16  1  0  0  0  0
  9 10  1  0  0  0  0
  9 29  1  0  0  0  0
 10 11  1  0  0  0  0
 10 30  1  0  0  0  0
 10 31  1  0  0  0  0
 11 15  1  0  0  0  0
 11 12  1  0  0  0  0
 11 44  1  0  0  0  0
 12 13  1  0  0  0  0
 12 32  1  0  0  0  0
 12 33  1  0  0  0  0
 13 14  1  0  0  0  0
 13 34  1  0  0  0  0
 13 35  1  0  0  0  0
 14 15  1  0  0  0  0
 14 36  1  0  0  0  0
 14 37  1  0  0  0  0
 15 38  1  0  0  0  0
 15 39  1  0  0  0  0
 16 21  2  0  0  0  0
 16 17  1  0  0  0  0
 17 18  2  0  0  0  0
 17 40  1  0  0  0  0
 18 19  1  0  0  0  0
 18 41  1  0  0  0  0
 19 20  2  0  0  0  0
 19 42  1  0  0  0  0
 20 21  1  0  0  0  0
 20 43  1  0  0  0  0
M  CHG  1  11   1
M  END
$$$$
