ZINC03831584
 OpenBabel08292219463D

 51 55  0  0  1  0  0  0  0  0999 V2000
   -0.8210   -0.4140   -5.3861 C   0  0  0  0  0  0  0  0  0  0  0  0
   -2.0408    0.0523   -4.9326 C   0  0  0  0  0  0  0  0  0  0  0  0
   -2.0913    0.9386   -3.8730 C   0  0  0  0  0  0  0  0  0  0  0  0
   -0.9221    1.3579   -3.2663 C   0  0  0  0  0  0  0  0  0  0  0  0
    0.2979    0.8953   -3.7229 C   0  0  0  0  0  0  0  0  0  0  0  0
    0.3482    0.0060   -4.7800 C   0  0  0  0  0  0  0  0  0  0  0  0
   -0.9772    2.3241   -2.1111 C   0  0  0  0  0  0  0  0  0  0  0  0
   -1.0730    1.5775   -0.8542 N   0  0  0  0  0  0  0  0  0  0  0  0
   -0.0127    1.0858    0.0080 C   0  0  1  0  0  0  0  0  0  0  0  0
    0.0021   -0.0041    0.0020 H   0  0  0  0  0  0  0  0  0  0  0  0
    1.4270    1.6375   -0.0028 C   0  0  0  0  0  0  0  0  0  0  0  0
    1.8910    0.7724    1.5838 S   0  0  1  0  0  3  0  0  0  0  0  0
    2.8595    2.0179    2.5455 C   0  0  0  0  0  0  0  0  0  0  0  0
    2.1505    1.9185    3.9327 C   0  0  0  0  0  0  0  0  0  0  0  0
    0.6895    1.4047    3.8514 C   0  0  0  0  0  0  0  0  0  0  0  0
    0.2862    1.2888    2.4375 C   0  0  2  0  0  0  0  0  0  0  0  0
    0.4212    2.3509    2.2333 H   0  0  0  0  0  0  0  0  0  0  0  0
   -0.6639    1.6237    1.3712 C   0  0  2  0  0  0  0  0  0  0  0  0
   -0.8147    2.7020    1.3214 H   0  0  0  0  0  0  0  0  0  0  0  0
   -1.9357    0.9027    1.1560 N   0  0  0  0  0  0  0  0  0  0  0  0
   -2.1938    1.1533   -0.1682 C   0  0  0  0  0  0  0  0  0  0  0  0
   -3.2878    1.0168   -0.6811 O   0  0  0  0  0  0  0  0  0  0  0  0
   -2.7214    0.1198    2.1131 C   0  0  0  0  0  0  0  0  0  0  0  0
   -3.7143    1.0196    2.8029 C   0  0  0  0  0  0  0  0  0  0  0  0
   -3.3657    1.6626    3.9759 C   0  0  0  0  0  0  0  0  0  0  0  0
   -4.2749    2.4914    4.6063 C   0  0  0  0  0  0  0  0  0  0  0  0
   -5.5359    2.6696    4.0688 C   0  0  0  0  0  0  0  0  0  0  0  0
   -5.8862    2.0228    2.8984 C   0  0  0  0  0  0  0  0  0  0  0  0
   -4.9755    1.1974    2.2657 C   0  0  0  0  0  0  0  0  0  0  0  0
   -0.7815   -1.1062   -6.2142 H   0  0  0  0  0  0  0  0  0  0  0  0
   -2.9542   -0.2755   -5.4064 H   0  0  0  0  0  0  0  0  0  0  0  0
   -3.0442    1.3032   -3.5189 H   0  0  0  0  0  0  0  0  0  0  0  0
    1.2116    1.2263   -3.2517 H   0  0  0  0  0  0  0  0  0  0  0  0
    1.3012   -0.3580   -5.1345 H   0  0  0  0  0  0  0  0  0  0  0  0
   -1.8494    2.9689   -2.2180 H   0  0  0  0  0  0  0  0  0  0  0  0
   -0.0735    2.9335   -2.1037 H   0  0  0  0  0  0  0  0  0  0  0  0
    2.0038    1.2812   -0.8562 H   0  0  0  0  0  0  0  0  0  0  0  0
    1.4583    2.7232    0.0895 H   0  0  0  0  0  0  0  0  0  0  0  0
    3.9087    1.7316    2.6174 H   0  0  0  0  0  0  0  0  0  0  0  0
    2.7532    3.0152    2.1188 H   0  0  0  0  0  0  0  0  0  0  0  0
    2.7225    1.2430    4.5687 H   0  0  0  0  0  0  0  0  0  0  0  0
    2.1474    2.9061    4.3939 H   0  0  0  0  0  0  0  0  0  0  0  0
    0.6207    0.4279    4.3302 H   0  0  0  0  0  0  0  0  0  0  0  0
    0.0288    2.1063    4.3607 H   0  0  0  0  0  0  0  0  0  0  0  0
   -3.2537   -0.6713    1.5852 H   0  0  0  0  0  0  0  0  0  0  0  0
   -2.0556   -0.3222    2.8543 H   0  0  0  0  0  0  0  0  0  0  0  0
   -2.3818    1.5202    4.3980 H   0  0  0  0  0  0  0  0  0  0  0  0
   -4.0012    2.9970    5.5206 H   0  0  0  0  0  0  0  0  0  0  0  0
   -6.2474    3.3144    4.5632 H   0  0  0  0  0  0  0  0  0  0  0  0
   -6.8714    2.1620    2.4785 H   0  0  0  0  0  0  0  0  0  0  0  0
   -5.2492    0.6918    1.3515 H   0  0  0  0  0  0  0  0  0  0  0  0
  1  6  2  0  0  0  0
  1  2  1  0  0  0  0
  1 30  1  0  0  0  0
  2  3  2  0  0  0  0
  2 31  1  0  0  0  0
  3  4  1  0  0  0  0
  3 32  1  0  0  0  0
  4  5  2  0  0  0  0
  4  7  1  0  0  0  0
  5  6  1  0  0  0  0
  5 33  1  0  0  0  0
  6 34  1  0  0  0  0
  7  8  1  0  0  0  0
  7 35  1  0  0  0  0
  7 36  1  0  0  0  0
  8 21  1  0  0  0  0
  8  9  1  0  0  0  0
  9 10  1  6  0  0  0
  9 18  1  0  0  0  0
  9 11  1  0  0  0  0
 11 37  1  0  0  0  0
 11 38  1  0  0  0  0
 12 11  1  6  0  0  0
 12 16  1  0  0  0  0
 12 13  1  0  0  0  0
 13 14  1  0  0  0  0
 13 39  1  0  0  0  0
 13 40  1  0  0  0  0
 14 15  1  0  0  0  0
 14 41  1  0  0  0  0
 14 42  1  0  0  0  0
 15 16  1  0  0  0  0
 15 43  1  0  0  0  0
 15 44  1  0  0  0  0
 16 17  1  6  0  0  0
 16 18  1  0  0  0  0
 18 19  1  6  0  0  0
 18 20  1  0  0  0  0
 20 21  1  0  0  0  0
 20 23  1  0  0  0  0
 21 22  2  0  0  0  0
 23 24  1  0  0  0  0
 23 45  1  0  0  0  0
 23 46  1  0  0  0  0
 24 29  2  0  0  0  0
 24 25  1  0  0  0  0
 25 26  2  0  0  0  0
 25 47  1  0  0  0  0
 26 27  1  0  0  0  0
 26 48  1  0  0  0  0
 27 28  2  0  0  0  0
 27 49  1  0  0  0  0
 28 29  1  0  0  0  0
 28 50  1  0  0  0  0
 29 51  1  0  0  0  0
M  END
$$$$
