ZINC04654889
 OpenBabel08292219463D

 58 59  0  0  1  0  0  0  0  0999 V2000
   -1.4717    4.0424    2.5364 C   0  0  0  0  0  0  0  0  0  0  0  0
   -0.7556    3.5490    1.2776 C   0  0  0  0  0  0  0  0  0  0  0  0
   -0.7348    2.0192    1.2692 C   0  0  0  0  0  0  0  0  0  0  0  0
   -0.0187    1.5258    0.0104 C   0  0  0  0  0  0  0  0  0  0  0  0
    0.0021   -0.0041    0.0020 C   0  0  0  0  0  0  0  0  0  0  0  0
    0.7182   -0.4975   -1.2568 C   0  0  1  0  0  0  0  0  0  0  0  0
    1.0654   -1.9735   -1.0848 C   0  0  0  0  0  0  0  0  0  0  0  0
    1.6093   -2.5763   -2.3930 C   0  0  0  0  0  0  0  0  0  0  0  0
    0.5767   -2.2870   -3.4674 C   0  0  1  0  0  0  0  0  0  0  0  0
   -0.3853   -2.7134   -3.1830 H   0  0  0  0  0  0  0  0  0  0  0  0
    0.4791   -0.7396   -3.5836 C   0  0  2  0  0  0  0  0  0  0  0  0
    1.4746   -0.3101   -3.6959 H   0  0  0  0  0  0  0  0  0  0  0  0
   -0.1317   -0.2770   -2.3962 O   0  0  0  0  0  0  0  0  0  0  0  0
   -0.3066   -0.5866   -4.8874 C   0  0  0  0  0  0  0  0  0  0  0  0
    0.3177   -1.6470   -5.7961 C   0  0  0  0  0  0  0  0  0  0  0  0
    0.3224   -1.6448   -7.0037 O   0  0  0  0  0  0  0  0  0  0  0  0
    0.9329   -2.7080   -4.8890 C   0  0  1  0  0  0  0  0  0  0  0  0
    0.5568   -3.6164   -5.0717 H   0  0  0  0  0  0  0  0  0  0  0  0
    2.4522   -2.7396   -5.0665 C   0  0  0  0  0  0  0  0  0  0  0  0
    2.7922   -3.2824   -6.4560 C   0  0  0  0  0  0  0  0  0  0  0  0
    4.3115   -3.3139   -6.6335 C   0  0  0  0  0  0  0  0  0  0  0  0
    4.6515   -3.8567   -8.0229 C   0  0  0  0  0  0  0  0  0  0  0  0
    6.1709   -3.8883   -8.2004 C   0  0  0  0  0  0  0  0  0  0  0  0
    6.5109   -4.4311   -9.5899 C   0  0  0  0  0  0  0  0  0  0  0  0
    8.0074   -4.4622   -9.7647 C   0  0  0  0  0  0  0  0  0  0  0  0
    8.7280   -4.0885   -8.8698 O   0  0  0  0  0  0  0  0  0  0  0  0
    1.9255    0.2478   -1.4274 O   0  0  0  0  0  0  0  0  0  0  0  0
    0.6787   -0.4675    1.1354 F   0  0  0  0  0  0  0  0  0  0  0  0
   -1.3104   -0.4883    0.0119 F   0  0  0  0  0  0  0  0  0  0  0  0
   -0.9445    3.6814    3.4195 H   0  0  0  0  0  0  0  0  0  0  0  0
   -1.4865    5.1323    2.5424 H   0  0  0  0  0  0  0  0  0  0  0  0
   -2.4943    3.6652    2.5442 H   0  0  0  0  0  0  0  0  0  0  0  0
    0.2670    3.9263    1.2699 H   0  0  0  0  0  0  0  0  0  0  0  0
   -1.2827    3.9101    0.3946 H   0  0  0  0  0  0  0  0  0  0  0  0
   -1.7574    1.6419    1.2770 H   0  0  0  0  0  0  0  0  0  0  0  0
   -0.2076    1.6581    2.1523 H   0  0  0  0  0  0  0  0  0  0  0  0
    1.0039    1.9031    0.0027 H   0  0  0  0  0  0  0  0  0  0  0  0
   -0.5459    1.8868   -0.8726 H   0  0  0  0  0  0  0  0  0  0  0  0
    1.8200   -2.0742   -0.3047 H   0  0  0  0  0  0  0  0  0  0  0  0
    0.1696   -2.5186   -0.7871 H   0  0  0  0  0  0  0  0  0  0  0  0
    2.5590   -2.1086   -2.6527 H   0  0  0  0  0  0  0  0  0  0  0  0
    1.7404   -3.6526   -2.2816 H   0  0  0  0  0  0  0  0  0  0  0  0
   -0.1972    0.3446   -5.2351 H   0  0  0  0  0  0  0  0  0  0  0  0
   -1.3647   -0.7928   -4.7257 H   0  0  0  0  0  0  0  0  0  0  0  0
    2.8511   -1.7305   -4.9630 H   0  0  0  0  0  0  0  0  0  0  0  0
    2.8935   -3.3844   -4.3065 H   0  0  0  0  0  0  0  0  0  0  0  0
    2.3933   -4.2915   -6.5594 H   0  0  0  0  0  0  0  0  0  0  0  0
    2.3509   -2.6375   -7.2159 H   0  0  0  0  0  0  0  0  0  0  0  0
    4.7105   -2.3048   -6.5300 H   0  0  0  0  0  0  0  0  0  0  0  0
    4.7528   -3.9588   -5.8735 H   0  0  0  0  0  0  0  0  0  0  0  0
    4.2526   -4.8658   -8.1264 H   0  0  0  0  0  0  0  0  0  0  0  0
    4.2103   -3.2119   -8.7829 H   0  0  0  0  0  0  0  0  0  0  0  0
    6.5698   -2.8792   -8.0969 H   0  0  0  0  0  0  0  0  0  0  0  0
    6.6121   -4.5331   -7.4404 H   0  0  0  0  0  0  0  0  0  0  0  0
    6.1119   -5.4402   -9.6934 H   0  0  0  0  0  0  0  0  0  0  0  0
    6.0696   -3.7863  -10.3499 H   0  0  0  0  0  0  0  0  0  0  0  0
    1.7892    1.2001   -1.5261 H   0  0  0  0  0  0  0  0  0  0  0  0
    8.5397   -4.9050  -10.9146 O   0  0  0  0  0  1  0  0  0  0  0  0
  1  2  1  0  0  0  0
  1 30  1  0  0  0  0
  1 31  1  0  0  0  0
  1 32  1  0  0  0  0
  2  3  1  0  0  0  0
  2 33  1  0  0  0  0
  2 34  1  0  0  0  0
  3  4  1  0  0  0  0
  3 35  1  0  0  0  0
  3 36  1  0  0  0  0
  4  5  1  0  0  0  0
  4 37  1  0  0  0  0
  4 38  1  0  0  0  0
  5  6  1  0  0  0  0
  5 28  1  0  0  0  0
  5 29  1  0  0  0  0
  6 13  1  0  0  0  0
  6  7  1  0  0  0  0
  6 27  1  6  0  0  0
  7  8  1  0  0  0  0
  7 39  1  0  0  0  0
  7 40  1  0  0  0  0
  8  9  1  0  0  0  0
  8 41  1  0  0  0  0
  8 42  1  0  0  0  0
  9 10  1  1  0  0  0
  9 17  1  0  0  0  0
  9 11  1  0  0  0  0
 11 12  1  6  0  0  0
 11 13  1  0  0  0  0
 11 14  1  0  0  0  0
 14 15  1  0  0  0  0
 14 43  1  0  0  0  0
 14 44  1  0  0  0  0
 15 16  2  0  0  0  0
 15 17  1  0  0  0  0
 17 18  1  6  0  0  0
 17 19  1  0  0  0  0
 19 20  1  0  0  0  0
 19 45  1  0  0  0  0
 19 46  1  0  0  0  0
 20 21  1  0  0  0  0
 20 47  1  0  0  0  0
 20 48  1  0  0  0  0
 21 22  1  0  0  0  0
 21 49  1  0  0  0  0
 21 50  1  0  0  0  0
 22 23  1  0  0  0  0
 22 51  1  0  0  0  0
 22 52  1  0  0  0  0
 23 24  1  0  0  0  0
 23 53  1  0  0  0  0
 23 54  1  0  0  0  0
 24 25  1  0  0  0  0
 24 55  1  0  0  0  0
 24 56  1  0  0  0  0
 25 26  2  0  0  0  0
 25 58  1  0  0  0  0
 27 57  1  0  0  0  0
M  END
$$$$
