ZINC00000469
 OpenBabel08292219463D

 33 33  0  0  1  0  0  0  0  0999 V2000
   -0.0187    1.5258    0.0104 C   0  0  0  0  0  0  0  0  0  0  0  0
    0.0021   -0.0041    0.0020 C   0  0  0  0  0  0  0  0  0  0  0  0
    0.7421   -0.5109    1.2415 C   0  0  0  0  0  0  0  0  0  0  0  0
   -1.3761   -0.5125    0.0124 N   0  3  0  0  0  0  0  0  0  0  0  0
   -1.3591   -1.9758   -0.1163 C   0  0  0  0  0  0  0  0  0  0  0  0
   -2.7945   -2.5054   -0.1054 C   0  0  2  0  0  0  0  0  0  0  0  0
   -3.3047   -2.1538    0.7914 H   0  0  0  0  0  0  0  0  0  0  0  0
   -2.7741   -4.0122   -0.1137 C   0  0  0  0  0  0  0  0  0  0  0  0
   -2.5625   -4.6926   -1.2976 C   0  0  0  0  0  0  0  0  0  0  0  0
   -2.5432   -6.0802   -1.3078 C   0  0  0  0  0  0  0  0  0  0  0  0
   -2.7365   -6.7837   -0.1290 C   0  0  0  0  0  0  0  0  0  0  0  0
   -2.9486   -6.0987    1.0575 C   0  0  0  0  0  0  0  0  0  0  0  0
   -2.9614   -4.7110    1.0635 C   0  0  0  0  0  0  0  0  0  0  0  0
   -3.1388   -6.7855    2.2146 O   0  0  0  0  0  0  0  0  0  0  0  0
   -2.3355   -6.7488   -2.4725 O   0  0  0  0  0  0  0  0  0  0  0  0
   -3.4857   -2.0320   -1.2631 O   0  0  0  0  0  0  0  0  0  0  0  0
    1.0039    1.9031    0.0027 H   0  0  0  0  0  0  0  0  0  0  0  0
   -0.5459    1.8868   -0.8726 H   0  0  0  0  0  0  0  0  0  0  0  0
   -0.5289    1.8773    0.9072 H   0  0  0  0  0  0  0  0  0  0  0  0
    0.5123   -0.3556   -0.8948 H   0  0  0  0  0  0  0  0  0  0  0  0
    0.7568   -1.6008    1.2356 H   0  0  0  0  0  0  0  0  0  0  0  0
    1.7647   -0.1336    1.2338 H   0  0  0  0  0  0  0  0  0  0  0  0
    0.2319   -0.1594    2.1383 H   0  0  0  0  0  0  0  0  0  0  0  0
   -1.8225   -0.2564    0.8803 H   0  0  0  0  0  0  0  0  0  0  0  0
   -0.8769   -2.2525   -1.0538 H   0  0  0  0  0  0  0  0  0  0  0  0
   -0.8062   -2.4075    0.7180 H   0  0  0  0  0  0  0  0  0  0  0  0
   -2.4123   -4.1441   -2.2157 H   0  0  0  0  0  0  0  0  0  0  0  0
   -2.7222   -7.8636   -0.1350 H   0  0  0  0  0  0  0  0  0  0  0  0
   -3.1222   -4.1769    1.9883 H   0  0  0  0  0  0  0  0  0  0  0  0
   -2.3233   -6.9736    2.6990 H   0  0  0  0  0  0  0  0  0  0  0  0
   -1.4047   -6.9314   -2.6607 H   0  0  0  0  0  0  0  0  0  0  0  0
   -3.0863   -2.3073   -2.0996 H   0  0  0  0  0  0  0  0  0  0  0  0
   -1.8879   -0.1129   -0.7598 H   0  0  0  0  0  0  0  0  0  0  0  0
  1  2  1  0  0  0  0
  1 17  1  0  0  0  0
  1 18  1  0  0  0  0
  1 19  1  0  0  0  0
  2  3  1  0  0  0  0
  2  4  1  0  0  0  0
  2 20  1  0  0  0  0
  3 21  1  0  0  0  0
  3 22  1  0  0  0  0
  3 23  1  0  0  0  0
  4  5  1  0  0  0  0
  4 24  1  0  0  0  0
  4 33  1  0  0  0  0
  5  6  1  0  0  0  0
  5 25  1  0  0  0  0
  5 26  1  0  0  0  0
  6  7  1  1  0  0  0
  6  8  1  0  0  0  0
  6 16  1  0  0  0  0
  8 13  2  0  0  0  0
  8  9  1  0  0  0  0
  9 10  2  0  0  0  0
  9 27  1  0  0  0  0
 10 11  1  0  0  0  0
 10 15  1  0  0  0  0
 11 12  2  0  0  0  0
 11 28  1  0  0  0  0
 12 13  1  0  0  0  0
 12 14  1  0  0  0  0
 13 29  1  0  0  0  0
 14 30  1  0  0  0  0
 15 31  1  0  0  0  0
 16 32  1  0  0  0  0
M  CHG  1   4   1
M  END
$$$$
