ZINC00896709
 OpenBabel08292219463D

 37 38  0  0  1  0  0  0  0  0999 V2000
   -0.3189    1.4381    0.7470 C   0  0  0  0  0  0  0  0  0  0  0  0
   -0.1803    0.0448    0.4615 O   0  0  0  0  0  0  0  0  0  0  0  0
   -1.3115   -0.6608    0.3055 C   0  0  0  0  0  0  0  0  0  0  0  0
   -2.3838   -0.1136    0.4080 O   0  0  0  0  0  0  0  0  0  0  0  0
   -1.2439   -2.1355    0.0025 C   0  0  1  0  0  0  0  0  0  0  0  0
   -0.7226   -2.6489    0.8104 H   0  0  0  0  0  0  0  0  0  0  0  0
   -2.6408   -2.6868   -0.1242 C   0  0  0  0  0  0  0  0  0  0  0  0
   -3.4534   -2.2778   -1.1650 C   0  0  0  0  0  0  0  0  0  0  0  0
   -4.7347   -2.7835   -1.2813 C   0  0  0  0  0  0  0  0  0  0  0  0
   -5.2032   -3.6985   -0.3570 C   0  0  0  0  0  0  0  0  0  0  0  0
   -4.3902   -4.1081    0.6833 C   0  0  0  0  0  0  0  0  0  0  0  0
   -3.1074   -3.6057    0.7971 C   0  0  0  0  0  0  0  0  0  0  0  0
   -0.4890   -2.3523   -1.3105 C   0  0  1  0  0  0  0  0  0  0  0  0
   -0.9521   -1.7576   -2.0979 H   0  0  0  0  0  0  0  0  0  0  0  0
    0.9689   -1.9212   -1.1371 C   0  0  0  0  0  0  0  0  0  0  0  0
    1.7202   -2.1397   -2.4536 C   0  0  0  0  0  0  0  0  0  0  0  0
    1.5945   -3.6099   -2.8636 C   0  0  0  0  0  0  0  0  0  0  0  0
    0.1134   -3.9784   -2.9731 C   0  0  0  0  0  0  0  0  0  0  0  0
   -0.5422   -3.7730   -1.6759 N   0  3  0  0  0  0  0  0  0  0  0  0
    0.6686    1.8881    0.8490 H   0  0  0  0  0  0  0  0  0  0  0  0
   -0.8573    1.9239   -0.0667 H   0  0  0  0  0  0  0  0  0  0  0  0
   -0.8738    1.5649    1.6766 H   0  0  0  0  0  0  0  0  0  0  0  0
   -3.0874   -1.5630   -1.8871 H   0  0  0  0  0  0  0  0  0  0  0  0
   -5.3699   -2.4634   -2.0940 H   0  0  0  0  0  0  0  0  0  0  0  0
   -6.2044   -4.0930   -0.4474 H   0  0  0  0  0  0  0  0  0  0  0  0
   -4.7563   -4.8227    1.4056 H   0  0  0  0  0  0  0  0  0  0  0  0
   -2.4709   -3.9285    1.6077 H   0  0  0  0  0  0  0  0  0  0  0  0
    1.0067   -0.8658   -0.8673 H   0  0  0  0  0  0  0  0  0  0  0  0
    1.4331   -2.5156   -0.3502 H   0  0  0  0  0  0  0  0  0  0  0  0
    1.2885   -1.5069   -3.2290 H   0  0  0  0  0  0  0  0  0  0  0  0
    2.7720   -1.8874   -2.3192 H   0  0  0  0  0  0  0  0  0  0  0  0
    2.0796   -3.7615   -3.8279 H   0  0  0  0  0  0  0  0  0  0  0  0
    2.0717   -4.2393   -2.1125 H   0  0  0  0  0  0  0  0  0  0  0  0
   -0.3627   -3.3486   -3.7246 H   0  0  0  0  0  0  0  0  0  0  0  0
    0.0204   -5.0245   -3.2651 H   0  0  0  0  0  0  0  0  0  0  0  0
   -0.0696   -4.3185   -0.9708 H   0  0  0  0  0  0  0  0  0  0  0  0
   -1.5052   -4.0677   -1.7370 H   0  0  0  0  0  0  0  0  0  0  0  0
  1  2  1  0  0  0  0
  1 20  1  0  0  0  0
  1 21  1  0  0  0  0
  1 22  1  0  0  0  0
  2  3  1  0  0  0  0
  3  4  2  0  0  0  0
  3  5  1  0  0  0  0
  5  6  1  1  0  0  0
  5  7  1  0  0  0  0
  5 13  1  0  0  0  0
  7 12  2  0  0  0  0
  7  8  1  0  0  0  0
  8  9  2  0  0  0  0
  8 23  1  0  0  0  0
  9 10  1  0  0  0  0
  9 24  1  0  0  0  0
 10 11  2  0  0  0  0
 10 25  1  0  0  0  0
 11 12  1  0  0  0  0
 11 26  1  0  0  0  0
 12 27  1  0  0  0  0
 13 14  1  6  0  0  0
 13 19  1  0  0  0  0
 13 15  1  0  0  0  0
 15 16  1  0  0  0  0
 15 28  1  0  0  0  0
 15 29  1  0  0  0  0
 16 17  1  0  0  0  0
 16 30  1  0  0  0  0
 16 31  1  0  0  0  0
 17 18  1  0  0  0  0
 17 32  1  0  0  0  0
 17 33  1  0  0  0  0
 18 19  1  0  0  0  0
 18 34  1  0  0  0  0
 18 35  1  0  0  0  0
 19 36  1  0  0  0  0
 19 37  1  0  0  0  0
M  CHG  1  19   1
M  END
$$$$
