ZINC03812888
 OpenBabel08292219463D

 72 73  0  0  1  0  0  0  0  0999 V2000
    0.4643    1.3329   -0.2411 C   0  0  0  0  0  0  0  0  0  0  0  0
    0.0733   -0.1223    0.0241 C   0  0  0  0  0  0  0  0  0  0  0  0
    0.8761   -0.6579    1.2114 C   0  0  0  0  0  0  0  0  0  0  0  0
   -1.4212   -0.1988    0.3430 C   0  0  1  0  0  0  0  0  0  0  0  0
   -2.2237    0.3455   -0.8405 C   0  0  0  0  0  0  0  0  0  0  0  0
   -1.9247   -0.4899   -2.0868 C   0  0  0  0  0  0  0  0  0  0  0  0
   -2.7272    0.0544   -3.2703 C   0  0  0  0  0  0  0  0  0  0  0  0
   -2.4402   -0.7477   -4.4670 N   0  3  2  0  0  0  0  0  0  0  0  0
   -1.0302   -0.5789   -4.8430 C   0  0  0  0  0  0  0  0  0  0  0  0
   -3.2986   -0.3021   -5.5727 C   0  0  0  0  0  0  0  0  0  0  0  0
   -3.0896   -1.2169   -6.7811 C   0  0  0  0  0  0  0  0  0  0  0  0
   -3.9702   -0.7598   -7.9154 C   0  0  0  0  0  0  0  0  0  0  0  0
   -5.2517   -1.2635   -8.0399 C   0  0  0  0  0  0  0  0  0  0  0  0
   -6.0634   -0.8473   -9.0787 C   0  0  0  0  0  0  0  0  0  0  0  0
   -5.5933    0.0770   -9.9977 C   0  0  0  0  0  0  0  0  0  0  0  0
   -4.3036    0.5843   -9.8722 C   0  0  0  0  0  0  0  0  0  0  0  0
   -3.4969    0.1666   -8.8259 C   0  0  0  0  0  0  0  0  0  0  0  0
   -3.8377    1.4917  -10.7717 O   0  0  0  0  0  0  0  0  0  0  0  0
   -2.5044    1.9690  -10.5804 C   0  0  0  0  0  0  0  0  0  0  0  0
   -6.3903    0.4871  -11.0204 O   0  0  0  0  0  0  0  0  0  0  0  0
   -7.7019   -0.0764  -11.0869 C   0  0  0  0  0  0  0  0  0  0  0  0
   -1.7993   -1.6000    0.5892 C   0  0  0  0  0  0  0  0  0  0  0  0
   -2.0910   -2.6813    0.7792 N   0  0  0  0  0  0  0  0  0  0  0  0
   -1.7157    0.6241    1.5707 C   0  0  0  0  0  0  0  0  0  0  0  0
   -0.6924    1.2978    2.2112 C   0  0  0  0  0  0  0  0  0  0  0  0
   -0.9573    2.0540    3.3377 C   0  0  0  0  0  0  0  0  0  0  0  0
   -2.2510    2.1383    3.8270 C   0  0  0  0  0  0  0  0  0  0  0  0
   -3.2811    1.4605    3.1820 C   0  0  0  0  0  0  0  0  0  0  0  0
   -3.0094    0.7082    2.0505 C   0  0  0  0  0  0  0  0  0  0  0  0
   -4.5524    1.5402    3.6584 O   0  0  0  0  0  0  0  0  0  0  0  0
   -5.5587    0.8184    2.9454 C   0  0  0  0  0  0  0  0  0  0  0  0
   -2.5133    2.8814    4.9353 O   0  0  0  0  0  0  0  0  0  0  0  0
   -1.4070    3.5493    5.5454 C   0  0  0  0  0  0  0  0  0  0  0  0
    1.5417    1.4471   -0.1220 H   0  0  0  0  0  0  0  0  0  0  0  0
    0.1801    1.6060   -1.2573 H   0  0  0  0  0  0  0  0  0  0  0  0
   -0.0504    1.9823    0.4671 H   0  0  0  0  0  0  0  0  0  0  0  0
    0.2874   -0.7230   -0.8599 H   0  0  0  0  0  0  0  0  0  0  0  0
    1.8959   -0.2762    1.1621 H   0  0  0  0  0  0  0  0  0  0  0  0
    0.4106   -0.3318    2.1415 H   0  0  0  0  0  0  0  0  0  0  0  0
    0.8938   -1.7472    1.1763 H   0  0  0  0  0  0  0  0  0  0  0  0
   -3.2884    0.2910   -0.6133 H   0  0  0  0  0  0  0  0  0  0  0  0
   -1.9437    1.3831   -1.0228 H   0  0  0  0  0  0  0  0  0  0  0  0
   -0.8600   -0.4354   -2.3140 H   0  0  0  0  0  0  0  0  0  0  0  0
   -2.2047   -1.5275   -1.9045 H   0  0  0  0  0  0  0  0  0  0  0  0
   -3.7919   -0.0001   -3.0431 H   0  0  0  0  0  0  0  0  0  0  0  0
   -2.4473    1.0920   -3.4526 H   0  0  0  0  0  0  0  0  0  0  0  0
   -0.8339    0.4722   -5.0545 H   0  0  0  0  0  0  0  0  0  0  0  0
   -0.3932   -0.9095   -4.0226 H   0  0  0  0  0  0  0  0  0  0  0  0
   -0.8172   -1.1741   -5.7310 H   0  0  0  0  0  0  0  0  0  0  0  0
   -4.3424   -0.3437   -5.2617 H   0  0  0  0  0  0  0  0  0  0  0  0
   -3.0405    0.7218   -5.8431 H   0  0  0  0  0  0  0  0  0  0  0  0
   -2.0457   -1.1754   -7.0921 H   0  0  0  0  0  0  0  0  0  0  0  0
   -3.3477   -2.2408   -6.5107 H   0  0  0  0  0  0  0  0  0  0  0  0
   -5.6193   -1.9840   -7.3242 H   0  0  0  0  0  0  0  0  0  0  0  0
   -7.0638   -1.2429   -9.1741 H   0  0  0  0  0  0  0  0  0  0  0  0
   -2.4969    0.5616   -8.7240 H   0  0  0  0  0  0  0  0  0  0  0  0
   -2.2588    2.6850  -11.3647 H   0  0  0  0  0  0  0  0  0  0  0  0
   -2.4286    2.4553   -9.6078 H   0  0  0  0  0  0  0  0  0  0  0  0
   -1.8088    1.1309  -10.6227 H   0  0  0  0  0  0  0  0  0  0  0  0
   -7.6275   -1.1590  -11.1896 H   0  0  0  0  0  0  0  0  0  0  0  0
   -8.2478    0.1654  -10.1750 H   0  0  0  0  0  0  0  0  0  0  0  0
   -8.2308    0.3347  -11.9468 H   0  0  0  0  0  0  0  0  0  0  0  0
    0.3164    1.2329    1.8308 H   0  0  0  0  0  0  0  0  0  0  0  0
   -0.1560    2.5788    3.8366 H   0  0  0  0  0  0  0  0  0  0  0  0
   -3.8077    0.1843    1.5459 H   0  0  0  0  0  0  0  0  0  0  0  0
   -6.5240    0.9669    3.4294 H   0  0  0  0  0  0  0  0  0  0  0  0
   -5.6074    1.1811    1.9187 H   0  0  0  0  0  0  0  0  0  0  0  0
   -5.3123   -0.2434    2.9444 H   0  0  0  0  0  0  0  0  0  0  0  0
   -0.6644    2.8139    5.8548 H   0  0  0  0  0  0  0  0  0  0  0  0
   -0.9593    4.2388    4.8297 H   0  0  0  0  0  0  0  0  0  0  0  0
   -1.7536    4.1046    6.4169 H   0  0  0  0  0  0  0  0  0  0  0  0
   -2.6218   -1.7207   -4.2712 H   0  0  0  0  0  0  0  0  0  0  0  0
  1  2  1  0  0  0  0
  1 34  1  0  0  0  0
  1 35  1  0  0  0  0
  1 36  1  0  0  0  0
  2  3  1  0  0  0  0
  2  4  1  0  0  0  0
  2 37  1  0  0  0  0
  3 38  1  0  0  0  0
  3 39  1  0  0  0  0
  3 40  1  0  0  0  0
  4  5  1  0  0  0  0
  4 22  1  1  0  0  0
  4 24  1  0  0  0  0
  5  6  1  0  0  0  0
  5 41  1  0  0  0  0
  5 42  1  0  0  0  0
  6  7  1  0  0  0  0
  6 43  1  0  0  0  0
  6 44  1  0  0  0  0
  7  8  1  0  0  0  0
  7 45  1  0  0  0  0
  7 46  1  0  0  0  0
  8  9  1  0  0  0  0
  8 10  1  0  0  0  0
  8 72  1  1  0  0  0
  9 47  1  0  0  0  0
  9 48  1  0  0  0  0
  9 49  1  0  0  0  0
 10 11  1  0  0  0  0
 10 50  1  0  0  0  0
 10 51  1  0  0  0  0
 11 12  1  0  0  0  0
 11 52  1  0  0  0  0
 11 53  1  0  0  0  0
 12 17  2  0  0  0  0
 12 13  1  0  0  0  0
 13 14  2  0  0  0  0
 13 54  1  0  0  0  0
 14 15  1  0  0  0  0
 14 55  1  0  0  0  0
 15 16  2  0  0  0  0
 15 20  1  0  0  0  0
 16 17  1  0  0  0  0
 16 18  1  0  0  0  0
 17 56  1  0  0  0  0
 18 19  1  0  0  0  0
 19 57  1  0  0  0  0
 19 58  1  0  0  0  0
 19 59  1  0  0  0  0
 20 21  1  0  0  0  0
 21 60  1  0  0  0  0
 21 61  1  0  0  0  0
 21 62  1  0  0  0  0
 22 23  3  0  0  0  0
 24 29  2  0  0  0  0
 24 25  1  0  0  0  0
 25 26  2  0  0  0  0
 25 63  1  0  0  0  0
 26 27  1  0  0  0  0
 26 64  1  0  0  0  0
 27 28  2  0  0  0  0
 27 32  1  0  0  0  0
 28 29  1  0  0  0  0
 28 30  1  0  0  0  0
 29 65  1  0  0  0  0
 30 31  1  0  0  0  0
 31 66  1  0  0  0  0
 31 67  1  0  0  0  0
 31 68  1  0  0  0  0
 32 33  1  0  0  0  0
 33 69  1  0  0  0  0
 33 70  1  0  0  0  0
 33 71  1  0  0  0  0
M  CHG  1   8   1
M  END
$$$$
