ZINC08034120
 OpenBabel08292219463D

  9  8  0  0  0  0  0  0  0  0999 V2000
    1.3972    2.8985    0.0043 C   0  0  0  0  0  0  0  0  0  0  0  0
    0.4040    3.5997    0.0175 O   0  0  0  0  0  0  0  0  0  0  0  0
    2.6209    3.4634   -0.0044 N   0  0  0  0  0  0  0  0  0  0  0  0
    1.2746    1.5563   -0.0018 N   0  0  0  0  0  0  0  0  0  0  0  0
   -0.0110    0.9628    0.0073 O   0  0  0  0  0  0  0  0  0  0  0  0
    3.4132    2.9039   -0.0149 H   0  0  0  0  0  0  0  0  0  0  0  0
    2.7092    4.4293   -0.0000 H   0  0  0  0  0  0  0  0  0  0  0  0
    2.0669    0.9969   -0.0123 H   0  0  0  0  0  0  0  0  0  0  0  0
    0.0021   -0.0041    0.0020 H   0  0  0  0  0  0  0  0  0  0  0  0
  1  2  2  0  0  0  0
  1  3  1  0  0  0  0
  1  4  1  0  0  0  0
  3  6  1  0  0  0  0
  3  7  1  0  0  0  0
  4  5  1  0  0  0  0
  4  8  1  0  0  0  0
  5  9  1  0  0  0  0
M  END
$$$$
