ZINC00897288
 OpenBabel08292219463D

 12 12  0  0  0  0  0  0  0  0999 V2000
   -0.0184    1.5028    0.0103 C   0  0  0  0  0  0  0  0  0  0  0  0
    0.0021   -0.0041    0.0020 C   0  0  0  0  0  0  0  0  0  0  0  0
    0.0078   -0.7942   -1.0965 C   0  0  0  0  0  0  0  0  0  0  0  0
    0.0272   -2.0776   -0.6800 N   0  0  0  0  0  0  0  0  0  0  0  0
    0.0355   -2.8625   -1.2499 H   0  0  0  0  0  0  0  0  0  0  0  0
    0.0335   -2.0762    0.7208 N   0  0  0  0  0  0  0  0  0  0  0  0
    0.0245   -0.8330    1.1284 C   0  0  0  0  0  0  0  0  0  0  0  0
    1.0042    1.8801    0.0026 H   0  0  0  0  0  0  0  0  0  0  0  0
   -0.5455    1.8639   -0.8728 H   0  0  0  0  0  0  0  0  0  0  0  0
   -0.5286    1.8543    0.9071 H   0  0  0  0  0  0  0  0  0  0  0  0
   -0.0014   -0.4578   -2.1228 H   0  0  0  0  0  0  0  0  0  0  0  0
    0.0302   -0.5037    2.1570 H   0  0  0  0  0  0  0  0  0  0  0  0
  1  2  1  0  0  0  0
  1  8  1  0  0  0  0
  1  9  1  0  0  0  0
  1 10  1  0  0  0  0
  2  7  1  0  0  0  0
  2  3  2  0  0  0  0
  3  4  1  0  0  0  0
  3 11  1  0  0  0  0
  4  5  1  0  0  0  0
  4  6  1  0  0  0  0
  6  7  2  0  0  0  0
  7 12  1  0  0  0  0
M  END
$$$$
