ZINC01542393
 OpenBabel08292219463D

 64 66  0  0  1  0  0  0  0  0999 V2000
   -4.5771    1.7197    1.2656 C   0  0  0  0  0  0  0  0  0  0  0  0
   -4.4910    0.2364    1.6310 C   0  0  0  0  0  0  0  0  0  0  0  0
   -3.7023   -0.5094    0.5529 C   0  0  0  0  0  0  0  0  0  0  0  0
   -3.6161   -1.9927    0.9182 C   0  0  0  0  0  0  0  0  0  0  0  0
   -2.8588   -2.7088   -0.1169 N   0  3  0  0  0  0  0  0  0  0  0  0
   -1.4702   -2.2298   -0.1273 C   0  0  0  0  0  0  0  0  0  0  0  0
   -0.7230   -2.8573   -1.3058 C   0  0  0  0  0  0  0  0  0  0  0  0
    0.7406   -2.4123   -1.2769 C   0  0  0  0  0  0  0  0  0  0  0  0
    1.4878   -3.0398   -2.4554 C   0  0  0  0  0  0  0  0  0  0  0  0
   -2.8779   -4.1492    0.1707 C   0  0  0  0  0  0  0  0  0  0  0  0
   -4.3105   -4.6736    0.0547 C   0  0  0  0  0  0  0  0  0  0  0  0
   -4.3133   -6.1932    0.2324 C   0  0  2  0  0  0  0  0  0  0  0  0
   -3.6262   -6.6441   -0.4836 H   0  0  0  0  0  0  0  0  0  0  0  0
   -5.7040   -6.7240   -0.0032 C   0  0  0  0  0  0  0  0  0  0  0  0
   -6.5253   -6.9127    1.0497 C   0  0  0  0  0  0  0  0  0  0  0  0
   -7.8387   -7.4083    0.8813 C   0  0  0  0  0  0  0  0  0  0  0  0
   -8.3134   -7.7160   -0.4137 C   0  0  0  0  0  0  0  0  0  0  0  0
   -9.6102   -8.2062   -0.5786 C   0  0  0  0  0  0  0  0  0  0  0  0
  -10.4151   -8.3852    0.5241 C   0  0  0  0  0  0  0  0  0  0  0  0
   -9.9472   -8.0817    1.7984 C   0  0  0  0  0  0  0  0  0  0  0  0
   -8.6836   -7.6014    1.9849 C   0  0  0  0  0  0  0  0  0  0  0  0
   -8.1218   -7.2309    3.5852 Cl  0  0  0  0  0  0  0  0  0  0  0  0
  -12.0280   -8.9945    0.3222 Cl  0  0  0  0  0  0  0  0  0  0  0  0
   -7.4214   -7.5100   -1.5582 C   0  0  0  0  0  0  0  0  0  0  0  0
   -6.1213   -7.0077   -1.3240 C   0  0  0  0  0  0  0  0  0  0  0  0
   -5.2620   -6.8028   -2.4129 C   0  0  0  0  0  0  0  0  0  0  0  0
   -5.6913   -7.0846   -3.6765 C   0  0  0  0  0  0  0  0  0  0  0  0
   -6.9726   -7.5734   -3.9031 C   0  0  0  0  0  0  0  0  0  0  0  0
   -7.8297   -7.7940   -2.8628 C   0  0  0  0  0  0  0  0  0  0  0  0
   -7.4171   -7.8741   -5.3113 C   0  0  0  0  0  0  0  0  0  0  0  0
   -6.3772   -7.5831   -6.2007 F   0  0  0  0  0  0  0  0  0  0  0  0
   -7.7543   -9.2279   -5.4148 F   0  0  0  0  0  0  0  0  0  0  0  0
   -8.5325   -7.0903   -5.6255 F   0  0  0  0  0  0  0  0  0  0  0  0
   -3.8982   -6.5183    1.5606 O   0  0  0  0  0  0  0  0  0  0  0  0
   -5.1391    2.2510    2.0337 H   0  0  0  0  0  0  0  0  0  0  0  0
   -3.5721    2.1360    1.1973 H   0  0  0  0  0  0  0  0  0  0  0  0
   -5.0816    1.8287    0.3056 H   0  0  0  0  0  0  0  0  0  0  0  0
   -3.9865    0.1274    2.5911 H   0  0  0  0  0  0  0  0  0  0  0  0
   -5.4961   -0.1799    1.6994 H   0  0  0  0  0  0  0  0  0  0  0  0
   -4.2068   -0.4005   -0.4072 H   0  0  0  0  0  0  0  0  0  0  0  0
   -2.6972   -0.0931    0.4845 H   0  0  0  0  0  0  0  0  0  0  0  0
   -3.1116   -2.1017    1.8783 H   0  0  0  0  0  0  0  0  0  0  0  0
   -4.6212   -2.4090    0.9866 H   0  0  0  0  0  0  0  0  0  0  0  0
   -1.4609   -1.1445   -0.2276 H   0  0  0  0  0  0  0  0  0  0  0  0
   -0.9813   -2.5127    0.8050 H   0  0  0  0  0  0  0  0  0  0  0  0
   -0.7740   -3.9436   -1.2315 H   0  0  0  0  0  0  0  0  0  0  0  0
   -1.1823   -2.5351   -2.2403 H   0  0  0  0  0  0  0  0  0  0  0  0
    0.7916   -1.3261   -1.3512 H   0  0  0  0  0  0  0  0  0  0  0  0
    1.2000   -2.7346   -0.3424 H   0  0  0  0  0  0  0  0  0  0  0  0
    2.5304   -2.7228   -2.4349 H   0  0  0  0  0  0  0  0  0  0  0  0
    1.4367   -4.1261   -2.3811 H   0  0  0  0  0  0  0  0  0  0  0  0
    1.0284   -2.7176   -3.3899 H   0  0  0  0  0  0  0  0  0  0  0  0
   -2.2410   -4.6709   -0.5437 H   0  0  0  0  0  0  0  0  0  0  0  0
   -2.5081   -4.3228    1.1813 H   0  0  0  0  0  0  0  0  0  0  0  0
   -4.9285   -4.2163    0.8274 H   0  0  0  0  0  0  0  0  0  0  0  0
   -4.7111   -4.4219   -0.9272 H   0  0  0  0  0  0  0  0  0  0  0  0
   -6.1718   -6.6805    2.0435 H   0  0  0  0  0  0  0  0  0  0  0  0
   -9.9800   -8.4431   -1.5653 H   0  0  0  0  0  0  0  0  0  0  0  0
  -10.5928   -8.2282    2.6518 H   0  0  0  0  0  0  0  0  0  0  0  0
   -4.2640   -6.4228   -2.2517 H   0  0  0  0  0  0  0  0  0  0  0  0
   -5.0265   -6.9254   -4.5127 H   0  0  0  0  0  0  0  0  0  0  0  0
   -8.8226   -8.1755   -3.0496 H   0  0  0  0  0  0  0  0  0  0  0  0
   -4.4654   -6.1492    2.2514 H   0  0  0  0  0  0  0  0  0  0  0  0
   -3.2794   -2.5403   -1.0185 H   0  0  0  0  0  0  0  0  0  0  0  0
  1  2  1  0  0  0  0
  1 35  1  0  0  0  0
  1 36  1  0  0  0  0
  1 37  1  0  0  0  0
  2  3  1  0  0  0  0
  2 38  1  0  0  0  0
  2 39  1  0  0  0  0
  3  4  1  0  0  0  0
  3 40  1  0  0  0  0
  3 41  1  0  0  0  0
  4  5  1  0  0  0  0
  4 42  1  0  0  0  0
  4 43  1  0  0  0  0
  5  6  1  0  0  0  0
  5 10  1  0  0  0  0
  5 64  1  0  0  0  0
  6  7  1  0  0  0  0
  6 44  1  0  0  0  0
  6 45  1  0  0  0  0
  7  8  1  0  0  0  0
  7 46  1  0  0  0  0
  7 47  1  0  0  0  0
  8  9  1  0  0  0  0
  8 48  1  0  0  0  0
  8 49  1  0  0  0  0
  9 50  1  0  0  0  0
  9 51  1  0  0  0  0
  9 52  1  0  0  0  0
 10 11  1  0  0  0  0
 10 53  1  0  0  0  0
 10 54  1  0  0  0  0
 11 12  1  0  0  0  0
 11 55  1  0  0  0  0
 11 56  1  0  0  0  0
 12 13  1  6  0  0  0
 12 14  1  0  0  0  0
 12 34  1  0  0  0  0
 14 25  2  0  0  0  0
 14 15  1  0  0  0  0
 15 16  2  0  0  0  0
 15 57  1  0  0  0  0
 16 21  1  0  0  0  0
 16 17  1  0  0  0  0
 17 18  1  0  0  0  0
 17 24  2  0  0  0  0
 18 19  2  0  0  0  0
 18 58  1  0  0  0  0
 19 20  1  0  0  0  0
 19 23  1  0  0  0  0
 20 21  2  0  0  0  0
 20 59  1  0  0  0  0
 21 22  1  0  0  0  0
 24 29  1  0  0  0  0
 24 25  1  0  0  0  0
 25 26  1  0  0  0  0
 26 27  2  0  0  0  0
 26 60  1  0  0  0  0
 27 28  1  0  0  0  0
 27 61  1  0  0  0  0
 28 29  2  0  0  0  0
 28 30  1  0  0  0  0
 29 62  1  0  0  0  0
 30 31  1  0  0  0  0
 30 32  1  0  0  0  0
 30 33  1  0  0  0  0
 34 63  1  0  0  0  0
M  CHG  1   5   1
M  END
$$$$
