ZINC03872055
 OpenBabel08292219463D

 23 24  0  0  0  0  0  0  0  0999 V2000
   -0.0167    1.3777    0.0096 C   0  0  0  0  0  0  0  0  0  0  0  0
    1.1783    2.0865    0.0020 C   0  0  0  0  0  0  0  0  0  0  0  0
    2.3834    1.3920   -0.0115 C   0  0  0  0  0  0  0  0  0  0  0  0
    2.3995    0.0155   -0.0208 C   0  0  0  0  0  0  0  0  0  0  0  0
    1.2064   -0.6863   -0.0141 C   0  0  0  0  0  0  0  0  0  0  0  0
    0.0021   -0.0041    0.0020 C   0  0  0  0  0  0  0  0  0  0  0  0
   -1.4917   -0.8884    0.0125 Cl  0  0  0  0  0  0  0  0  0  0  0  0
    1.2207   -2.4482   -0.0258 S   0  0  0  0  0  0  0  0  0  0  0  0
    0.3185   -2.8548   -1.0456 O   0  0  0  0  0  0  0  0  0  0  0  0
    2.5856   -2.8433   -0.0143 O   0  0  0  0  0  0  0  0  0  0  0  0
    0.5698   -2.9527    1.4109 N   0  0  0  0  0  0  0  0  0  0  0  0
    3.8858    2.3166   -0.0135 S   0  0  0  0  0  0  0  0  0  0  0  0
    4.6772    1.8176    1.0561 O   0  0  0  0  0  0  0  0  0  0  0  0
    4.3469    2.3491   -1.3572 O   0  0  0  0  0  0  0  0  0  0  0  0
    3.4617    3.8690    0.3870 N   0  0  0  0  0  0  0  0  0  0  0  0
    2.2362    4.2476    0.3554 C   0  0  0  0  0  0  0  0  0  0  0  0
    1.1761    3.4786    0.0051 N   0  0  0  0  0  0  0  0  0  0  0  0
   -0.9586    1.9058    0.0259 H   0  0  0  0  0  0  0  0  0  0  0  0
    3.3401   -0.5152   -0.0337 H   0  0  0  0  0  0  0  0  0  0  0  0
    0.0915   -3.7953    1.4573 H   0  0  0  0  0  0  0  0  0  0  0  0
    0.6668   -2.4055    2.2059 H   0  0  0  0  0  0  0  0  0  0  0  0
    2.0307    5.2709    0.6327 H   0  0  0  0  0  0  0  0  0  0  0  0
    0.3598    3.9294   -0.2621 H   0  0  0  0  0  0  0  0  0  0  0  0
  1  6  2  0  0  0  0
  1  2  1  0  0  0  0
  1 18  1  0  0  0  0
  2 17  1  0  0  0  0
  2  3  2  0  0  0  0
  3  4  1  0  0  0  0
  3 12  1  0  0  0  0
  4  5  2  0  0  0  0
  4 19  1  0  0  0  0
  5  6  1  0  0  0  0
  5  8  1  0  0  0  0
  6  7  1  0  0  0  0
  8  9  2  0  0  0  0
  8 10  2  0  0  0  0
  8 11  1  0  0  0  0
 11 20  1  0  0  0  0
 11 21  1  0  0  0  0
 12 13  2  0  0  0  0
 12 14  2  0  0  0  0
 12 15  1  0  0  0  0
 15 16  2  0  0  0  0
 16 17  1  0  0  0  0
 16 22  1  0  0  0  0
 17 23  1  0  0  0  0
M  END
$$$$
