ZINC03953037
 OpenBabel08292219463D

 45 46  0  0  1  0  0  0  0  0999 V2000
   -0.1443    1.5287   -2.3361 C   0  0  0  0  0  0  0  0  0  0  0  0
   -0.1122   -0.0010   -2.3413 C   0  0  0  0  0  0  0  0  0  0  0  0
    0.6897   -0.4778   -1.2066 N   0  3  0  0  0  0  0  0  0  0  0  0
    0.6170   -1.9434   -1.1372 C   0  0  1  0  0  0  0  0  0  0  0  0
   -0.4299   -2.2419   -1.0821 H   0  0  0  0  0  0  0  0  0  0  0  0
    1.2290   -2.5266   -2.4008 C   0  0  0  0  0  0  0  0  0  0  0  0
    1.2178   -4.0017   -2.3725 N   0  0  0  0  0  0  0  0  0  0  0  0
    2.1913   -4.6964   -1.1964 S   0  0  0  0  0  0  0  0  0  0  0  0
    3.5356   -4.5934   -1.6450 O   0  0  0  0  0  0  0  0  0  0  0  0
    1.5909   -5.9295   -0.8245 O   0  0  0  0  0  0  0  0  0  0  0  0
    2.0056   -3.5925    0.1555 C   0  0  0  0  0  0  0  0  0  0  0  0
    1.3290   -2.4121    0.1220 C   0  0  0  0  0  0  0  0  0  0  0  0
    1.3364   -1.6821    1.3141 C   0  0  0  0  0  0  0  0  0  0  0  0
    1.9728   -2.1632    2.4071 C   0  0  0  0  0  0  0  0  0  0  0  0
    2.6159   -3.7161    1.8064 S   0  0  0  0  0  0  0  0  0  0  0  0
    2.1242   -1.4453    4.0091 S   0  0  0  0  0  0  0  0  0  0  0  0
    3.2891   -2.0074    4.5975 O   0  0  0  0  0  0  0  0  0  0  0  0
    1.9545   -0.0442    3.8439 O   0  0  0  0  0  0  0  0  0  0  0  0
    0.8376   -1.9754    4.9067 N   0  0  0  0  0  0  0  0  0  0  0  0
    0.4155   -4.8004   -3.3024 C   0  0  0  0  0  0  0  0  0  0  0  0
    1.1924   -4.9992   -4.6054 C   0  0  0  0  0  0  0  0  0  0  0  0
    0.3545   -5.8334   -5.5765 C   0  0  0  0  0  0  0  0  0  0  0  0
    1.0801   -6.0191   -6.7935 O   0  0  0  0  0  0  0  0  0  0  0  0
    0.3826   -6.7895   -7.7743 C   0  0  0  0  0  0  0  0  0  0  0  0
   -0.5884    1.8796   -1.4045 H   0  0  0  0  0  0  0  0  0  0  0  0
    0.8718    1.9137   -2.4219 H   0  0  0  0  0  0  0  0  0  0  0  0
   -0.7393    1.8825   -3.1781 H   0  0  0  0  0  0  0  0  0  0  0  0
   -1.1283   -0.3860   -2.2555 H   0  0  0  0  0  0  0  0  0  0  0  0
    0.3319   -0.3519   -3.2729 H   0  0  0  0  0  0  0  0  0  0  0  0
    1.6500   -0.1942   -1.3306 H   0  0  0  0  0  0  0  0  0  0  0  0
    0.6601   -2.1822   -3.2644 H   0  0  0  0  0  0  0  0  0  0  0  0
    2.2582   -2.1795   -2.4917 H   0  0  0  0  0  0  0  0  0  0  0  0
    0.8317   -0.7286    1.3630 H   0  0  0  0  0  0  0  0  0  0  0  0
    0.1832   -2.5721    4.5111 H   0  0  0  0  0  0  0  0  0  0  0  0
    0.7383   -1.6891    5.8282 H   0  0  0  0  0  0  0  0  0  0  0  0
    0.2008   -5.7712   -2.8556 H   0  0  0  0  0  0  0  0  0  0  0  0
   -0.5201   -4.2823   -3.5126 H   0  0  0  0  0  0  0  0  0  0  0  0
    1.4071   -4.0284   -5.0521 H   0  0  0  0  0  0  0  0  0  0  0  0
    2.1280   -5.5174   -4.3951 H   0  0  0  0  0  0  0  0  0  0  0  0
    0.1398   -6.8042   -5.1298 H   0  0  0  0  0  0  0  0  0  0  0  0
   -0.5811   -5.3152   -5.7868 H   0  0  0  0  0  0  0  0  0  0  0  0
    0.1684   -7.7802   -7.3732 H   0  0  0  0  0  0  0  0  0  0  0  0
   -0.5525   -6.2912   -8.0301 H   0  0  0  0  0  0  0  0  0  0  0  0
    0.9998   -6.8849   -8.6676 H   0  0  0  0  0  0  0  0  0  0  0  0
    0.3300   -0.0823   -0.3509 H   0  0  0  0  0  0  0  0  0  0  0  0
  1  2  1  0  0  0  0
  1 25  1  0  0  0  0
  1 26  1  0  0  0  0
  1 27  1  0  0  0  0
  2  3  1  0  0  0  0
  2 28  1  0  0  0  0
  2 29  1  0  0  0  0
  3  4  1  0  0  0  0
  3 30  1  0  0  0  0
  3 45  1  0  0  0  0
  4  5  1  1  0  0  0
  4 12  1  0  0  0  0
  4  6  1  0  0  0  0
  6  7  1  0  0  0  0
  6 31  1  0  0  0  0
  6 32  1  0  0  0  0
  7  8  1  0  0  0  0
  7 20  1  0  0  0  0
  8  9  2  0  0  0  0
  8 10  2  0  0  0  0
  8 11  1  0  0  0  0
 11 15  1  0  0  0  0
 11 12  2  0  0  0  0
 12 13  1  0  0  0  0
 13 14  2  0  0  0  0
 13 33  1  0  0  0  0
 14 15  1  0  0  0  0
 14 16  1  0  0  0  0
 16 17  2  0  0  0  0
 16 18  2  0  0  0  0
 16 19  1  0  0  0  0
 19 34  1  0  0  0  0
 19 35  1  0  0  0  0
 20 21  1  0  0  0  0
 20 36  1  0  0  0  0
 20 37  1  0  0  0  0
 21 22  1  0  0  0  0
 21 38  1  0  0  0  0
 21 39  1  0  0  0  0
 22 23  1  0  0  0  0
 22 40  1  0  0  0  0
 22 41  1  0  0  0  0
 23 24  1  0  0  0  0
 24 42  1  0  0  0  0
 24 43  1  0  0  0  0
 24 44  1  0  0  0  0
M  CHG  1   3   1
M  END
$$$$
