ZINC05651594
 OpenBabel08292219463D

 36 37  0  0  0  0  0  0  0  0999 V2000
   -0.0127    1.0858    0.0080 C   0  0  0  0  0  0  0  0  0  0  0  0
   -0.7288    1.5792    1.2668 C   0  0  0  0  0  0  0  0  0  0  0  0
    0.0111    1.0724    2.5063 C   0  0  0  0  0  0  0  0  0  0  0  0
    1.3706    1.7441    2.5521 C   0  0  0  0  0  0  0  0  0  0  0  0
    1.4744    2.9516    2.5849 O   0  0  0  0  0  0  0  0  0  0  0  0
    2.4604    0.9475    2.5554 N   0  0  0  0  0  0  0  0  0  0  0  0
    2.3629   -0.3863    2.5186 C   0  0  0  0  0  0  0  0  0  0  0  0
    3.3952   -1.0267    2.5241 O   0  0  0  0  0  0  0  0  0  0  0  0
    1.2115   -1.0665    2.4765 N   0  0  0  0  0  0  0  0  0  0  0  0
    0.0137   -0.4441    2.4674 C   0  0  0  0  0  0  0  0  0  0  0  0
   -1.0217   -1.0737    2.4299 O   0  0  0  0  0  0  0  0  0  0  0  0
   -0.7643    1.5090    3.7226 C   0  0  0  0  0  0  0  0  0  0  0  0
   -1.8485    2.1907    3.5266 C   0  0  0  0  0  0  0  0  0  0  0  0
   -2.7705    2.6145    4.6327 C   0  0  0  0  0  0  0  0  0  0  0  0
   -1.9865    3.3219    5.7439 C   0  0  0  0  0  0  0  0  0  0  0  0
   -1.5945    2.2724    6.7826 C   0  0  0  0  0  0  0  0  0  0  0  0
   -1.3497    0.9314    6.0826 C   0  0  0  0  0  0  0  0  0  0  0  0
   -0.2236    1.1150    5.0656 C   0  0  0  0  0  0  0  0  0  0  0  0
   -0.5447    1.4502   -0.8831 H   0  0  0  0  0  0  0  0  0  0  0  0
    0.0022   -0.0141    0.0020 H   0  0  0  0  0  0  0  0  0  0  0  0
    1.0193    1.4665    0.0002 H   0  0  0  0  0  0  0  0  0  0  0  0
   -0.7437    2.6791    1.2728 H   0  0  0  0  0  0  0  0  0  0  0  0
   -1.7608    1.1985    1.2746 H   0  0  0  0  0  0  0  0  0  0  0  0
    3.4662    1.3916    2.5891 H   0  0  0  0  0  0  0  0  0  0  0  0
    1.2230   -2.1661    2.4481 H   0  0  0  0  0  0  0  0  0  0  0  0
   -2.1340    2.4888    2.5070 H   0  0  0  0  0  0  0  0  0  0  0  0
   -3.5278    3.3056    4.2342 H   0  0  0  0  0  0  0  0  0  0  0  0
   -3.2682    1.7290    5.0548 H   0  0  0  0  0  0  0  0  0  0  0  0
   -1.0872    3.7900    5.3172 H   0  0  0  0  0  0  0  0  0  0  0  0
   -2.6192    4.0953    6.2038 H   0  0  0  0  0  0  0  0  0  0  0  0
   -0.6763    2.5913    7.2976 H   0  0  0  0  0  0  0  0  0  0  0  0
   -2.4066    2.1613    7.5162 H   0  0  0  0  0  0  0  0  0  0  0  0
   -1.0630    0.1754    6.8285 H   0  0  0  0  0  0  0  0  0  0  0  0
   -2.2695    0.6114    5.5712 H   0  0  0  0  0  0  0  0  0  0  0  0
    0.3260    0.1664    4.9756 H   0  0  0  0  0  0  0  0  0  0  0  0
    0.4556    1.8990    5.4318 H   0  0  0  0  0  0  0  0  0  0  0  0
  1  2  1  0  0  0  0
  1 19  1  0  0  0  0
  1 20  1  0  0  0  0
  1 21  1  0  0  0  0
  2  3  1  0  0  0  0
  2 22  1  0  0  0  0
  2 23  1  0  0  0  0
  3 10  1  0  0  0  0
  3  4  1  0  0  0  0
  3 12  1  0  0  0  0
  4  5  2  0  0  0  0
  4  6  1  0  0  0  0
  6  7  1  0  0  0  0
  6 24  1  0  0  0  0
  7  8  2  0  0  0  0
  7  9  1  0  0  0  0
  9 10  1  0  0  0  0
  9 25  1  0  0  0  0
 10 11  2  0  0  0  0
 12 18  1  0  0  0  0
 12 13  2  0  0  0  0
 13 14  1  0  0  0  0
 13 26  1  0  0  0  0
 14 15  1  0  0  0  0
 14 27  1  0  0  0  0
 14 28  1  0  0  0  0
 15 16  1  0  0  0  0
 15 29  1  0  0  0  0
 15 30  1  0  0  0  0
 16 17  1  0  0  0  0
 16 31  1  0  0  0  0
 16 32  1  0  0  0  0
 17 18  1  0  0  0  0
 17 33  1  0  0  0  0
 17 34  1  0  0  0  0
 18 35  1  0  0  0  0
 18 36  1  0  0  0  0
M  END
$$$$
