ZINC34176694
 OpenBabel08292219463D

 64 67  0  0  1  0  0  0  0  0999 V2000
   -0.8010    1.2087    0.5553 C   0  0  0  0  0  0  0  0  0  0  0  0
   -0.5354   -0.2875    0.3775 C   0  0  0  0  0  0  0  0  0  0  0  0
    0.2935   -0.5068   -0.8618 C   0  0  0  0  0  0  0  0  0  0  0  0
    0.6367    0.4369   -1.5338 O   0  0  0  0  0  0  0  0  0  0  0  0
    0.6506   -1.7504   -1.2190 O   0  0  0  0  0  0  0  0  0  0  0  0
    1.3366   -1.8953   -2.4593 C   0  0  2  0  0  0  0  0  0  0  0  0
    0.4693   -1.3663   -3.6307 C   0  0  2  0  0  0  0  0  0  0  0  0
   -0.4286   -0.8864   -3.2369 H   0  0  0  0  0  0  0  0  0  0  0  0
    0.0674   -2.6124   -4.4739 C   0  0  0  0  0  0  0  0  0  0  0  0
    0.1930   -3.7290   -3.4302 C   0  0  2  0  0  0  0  0  0  0  0  0
   -0.6018   -3.5413   -2.6705 H   0  0  0  0  0  0  0  0  0  0  0  0
    1.5474   -3.3885   -2.7788 C   0  0  2  0  0  0  0  0  0  0  0  0
    1.7848   -4.2919   -1.5951 C   0  0  0  0  0  0  0  0  0  0  0  0
    1.6950   -5.7708   -2.0228 C   0  0  1  0  0  0  0  0  0  0  0  0
    1.7756   -6.3559   -1.0912 H   0  0  0  0  0  0  0  0  0  0  0  0
    0.3667   -6.0791   -2.6791 C   0  0  1  0  0  0  0  0  0  0  0  0
    0.0691   -5.1496   -3.8660 C   0  0  2  0  0  0  0  0  0  0  0  0
   -0.9967   -5.3243   -4.1387 H   0  0  0  0  0  0  0  0  0  0  0  0
    0.9122   -5.5627   -5.0616 C   0  0  0  0  0  0  0  0  0  0  0  0
    0.3393   -6.8727   -5.6088 C   0  0  1  0  0  0  0  0  0  0  0  0
    1.0969   -7.3727   -6.2124 H   0  0  0  0  0  0  0  0  0  0  0  0
   -0.0877   -7.7929   -4.4960 C   0  0  0  0  0  0  0  0  0  0  0  0
   -0.6427   -8.9603   -4.8790 C   0  0  0  0  0  0  0  0  0  0  0  0
   -1.1567   -9.8831   -3.8455 C   0  0  0  0  0  0  0  0  0  0  0  0
   -1.2966  -11.0808   -4.0548 O   0  0  0  0  0  0  0  0  0  0  0  0
   -1.5368   -9.2781   -2.5467 C   0  0  0  0  0  0  0  0  0  0  0  0
   -0.9620   -8.1260   -2.1820 C   0  0  0  0  0  0  0  0  0  0  0  0
    0.1083   -7.5133   -3.0464 C   0  0  2  0  0  0  0  0  0  0  0  0
    1.3449   -8.3303   -2.6716 C   0  0  0  0  0  0  0  0  0  0  0  0
   -0.7723   -6.5873   -6.4108 F   0  0  0  0  0  0  0  0  0  0  0  0
   -0.6200   -5.7561   -1.7107 F   0  0  0  0  0  0  0  0  0  0  0  0
    2.8151   -6.0829   -2.8406 O   0  0  0  0  0  0  0  0  0  0  0  0
    2.7165   -3.4637   -3.7633 C   0  0  0  0  0  0  0  0  0  0  0  0
    1.2595   -0.3762   -4.4842 C   0  0  0  0  0  0  0  0  0  0  0  0
    2.6642   -1.1885   -2.4247 C   0  0  0  0  0  0  0  0  0  0  0  0
    3.1879   -0.8367   -3.4543 O   0  0  0  0  0  0  0  0  0  0  0  0
    3.3405   -0.9197   -1.1051 C   0  0  0  0  0  0  0  0  0  0  0  0
    4.8273    0.0623   -1.3808 Cl  0  0  0  0  0  0  0  0  0  0  0  0
    0.1474    1.7368    0.6544 H   0  0  0  0  0  0  0  0  0  0  0  0
   -1.3390    1.5880   -0.3135 H   0  0  0  0  0  0  0  0  0  0  0  0
   -1.4005    1.3673    1.4517 H   0  0  0  0  0  0  0  0  0  0  0  0
    0.0026   -0.6668    1.2463 H   0  0  0  0  0  0  0  0  0  0  0  0
   -1.4838   -0.8156    0.2784 H   0  0  0  0  0  0  0  0  0  0  0  0
   -0.9688   -2.5210   -4.8082 H   0  0  0  0  0  0  0  0  0  0  0  0
    0.7293   -2.7561   -5.3172 H   0  0  0  0  0  0  0  0  0  0  0  0
    2.7778   -4.1055   -1.1740 H   0  0  0  0  0  0  0  0  0  0  0  0
    1.0361   -4.1033   -0.8199 H   0  0  0  0  0  0  0  0  0  0  0  0
    0.8595   -4.7973   -5.8431 H   0  0  0  0  0  0  0  0  0  0  0  0
    1.9533   -5.7247   -4.7933 H   0  0  0  0  0  0  0  0  0  0  0  0
   -0.7046   -9.2167   -5.9400 H   0  0  0  0  0  0  0  0  0  0  0  0
   -2.2723   -9.7647   -1.9015 H   0  0  0  0  0  0  0  0  0  0  0  0
   -1.2645   -7.6315   -1.2595 H   0  0  0  0  0  0  0  0  0  0  0  0
    1.5263   -8.2440   -1.6003 H   0  0  0  0  0  0  0  0  0  0  0  0
    1.1808   -9.3766   -2.9293 H   0  0  0  0  0  0  0  0  0  0  0  0
    2.2091   -7.9527   -3.2181 H   0  0  0  0  0  0  0  0  0  0  0  0
    3.6684   -5.9585   -2.4030 H   0  0  0  0  0  0  0  0  0  0  0  0
    3.6314   -3.1414   -3.2661 H   0  0  0  0  0  0  0  0  0  0  0  0
    2.8338   -4.4903   -4.1104 H   0  0  0  0  0  0  0  0  0  0  0  0
    2.5170   -2.8129   -4.6146 H   0  0  0  0  0  0  0  0  0  0  0  0
    2.0241   -0.9114   -5.0472 H   0  0  0  0  0  0  0  0  0  0  0  0
    0.5841    0.1269   -5.1761 H   0  0  0  0  0  0  0  0  0  0  0  0
    1.7342    0.3623   -3.8382 H   0  0  0  0  0  0  0  0  0  0  0  0
    2.6597   -0.3729   -0.4527 H   0  0  0  0  0  0  0  0  0  0  0  0
    3.6116   -1.8657   -0.6363 H   0  0  0  0  0  0  0  0  0  0  0  0
  1  2  1  0  0  0  0
  1 39  1  0  0  0  0
  1 40  1  0  0  0  0
  1 41  1  0  0  0  0
  2  3  1  0  0  0  0
  2 42  1  0  0  0  0
  2 43  1  0  0  0  0
  3  4  2  0  0  0  0
  3  5  1  0  0  0  0
  6  5  1  1  0  0  0
  6 12  1  0  0  0  0
  6  7  1  0  0  0  0
  6 35  1  0  0  0  0
  7  8  1  1  0  0  0
  7  9  1  0  0  0  0
  7 34  1  0  0  0  0
  9 10  1  0  0  0  0
  9 44  1  0  0  0  0
  9 45  1  0  0  0  0
 10 11  1  1  0  0  0
 10 17  1  0  0  0  0
 10 12  1  0  0  0  0
 12 13  1  0  0  0  0
 12 33  1  6  0  0  0
 13 14  1  0  0  0  0
 13 46  1  0  0  0  0
 13 47  1  0  0  0  0
 14 15  1  1  0  0  0
 14 16  1  0  0  0  0
 14 32  1  0  0  0  0
 16 28  1  0  0  0  0
 16 17  1  0  0  0  0
 16 31  1  1  0  0  0
 17 18  1  6  0  0  0
 17 19  1  0  0  0  0
 19 20  1  0  0  0  0
 19 48  1  0  0  0  0
 19 49  1  0  0  0  0
 20 21  1  6  0  0  0
 20 22  1  0  0  0  0
 20 30  1  0  0  0  0
 22 28  1  0  0  0  0
 22 23  2  0  0  0  0
 23 24  1  0  0  0  0
 23 50  1  0  0  0  0
 24 25  2  0  0  0  0
 24 26  1  0  0  0  0
 26 27  2  0  0  0  0
 26 51  1  0  0  0  0
 27 28  1  0  0  0  0
 27 52  1  0  0  0  0
 28 29  1  1  0  0  0
 29 53  1  0  0  0  0
 29 54  1  0  0  0  0
 29 55  1  0  0  0  0
 32 56  1  0  0  0  0
 33 57  1  0  0  0  0
 33 58  1  0  0  0  0
 33 59  1  0  0  0  0
 34 60  1  0  0  0  0
 34 61  1  0  0  0  0
 34 62  1  0  0  0  0
 35 36  2  0  0  0  0
 35 37  1  0  0  0  0
 37 38  1  0  0  0  0
 37 63  1  0  0  0  0
 37 64  1  0  0  0  0
M  END
$$$$
