ZINC03785268
 OpenBabel08292219463D

 68 69  0  0  1  0  0  0  0  0999 V2000
   -0.0167    1.3781    0.0096 C   0  0  0  0  0  0  0  0  0  0  0  0
    1.1709    2.0855    0.0021 C   0  0  0  0  0  0  0  0  0  0  0  0
    2.3773    1.4107   -0.0130 C   0  0  0  0  0  0  0  0  0  0  0  0
    2.3960    0.0285   -0.0201 C   0  0  0  0  0  0  0  0  0  0  0  0
    1.2084   -0.6789   -0.0117 C   0  0  0  0  0  0  0  0  0  0  0  0
    0.0021   -0.0041    0.0020 C   0  0  0  0  0  0  0  0  0  0  0  0
    3.7112   -0.7071   -0.0376 C   0  0  0  0  0  0  0  0  0  0  0  0
    4.1714   -0.9633    1.3989 C   0  0  0  0  0  0  0  0  0  0  0  0
    5.5066   -1.7102    1.3812 C   0  0  0  0  0  0  0  0  0  0  0  0
    5.9667   -1.9663    2.8177 C   0  0  0  0  0  0  0  0  0  0  0  0
    7.2138   -2.6639    2.8011 O   0  0  0  0  0  0  0  0  0  0  0  0
    7.7347   -2.9541    4.0998 C   0  0  0  0  0  0  0  0  0  0  0  0
    9.0645   -3.6981    3.9613 C   0  0  0  0  0  0  0  0  0  0  0  0
    9.6222   -4.0088    5.3517 C   0  0  0  0  0  0  0  0  0  0  0  0
   10.9520   -4.7528    5.2133 C   0  0  0  0  0  0  0  0  0  0  0  0
   11.5097   -5.0635    6.6037 C   0  0  0  0  0  0  0  0  0  0  0  0
   12.8395   -5.8075    6.4652 C   0  0  0  0  0  0  0  0  0  0  0  0
   13.3750   -6.1058    7.8002 N   0  3  0  0  0  0  0  0  0  0  0  0
   14.6517   -6.8201    7.6672 C   0  0  0  0  0  0  0  0  0  0  0  0
   15.2094   -7.1309    9.0577 C   0  0  2  0  0  0  0  0  0  0  0  0
   15.2854   -6.2083    9.6332 H   0  0  0  0  0  0  0  0  0  0  0  0
   16.5754   -7.7532    8.9234 C   0  0  0  0  0  0  0  0  0  0  0  0
   16.6950   -9.0941    8.6073 C   0  0  0  0  0  0  0  0  0  0  0  0
   17.9458   -9.6669    8.4841 C   0  0  0  0  0  0  0  0  0  0  0  0
   19.0828   -8.8956    8.6775 C   0  0  0  0  0  0  0  0  0  0  0  0
   18.9602   -7.5507    8.9941 C   0  0  0  0  0  0  0  0  0  0  0  0
   17.7068   -6.9812    9.1111 C   0  0  0  0  0  0  0  0  0  0  0  0
   20.1931   -6.7101    9.2049 C   0  0  0  0  0  0  0  0  0  0  0  0
   19.8081   -5.3700    9.5178 O   0  0  0  0  0  0  0  0  0  0  0  0
   20.3146   -9.4570    8.5573 O   0  0  0  0  0  0  0  0  0  0  0  0
   14.3355   -8.0405    9.7291 O   0  0  0  0  0  0  0  0  0  0  0  0
   -0.9591    1.9053    0.0259 H   0  0  0  0  0  0  0  0  0  0  0  0
    1.1563    3.1654    0.0076 H   0  0  0  0  0  0  0  0  0  0  0  0
    3.3051    1.9634   -0.0196 H   0  0  0  0  0  0  0  0  0  0  0  0
    1.2231   -1.7588   -0.0176 H   0  0  0  0  0  0  0  0  0  0  0  0
   -0.9258   -0.5567    0.0082 H   0  0  0  0  0  0  0  0  0  0  0  0
    3.5884   -1.6586   -0.5549 H   0  0  0  0  0  0  0  0  0  0  0  0
    4.4573   -0.1052   -0.5563 H   0  0  0  0  0  0  0  0  0  0  0  0
    4.2941   -0.0118    1.9163 H   0  0  0  0  0  0  0  0  0  0  0  0
    3.4252   -1.5652    1.9176 H   0  0  0  0  0  0  0  0  0  0  0  0
    5.3838   -2.6617    0.8639 H   0  0  0  0  0  0  0  0  0  0  0  0
    6.2527   -1.1082    0.8625 H   0  0  0  0  0  0  0  0  0  0  0  0
    6.0895   -1.0148    3.3350 H   0  0  0  0  0  0  0  0  0  0  0  0
    5.2206   -2.5682    3.3364 H   0  0  0  0  0  0  0  0  0  0  0  0
    7.8942   -2.0231    4.6437 H   0  0  0  0  0  0  0  0  0  0  0  0
    7.0252   -3.5766    4.6451 H   0  0  0  0  0  0  0  0  0  0  0  0
    8.9050   -4.6291    3.4174 H   0  0  0  0  0  0  0  0  0  0  0  0
    9.7740   -3.0757    3.4160 H   0  0  0  0  0  0  0  0  0  0  0  0
    9.7817   -3.0778    5.8957 H   0  0  0  0  0  0  0  0  0  0  0  0
    8.9127   -4.6313    5.8970 H   0  0  0  0  0  0  0  0  0  0  0  0
   10.7925   -5.6838    4.6693 H   0  0  0  0  0  0  0  0  0  0  0  0
   11.6615   -4.1304    4.6680 H   0  0  0  0  0  0  0  0  0  0  0  0
   11.6692   -4.1325    7.1476 H   0  0  0  0  0  0  0  0  0  0  0  0
   10.8002   -5.6860    7.1490 H   0  0  0  0  0  0  0  0  0  0  0  0
   12.6800   -6.7385    5.9213 H   0  0  0  0  0  0  0  0  0  0  0  0
   13.5489   -5.1851    5.9199 H   0  0  0  0  0  0  0  0  0  0  0  0
   13.5226   -5.2440    8.3037 H   0  0  0  0  0  0  0  0  0  0  0  0
   14.4922   -7.7512    7.1233 H   0  0  0  0  0  0  0  0  0  0  0  0
   15.3612   -6.1977    7.1220 H   0  0  0  0  0  0  0  0  0  0  0  0
   15.8096   -9.6940    8.4568 H   0  0  0  0  0  0  0  0  0  0  0  0
   18.0386  -10.7144    8.2379 H   0  0  0  0  0  0  0  0  0  0  0  0
   17.6108   -5.9332    9.3536 H   0  0  0  0  0  0  0  0  0  0  0  0
   20.7773   -7.1219   10.0278 H   0  0  0  0  0  0  0  0  0  0  0  0
   20.7943   -6.7125    8.2956 H   0  0  0  0  0  0  0  0  0  0  0  0
   20.5529   -4.7714    9.6665 H   0  0  0  0  0  0  0  0  0  0  0  0
   20.6797   -9.4166    7.6628 H   0  0  0  0  0  0  0  0  0  0  0  0
   14.2206   -8.8851    9.2724 H   0  0  0  0  0  0  0  0  0  0  0  0
   12.7182   -6.6820    8.3050 H   0  0  0  0  0  0  0  0  0  0  0  0
  1  6  2  0  0  0  0
  1  2  1  0  0  0  0
  1 32  1  0  0  0  0
  2  3  2  0  0  0  0
  2 33  1  0  0  0  0
  3  4  1  0  0  0  0
  3 34  1  0  0  0  0
  4  5  2  0  0  0  0
  4  7  1  0  0  0  0
  5  6  1  0  0  0  0
  5 35  1  0  0  0  0
  6 36  1  0  0  0  0
  7  8  1  0  0  0  0
  7 37  1  0  0  0  0
  7 38  1  0  0  0  0
  8  9  1  0  0  0  0
  8 39  1  0  0  0  0
  8 40  1  0  0  0  0
  9 10  1  0  0  0  0
  9 41  1  0  0  0  0
  9 42  1  0  0  0  0
 10 11  1  0  0  0  0
 10 43  1  0  0  0  0
 10 44  1  0  0  0  0
 11 12  1  0  0  0  0
 12 13  1  0  0  0  0
 12 45  1  0  0  0  0
 12 46  1  0  0  0  0
 13 14  1  0  0  0  0
 13 47  1  0  0  0  0
 13 48  1  0  0  0  0
 14 15  1  0  0  0  0
 14 49  1  0  0  0  0
 14 50  1  0  0  0  0
 15 16  1  0  0  0  0
 15 51  1  0  0  0  0
 15 52  1  0  0  0  0
 16 17  1  0  0  0  0
 16 53  1  0  0  0  0
 16 54  1  0  0  0  0
 17 18  1  0  0  0  0
 17 55  1  0  0  0  0
 17 56  1  0  0  0  0
 18 19  1  0  0  0  0
 18 57  1  0  0  0  0
 18 68  1  0  0  0  0
 19 20  1  0  0  0  0
 19 58  1  0  0  0  0
 19 59  1  0  0  0  0
 20 21  1  1  0  0  0
 20 22  1  0  0  0  0
 20 31  1  0  0  0  0
 22 27  2  0  0  0  0
 22 23  1  0  0  0  0
 23 24  2  0  0  0  0
 23 60  1  0  0  0  0
 24 25  1  0  0  0  0
 24 61  1  0  0  0  0
 25 26  2  0  0  0  0
 25 30  1  0  0  0  0
 26 27  1  0  0  0  0
 26 28  1  0  0  0  0
 27 62  1  0  0  0  0
 28 29  1  0  0  0  0
 28 63  1  0  0  0  0
 28 64  1  0  0  0  0
 29 65  1  0  0  0  0
 30 66  1  0  0  0  0
 31 67  1  0  0  0  0
M  CHG  1  18   1
M  END
$$$$
