ZINC19632706
 OpenBabel08292219463D

 52 53  0  0  1  0  0  0  0  0999 V2000
   -3.6191    2.1192   -2.3601 C   0  0  0  0  0  0  0  0  0  0  0  0
   -2.8297    1.0231   -1.6918 C   0  0  0  0  0  0  0  0  0  0  0  0
   -3.2989   -0.2365   -1.7063 C   0  0  0  0  0  0  0  0  0  0  0  0
   -2.5419   -1.3619   -1.0602 C   0  0  2  0  0  0  0  0  0  0  0  0
   -3.2374   -1.9879   -0.5012 H   0  0  0  0  0  0  0  0  0  0  0  0
   -1.4937   -0.8298   -0.1245 C   0  0  0  0  0  0  0  0  0  0  0  0
   -1.0970    0.4536   -0.1735 C   0  0  0  0  0  0  0  0  0  0  0  0
   -1.6415    1.3213   -1.0825 N   0  0  0  0  0  0  0  0  0  0  0  0
   -0.0363    0.9416    0.7794 C   0  0  0  0  0  0  0  0  0  0  0  0
   -0.9123   -1.6978    0.8285 C   0  0  0  0  0  0  0  0  0  0  0  0
   -1.5133   -1.9686    1.8513 O   0  0  0  0  0  0  0  0  0  0  0  0
    0.3091   -2.2258    0.6037 O   0  0  0  0  0  0  0  0  0  0  0  0
    0.8355   -3.0944    1.6089 C   0  0  0  0  0  0  0  0  0  0  0  0
    2.2179   -3.5910    1.1809 C   0  0  0  0  0  0  0  0  0  0  0  0
    2.8342   -4.4196    2.3098 C   0  0  0  0  0  0  0  0  0  0  0  0
    2.0829   -4.4577   -0.0727 C   0  0  0  0  0  0  0  0  0  0  0  0
   -1.8772   -2.1908   -2.1289 C   0  0  0  0  0  0  0  0  0  0  0  0
   -1.0560   -1.5857   -3.0622 C   0  0  0  0  0  0  0  0  0  0  0  0
   -0.4464   -2.3459   -4.0424 C   0  0  0  0  0  0  0  0  0  0  0  0
   -0.6574   -3.7115   -4.0892 C   0  0  0  0  0  0  0  0  0  0  0  0
   -1.4775   -4.3165   -3.1556 C   0  0  0  0  0  0  0  0  0  0  0  0
   -2.0840   -3.5567   -2.1726 C   0  0  0  0  0  0  0  0  0  0  0  0
   -2.9583   -4.2053   -1.1696 N   0  0  0  0  0  4  0  0  0  0  0  0
   -3.8294   -4.9635   -1.5273 O   0  0  0  0  0  0  0  0  0  0  0  0
   -2.8012   -3.9769    0.0071 O   0  5  0  0  0  0  0  0  0  0  0  0
   -4.5320   -0.5080   -2.3432 C   0  0  0  0  0  0  0  0  0  0  0  0
   -5.1561    0.3938   -2.8704 O   0  0  0  0  0  0  0  0  0  0  0  0
   -5.0165   -1.7674   -2.3664 O   0  0  0  0  0  0  0  0  0  0  0  0
   -6.2674   -1.9691   -3.0271 C   0  0  0  0  0  0  0  0  0  0  0  0
   -3.0887    3.0655   -2.2537 H   0  0  0  0  0  0  0  0  0  0  0  0
   -3.7393    1.8870   -3.4183 H   0  0  0  0  0  0  0  0  0  0  0  0
   -4.6001    2.1978   -1.8916 H   0  0  0  0  0  0  0  0  0  0  0  0
   -1.1862    2.1517   -1.2926 H   0  0  0  0  0  0  0  0  0  0  0  0
    0.9480    0.7872    0.3373 H   0  0  0  0  0  0  0  0  0  0  0  0
   -0.1843    2.0036    0.9749 H   0  0  0  0  0  0  0  0  0  0  0  0
   -0.1054    0.3868    1.7151 H   0  0  0  0  0  0  0  0  0  0  0  0
    0.9199   -2.5515    2.5503 H   0  0  0  0  0  0  0  0  0  0  0  0
    0.1677   -3.9460    1.7391 H   0  0  0  0  0  0  0  0  0  0  0  0
    2.8599   -2.7371    0.9648 H   0  0  0  0  0  0  0  0  0  0  0  0
    2.1922   -5.2736    2.5259 H   0  0  0  0  0  0  0  0  0  0  0  0
    3.8190   -4.7735    2.0049 H   0  0  0  0  0  0  0  0  0  0  0  0
    2.9304   -3.8022    3.2029 H   0  0  0  0  0  0  0  0  0  0  0  0
    1.6438   -3.8674   -0.8770 H   0  0  0  0  0  0  0  0  0  0  0  0
    3.0677   -4.8115   -0.3776 H   0  0  0  0  0  0  0  0  0  0  0  0
    1.4409   -5.3117    0.1434 H   0  0  0  0  0  0  0  0  0  0  0  0
   -0.8913   -0.5190   -3.0256 H   0  0  0  0  0  0  0  0  0  0  0  0
    0.1945   -1.8732   -4.7719 H   0  0  0  0  0  0  0  0  0  0  0  0
   -0.1816   -4.3054   -4.8555 H   0  0  0  0  0  0  0  0  0  0  0  0
   -1.6426   -5.3832   -3.1925 H   0  0  0  0  0  0  0  0  0  0  0  0
   -6.5412   -3.0228   -2.9728 H   0  0  0  0  0  0  0  0  0  0  0  0
   -7.0361   -1.3685   -2.5409 H   0  0  0  0  0  0  0  0  0  0  0  0
   -6.1791   -1.6700   -4.0715 H   0  0  0  0  0  0  0  0  0  0  0  0
  1  2  1  0  0  0  0
  1 30  1  0  0  0  0
  1 31  1  0  0  0  0
  1 32  1  0  0  0  0
  2  8  1  0  0  0  0
  2  3  2  0  0  0  0
  3  4  1  0  0  0  0
  3 26  1  0  0  0  0
  4  5  1  1  0  0  0
  4  6  1  0  0  0  0
  4 17  1  0  0  0  0
  6  7  2  0  0  0  0
  6 10  1  0  0  0  0
  7  8  1  0  0  0  0
  7  9  1  0  0  0  0
  8 33  1  0  0  0  0
  9 34  1  0  0  0  0
  9 35  1  0  0  0  0
  9 36  1  0  0  0  0
 10 11  2  0  0  0  0
 10 12  1  0  0  0  0
 12 13  1  0  0  0  0
 13 14  1  0  0  0  0
 13 37  1  0  0  0  0
 13 38  1  0  0  0  0
 14 15  1  0  0  0  0
 14 16  1  0  0  0  0
 14 39  1  0  0  0  0
 15 40  1  0  0  0  0
 15 41  1  0  0  0  0
 15 42  1  0  0  0  0
 16 43  1  0  0  0  0
 16 44  1  0  0  0  0
 16 45  1  0  0  0  0
 17 22  2  0  0  0  0
 17 18  1  0  0  0  0
 18 19  2  0  0  0  0
 18 46  1  0  0  0  0
 19 20  1  0  0  0  0
 19 47  1  0  0  0  0
 20 21  2  0  0  0  0
 20 48  1  0  0  0  0
 21 22  1  0  0  0  0
 21 49  1  0  0  0  0
 22 23  1  0  0  0  0
 23 24  2  0  0  0  0
 23 25  1  0  0  0  0
 26 27  2  0  0  0  0
 26 28  1  0  0  0  0
 28 29  1  0  0  0  0
 29 50  1  0  0  0  0
 29 51  1  0  0  0  0
 29 52  1  0  0  0  0
M  CHG  1  25  -1
M  END
$$$$
