ZINC03803377
 OpenBabel08292219463D

 56 58  0  0  0  0  0  0  0  0999 V2000
   -2.9540   -6.7500    0.5236 C   0  0  0  0  0  0  0  0  0  0  0  0
   -2.4270   -5.4584    1.1520 C   0  0  0  0  0  0  0  0  0  0  0  0
   -1.0908   -5.0855    0.5066 C   0  0  0  0  0  0  0  0  0  0  0  0
   -1.2908   -4.8770   -0.9959 C   0  0  0  0  0  0  0  0  0  0  0  0
   -2.2999   -3.7499   -1.2246 C   0  0  0  0  0  0  0  0  0  0  0  0
   -0.5638   -3.7938    1.1350 C   0  0  0  0  0  0  0  0  0  0  0  0
   -0.2632   -4.0306    2.5926 C   0  0  0  0  0  0  0  0  0  0  0  0
   -0.3894   -5.1404    3.0653 O   0  0  0  0  0  0  0  0  0  0  0  0
    0.1459   -3.0091    3.3709 N   0  0  0  0  0  0  0  0  0  0  0  0
    0.3442   -3.2097    4.7416 C   0  0  0  0  0  0  0  0  0  0  0  0
    0.0310   -2.1996    5.6442 C   0  0  0  0  0  0  0  0  0  0  0  0
    0.2241   -2.3917    6.9996 C   0  0  0  0  0  0  0  0  0  0  0  0
    0.7297   -3.5873    7.4669 C   0  0  0  0  0  0  0  0  0  0  0  0
    1.0481   -4.6099    6.5682 C   0  0  0  0  0  0  0  0  0  0  0  0
    0.8471   -4.4167    5.1992 C   0  0  0  0  0  0  0  0  0  0  0  0
    1.5880   -5.8876    7.0632 C   0  0  0  0  0  0  0  0  0  0  0  0
    1.7759   -6.0727    8.3834 C   0  0  0  0  0  0  0  0  0  0  0  0
    2.3135   -7.3447    8.8762 C   0  0  0  0  0  0  0  0  0  0  0  0
    2.5658   -7.7271   10.1241 N   0  0  0  0  0  0  0  0  0  0  0  0
    3.0518   -8.9162   10.3850 C   0  0  0  0  0  0  0  0  0  0  0  0
    3.3067   -9.7834    9.3674 C   0  0  0  0  0  0  0  0  0  0  0  0
    2.7988   -8.8022    7.9611 S   0  0  0  0  0  0  0  0  0  0  0  0
    3.3286   -9.3222   11.8096 C   0  0  0  0  0  0  0  0  0  0  0  0
    4.1685  -10.6045   11.9326 C   0  0  0  0  0  0  0  0  0  0  0  0
    3.2542  -10.9970   13.1051 C   0  0  0  0  0  0  0  0  0  0  0  0
    2.1779  -10.1074   12.4609 C   0  0  0  0  0  0  0  0  0  0  0  0
   -0.0969   -6.1956    0.7318 C   0  0  0  0  0  0  0  0  0  0  0  0
   -0.3800   -7.1278    1.4649 O   0  0  0  0  0  0  0  0  0  0  0  0
    0.9902   -6.1616    0.1809 O   0  0  0  0  0  1  0  0  0  0  0  0
   -2.2351   -7.5530    0.6865 H   0  0  0  0  0  0  0  0  0  0  0  0
   -3.9059   -7.0157    0.9834 H   0  0  0  0  0  0  0  0  0  0  0  0
   -3.0965   -6.6015   -0.5468 H   0  0  0  0  0  0  0  0  0  0  0  0
   -3.1458   -4.6554    0.9891 H   0  0  0  0  0  0  0  0  0  0  0  0
   -2.2845   -5.6069    2.2224 H   0  0  0  0  0  0  0  0  0  0  0  0
   -0.3389   -4.6113   -1.4557 H   0  0  0  0  0  0  0  0  0  0  0  0
   -1.6663   -5.7972   -1.4436 H   0  0  0  0  0  0  0  0  0  0  0  0
   -2.4423   -3.6013   -2.2949 H   0  0  0  0  0  0  0  0  0  0  0  0
   -3.2517   -4.0155   -0.7647 H   0  0  0  0  0  0  0  0  0  0  0  0
   -1.9244   -2.8297   -0.7769 H   0  0  0  0  0  0  0  0  0  0  0  0
    0.3469   -3.4853    0.6217 H   0  0  0  0  0  0  0  0  0  0  0  0
   -1.3164   -3.0110    1.0417 H   0  0  0  0  0  0  0  0  0  0  0  0
    0.3028   -2.1350    2.9809 H   0  0  0  0  0  0  0  0  0  0  0  0
   -0.3645   -1.2610    5.2850 H   0  0  0  0  0  0  0  0  0  0  0  0
   -0.0213   -1.6028    7.6951 H   0  0  0  0  0  0  0  0  0  0  0  0
    0.8798   -3.7331    8.5264 H   0  0  0  0  0  0  0  0  0  0  0  0
    1.0871   -5.2039    4.4998 H   0  0  0  0  0  0  0  0  0  0  0  0
    1.8333   -6.6761    6.3671 H   0  0  0  0  0  0  0  0  0  0  0  0
    1.5307   -5.2842    9.0795 H   0  0  0  0  0  0  0  0  0  0  0  0
    3.7021  -10.7879    9.4005 H   0  0  0  0  0  0  0  0  0  0  0  0
    3.6957   -8.4979   12.4210 H   0  0  0  0  0  0  0  0  0  0  0  0
    4.0827  -11.2670   11.0712 H   0  0  0  0  0  0  0  0  0  0  0  0
    5.2022  -10.4228   12.2268 H   0  0  0  0  0  0  0  0  0  0  0  0
    2.9940  -12.0554   13.1205 H   0  0  0  0  0  0  0  0  0  0  0  0
    3.6019  -10.6315   14.0713 H   0  0  0  0  0  0  0  0  0  0  0  0
    1.6045   -9.5244   13.1817 H   0  0  0  0  0  0  0  0  0  0  0  0
    1.5479  -10.6340   11.7440 H   0  0  0  0  0  0  0  0  0  0  0  0
  1  2  1  0  0  0  0
  1 30  1  0  0  0  0
  1 31  1  0  0  0  0
  1 32  1  0  0  0  0
  2  3  1  0  0  0  0
  2 33  1  0  0  0  0
  2 34  1  0  0  0  0
  3  4  1  0  0  0  0
  3  6  1  0  0  0  0
  3 27  1  0  0  0  0
  4  5  1  0  0  0  0
  4 35  1  0  0  0  0
  4 36  1  0  0  0  0
  5 37  1  0  0  0  0
  5 38  1  0  0  0  0
  5 39  1  0  0  0  0
  6  7  1  0  0  0  0
  6 40  1  0  0  0  0
  6 41  1  0  0  0  0
  7  8  2  0  0  0  0
  7  9  1  0  0  0  0
  9 10  1  0  0  0  0
  9 42  1  0  0  0  0
 10 15  2  0  0  0  0
 10 11  1  0  0  0  0
 11 12  2  0  0  0  0
 11 43  1  0  0  0  0
 12 13  1  0  0  0  0
 12 44  1  0  0  0  0
 13 14  2  0  0  0  0
 13 45  1  0  0  0  0
 14 15  1  0  0  0  0
 14 16  1  0  0  0  0
 15 46  1  0  0  0  0
 16 17  2  0  0  0  0
 16 47  1  0  0  0  0
 17 18  1  0  0  0  0
 17 48  1  0  0  0  0
 18 22  1  0  0  0  0
 18 19  2  0  0  0  0
 19 20  1  0  0  0  0
 20 21  2  0  0  0  0
 20 23  1  0  0  0  0
 21 22  1  0  0  0  0
 21 49  1  0  0  0  0
 23 26  1  0  0  0  0
 23 24  1  0  0  0  0
 23 50  1  0  0  0  0
 24 25  1  0  0  0  0
 24 51  1  0  0  0  0
 24 52  1  0  0  0  0
 25 26  1  0  0  0  0
 25 53  1  0  0  0  0
 25 54  1  0  0  0  0
 26 55  1  0  0  0  0
 26 56  1  0  0  0  0
 27 28  2  0  0  0  0
 27 29  1  0  0  0  0
M  END
$$$$
