ZINC03873362
 OpenBabel08292219463D

 56 60  0  0  1  0  0  0  0  0999 V2000
   -0.0187    1.5258    0.0104 C   0  0  0  0  0  0  0  0  0  0  0  0
    0.0021   -0.0041    0.0020 C   0  0  1  0  0  0  0  0  0  0  0  0
    0.6068   -0.5581   -1.2909 C   0  0  0  0  0  0  0  0  0  0  0  0
    2.1118   -0.3113   -1.3270 C   0  0  0  0  0  0  0  0  0  0  0  0
    2.7651   -1.0681   -0.1642 C   0  0  2  0  0  0  0  0  0  0  0  0
    2.5320   -2.1302   -0.2401 H   0  0  0  0  0  0  0  0  0  0  0  0
    2.2164   -0.5137    1.1479 C   0  0  1  0  0  0  0  0  0  0  0  0
    2.4920    0.5377    1.2292 H   0  0  0  0  0  0  0  0  0  0  0  0
    0.7349   -0.5749    1.2276 C   0  0  2  0  0  0  0  0  0  0  0  0
    0.4000   -0.0476    2.1208 H   0  0  0  0  0  0  0  0  0  0  0  0
    0.2312   -2.0283    1.3036 C   0  0  0  0  0  0  0  0  0  0  0  0
   -1.2671   -1.9097    0.9405 C   0  0  0  0  0  0  0  0  0  0  0  0
   -1.4223   -0.6065    0.1346 C   0  0  2  0  0  0  0  0  0  0  0  0
   -1.9953   -0.9106   -1.2510 C   0  0  0  0  0  0  0  0  0  0  0  0
   -2.2768    0.3026    0.8312 O   0  0  0  0  0  0  0  0  0  0  0  0
    2.8419   -1.2812    2.3161 C   0  0  0  0  0  0  0  0  0  0  0  0
    4.3609   -1.1695    2.2510 C   0  0  0  0  0  0  0  0  0  0  0  0
    4.7881   -0.2684    1.0878 C   0  0  2  0  0  0  0  0  0  0  0  0
    4.3927    0.7364    1.2370 H   0  0  0  0  0  0  0  0  0  0  0  0
    4.2841   -0.8650   -0.2451 C   0  0  2  0  0  0  0  0  0  0  0  0
    4.5482    0.1211   -1.3961 C   0  0  0  0  0  0  0  0  0  0  0  0
    5.9884    0.5570   -1.3475 C   0  0  0  0  0  0  0  0  0  0  0  0
    6.7152    1.1560   -2.3091 C   0  0  0  0  0  0  0  0  0  0  0  0
    7.9573    1.3598   -1.8165 N   0  0  0  0  0  0  0  0  0  0  0  0
    8.6965    1.7751   -2.2876 H   0  0  0  0  0  0  0  0  0  0  0  0
    7.9892    0.8656   -0.5037 N   0  0  0  0  0  0  0  0  0  0  0  0
    6.8121    0.3854   -0.2231 C   0  0  0  0  0  0  0  0  0  0  0  0
    6.3261   -0.2256    1.0861 C   0  0  0  0  0  0  0  0  0  0  0  0
    4.9695   -2.2044   -0.5230 C   0  0  0  0  0  0  0  0  0  0  0  0
    1.0039    1.9031    0.0027 H   0  0  0  0  0  0  0  0  0  0  0  0
   -0.5459    1.8868   -0.8726 H   0  0  0  0  0  0  0  0  0  0  0  0
   -0.5289    1.8773    0.9072 H   0  0  0  0  0  0  0  0  0  0  0  0
    0.4167   -1.6300   -1.3462 H   0  0  0  0  0  0  0  0  0  0  0  0
    0.1412   -0.0664   -2.1451 H   0  0  0  0  0  0  0  0  0  0  0  0
    2.5185   -0.6718   -2.2718 H   0  0  0  0  0  0  0  0  0  0  0  0
    2.3095    0.7558   -1.2253 H   0  0  0  0  0  0  0  0  0  0  0  0
    0.7532   -2.6539    0.5796 H   0  0  0  0  0  0  0  0  0  0  0  0
    0.3516   -2.4241    2.3120 H   0  0  0  0  0  0  0  0  0  0  0  0
   -1.5730   -2.7623    0.3343 H   0  0  0  0  0  0  0  0  0  0  0  0
   -1.8686   -1.8613    1.8483 H   0  0  0  0  0  0  0  0  0  0  0  0
   -1.3506   -1.6257   -1.7620 H   0  0  0  0  0  0  0  0  0  0  0  0
   -2.9948   -1.3328   -1.1462 H   0  0  0  0  0  0  0  0  0  0  0  0
   -2.0489    0.0101   -1.8321 H   0  0  0  0  0  0  0  0  0  0  0  0
   -3.1820   -0.0178    0.9458 H   0  0  0  0  0  0  0  0  0  0  0  0
    2.4875   -0.8609    3.2573 H   0  0  0  0  0  0  0  0  0  0  0  0
    2.5527   -2.3305    2.2569 H   0  0  0  0  0  0  0  0  0  0  0  0
    4.7303   -0.7483    3.1860 H   0  0  0  0  0  0  0  0  0  0  0  0
    4.7883   -2.1625    2.1116 H   0  0  0  0  0  0  0  0  0  0  0  0
    4.3472   -0.3684   -2.3490 H   0  0  0  0  0  0  0  0  0  0  0  0
    3.9001    0.9907   -1.2873 H   0  0  0  0  0  0  0  0  0  0  0  0
    6.3685    1.4252   -3.2959 H   0  0  0  0  0  0  0  0  0  0  0  0
    6.6760    0.3499    1.9431 H   0  0  0  0  0  0  0  0  0  0  0  0
    6.7194   -1.2407    1.1414 H   0  0  0  0  0  0  0  0  0  0  0  0
    4.6081   -2.6081   -1.4688 H   0  0  0  0  0  0  0  0  0  0  0  0
    6.0478   -2.0558   -0.5798 H   0  0  0  0  0  0  0  0  0  0  0  0
    4.7408   -2.9033    0.2815 H   0  0  0  0  0  0  0  0  0  0  0  0
  1 30  1  0  0  0  0
  1 31  1  0  0  0  0
  1 32  1  0  0  0  0
  2  1  1  1  0  0  0
  2  9  1  0  0  0  0
  2 13  1  0  0  0  0
  2  3  1  0  0  0  0
  3  4  1  0  0  0  0
  3 33  1  0  0  0  0
  3 34  1  0  0  0  0
  4  5  1  0  0  0  0
  4 35  1  0  0  0  0
  4 36  1  0  0  0  0
  5  6  1  6  0  0  0
  5 20  1  0  0  0  0
  5  7  1  0  0  0  0
  7  8  1  1  0  0  0
  7  9  1  0  0  0  0
  7 16  1  0  0  0  0
  9 10  1  1  0  0  0
  9 11  1  0  0  0  0
 11 12  1  0  0  0  0
 11 37  1  0  0  0  0
 11 38  1  0  0  0  0
 12 13  1  0  0  0  0
 12 39  1  0  0  0  0
 12 40  1  0  0  0  0
 13 14  1  0  0  0  0
 13 15  1  1  0  0  0
 14 41  1  0  0  0  0
 14 42  1  0  0  0  0
 14 43  1  0  0  0  0
 15 44  1  0  0  0  0
 16 17  1  0  0  0  0
 16 45  1  0  0  0  0
 16 46  1  0  0  0  0
 17 18  1  0  0  0  0
 17 47  1  0  0  0  0
 17 48  1  0  0  0  0
 18 19  1  1  0  0  0
 18 28  1  0  0  0  0
 18 20  1  0  0  0  0
 20 21  1  0  0  0  0
 20 29  1  6  0  0  0
 21 22  1  0  0  0  0
 21 49  1  0  0  0  0
 21 50  1  0  0  0  0
 22 27  1  0  0  0  0
 22 23  2  0  0  0  0
 23 24  1  0  0  0  0
 23 51  1  0  0  0  0
 24 25  1  0  0  0  0
 24 26  1  0  0  0  0
 26 27  2  0  0  0  0
 27 28  1  0  0  0  0
 28 52  1  0  0  0  0
 28 53  1  0  0  0  0
 29 54  1  0  0  0  0
 29 55  1  0  0  0  0
 29 56  1  0  0  0  0
M  END
$$$$
