ZINC00002283
 OpenBabel08292219463D

 31 31  0  0  1  0  0  0  0  0999 V2000
    2.0195    0.7001    0.4023 C   0  0  0  0  0  0  0  0  0  0  0  0
    0.9865   -0.3761    0.1885 C   0  0  0  0  0  0  0  0  0  0  0  0
    0.9739   -1.0982   -0.9887 C   0  0  0  0  0  0  0  0  0  0  0  0
    0.0260   -2.0856   -1.1859 C   0  0  0  0  0  0  0  0  0  0  0  0
   -0.9117   -2.3536   -0.2055 C   0  0  0  0  0  0  0  0  0  0  0  0
   -0.9042   -1.6353    0.9741 C   0  0  0  0  0  0  0  0  0  0  0  0
    0.0497   -0.6467    1.1774 C   0  0  0  0  0  0  0  0  0  0  0  0
    0.0637    0.0788    2.3737 N   0  0  0  0  0  0  0  0  0  0  0  0
    0.5233   -0.4939    3.5039 C   0  0  0  0  0  0  0  0  0  0  0  0
    0.9999   -1.6087    3.4683 O   0  0  0  0  0  0  0  0  0  0  0  0
    0.4450    0.2507    4.8117 C   0  0  2  0  0  0  0  0  0  0  0  0
   -0.5965    0.4801    5.0374 H   0  0  0  0  0  0  0  0  0  0  0  0
    1.2425    1.5522    4.7061 C   0  0  0  0  0  0  0  0  0  0  0  0
    1.0064   -0.5820    5.8837 N   0  3  0  0  0  0  0  0  0  0  0  0
   -1.9268   -1.9277    2.0418 C   0  0  0  0  0  0  0  0  0  0  0  0
    2.9050    0.2665    0.8671 H   0  0  0  0  0  0  0  0  0  0  0  0
    2.2911    1.1389   -0.5578 H   0  0  0  0  0  0  0  0  0  0  0  0
    1.6096    1.4732    1.0522 H   0  0  0  0  0  0  0  0  0  0  0  0
    1.7049   -0.8913   -1.7563 H   0  0  0  0  0  0  0  0  0  0  0  0
    0.0178   -2.6484   -2.1076 H   0  0  0  0  0  0  0  0  0  0  0  0
   -1.6509   -3.1251   -0.3626 H   0  0  0  0  0  0  0  0  0  0  0  0
   -0.2574    0.9940    2.3897 H   0  0  0  0  0  0  0  0  0  0  0  0
    1.1858    2.0908    5.6520 H   0  0  0  0  0  0  0  0  0  0  0  0
    2.2839    1.3228    4.4804 H   0  0  0  0  0  0  0  0  0  0  0  0
    0.8259    2.1701    3.9107 H   0  0  0  0  0  0  0  0  0  0  0  0
    1.9705   -0.7943    5.6748 H   0  0  0  0  0  0  0  0  0  0  0  0
    0.9540   -0.0835    6.7594 H   0  0  0  0  0  0  0  0  0  0  0  0
   -1.5822   -2.7588    2.6571 H   0  0  0  0  0  0  0  0  0  0  0  0
   -2.0623   -1.0449    2.6665 H   0  0  0  0  0  0  0  0  0  0  0  0
   -2.8754   -2.1909    1.5739 H   0  0  0  0  0  0  0  0  0  0  0  0
    0.4805   -1.4403    5.9533 H   0  0  0  0  0  0  0  0  0  0  0  0
  1  2  1  0  0  0  0
  1 16  1  0  0  0  0
  1 17  1  0  0  0  0
  1 18  1  0  0  0  0
  2  7  2  0  0  0  0
  2  3  1  0  0  0  0
  3  4  2  0  0  0  0
  3 19  1  0  0  0  0
  4  5  1  0  0  0  0
  4 20  1  0  0  0  0
  5  6  2  0  0  0  0
  5 21  1  0  0  0  0
  6  7  1  0  0  0  0
  6 15  1  0  0  0  0
  7  8  1  0  0  0  0
  8  9  1  0  0  0  0
  8 22  1  0  0  0  0
  9 10  2  0  0  0  0
  9 11  1  0  0  0  0
 11 12  1  1  0  0  0
 11 13  1  0  0  0  0
 11 14  1  0  0  0  0
 13 23  1  0  0  0  0
 13 24  1  0  0  0  0
 13 25  1  0  0  0  0
 14 26  1  0  0  0  0
 14 27  1  0  0  0  0
 14 31  1  0  0  0  0
 15 28  1  0  0  0  0
 15 29  1  0  0  0  0
 15 30  1  0  0  0  0
M  CHG  1  14   1
M  END
$$$$
