ZINC03860825
 OpenBabel08292219463D

 53 57  0  0  1  0  0  0  0  0999 V2000
   -0.0173    1.4248    0.0099 C   0  0  0  0  0  0  0  0  0  0  0  0
    0.0021   -0.0041    0.0020 O   0  0  0  0  0  0  0  0  0  0  0  0
    0.5984   -0.5997   -1.0427 C   0  0  0  0  0  0  0  0  0  0  0  0
    1.0877    0.0699   -1.9214 O   0  0  0  0  0  0  0  0  0  0  0  0
    0.6575   -2.1036   -1.1196 C   0  0  1  0  0  0  0  0  0  0  0  0
    1.1947   -2.4917   -0.2542 H   0  0  0  0  0  0  0  0  0  0  0  0
   -0.7643   -2.6714   -1.1364 C   0  0  2  0  0  0  0  0  0  0  0  0
   -1.2823   -2.3789   -0.2230 H   0  0  0  0  0  0  0  0  0  0  0  0
   -0.7098   -4.1973   -1.2238 C   0  0  0  0  0  0  0  0  0  0  0  0
    0.0283   -4.6160   -2.4980 C   0  0  0  0  0  0  0  0  0  0  0  0
    1.4478   -4.0496   -2.4652 C   0  0  2  0  0  0  0  0  0  0  0  0
    1.9678   -4.4265   -1.5844 H   0  0  0  0  0  0  0  0  0  0  0  0
    1.3811   -2.5214   -2.3995 C   0  0  2  0  0  0  0  0  0  0  0  0
    0.8340   -2.1460   -3.2643 H   0  0  0  0  0  0  0  0  0  0  0  0
    2.8021   -1.9525   -2.4146 C   0  0  0  0  0  0  0  0  0  0  0  0
    3.5142   -2.4494   -3.6743 C   0  0  1  0  0  0  0  0  0  0  0  0
    2.9655   -2.1183   -4.5560 H   0  0  0  0  0  0  0  0  0  0  0  0
    4.9207   -1.9091   -3.7260 C   0  0  0  0  0  0  0  0  0  0  0  0
    5.9775   -2.6629   -4.1115 C   0  0  0  0  0  0  0  0  0  0  0  0
    7.1508   -1.8219   -4.0411 C   0  0  0  0  0  0  0  0  0  0  0  0
    8.5026   -2.0504   -4.3178 C   0  0  0  0  0  0  0  0  0  0  0  0
    9.3608   -0.9941   -4.1376 C   0  0  0  0  0  0  0  0  0  0  0  0
    8.9212    0.2451   -3.7015 C   0  0  0  0  0  0  0  0  0  0  0  0
    7.5903    0.4991   -3.4190 C   0  0  0  0  0  0  0  0  0  0  0  0
    6.6952   -0.5542   -3.5938 C   0  0  0  0  0  0  0  0  0  0  0  0
    5.3444   -0.6471   -3.4127 N   0  0  0  0  0  0  0  0  0  0  0  0
    4.7717    0.0739   -3.1078 H   0  0  0  0  0  0  0  0  0  0  0  0
    5.8580   -4.1083   -4.5249 C   0  0  0  0  0  0  0  0  0  0  0  0
    4.3745   -4.4075   -4.7852 C   0  0  0  0  0  0  0  0  0  0  0  0
    3.5745   -3.9171   -3.6582 N   0  3  2  0  0  0  0  0  0  0  0  0
    2.2119   -4.4657   -3.7230 C   0  0  0  0  0  0  0  0  0  0  0  0
   -1.4686   -2.1563   -2.2680 O   0  0  0  0  0  0  0  0  0  0  0  0
    1.0053    1.8021    0.0021 H   0  0  0  0  0  0  0  0  0  0  0  0
   -0.5445    1.7859   -0.8732 H   0  0  0  0  0  0  0  0  0  0  0  0
   -0.5275    1.7763    0.9067 H   0  0  0  0  0  0  0  0  0  0  0  0
   -0.1842   -4.5917   -0.3542 H   0  0  0  0  0  0  0  0  0  0  0  0
   -1.7242   -4.5957   -1.2448 H   0  0  0  0  0  0  0  0  0  0  0  0
    0.0713   -5.7038   -2.5532 H   0  0  0  0  0  0  0  0  0  0  0  0
   -0.4991   -4.2269   -3.3690 H   0  0  0  0  0  0  0  0  0  0  0  0
    2.7600   -0.8634   -2.4237 H   0  0  0  0  0  0  0  0  0  0  0  0
    3.3419   -2.2929   -1.5309 H   0  0  0  0  0  0  0  0  0  0  0  0
    8.8550   -3.0132   -4.6571 H   0  0  0  0  0  0  0  0  0  0  0  0
   10.4120   -1.1338   -4.3420 H   0  0  0  0  0  0  0  0  0  0  0  0
    9.6417    1.0401   -3.5774 H   0  0  0  0  0  0  0  0  0  0  0  0
    7.2605    1.4697   -3.0791 H   0  0  0  0  0  0  0  0  0  0  0  0
    6.4334   -4.2800   -5.4346 H   0  0  0  0  0  0  0  0  0  0  0  0
    6.2289   -4.7515   -3.7269 H   0  0  0  0  0  0  0  0  0  0  0  0
    4.0584   -3.9085   -5.7013 H   0  0  0  0  0  0  0  0  0  0  0  0
    4.2337   -5.4833   -4.8902 H   0  0  0  0  0  0  0  0  0  0  0  0
    2.2638   -5.5532   -3.7749 H   0  0  0  0  0  0  0  0  0  0  0  0
    1.6991   -4.0815   -4.6048 H   0  0  0  0  0  0  0  0  0  0  0  0
   -2.3787   -2.4743   -2.3430 H   0  0  0  0  0  0  0  0  0  0  0  0
    4.0031   -4.2176   -2.7956 H   0  0  0  0  0  0  0  0  0  0  0  0
  1  2  1  0  0  0  0
  1 33  1  0  0  0  0
  1 34  1  0  0  0  0
  1 35  1  0  0  0  0
  2  3  1  0  0  0  0
  3  4  2  0  0  0  0
  3  5  1  0  0  0  0
  5  6  1  1  0  0  0
  5 13  1  0  0  0  0
  5  7  1  0  0  0  0
  7  8  1  1  0  0  0
  7  9  1  0  0  0  0
  7 32  1  0  0  0  0
  9 10  1  0  0  0  0
  9 36  1  0  0  0  0
  9 37  1  0  0  0  0
 10 11  1  0  0  0  0
 10 38  1  0  0  0  0
 10 39  1  0  0  0  0
 11 12  1  1  0  0  0
 11 31  1  0  0  0  0
 11 13  1  0  0  0  0
 13 14  1  6  0  0  0
 13 15  1  0  0  0  0
 15 16  1  0  0  0  0
 15 40  1  0  0  0  0
 15 41  1  0  0  0  0
 16 17  1  6  0  0  0
 16 30  1  0  0  0  0
 16 18  1  0  0  0  0
 18 26  1  0  0  0  0
 18 19  2  0  0  0  0
 19 20  1  0  0  0  0
 19 28  1  0  0  0  0
 20 25  2  0  0  0  0
 20 21  1  0  0  0  0
 21 22  2  0  0  0  0
 21 42  1  0  0  0  0
 22 23  1  0  0  0  0
 22 43  1  0  0  0  0
 23 24  2  0  0  0  0
 23 44  1  0  0  0  0
 24 25  1  0  0  0  0
 24 45  1  0  0  0  0
 25 26  1  0  0  0  0
 26 27  1  0  0  0  0
 28 29  1  0  0  0  0
 28 46  1  0  0  0  0
 28 47  1  0  0  0  0
 29 30  1  0  0  0  0
 29 48  1  0  0  0  0
 29 49  1  0  0  0  0
 30 31  1  0  0  0  0
 30 53  1  1  0  0  0
 31 50  1  0  0  0  0
 31 51  1  0  0  0  0
 32 52  1  0  0  0  0
M  CHG  1  30   1
M  END
$$$$
