ZINC13900167
 OpenBabel08292219463D

 58 61  0  0  0  0  0  0  0  0999 V2000
   -2.0026   -9.9230   -6.2073 C   0  0  0  0  0  0  0  0  0  0  0  0
   -2.1000   -8.3990   -6.3007 C   0  0  0  0  0  0  0  0  0  0  0  0
   -2.6366   -7.8404   -4.9813 C   0  0  0  0  0  0  0  0  0  0  0  0
   -2.7340   -6.3164   -5.0747 C   0  0  0  0  0  0  0  0  0  0  0  0
   -3.2626   -5.7662   -3.7751 C   0  0  0  0  0  0  0  0  0  0  0  0
   -4.5478   -5.5709   -3.4827 N   0  0  0  0  0  0  0  0  0  0  0  0
   -4.6589   -5.0866   -2.2725 C   0  0  0  0  0  0  0  0  0  0  0  0
   -3.4227   -4.9527   -1.7616 N   0  0  0  0  0  0  0  0  0  0  0  0
   -2.5346   -5.4024   -2.7523 N   0  0  0  0  0  0  0  0  0  0  0  0
   -3.0720   -4.4446   -0.4330 C   0  0  0  0  0  0  0  0  0  0  0  0
   -2.8613   -5.6026    0.5081 C   0  0  0  0  0  0  0  0  0  0  0  0
   -1.6371   -6.2552    0.5528 C   0  0  0  0  0  0  0  0  0  0  0  0
   -1.4846   -7.3142    1.4305 C   0  0  0  0  0  0  0  0  0  0  0  0
   -2.5602   -7.6871    2.2352 C   0  0  0  0  0  0  0  0  0  0  0  0
   -3.7162   -7.0398    2.1581 N   0  0  0  0  0  0  0  0  0  0  0  0
   -3.8859   -6.0253    1.3348 C   0  0  0  0  0  0  0  0  0  0  0  0
   -2.4135   -8.8192    3.1799 C   0  0  0  0  0  0  0  0  0  0  0  0
   -2.7719   -8.6667    4.5167 C   0  0  0  0  0  0  0  0  0  0  0  0
   -2.6291   -9.7225    5.3944 C   0  0  0  0  0  0  0  0  0  0  0  0
   -2.1343  -10.9385    4.9535 C   0  0  0  0  0  0  0  0  0  0  0  0
   -1.7780  -11.1093    3.6315 C   0  0  0  0  0  0  0  0  0  0  0  0
   -1.9159  -10.0544    2.7310 C   0  0  0  0  0  0  0  0  0  0  0  0
   -1.5352  -10.2320    1.3135 C   0  0  0  0  0  0  0  0  0  0  0  0
   -0.5700  -10.9141   -0.4545 N   0  0  0  0  0  0  0  0  0  0  0  0
   -1.4452  -10.0301   -0.7837 N   0  0  0  0  0  0  0  0  0  0  0  0
   -2.0452   -9.6002    0.2722 N   0  0  0  0  0  0  0  0  0  0  0  0
   -5.9477   -4.7365   -1.5743 C   0  0  0  0  0  0  0  0  0  0  0  0
   -6.3856   -3.3298   -1.9871 C   0  0  0  0  0  0  0  0  0  0  0  0
   -7.6292   -2.9286   -1.1913 C   0  0  0  0  0  0  0  0  0  0  0  0
   -8.0671   -1.5220   -1.6041 C   0  0  0  0  0  0  0  0  0  0  0  0
   -1.3272  -10.1949   -5.3962 H   0  0  0  0  0  0  0  0  0  0  0  0
   -2.9910  -10.3389   -6.0120 H   0  0  0  0  0  0  0  0  0  0  0  0
   -1.6203  -10.3210   -7.1473 H   0  0  0  0  0  0  0  0  0  0  0  0
   -2.7754   -8.1271   -7.1119 H   0  0  0  0  0  0  0  0  0  0  0  0
   -1.1116   -7.9831   -6.4961 H   0  0  0  0  0  0  0  0  0  0  0  0
   -1.9612   -8.1123   -4.1702 H   0  0  0  0  0  0  0  0  0  0  0  0
   -3.6251   -8.2563   -4.7860 H   0  0  0  0  0  0  0  0  0  0  0  0
   -3.4094   -6.0445   -5.8859 H   0  0  0  0  0  0  0  0  0  0  0  0
   -1.7456   -5.9004   -5.2701 H   0  0  0  0  0  0  0  0  0  0  0  0
   -3.8799   -3.8154   -0.0597 H   0  0  0  0  0  0  0  0  0  0  0  0
   -2.1554   -3.8583   -0.4985 H   0  0  0  0  0  0  0  0  0  0  0  0
   -0.8219   -5.9436   -0.0834 H   0  0  0  0  0  0  0  0  0  0  0  0
   -0.5455   -7.8441    1.4914 H   0  0  0  0  0  0  0  0  0  0  0  0
   -4.8395   -5.5193    1.3026 H   0  0  0  0  0  0  0  0  0  0  0  0
   -3.1578   -7.7211    4.8678 H   0  0  0  0  0  0  0  0  0  0  0  0
   -2.9046   -9.5993    6.4313 H   0  0  0  0  0  0  0  0  0  0  0  0
   -2.0263  -11.7578    5.6488 H   0  0  0  0  0  0  0  0  0  0  0  0
   -1.3922  -12.0601    3.2946 H   0  0  0  0  0  0  0  0  0  0  0  0
   -6.7191   -5.4539   -1.8542 H   0  0  0  0  0  0  0  0  0  0  0  0
   -5.7966   -4.7679   -0.4952 H   0  0  0  0  0  0  0  0  0  0  0  0
   -5.5804   -2.6241   -1.7830 H   0  0  0  0  0  0  0  0  0  0  0  0
   -6.6167   -3.3192   -3.0523 H   0  0  0  0  0  0  0  0  0  0  0  0
   -8.4345   -3.6344   -1.3954 H   0  0  0  0  0  0  0  0  0  0  0  0
   -7.3981   -2.9393   -0.1261 H   0  0  0  0  0  0  0  0  0  0  0  0
   -8.9531   -1.2362   -1.0372 H   0  0  0  0  0  0  0  0  0  0  0  0
   -7.2619   -0.8162   -1.4001 H   0  0  0  0  0  0  0  0  0  0  0  0
   -8.2983   -1.5114   -2.6693 H   0  0  0  0  0  0  0  0  0  0  0  0
   -0.5988  -11.0613    0.8178 N   0  0  0  0  0  2  0  0  0  0  0  0
  1  2  1  0  0  0  0
  1 31  1  0  0  0  0
  1 32  1  0  0  0  0
  1 33  1  0  0  0  0
  2  3  1  0  0  0  0
  2 34  1  0  0  0  0
  2 35  1  0  0  0  0
  3  4  1  0  0  0  0
  3 36  1  0  0  0  0
  3 37  1  0  0  0  0
  4  5  1  0  0  0  0
  4 38  1  0  0  0  0
  4 39  1  0  0  0  0
  5  9  2  0  0  0  0
  5  6  1  0  0  0  0
  6  7  2  0  0  0  0
  7  8  1  0  0  0  0
  7 27  1  0  0  0  0
  8  9  1  0  0  0  0
  8 10  1  0  0  0  0
 10 11  1  0  0  0  0
 10 40  1  0  0  0  0
 10 41  1  0  0  0  0
 11 16  2  0  0  0  0
 11 12  1  0  0  0  0
 12 13  2  0  0  0  0
 12 42  1  0  0  0  0
 13 14  1  0  0  0  0
 13 43  1  0  0  0  0
 14 15  2  0  0  0  0
 14 17  1  0  0  0  0
 15 16  1  0  0  0  0
 16 44  1  0  0  0  0
 17 22  2  0  0  0  0
 17 18  1  0  0  0  0
 18 19  2  0  0  0  0
 18 45  1  0  0  0  0
 19 20  1  0  0  0  0
 19 46  1  0  0  0  0
 20 21  2  0  0  0  0
 20 47  1  0  0  0  0
 21 22  1  0  0  0  0
 21 48  1  0  0  0  0
 22 23  1  0  0  0  0
 23 26  2  0  0  0  0
 23 58  1  0  0  0  0
 24 25  2  0  0  0  0
 24 58  1  0  0  0  0
 25 26  1  0  0  0  0
 27 28  1  0  0  0  0
 27 49  1  0  0  0  0
 27 50  1  0  0  0  0
 28 29  1  0  0  0  0
 28 51  1  0  0  0  0
 28 52  1  0  0  0  0
 29 30  1  0  0  0  0
 29 53  1  0  0  0  0
 29 54  1  0  0  0  0
 30 55  1  0  0  0  0
 30 56  1  0  0  0  0
 30 57  1  0  0  0  0
M  END
$$$$
