ZINC19632917
 OpenBabel08292219463D

 35 37  0  0  0  0  0  0  0  0999 V2000
    0.3869    1.6257   -0.4688 C   0  0  0  0  0  0  0  0  0  0  0  0
   -0.4381    1.8111    0.7275 N   0  0  0  0  0  0  0  0  0  0  0  0
   -0.6877    3.0703    1.1972 C   0  0  0  0  0  0  0  0  0  0  0  0
   -0.1880    4.0751    0.5725 N   0  0  0  0  0  0  0  0  0  0  0  0
   -0.3144    5.3787    0.9381 C   0  0  0  0  0  0  0  0  0  0  0  0
    0.8182    6.1971    0.8113 C   0  0  0  0  0  0  0  0  0  0  0  0
    0.7611    7.5284    1.1532 C   0  0  0  0  0  0  0  0  0  0  0  0
   -0.4211    8.0763    1.6280 C   0  0  0  0  0  0  0  0  0  0  0  0
   -1.5431    7.2893    1.7639 C   0  0  0  0  0  0  0  0  0  0  0  0
   -1.5051    5.9298    1.4246 C   0  0  0  0  0  0  0  0  0  0  0  0
   -2.7355    5.1437    1.6090 C   0  0  0  0  0  0  0  0  0  0  0  0
   -2.7652    3.9385    2.0629 N   0  0  0  0  0  4  0  0  0  0  0  0
   -4.0124    3.2849    2.2127 O   0  5  0  0  0  0  0  0  0  0  0  0
   -1.5427    3.2309    2.4234 C   0  0  0  0  0  0  0  0  0  0  0  0
   -4.0245    5.7803    1.2495 C   0  0  0  0  0  0  0  0  0  0  0  0
   -5.1583    5.5542    2.0290 C   0  0  0  0  0  0  0  0  0  0  0  0
   -6.3546    6.1540    1.6923 C   0  0  0  0  0  0  0  0  0  0  0  0
   -6.4331    6.9690    0.5772 C   0  0  0  0  0  0  0  0  0  0  0  0
   -5.3129    7.1929   -0.2030 C   0  0  0  0  0  0  0  0  0  0  0  0
   -4.1098    6.6032    0.1270 C   0  0  0  0  0  0  0  0  0  0  0  0
   -0.4868    9.7583    2.0526 Cl  0  0  0  0  0  0  0  0  0  0  0  0
    0.4748    0.5519   -0.6907 H   0  0  0  0  0  0  0  0  0  0  0  0
    1.3877    2.0469   -0.2929 H   0  0  0  0  0  0  0  0  0  0  0  0
   -0.0824    2.1390   -1.3210 H   0  0  0  0  0  0  0  0  0  0  0  0
   -0.8567    0.9370    1.2478 H   0  0  0  0  0  0  0  0  0  0  0  0
    1.7426    5.7784    0.4417 H   0  0  0  0  0  0  0  0  0  0  0  0
    1.6395    8.1486    1.0520 H   0  0  0  0  0  0  0  0  0  0  0  0
   -2.4601    7.7233    2.1343 H   0  0  0  0  0  0  0  0  0  0  0  0
   -1.7945    2.2392    2.8273 H   0  0  0  0  0  0  0  0  0  0  0  0
   -0.9918    3.8066    3.1818 H   0  0  0  0  0  0  0  0  0  0  0  0
   -5.0994    4.9142    2.8970 H   0  0  0  0  0  0  0  0  0  0  0  0
   -7.2324    5.9831    2.2978 H   0  0  0  0  0  0  0  0  0  0  0  0
   -7.3726    7.4327    0.3150 H   0  0  0  0  0  0  0  0  0  0  0  0
   -5.3800    7.8307   -1.0720 H   0  0  0  0  0  0  0  0  0  0  0  0
   -3.2358    6.7790   -0.4827 H   0  0  0  0  0  0  0  0  0  0  0  0
  1  2  1  0  0  0  0
  1 22  1  0  0  0  0
  1 23  1  0  0  0  0
  1 24  1  0  0  0  0
  2  3  1  0  0  0  0
  2 25  1  0  0  0  0
  3 14  1  0  0  0  0
  3  4  2  0  0  0  0
  4  5  1  0  0  0  0
  5 10  2  0  0  0  0
  5  6  1  0  0  0  0
  6  7  2  0  0  0  0
  6 26  1  0  0  0  0
  7  8  1  0  0  0  0
  7 27  1  0  0  0  0
  8  9  2  0  0  0  0
  8 21  1  0  0  0  0
  9 10  1  0  0  0  0
  9 28  1  0  0  0  0
 10 11  1  0  0  0  0
 11 12  2  0  0  0  0
 11 15  1  0  0  0  0
 12 13  1  0  0  0  0
 12 14  1  0  0  0  0
 14 29  1  0  0  0  0
 14 30  1  0  0  0  0
 15 20  2  0  0  0  0
 15 16  1  0  0  0  0
 16 17  2  0  0  0  0
 16 31  1  0  0  0  0
 17 18  1  0  0  0  0
 17 32  1  0  0  0  0
 18 19  2  0  0  0  0
 18 33  1  0  0  0  0
 19 20  1  0  0  0  0
 19 34  1  0  0  0  0
 20 35  1  0  0  0  0
M  CHG  1  13  -1
M  END
$$$$
