ZINC85432549
 OpenBabel08292219463D

118126  0  0  1  0  0  0  0  0999 V2000
   -3.2227   -8.7381   -1.1891 C   0  0  0  0  0  0  0  0  0  0  0  0
   -2.2306   -8.3648   -2.2923 C   0  0  0  0  0  0  0  0  0  0  0  0
   -1.4608   -7.1044   -1.8821 C   0  0  2  0  0  0  0  0  0  0  0  0
   -0.5553   -6.6825   -3.0541 C   0  0  0  0  0  0  0  0  0  0  0  0
    0.4535   -5.6687   -2.5209 C   0  0  2  0  0  0  0  0  0  0  0  0
   -0.0690   -4.8798   -2.0042 H   0  0  0  0  0  0  0  0  0  0  0  0
    1.5250   -5.1359   -3.4637 C   0  0  0  0  0  0  0  0  0  0  0  0
    2.3658   -4.1292   -2.6086 C   0  0  1  0  0  0  0  0  0  0  0  0
    1.5833   -3.7284   -1.3746 C   0  0  0  0  0  0  0  0  0  0  0  0
    1.5674   -4.2074   -0.1164 C   0  0  0  0  0  0  0  0  0  0  0  0
    0.6391   -3.3774    0.6530 C   0  0  0  0  0  0  0  0  0  0  0  0
    0.2597   -3.4082    1.9980 C   0  0  0  0  0  0  0  0  0  0  0  0
   -0.6442   -2.4563    2.4034 C   0  0  0  0  0  0  0  0  0  0  0  0
   -1.1584   -1.5122    1.5292 C   0  0  0  0  0  0  0  0  0  0  0  0
   -0.8030   -1.4690    0.1922 C   0  0  0  0  0  0  0  0  0  0  0  0
    0.1106   -2.4278   -0.2455 C   0  0  0  0  0  0  0  0  0  0  0  0
    0.6628   -2.6879   -1.4587 N   0  0  0  0  0  0  0  0  0  0  0  0
    0.4207   -2.2181   -2.2705 H   0  0  0  0  0  0  0  0  0  0  0  0
    2.2885   -5.3770    0.5264 C   0  0  0  0  0  0  0  0  0  0  0  0
    1.2366   -6.5162    0.7917 C   0  0  0  0  0  0  0  0  0  0  0  0
    0.3251   -6.3943   -0.3548 N   0  3  1  0  0  0  0  0  0  0  0  0
    1.2379   -6.6019   -1.5324 C   0  0  0  0  0  0  0  0  0  0  0  0
   -0.7063   -7.3961   -0.5760 C   0  0  0  0  0  0  0  0  0  0  0  0
    3.7423   -4.6547   -2.2925 C   0  0  0  0  0  0  0  0  0  0  0  0
    4.1703   -5.8377   -2.8815 C   0  0  0  0  0  0  0  0  0  0  0  0
    5.4365   -6.2829   -2.5523 C   0  0  0  0  0  0  0  0  0  0  0  0
    6.2506   -5.6004   -1.6437 C   0  0  0  0  0  0  0  0  0  0  0  0
    5.8244   -4.3981   -1.0768 C   0  0  0  0  0  0  0  0  0  0  0  0
    4.5561   -3.9452   -1.4255 C   0  0  0  0  0  0  0  0  0  0  0  0
    4.1016   -2.7784   -0.8972 O   0  0  0  0  0  0  0  0  0  0  0  0
    5.0144   -2.0333   -0.0887 C   0  0  0  0  0  0  0  0  0  0  0  0
    7.4131   -6.3118   -1.3810 N   0  0  0  0  0  0  0  0  0  0  0  0
    7.5608   -7.3827   -2.3910 C   0  0  2  0  0  0  0  0  0  0  0  0
    8.3187   -7.1033   -3.1229 H   0  0  0  0  0  0  0  0  0  0  0  0
    6.1973   -7.4745   -3.0625 C   0  0  2  0  0  0  0  0  0  0  0  0
    6.3844   -7.3106   -4.5983 C   0  0  0  0  0  0  0  0  0  0  0  0
    5.2553   -8.1914   -5.1849 C   0  0  0  0  0  0  0  0  0  0  0  0
    5.1443   -9.3261   -4.2245 N   0  3  2  0  0  0  0  0  0  0  0  0
    5.4295   -8.7539   -2.9111 C   0  0  1  0  0  0  0  0  0  0  0  0
    4.4442   -8.3860   -2.6247 H   0  0  0  0  0  0  0  0  0  0  0  0
    5.7219   -9.7067   -1.8104 C   0  0  1  0  0  0  0  0  0  0  0  0
    6.1442  -11.0672   -2.2774 C   0  0  0  0  0  0  0  0  0  0  0  0
    6.3269  -11.3500   -3.5314 C   0  0  0  0  0  0  0  0  0  0  0  0
    6.1468  -10.3240   -4.6097 C   0  0  0  0  0  0  0  0  0  0  0  0
    6.7701   -9.1585   -0.8389 C   0  0  2  0  0  0  0  0  0  0  0  0
    6.3477   -8.3323   -0.2670 H   0  0  0  0  0  0  0  0  0  0  0  0
    7.9782   -8.6571   -1.6703 C   0  0  2  0  0  0  0  0  0  0  0  0
    9.1537   -8.3667   -0.7731 C   0  0  0  0  0  0  0  0  0  0  0  0
    9.0097   -8.3549    0.4265 O   0  0  0  0  0  0  0  0  0  0  0  0
   10.3606   -8.1210   -1.3066 O   0  0  0  0  0  0  0  0  0  0  0  0
   11.4297   -7.8534   -0.3970 C   0  0  0  0  0  0  0  0  0  0  0  0
    8.3421   -9.6514   -2.6300 O   0  0  0  0  0  0  0  0  0  0  0  0
    7.1964  -10.1940    0.0488 O   0  0  0  0  0  0  0  0  0  0  0  0
    7.2498   -9.8926    1.3557 C   0  0  0  0  0  0  0  0  0  0  0  0
    6.8636   -8.8154    1.7435 O   0  0  0  0  0  0  0  0  0  0  0  0
    7.7915  -10.8976    2.3393 C   0  0  0  0  0  0  0  0  0  0  0  0
    4.4309   -9.8844   -1.0088 C   0  0  0  0  0  0  0  0  0  0  0  0
    4.6762  -10.8608    0.1432 C   0  0  0  0  0  0  0  0  0  0  0  0
    8.2694   -6.0663   -0.3696 C   0  0  0  0  0  0  0  0  0  0  0  0
    8.0535   -5.1539    0.3998 O   0  0  0  0  0  0  0  0  0  0  0  0
    2.5754   -2.8747   -3.4583 C   0  0  0  0  0  0  0  0  0  0  0  0
    2.1144   -2.8164   -4.5736 O   0  0  0  0  0  0  0  0  0  0  0  0
    3.2716   -1.8385   -2.9649 O   0  0  0  0  0  0  0  0  0  0  0  0
    3.4283   -0.6994   -3.8133 C   0  0  0  0  0  0  0  0  0  0  0  0
   -2.4067   -6.0586   -1.6388 O   0  0  0  0  0  0  0  0  0  0  0  0
   -2.6811   -8.9287   -0.2626 H   0  0  0  0  0  0  0  0  0  0  0  0
   -3.9238   -7.9173   -1.0378 H   0  0  0  0  0  0  0  0  0  0  0  0
   -3.7702   -9.6344   -1.4808 H   0  0  0  0  0  0  0  0  0  0  0  0
   -1.5296   -9.1856   -2.4436 H   0  0  0  0  0  0  0  0  0  0  0  0
   -2.7723   -8.1743   -3.2188 H   0  0  0  0  0  0  0  0  0  0  0  0
   -0.0245   -7.5474   -3.4451 H   0  0  0  0  0  0  0  0  0  0  0  0
   -1.1498   -6.2199   -3.8380 H   0  0  0  0  0  0  0  0  0  0  0  0
    2.1599   -5.9526   -3.8333 H   0  0  0  0  0  0  0  0  0  0  0  0
    1.0703   -4.6277   -4.3246 H   0  0  0  0  0  0  0  0  0  0  0  0
    0.6559   -4.1431    2.6827 H   0  0  0  0  0  0  0  0  0  0  0  0
   -0.9629   -2.4450    3.4352 H   0  0  0  0  0  0  0  0  0  0  0  0
   -1.8610   -0.7838    1.9061 H   0  0  0  0  0  0  0  0  0  0  0  0
   -1.2121   -0.7283   -0.4779 H   0  0  0  0  0  0  0  0  0  0  0  0
    3.1160   -5.7376   -0.0616 H   0  0  0  0  0  0  0  0  0  0  0  0
    2.6849   -5.0420    1.4997 H   0  0  0  0  0  0  0  0  0  0  0  0
    1.7231   -7.4942    0.8056 H   0  0  0  0  0  0  0  0  0  0  0  0
    0.7098   -6.3427    1.7331 H   0  0  0  0  0  0  0  0  0  0  0  0
    1.1820   -7.6483   -1.8778 H   0  0  0  0  0  0  0  0  0  0  0  0
    2.2537   -6.3307   -1.3641 H   0  0  0  0  0  0  0  0  0  0  0  0
   -1.4108   -7.3745    0.2573 H   0  0  0  0  0  0  0  0  0  0  0  0
   -0.2489   -8.3835   -0.6333 H   0  0  0  0  0  0  0  0  0  0  0  0
    3.5407   -6.3859   -3.5667 H   0  0  0  0  0  0  0  0  0  0  0  0
    6.4543   -3.8410   -0.3991 H   0  0  0  0  0  0  0  0  0  0  0  0
    4.5055   -1.1634    0.3264 H   0  0  0  0  0  0  0  0  0  0  0  0
    5.3782   -2.6631    0.7232 H   0  0  0  0  0  0  0  0  0  0  0  0
    5.8558   -1.7052   -0.6989 H   0  0  0  0  0  0  0  0  0  0  0  0
    6.2534   -6.2695   -4.8934 H   0  0  0  0  0  0  0  0  0  0  0  0
    7.3617   -7.6800   -4.9088 H   0  0  0  0  0  0  0  0  0  0  0  0
    4.3194   -7.6343   -5.2275 H   0  0  0  0  0  0  0  0  0  0  0  0
    5.5298   -8.5548   -6.1752 H   0  0  0  0  0  0  0  0  0  0  0  0
    6.3031  -11.8421   -1.5421 H   0  0  0  0  0  0  0  0  0  0  0  0
    6.6174  -12.3534   -3.8056 H   0  0  0  0  0  0  0  0  0  0  0  0
    5.8247  -10.8199   -5.5254 H   0  0  0  0  0  0  0  0  0  0  0  0
    7.0984   -9.8240   -4.7904 H   0  0  0  0  0  0  0  0  0  0  0  0
   12.3469   -7.6723   -0.9575 H   0  0  0  0  0  0  0  0  0  0  0  0
   11.1882   -6.9731    0.1987 H   0  0  0  0  0  0  0  0  0  0  0  0
   11.5696   -8.7106    0.2615 H   0  0  0  0  0  0  0  0  0  0  0  0
    8.6194  -10.4917   -2.2399 H   0  0  0  0  0  0  0  0  0  0  0  0
    8.0882  -11.8022    1.8083 H   0  0  0  0  0  0  0  0  0  0  0  0
    8.6571  -10.4759    2.8502 H   0  0  0  0  0  0  0  0  0  0  0  0
    7.0212  -11.1418    3.0708 H   0  0  0  0  0  0  0  0  0  0  0  0
    4.1167   -8.9208   -0.6077 H   0  0  0  0  0  0  0  0  0  0  0  0
    3.6505  -10.2789   -1.6596 H   0  0  0  0  0  0  0  0  0  0  0  0
    3.7564  -10.9874    0.7143 H   0  0  0  0  0  0  0  0  0  0  0  0
    4.9904  -11.8244   -0.2579 H   0  0  0  0  0  0  0  0  0  0  0  0
    5.4565  -10.4663    0.7940 H   0  0  0  0  0  0  0  0  0  0  0  0
    9.1479   -6.6818   -0.2444 H   0  0  0  0  0  0  0  0  0  0  0  0
    4.0089    0.0632   -3.2942 H   0  0  0  0  0  0  0  0  0  0  0  0
    3.9483   -0.9940   -4.7249 H   0  0  0  0  0  0  0  0  0  0  0  0
    2.4473   -0.2984   -4.0681 H   0  0  0  0  0  0  0  0  0  0  0  0
   -3.0420   -6.2582   -0.9377 H   0  0  0  0  0  0  0  0  0  0  0  0
   -0.1007   -5.4822   -0.3730 H   0  0  0  0  0  0  0  0  0  0  0  0
    4.2183   -9.7257   -4.2549 H   0  0  0  0  0  0  0  0  0  0  0  0
  1  2  1  0  0  0  0
  1 66  1  0  0  0  0
  1 67  1  0  0  0  0
  1 68  1  0  0  0  0
  2  3  1  0  0  0  0
  2 69  1  0  0  0  0
  2 70  1  0  0  0  0
  3 23  1  0  0  0  0
  3  4  1  0  0  0  0
  3 65  1  1  0  0  0
  4  5  1  0  0  0  0
  4 71  1  0  0  0  0
  4 72  1  0  0  0  0
  5  6  1  1  0  0  0
  5 22  1  0  0  0  0
  5  7  1  0  0  0  0
  7  8  1  0  0  0  0
  7 73  1  0  0  0  0
  7 74  1  0  0  0  0
  8  9  1  0  0  0  0
  8 24  1  0  0  0  0
  8 61  1  6  0  0  0
  9 17  1  0  0  0  0
  9 10  2  0  0  0  0
 10 11  1  0  0  0  0
 10 19  1  0  0  0  0
 11 16  2  0  0  0  0
 11 12  1  0  0  0  0
 12 13  2  0  0  0  0
 12 75  1  0  0  0  0
 13 14  1  0  0  0  0
 13 76  1  0  0  0  0
 14 15  2  0  0  0  0
 14 77  1  0  0  0  0
 15 16  1  0  0  0  0
 15 78  1  0  0  0  0
 16 17  1  0  0  0  0
 17 18  1  0  0  0  0
 19 20  1  0  0  0  0
 19 79  1  0  0  0  0
 19 80  1  0  0  0  0
 20 21  1  0  0  0  0
 20 81  1  0  0  0  0
 20 82  1  0  0  0  0
 21 22  1  0  0  0  0
 21 23  1  0  0  0  0
 21117  1  6  0  0  0
 22 83  1  0  0  0  0
 22 84  1  0  0  0  0
 23 85  1  0  0  0  0
 23 86  1  0  0  0  0
 24 29  2  0  0  0  0
 24 25  1  0  0  0  0
 25 26  2  0  0  0  0
 25 87  1  0  0  0  0
 26 27  1  0  0  0  0
 27 28  2  0  0  0  0
 27 32  1  0  0  0  0
 28 29  1  0  0  0  0
 28 88  1  0  0  0  0
 29 30  1  0  0  0  0
 30 31  1  0  0  0  0
 31 89  1  0  0  0  0
 31 90  1  0  0  0  0
 31 91  1  0  0  0  0
 32 33  1  0  0  0  0
 32 59  1  0  0  0  0
 33 34  1  6  0  0  0
 33 47  1  0  0  0  0
 33 35  1  0  0  0  0
 35 26  1  1  0  0  0
 35 39  1  0  0  0  0
 35 36  1  0  0  0  0
 36 37  1  0  0  0  0
 36 92  1  0  0  0  0
 36 93  1  0  0  0  0
 37 38  1  0  0  0  0
 37 94  1  0  0  0  0
 37 95  1  0  0  0  0
 38 44  1  0  0  0  0
 38 39  1  0  0  0  0
 38118  1  6  0  0  0
 39 40  1  1  0  0  0
 39 41  1  0  0  0  0
 41 42  1  0  0  0  0
 41 45  1  0  0  0  0
 41 57  1  1  0  0  0
 42 43  2  0  0  0  0
 42 96  1  0  0  0  0
 43 44  1  0  0  0  0
 43 97  1  0  0  0  0
 44 98  1  0  0  0  0
 44 99  1  0  0  0  0
 45 46  1  1  0  0  0
 45 47  1  0  0  0  0
 45 53  1  0  0  0  0
 47 48  1  1  0  0  0
 47 52  1  0  0  0  0
 48 49  2  0  0  0  0
 48 50  1  0  0  0  0
 50 51  1  0  0  0  0
 51100  1  0  0  0  0
 51101  1  0  0  0  0
 51102  1  0  0  0  0
 52103  1  0  0  0  0
 53 54  1  0  0  0  0
 54 55  2  0  0  0  0
 54 56  1  0  0  0  0
 56104  1  0  0  0  0
 56105  1  0  0  0  0
 56106  1  0  0  0  0
 57 58  1  0  0  0  0
 57107  1  0  0  0  0
 57108  1  0  0  0  0
 58109  1  0  0  0  0
 58110  1  0  0  0  0
 58111  1  0  0  0  0
 59 60  2  0  0  0  0
 59112  1  0  0  0  0
 61 62  2  0  0  0  0
 61 63  1  0  0  0  0
 63 64  1  0  0  0  0
 64113  1  0  0  0  0
 64114  1  0  0  0  0
 64115  1  0  0  0  0
 65116  1  0  0  0  0
M  CHG  2  21   1  38   1
M  END
$$$$
