ZINC00009342
 OpenBabel08292219463D

 45 46  0  0  1  0  0  0  0  0999 V2000
    4.0754    1.7770    3.9402 C   0  0  0  0  0  0  0  0  0  0  0  0
    5.8408    1.8687    2.2857 C   0  0  0  0  0  0  0  0  0  0  0  0
    4.3854   -0.0630    2.3972 C   0  0  0  0  0  0  0  0  0  0  0  0
    2.9174   -0.4882    2.4702 C   0  0  2  0  0  0  0  0  0  0  0  0
    2.4740   -0.1068    3.3900 H   0  0  0  0  0  0  0  0  0  0  0  0
    2.8288   -1.9925    2.4560 C   0  0  0  0  0  0  0  0  0  0  0  0
    3.3250   -2.7029    1.3786 C   0  0  0  0  0  0  0  0  0  0  0  0
    3.2501   -4.0823    1.3657 C   0  0  0  0  0  0  0  0  0  0  0  0
    2.6657   -4.7540    2.4297 C   0  0  0  0  0  0  0  0  0  0  0  0
    2.1635   -4.0385    3.5070 C   0  0  0  0  0  0  0  0  0  0  0  0
    2.2464   -2.6596    3.5178 C   0  0  0  0  0  0  0  0  0  0  0  0
    2.5850   -6.1105    2.4164 O   0  0  0  0  0  0  0  0  0  0  0  0
    2.1619    0.0786    1.2666 C   0  0  0  0  0  0  0  0  0  0  0  0
    0.7353   -0.4742    1.2534 C   0  0  0  0  0  0  0  0  0  0  0  0
   -0.0203    0.0926    0.0498 C   0  0  0  0  0  0  0  0  0  0  0  0
   -0.0657    1.6187    0.1487 C   0  0  0  0  0  0  0  0  0  0  0  0
    1.3609    2.1716    0.1618 C   0  0  0  0  0  0  0  0  0  0  0  0
    2.1165    1.6048    1.3655 C   0  0  0  0  0  0  0  0  0  0  0  0
    2.8310   -0.3010    0.0623 O   0  0  0  0  0  0  0  0  0  0  0  0
    4.7225    1.2870    4.6677 H   0  0  0  0  0  0  0  0  0  0  0  0
    4.1579    2.8582    4.0507 H   0  0  0  0  0  0  0  0  0  0  0  0
    3.0426    1.4722    4.1093 H   0  0  0  0  0  0  0  0  0  0  0  0
    6.0915    1.6307    1.2520 H   0  0  0  0  0  0  0  0  0  0  0  0
    5.8859    2.9480    2.4313 H   0  0  0  0  0  0  0  0  0  0  0  0
    6.5519    1.3821    2.9533 H   0  0  0  0  0  0  0  0  0  0  0  0
    4.9495   -0.5686    3.1810 H   0  0  0  0  0  0  0  0  0  0  0  0
    4.7939   -0.3334    1.4235 H   0  0  0  0  0  0  0  0  0  0  0  0
    3.7752   -2.1792    0.5482 H   0  0  0  0  0  0  0  0  0  0  0  0
    3.6421   -4.6370    0.5261 H   0  0  0  0  0  0  0  0  0  0  0  0
    1.7078   -4.5591    4.3363 H   0  0  0  0  0  0  0  0  0  0  0  0
    1.8556   -2.1022    4.3562 H   0  0  0  0  0  0  0  0  0  0  0  0
    1.7756   -6.4524    2.0126 H   0  0  0  0  0  0  0  0  0  0  0  0
    0.2250   -0.1847    2.1720 H   0  0  0  0  0  0  0  0  0  0  0  0
    0.7677   -1.5615    1.1830 H   0  0  0  0  0  0  0  0  0  0  0  0
   -1.0365   -0.3013    0.0404 H   0  0  0  0  0  0  0  0  0  0  0  0
    0.4901   -0.1970   -0.8688 H   0  0  0  0  0  0  0  0  0  0  0  0
   -0.6039    2.0225   -0.7088 H   0  0  0  0  0  0  0  0  0  0  0  0
   -0.5760    1.9082    1.0673 H   0  0  0  0  0  0  0  0  0  0  0  0
    1.8713    1.8820   -0.7568 H   0  0  0  0  0  0  0  0  0  0  0  0
    1.3285    3.2588    0.2323 H   0  0  0  0  0  0  0  0  0  0  0  0
    1.6061    1.8943    2.2840 H   0  0  0  0  0  0  0  0  0  0  0  0
    3.1328    1.9987    1.3748 H   0  0  0  0  0  0  0  0  0  0  0  0
    2.4062    0.0246   -0.7431 H   0  0  0  0  0  0  0  0  0  0  0  0
    4.4660    1.4033    2.5645 N   0  3  0  0  0  0  0  0  0  0  0  0
    3.8217    1.8505    1.9018 H   0  0  0  0  0  0  0  0  0  0  0  0
  1 20  1  0  0  0  0
  1 21  1  0  0  0  0
  1 22  1  0  0  0  0
  1 44  1  0  0  0  0
  2 23  1  0  0  0  0
  2 24  1  0  0  0  0
  2 25  1  0  0  0  0
  2 44  1  0  0  0  0
  3  4  1  0  0  0  0
  3 26  1  0  0  0  0
  3 27  1  0  0  0  0
  3 44  1  0  0  0  0
  4  5  1  1  0  0  0
  4  6  1  0  0  0  0
  4 13  1  0  0  0  0
  6 11  2  0  0  0  0
  6  7  1  0  0  0  0
  7  8  2  0  0  0  0
  7 28  1  0  0  0  0
  8  9  1  0  0  0  0
  8 29  1  0  0  0  0
  9 10  2  0  0  0  0
  9 12  1  0  0  0  0
 10 11  1  0  0  0  0
 10 30  1  0  0  0  0
 11 31  1  0  0  0  0
 12 32  1  0  0  0  0
 13 18  1  0  0  0  0
 13 14  1  0  0  0  0
 13 19  1  0  0  0  0
 14 15  1  0  0  0  0
 14 33  1  0  0  0  0
 14 34  1  0  0  0  0
 15 16  1  0  0  0  0
 15 35  1  0  0  0  0
 15 36  1  0  0  0  0
 16 17  1  0  0  0  0
 16 37  1  0  0  0  0
 16 38  1  0  0  0  0
 17 18  1  0  0  0  0
 17 39  1  0  0  0  0
 17 40  1  0  0  0  0
 18 41  1  0  0  0  0
 18 42  1  0  0  0  0
 19 43  1  0  0  0  0
 44 45  1  0  0  0  0
M  CHG  1  44   1
M  END
$$$$
