ZINC13509425
 OpenBabel08292219463D

 42 45  0  0  1  0  0  0  0  0999 V2000
   -0.0187    1.5258    0.0104 C   0  0  0  0  0  0  0  0  0  0  0  0
    0.0021   -0.0041    0.0020 C   0  0  2  0  0  0  0  0  0  0  0  0
   -1.4074   -0.5256    0.1829 C   0  0  0  0  0  0  0  0  0  0  0  0
   -1.9733    0.0969    1.4736 C   0  0  0  0  0  0  0  0  0  0  0  0
   -1.0810   -0.2282    2.6627 C   0  0  2  0  0  0  0  0  0  0  0  0
   -1.0782   -1.3101    2.7958 H   0  0  0  0  0  0  0  0  0  0  0  0
   -1.5931    0.3931    3.9301 C   0  0  0  0  0  0  0  0  0  0  0  0
   -2.9665    0.5118    4.0958 C   0  0  0  0  0  0  0  0  0  0  0  0
   -3.4900    1.0660    5.2445 C   0  0  0  0  0  0  0  0  0  0  0  0
   -4.5595    1.1556    5.3653 H   0  0  0  0  0  0  0  0  0  0  0  0
   -2.6356    1.5075    6.2447 C   0  0  0  0  0  0  0  0  0  0  0  0
   -1.2666    1.3928    6.0776 C   0  0  0  0  0  0  0  0  0  0  0  0
   -0.6018    1.7357    6.8566 H   0  0  0  0  0  0  0  0  0  0  0  0
   -0.7400    0.8406    4.9173 C   0  0  0  0  0  0  0  0  0  0  0  0
    0.7595    0.7756    4.7933 C   0  0  0  0  0  0  0  0  0  0  0  0
    1.1841   -0.1541    3.6574 C   0  0  0  0  0  0  0  0  0  0  0  0
    0.3656    0.2227    2.4221 C   0  0  1  0  0  0  0  0  0  0  0  0
    0.3966    1.2998    2.2579 H   0  0  0  0  0  0  0  0  0  0  0  0
    0.8620   -0.5119    1.1930 C   0  0  2  0  0  0  0  0  0  0  0  0
    0.7512   -1.5883    1.3238 H   0  0  0  0  0  0  0  0  0  0  0  0
    2.2729   -0.1511    0.7109 C   0  0  0  0  0  0  0  0  0  0  0  0
    2.2205   -0.5241   -0.7959 C   0  0  0  0  0  0  0  0  0  0  0  0
    0.7513   -0.4835   -1.2046 C   0  0  0  0  0  0  0  0  0  0  0  0
    0.2870   -0.7771   -2.2801 O   0  0  0  0  0  0  0  0  0  0  0  0
   -3.1409    2.0507    7.3833 O   0  0  0  0  0  0  0  0  0  0  0  0
    1.0038    1.9031   -0.0041 H   0  0  0  0  0  0  0  0  0  0  0  0
   -0.5517    1.8867   -0.8692 H   0  0  0  0  0  0  0  0  0  0  0  0
   -0.5229    1.8774    0.9105 H   0  0  0  0  0  0  0  0  0  0  0  0
   -2.0218   -0.2335   -0.6688 H   0  0  0  0  0  0  0  0  0  0  0  0
   -1.3910   -1.6118    0.2726 H   0  0  0  0  0  0  0  0  0  0  0  0
   -2.0328    1.1787    1.3544 H   0  0  0  0  0  0  0  0  0  0  0  0
   -2.9724   -0.2993    1.6553 H   0  0  0  0  0  0  0  0  0  0  0  0
   -3.6309    0.1671    3.3173 H   0  0  0  0  0  0  0  0  0  0  0  0
    1.1450    1.7763    4.5982 H   0  0  0  0  0  0  0  0  0  0  0  0
    1.1794    0.4091    5.7301 H   0  0  0  0  0  0  0  0  0  0  0  0
    2.2463   -0.0219    3.4518 H   0  0  0  0  0  0  0  0  0  0  0  0
    0.9894   -1.1893    3.9375 H   0  0  0  0  0  0  0  0  0  0  0  0
    2.4651    0.9141    0.8393 H   0  0  0  0  0  0  0  0  0  0  0  0
    3.0235   -0.7463    1.2309 H   0  0  0  0  0  0  0  0  0  0  0  0
    2.7904    0.1988   -1.3795 H   0  0  0  0  0  0  0  0  0  0  0  0
    2.6224   -1.5261   -0.9467 H   0  0  0  0  0  0  0  0  0  0  0  0
   -3.3092    1.4071    8.0851 H   0  0  0  0  0  0  0  0  0  0  0  0
  1 26  1  0  0  0  0
  1 27  1  0  0  0  0
  1 28  1  0  0  0  0
  2  1  1  1  0  0  0
  2 19  1  0  0  0  0
  2 23  1  0  0  0  0
  2  3  1  0  0  0  0
  3  4  1  0  0  0  0
  3 29  1  0  0  0  0
  3 30  1  0  0  0  0
  4  5  1  0  0  0  0
  4 31  1  0  0  0  0
  4 32  1  0  0  0  0
  5  6  1  1  0  0  0
  5 17  1  0  0  0  0
  5  7  1  0  0  0  0
  7 14  2  0  0  0  0
  7  8  1  0  0  0  0
  8  9  2  0  0  0  0
  8 33  1  0  0  0  0
  9 10  1  0  0  0  0
  9 11  1  0  0  0  0
 11 12  2  0  0  0  0
 11 25  1  0  0  0  0
 12 13  1  0  0  0  0
 12 14  1  0  0  0  0
 14 15  1  0  0  0  0
 15 16  1  0  0  0  0
 15 34  1  0  0  0  0
 15 35  1  0  0  0  0
 16 17  1  0  0  0  0
 16 36  1  0  0  0  0
 16 37  1  0  0  0  0
 17 18  1  6  0  0  0
 17 19  1  0  0  0  0
 19 20  1  1  0  0  0
 19 21  1  0  0  0  0
 21 22  1  0  0  0  0
 21 38  1  0  0  0  0
 21 39  1  0  0  0  0
 22 23  1  0  0  0  0
 22 40  1  0  0  0  0
 22 41  1  0  0  0  0
 23 24  2  0  0  0  0
 25 42  1  0  0  0  0
M  END
$$$$
