ZINC00057504
 OpenBabel08292219463D

 29 30  0  0  1  0  0  0  0  0999 V2000
    0.0267    1.4443    0.3238 C   0  0  0  0  0  0  0  0  0  0  0  0
    0.0213   -0.0567    0.0276 C   0  0  2  0  0  0  0  0  0  0  0  0
    0.4685   -0.2356   -0.9503 H   0  0  0  0  0  0  0  0  0  0  0  0
   -1.3975   -0.5645    0.0316 C   0  0  0  0  0  0  0  0  0  0  0  0
   -2.1705   -0.4396    1.1725 C   0  0  0  0  0  0  0  0  0  0  0  0
   -3.4698   -0.9027    1.1831 C   0  0  0  0  0  0  0  0  0  0  0  0
   -4.0047   -1.4981    0.0393 C   0  0  0  0  0  0  0  0  0  0  0  0
   -3.2195   -1.6206   -1.1085 C   0  0  0  0  0  0  0  0  0  0  0  0
   -1.9233   -1.1485   -1.1073 C   0  0  0  0  0  0  0  0  0  0  0  0
   -5.3969   -1.9973    0.0436 C   0  0  0  0  0  0  0  0  0  0  0  0
   -6.1183   -1.7804    0.9998 O   0  0  0  0  0  0  0  0  0  0  0  0
   -5.9072   -2.7522   -1.1019 C   0  0  0  0  0  0  0  0  0  0  0  0
   -7.1912   -3.2292   -1.3346 C   0  0  0  0  0  0  0  0  0  0  0  0
   -7.3690   -3.9102   -2.5133 C   0  0  0  0  0  0  0  0  0  0  0  0
   -6.3120   -4.0689   -3.3499 C   0  0  0  0  0  0  0  0  0  0  0  0
   -5.0452   -3.2925   -2.5658 S   0  0  0  0  0  0  0  0  0  0  0  0
    0.8168   -0.7800    1.0836 C   0  0  0  0  0  0  0  0  0  0  0  0
    0.2812   -1.6291    1.7754 O   0  0  0  0  0  0  0  0  0  0  0  0
    1.9959   -0.5160    1.2462 O   0  0  0  0  0  1  0  0  0  0  0  0
    1.0529    1.8116    0.3209 H   0  0  0  0  0  0  0  0  0  0  0  0
   -0.5487    1.9675   -0.4400 H   0  0  0  0  0  0  0  0  0  0  0  0
   -0.4205    1.6233    1.3017 H   0  0  0  0  0  0  0  0  0  0  0  0
   -1.7555    0.0212    2.0567 H   0  0  0  0  0  0  0  0  0  0  0  0
   -4.0719   -0.8052    2.0744 H   0  0  0  0  0  0  0  0  0  0  0  0
   -3.6273   -2.0802   -1.9967 H   0  0  0  0  0  0  0  0  0  0  0  0
   -1.3162   -1.2387   -1.9959 H   0  0  0  0  0  0  0  0  0  0  0  0
   -7.9977   -3.0745   -0.6331 H   0  0  0  0  0  0  0  0  0  0  0  0
   -8.3367   -4.3144   -2.7713 H   0  0  0  0  0  0  0  0  0  0  0  0
   -6.2911   -4.5751   -4.3037 H   0  0  0  0  0  0  0  0  0  0  0  0
  1  2  1  0  0  0  0
  1 20  1  0  0  0  0
  1 21  1  0  0  0  0
  1 22  1  0  0  0  0
  2  3  1  6  0  0  0
  2  4  1  0  0  0  0
  2 17  1  0  0  0  0
  4  9  2  0  0  0  0
  4  5  1  0  0  0  0
  5  6  2  0  0  0  0
  5 23  1  0  0  0  0
  6  7  1  0  0  0  0
  6 24  1  0  0  0  0
  7  8  2  0  0  0  0
  7 10  1  0  0  0  0
  8  9  1  0  0  0  0
  8 25  1  0  0  0  0
  9 26  1  0  0  0  0
 10 11  2  0  0  0  0
 10 12  1  0  0  0  0
 12 16  1  0  0  0  0
 12 13  2  0  0  0  0
 13 14  1  0  0  0  0
 13 27  1  0  0  0  0
 14 15  2  0  0  0  0
 14 28  1  0  0  0  0
 15 16  1  0  0  0  0
 15 29  1  0  0  0  0
 17 18  2  0  0  0  0
 17 19  1  0  0  0  0
M  END
$$$$
