ZINC11616580
 OpenBabel08292219463D

 47 49  0  0  1  0  0  0  0  0999 V2000
    1.1709    2.0855    0.0021 C   0  0  0  0  0  0  0  0  0  0  0  0
   -0.0167    1.3781    0.0096 C   0  0  0  0  0  0  0  0  0  0  0  0
    0.0021   -0.0041    0.0020 C   0  0  0  0  0  0  0  0  0  0  0  0
    1.2084   -0.6789   -0.0132 C   0  0  0  0  0  0  0  0  0  0  0  0
    2.3961    0.0285   -0.0212 C   0  0  0  0  0  0  0  0  0  0  0  0
    2.3773    1.4107   -0.0145 C   0  0  0  0  0  0  0  0  0  0  0  0
    1.2289   -2.1857   -0.0205 C   0  0  0  0  0  0  0  0  0  0  0  0
    1.2214   -2.6889   -1.4653 C   0  0  2  0  0  0  0  0  0  0  0  0
    0.3685   -2.2632   -1.9939 H   0  0  0  0  0  0  0  0  0  0  0  0
    1.1164   -4.2153   -1.4733 C   0  0  0  0  0  0  0  0  0  0  0  0
    0.9854   -4.7024   -2.8934 C   0  0  0  0  0  0  0  0  0  0  0  0
    0.9770   -3.9070   -3.8089 O   0  0  0  0  0  0  0  0  0  0  0  0
    0.8778   -6.0219   -3.1460 N   0  0  0  0  0  0  0  0  0  0  0  0
    0.8799   -7.1047   -2.1310 C   0  0  0  0  0  0  0  0  0  0  0  0
    0.8118   -8.4089   -2.9186 C   0  0  1  0  0  0  0  0  0  0  0  0
    1.8123   -8.7442   -3.1914 H   0  0  0  0  0  0  0  0  0  0  0  0
    0.0499   -9.5627   -2.3084 C   0  0  0  0  0  0  0  0  0  0  0  0
    0.0834  -10.7284   -3.3114 C   0  0  0  0  0  0  0  0  0  0  0  0
   -0.4925  -10.3222   -4.6641 C   0  0  0  0  0  0  0  0  0  0  0  0
    0.2007   -9.0683   -5.2229 C   0  0  0  0  0  0  0  0  0  0  0  0
    0.0298   -7.9681   -4.1924 C   0  0  2  0  0  0  0  0  0  0  0  0
   -1.0245   -7.8030   -3.9705 H   0  0  0  0  0  0  0  0  0  0  0  0
    0.7428   -6.6438   -4.4904 C   0  0  0  0  0  0  0  0  0  0  0  0
    2.4968   -2.2696   -2.1499 C   0  0  0  0  0  0  0  0  0  0  0  0
    3.3266   -1.6335   -1.5442 O   0  0  0  0  0  0  0  0  0  0  0  0
    1.1563    3.1654    0.0077 H   0  0  0  0  0  0  0  0  0  0  0  0
   -0.9592    1.9054    0.0170 H   0  0  0  0  0  0  0  0  0  0  0  0
   -0.9258   -0.5567    0.0083 H   0  0  0  0  0  0  0  0  0  0  0  0
    3.3386   -0.4987   -0.0324 H   0  0  0  0  0  0  0  0  0  0  0  0
    3.3052    1.9634   -0.0205 H   0  0  0  0  0  0  0  0  0  0  0  0
    2.1288   -2.5393    0.4828 H   0  0  0  0  0  0  0  0  0  0  0  0
    0.3491   -2.5635    0.5004 H   0  0  0  0  0  0  0  0  0  0  0  0
    2.0122   -4.6434   -1.0235 H   0  0  0  0  0  0  0  0  0  0  0  0
    0.2405   -4.5222   -0.9017 H   0  0  0  0  0  0  0  0  0  0  0  0
    1.7960   -7.0663   -1.5415 H   0  0  0  0  0  0  0  0  0  0  0  0
    0.0094   -7.0135   -1.4814 H   0  0  0  0  0  0  0  0  0  0  0  0
   -0.9809   -9.2583   -2.1267 H   0  0  0  0  0  0  0  0  0  0  0  0
    0.5184   -9.8648   -1.3718 H   0  0  0  0  0  0  0  0  0  0  0  0
   -0.4989  -11.5586   -2.9116 H   0  0  0  0  0  0  0  0  0  0  0  0
    1.1158  -11.0507   -3.4465 H   0  0  0  0  0  0  0  0  0  0  0  0
   -1.5574  -10.1191   -4.5508 H   0  0  0  0  0  0  0  0  0  0  0  0
   -0.3615  -11.1443   -5.3677 H   0  0  0  0  0  0  0  0  0  0  0  0
   -0.2663   -8.7731   -6.1625 H   0  0  0  0  0  0  0  0  0  0  0  0
    1.2605   -9.2687   -5.3803 H   0  0  0  0  0  0  0  0  0  0  0  0
    0.1354   -6.0184   -5.1446 H   0  0  0  0  0  0  0  0  0  0  0  0
    1.7231   -6.8224   -4.9321 H   0  0  0  0  0  0  0  0  0  0  0  0
    2.7110   -2.6026   -3.4324 O   0  0  0  0  0  1  0  0  0  0  0  0
  1  6  2  0  0  0  0
  1  2  1  0  0  0  0
  1 26  1  0  0  0  0
  2  3  2  0  0  0  0
  2 27  1  0  0  0  0
  3  4  1  0  0  0  0
  3 28  1  0  0  0  0
  4  5  2  0  0  0  0
  4  7  1  0  0  0  0
  5  6  1  0  0  0  0
  5 29  1  0  0  0  0
  6 30  1  0  0  0  0
  7  8  1  0  0  0  0
  7 31  1  0  0  0  0
  7 32  1  0  0  0  0
  8  9  1  6  0  0  0
  8 10  1  0  0  0  0
  8 24  1  0  0  0  0
 10 11  1  0  0  0  0
 10 33  1  0  0  0  0
 10 34  1  0  0  0  0
 11 12  2  0  0  0  0
 11 13  1  0  0  0  0
 13 23  1  0  0  0  0
 13 14  1  0  0  0  0
 14 15  1  0  0  0  0
 14 35  1  0  0  0  0
 14 36  1  0  0  0  0
 15 16  1  6  0  0  0
 15 21  1  0  0  0  0
 15 17  1  0  0  0  0
 17 18  1  0  0  0  0
 17 37  1  0  0  0  0
 17 38  1  0  0  0  0
 18 19  1  0  0  0  0
 18 39  1  0  0  0  0
 18 40  1  0  0  0  0
 19 20  1  0  0  0  0
 19 41  1  0  0  0  0
 19 42  1  0  0  0  0
 20 21  1  0  0  0  0
 20 43  1  0  0  0  0
 20 44  1  0  0  0  0
 21 22  1  1  0  0  0
 21 23  1  0  0  0  0
 23 45  1  0  0  0  0
 23 46  1  0  0  0  0
 24 25  2  0  0  0  0
 24 47  1  0  0  0  0
M  END
$$$$
