ZINC01530618
 OpenBabel08292219463D

 55 56  0  0  1  0  0  0  0  0999 V2000
    0.4688   -0.3734   -0.8375 C   0  0  0  0  0  0  0  0  0  0  0  0
   -0.4724   -1.3183   -0.0876 C   0  0  0  0  0  0  0  0  0  0  0  0
    0.2078   -1.8047    1.1937 C   0  0  0  0  0  0  0  0  0  0  0  0
   -1.7104   -0.6058    0.2554 N   0  3  0  0  0  0  0  0  0  0  0  0
   -2.3461   -0.1097   -0.9725 C   0  0  0  0  0  0  0  0  0  0  0  0
   -3.5641    0.7416   -0.6081 C   0  0  0  0  0  0  0  0  0  0  0  0
   -4.2527    1.2206   -1.8877 C   0  0  2  0  0  0  0  0  0  0  0  0
   -5.4303    2.0899   -1.5291 C   0  0  0  0  0  0  0  0  0  0  0  0
   -5.6882    2.3927   -0.2053 C   0  0  0  0  0  0  0  0  0  0  0  0
   -6.7684    3.1901    0.1236 C   0  0  0  0  0  0  0  0  0  0  0  0
   -7.5905    3.6850   -0.8714 C   0  0  0  0  0  0  0  0  0  0  0  0
   -7.3321    3.3829   -2.1954 C   0  0  0  0  0  0  0  0  0  0  0  0
   -6.2494    2.5891   -2.5246 C   0  0  0  0  0  0  0  0  0  0  0  0
   -4.7298    0.0292   -2.6776 C   0  0  0  0  0  0  0  0  0  0  0  0
   -5.8578   -0.6559   -2.2663 C   0  0  0  0  0  0  0  0  0  0  0  0
   -6.2883   -1.7505   -3.0000 C   0  0  0  0  0  0  0  0  0  0  0  0
   -5.5649   -2.1168   -4.1250 C   0  0  0  0  0  0  0  0  0  0  0  0
   -4.4470   -1.3838   -4.4749 C   0  0  0  0  0  0  0  0  0  0  0  0
   -4.0696   -0.3445   -3.7560 N   0  0  0  0  0  0  0  0  0  0  0  0
   -3.2762    2.0145   -2.7167 C   0  0  0  0  0  0  0  0  0  0  0  0
   -2.9954    1.6489   -3.8384 O   0  0  0  0  0  0  0  0  0  0  0  0
   -2.7150    3.1309   -2.2115 N   0  0  0  0  0  0  0  0  0  0  0  0
   -2.6276   -1.5223    0.9458 C   0  0  0  0  0  0  0  0  0  0  0  0
   -2.4982   -2.9229    0.3436 C   0  0  0  0  0  0  0  0  0  0  0  0
   -2.2747   -1.5723    2.4336 C   0  0  0  0  0  0  0  0  0  0  0  0
    1.3874   -0.9021   -1.0920 H   0  0  0  0  0  0  0  0  0  0  0  0
   -0.0158   -0.0269   -1.7503 H   0  0  0  0  0  0  0  0  0  0  0  0
    0.7052    0.4819   -0.2045 H   0  0  0  0  0  0  0  0  0  0  0  0
   -0.7088   -2.1735   -0.7206 H   0  0  0  0  0  0  0  0  0  0  0  0
    0.3060   -0.9728    1.8912 H   0  0  0  0  0  0  0  0  0  0  0  0
   -0.3943   -2.5912    1.6486 H   0  0  0  0  0  0  0  0  0  0  0  0
    1.1963   -2.1965    0.9541 H   0  0  0  0  0  0  0  0  0  0  0  0
   -1.6331    0.4966   -1.5313 H   0  0  0  0  0  0  0  0  0  0  0  0
   -2.6630   -0.9543   -1.5843 H   0  0  0  0  0  0  0  0  0  0  0  0
   -4.2622    0.1446   -0.0214 H   0  0  0  0  0  0  0  0  0  0  0  0
   -3.2430    1.6038   -0.0237 H   0  0  0  0  0  0  0  0  0  0  0  0
   -5.0459    2.0060    0.5721 H   0  0  0  0  0  0  0  0  0  0  0  0
   -6.9703    3.4261    1.1580 H   0  0  0  0  0  0  0  0  0  0  0  0
   -8.4349    4.3074   -0.6144 H   0  0  0  0  0  0  0  0  0  0  0  0
   -7.9746    3.7693   -2.9727 H   0  0  0  0  0  0  0  0  0  0  0  0
   -6.0453    2.3561   -3.5592 H   0  0  0  0  0  0  0  0  0  0  0  0
   -6.3966   -0.3425   -1.3843 H   0  0  0  0  0  0  0  0  0  0  0  0
   -7.1659   -2.3050   -2.7023 H   0  0  0  0  0  0  0  0  0  0  0  0
   -5.8713   -2.9645   -4.7199 H   0  0  0  0  0  0  0  0  0  0  0  0
   -3.8783   -1.6627   -5.3496 H   0  0  0  0  0  0  0  0  0  0  0  0
   -2.9396    3.4233   -1.3143 H   0  0  0  0  0  0  0  0  0  0  0  0
   -2.0865    3.6419   -2.7450 H   0  0  0  0  0  0  0  0  0  0  0  0
   -3.6519   -1.1690    0.8270 H   0  0  0  0  0  0  0  0  0  0  0  0
   -1.5093   -3.3239    0.5657 H   0  0  0  0  0  0  0  0  0  0  0  0
   -3.2594   -3.5746    0.7725 H   0  0  0  0  0  0  0  0  0  0  0  0
   -2.6337   -2.8679   -0.7366 H   0  0  0  0  0  0  0  0  0  0  0  0
   -2.6995   -0.7040    2.9372 H   0  0  0  0  0  0  0  0  0  0  0  0
   -2.6821   -2.4827    2.8733 H   0  0  0  0  0  0  0  0  0  0  0  0
   -1.1909   -1.5659    2.5504 H   0  0  0  0  0  0  0  0  0  0  0  0
   -1.4941    0.1724    0.8602 H   0  0  0  0  0  0  0  0  0  0  0  0
  1  2  1  0  0  0  0
  1 26  1  0  0  0  0
  1 27  1  0  0  0  0
  1 28  1  0  0  0  0
  2  3  1  0  0  0  0
  2  4  1  0  0  0  0
  2 29  1  0  0  0  0
  3 30  1  0  0  0  0
  3 31  1  0  0  0  0
  3 32  1  0  0  0  0
  4  5  1  0  0  0  0
  4 23  1  0  0  0  0
  4 55  1  0  0  0  0
  5  6  1  0  0  0  0
  5 33  1  0  0  0  0
  5 34  1  0  0  0  0
  6  7  1  0  0  0  0
  6 35  1  0  0  0  0
  6 36  1  0  0  0  0
  7  8  1  0  0  0  0
  7 14  1  0  0  0  0
  7 20  1  6  0  0  0
  8 13  2  0  0  0  0
  8  9  1  0  0  0  0
  9 10  2  0  0  0  0
  9 37  1  0  0  0  0
 10 11  1  0  0  0  0
 10 38  1  0  0  0  0
 11 12  2  0  0  0  0
 11 39  1  0  0  0  0
 12 13  1  0  0  0  0
 12 40  1  0  0  0  0
 13 41  1  0  0  0  0
 14 19  2  0  0  0  0
 14 15  1  0  0  0  0
 15 16  2  0  0  0  0
 15 42  1  0  0  0  0
 16 17  1  0  0  0  0
 16 43  1  0  0  0  0
 17 18  2  0  0  0  0
 17 44  1  0  0  0  0
 18 19  1  0  0  0  0
 18 45  1  0  0  0  0
 20 21  2  0  0  0  0
 20 22  1  0  0  0  0
 22 46  1  0  0  0  0
 22 47  1  0  0  0  0
 23 24  1  0  0  0  0
 23 25  1  0  0  0  0
 23 48  1  0  0  0  0
 24 49  1  0  0  0  0
 24 50  1  0  0  0  0
 24 51  1  0  0  0  0
 25 52  1  0  0  0  0
 25 53  1  0  0  0  0
 25 54  1  0  0  0  0
M  CHG  1   4   1
M  END
$$$$
