ZINC01698105
 OpenBabel08292219463D

 54 57  0  0  0  0  0  0  0  0999 V2000
   -3.2091   -1.8812    0.3428 C   0  0  0  0  0  0  0  0  0  0  0  0
   -4.4361   -1.5010   -0.1681 C   0  0  0  0  0  0  0  0  0  0  0  0
   -4.6275   -0.2056   -0.6099 C   0  0  0  0  0  0  0  0  0  0  0  0
   -3.5900    0.7144   -0.5418 C   0  0  0  0  0  0  0  0  0  0  0  0
   -2.3519    0.3348   -0.0320 C   0  0  0  0  0  0  0  0  0  0  0  0
   -2.1722   -0.9714    0.4119 C   0  0  0  0  0  0  0  0  0  0  0  0
   -1.2811    1.2247    0.0466 N   0  0  0  0  0  0  0  0  0  0  0  0
   -1.3964    2.6080    0.1040 C   0  0  0  0  0  0  0  0  0  0  0  0
   -2.5199    3.2693   -0.3934 C   0  0  0  0  0  0  0  0  0  0  0  0
   -2.5861    4.6549   -0.3257 C   0  0  0  0  0  0  0  0  0  0  0  0
   -1.5202    5.3408    0.2551 C   0  0  0  0  0  0  0  0  0  0  0  0
   -0.4391    4.6238    0.7260 C   0  0  0  0  0  0  0  0  0  0  0  0
   -0.4039    3.3086    0.6416 N   0  0  0  0  0  0  0  0  0  0  0  0
   -3.8543    2.3645   -1.0996 S   0  0  0  0  0  0  0  0  0  0  0  0
   -0.0390    0.7023    0.0746 C   0  0  0  0  0  0  0  0  0  0  0  0
    0.1131   -0.5034    0.0815 O   0  0  0  0  0  0  0  0  0  0  0  0
    1.0337    1.5164    0.0894 O   0  0  0  0  0  0  0  0  0  0  0  0
    2.3407    0.8844    0.1132 C   0  0  0  0  0  0  0  0  0  0  0  0
    3.4277    1.9610    0.1273 C   0  0  0  0  0  0  0  0  0  0  0  0
    3.3453    2.7051    1.3444 O   0  0  0  0  0  0  0  0  0  0  0  0
    4.3222    3.7418    1.4591 C   0  0  0  0  0  0  0  0  0  0  0  0
    4.1408    4.4682    2.7934 C   0  0  0  0  0  0  0  0  0  0  0  0
    3.8389    4.0202    5.1532 C   0  0  0  0  0  0  0  0  0  0  0  0
    4.0380    2.9663    6.2449 C   0  0  0  0  0  0  0  0  0  0  0  0
    5.5358    2.7094    6.4325 C   0  0  0  0  0  0  0  0  0  0  0  0
    6.1398    2.2616    5.0986 C   0  0  0  0  0  0  0  0  0  0  0  0
    5.8798    3.3359    4.0402 C   0  0  0  0  0  0  0  0  0  0  0  0
   -3.0609   -2.8932    0.6895 H   0  0  0  0  0  0  0  0  0  0  0  0
   -5.2441   -2.2156   -0.2223 H   0  0  0  0  0  0  0  0  0  0  0  0
   -5.5860    0.0916   -1.0092 H   0  0  0  0  0  0  0  0  0  0  0  0
   -1.2165   -1.2757    0.8124 H   0  0  0  0  0  0  0  0  0  0  0  0
   -3.4472    5.1860   -0.7036 H   0  0  0  0  0  0  0  0  0  0  0  0
   -1.5372    6.4182    0.3282 H   0  0  0  0  0  0  0  0  0  0  0  0
    0.3925    5.1493    1.1718 H   0  0  0  0  0  0  0  0  0  0  0  0
    2.4293    0.2668    1.0070 H   0  0  0  0  0  0  0  0  0  0  0  0
    2.4587    0.2604   -0.7727 H   0  0  0  0  0  0  0  0  0  0  0  0
    4.4075    1.4890    0.0556 H   0  0  0  0  0  0  0  0  0  0  0  0
    3.2850    2.6324   -0.7194 H   0  0  0  0  0  0  0  0  0  0  0  0
    5.3206    3.3067    1.4150 H   0  0  0  0  0  0  0  0  0  0  0  0
    4.1981    4.4502    0.6400 H   0  0  0  0  0  0  0  0  0  0  0  0
    4.8222    5.3176    2.8403 H   0  0  0  0  0  0  0  0  0  0  0  0
    3.1132    4.8216    2.8779 H   0  0  0  0  0  0  0  0  0  0  0  0
    4.3215    4.9502    5.4539 H   0  0  0  0  0  0  0  0  0  0  0  0
    2.7730    4.1950    5.0072 H   0  0  0  0  0  0  0  0  0  0  0  0
    3.5439    2.0402    5.9511 H   0  0  0  0  0  0  0  0  0  0  0  0
    3.6104    3.3258    7.1808 H   0  0  0  0  0  0  0  0  0  0  0  0
    5.6807    1.9281    7.1785 H   0  0  0  0  0  0  0  0  0  0  0  0
    6.0246    3.6253    6.7645 H   0  0  0  0  0  0  0  0  0  0  0  0
    5.6788    1.3244    4.7867 H   0  0  0  0  0  0  0  0  0  0  0  0
    7.2140    2.1183    5.2154 H   0  0  0  0  0  0  0  0  0  0  0  0
    6.2962    3.0137    3.0857 H   0  0  0  0  0  0  0  0  0  0  0  0
    6.3527    4.2690    4.3462 H   0  0  0  0  0  0  0  0  0  0  0  0
    4.4203    3.5183    3.8901 N   0  3  0  0  0  0  0  0  0  0  0  0
    3.9930    2.6126    3.6636 H   0  0  0  0  0  0  0  0  0  0  0  0
  1  6  2  0  0  0  0
  1  2  1  0  0  0  0
  1 28  1  0  0  0  0
  2  3  2  0  0  0  0
  2 29  1  0  0  0  0
  3  4  1  0  0  0  0
  3 30  1  0  0  0  0
  4 14  1  0  0  0  0
  4  5  2  0  0  0  0
  5  6  1  0  0  0  0
  5  7  1  0  0  0  0
  6 31  1  0  0  0  0
  7  8  1  0  0  0  0
  7 15  1  0  0  0  0
  8 13  2  0  0  0  0
  8  9  1  0  0  0  0
  9 10  2  0  0  0  0
  9 14  1  0  0  0  0
 10 11  1  0  0  0  0
 10 32  1  0  0  0  0
 11 12  2  0  0  0  0
 11 33  1  0  0  0  0
 12 13  1  0  0  0  0
 12 34  1  0  0  0  0
 15 16  2  0  0  0  0
 15 17  1  0  0  0  0
 17 18  1  0  0  0  0
 18 19  1  0  0  0  0
 18 35  1  0  0  0  0
 18 36  1  0  0  0  0
 19 20  1  0  0  0  0
 19 37  1  0  0  0  0
 19 38  1  0  0  0  0
 20 21  1  0  0  0  0
 21 22  1  0  0  0  0
 21 39  1  0  0  0  0
 21 40  1  0  0  0  0
 22 41  1  0  0  0  0
 22 42  1  0  0  0  0
 22 53  1  0  0  0  0
 23 24  1  0  0  0  0
 23 43  1  0  0  0  0
 23 44  1  0  0  0  0
 23 53  1  0  0  0  0
 24 25  1  0  0  0  0
 24 45  1  0  0  0  0
 24 46  1  0  0  0  0
 25 26  1  0  0  0  0
 25 47  1  0  0  0  0
 25 48  1  0  0  0  0
 26 27  1  0  0  0  0
 26 49  1  0  0  0  0
 26 50  1  0  0  0  0
 27 51  1  0  0  0  0
 27 52  1  0  0  0  0
 27 53  1  0  0  0  0
 53 54  1  0  0  0  0
M  CHG  1  53   1
M  END
$$$$
