ZINC00004448
 OpenBabel08292219463D

 42 45  0  0  1  0  0  0  0  0999 V2000
   -0.4391   -3.3377    1.8722 C   0  0  0  0  0  0  0  0  0  0  0  0
   -0.1697   -2.2466    0.8683 C   0  0  0  0  0  0  0  0  0  0  0  0
   -0.0089   -2.4170   -0.4155 N   0  0  0  0  0  4  0  0  0  0  0  0
    0.2118   -1.2278   -0.9953 C   0  0  0  0  0  0  0  0  0  0  0  0
    0.1869   -0.2847   -0.0343 C   0  0  0  0  0  0  0  0  0  0  0  0
   -0.0604   -0.9298    1.1473 N   0  0  0  0  0  0  0  0  0  0  0  0
   -0.1811   -0.3082    2.4684 C   0  0  0  0  0  0  0  0  0  0  0  0
   -1.6568   -0.2375    2.8660 C   0  0  1  0  0  0  0  0  0  0  0  0
   -2.1022   -1.2287    2.7806 H   0  0  0  0  0  0  0  0  0  0  0  0
   -1.7700    0.2464    4.3115 C   0  0  0  0  0  0  0  0  0  0  0  0
   -3.2416    0.3294    4.7350 C   0  0  0  0  0  0  0  0  0  0  0  0
   -3.9618    1.2252    3.7555 C   0  0  0  0  0  0  0  0  0  0  0  0
   -3.5215    1.3875    2.4463 C   0  0  0  0  0  0  0  0  0  0  0  0
   -4.4444    2.3149    1.8134 C   0  0  0  0  0  0  0  0  0  0  0  0
   -4.5189    2.8565    0.5307 C   0  0  0  0  0  0  0  0  0  0  0  0
   -5.5626    3.7304    0.2795 C   0  0  0  0  0  0  0  0  0  0  0  0
   -6.4928    4.0558    1.2516 C   0  0  0  0  0  0  0  0  0  0  0  0
   -6.4370    3.5295    2.5307 C   0  0  0  0  0  0  0  0  0  0  0  0
   -5.3960    2.6468    2.8098 C   0  0  0  0  0  0  0  0  0  0  0  0
   -5.0642    1.9669    3.9526 N   0  0  0  0  0  0  0  0  0  0  0  0
   -5.8081    2.0387    5.2127 C   0  0  0  0  0  0  0  0  0  0  0  0
   -2.3800    0.7188    1.9432 C   0  0  0  0  0  0  0  0  0  0  0  0
   -1.9955    0.9054    0.8069 O   0  0  0  0  0  0  0  0  0  0  0  0
   -1.5134   -3.4249    2.0346 H   0  0  0  0  0  0  0  0  0  0  0  0
   -0.0509   -4.2834    1.4940 H   0  0  0  0  0  0  0  0  0  0  0  0
    0.0521   -3.0941    2.8143 H   0  0  0  0  0  0  0  0  0  0  0  0
    0.3800   -1.0566   -2.0483 H   0  0  0  0  0  0  0  0  0  0  0  0
    0.3302    0.7771   -0.1704 H   0  0  0  0  0  0  0  0  0  0  0  0
    0.3645   -0.9030    3.2010 H   0  0  0  0  0  0  0  0  0  0  0  0
    0.2350    0.6987    2.4355 H   0  0  0  0  0  0  0  0  0  0  0  0
   -1.2451   -0.4489    4.9665 H   0  0  0  0  0  0  0  0  0  0  0  0
   -1.3139    1.2326    4.3982 H   0  0  0  0  0  0  0  0  0  0  0  0
   -3.6859   -0.6659    4.7191 H   0  0  0  0  0  0  0  0  0  0  0  0
   -3.3127    0.7488    5.7386 H   0  0  0  0  0  0  0  0  0  0  0  0
   -3.7956    2.6061   -0.2312 H   0  0  0  0  0  0  0  0  0  0  0  0
   -5.6535    4.1710   -0.7023 H   0  0  0  0  0  0  0  0  0  0  0  0
   -7.2882    4.7431    1.0040 H   0  0  0  0  0  0  0  0  0  0  0  0
   -7.1689    3.7920    3.2802 H   0  0  0  0  0  0  0  0  0  0  0  0
   -5.4075    2.8462    5.8256 H   0  0  0  0  0  0  0  0  0  0  0  0
   -6.8605    2.2295    5.0030 H   0  0  0  0  0  0  0  0  0  0  0  0
   -5.7096    1.0938    5.7471 H   0  0  0  0  0  0  0  0  0  0  0  0
   -0.0436   -3.2691   -0.8775 H   0  0  0  0  0  0  0  0  0  0  0  0
  1  2  1  0  0  0  0
  1 24  1  0  0  0  0
  1 25  1  0  0  0  0
  1 26  1  0  0  0  0
  2  6  1  0  0  0  0
  2  3  2  0  0  0  0
  3  4  1  0  0  0  0
  3 42  1  0  0  0  0
  4  5  2  0  0  0  0
  4 27  1  0  0  0  0
  5  6  1  0  0  0  0
  5 28  1  0  0  0  0
  6  7  1  0  0  0  0
  7  8  1  0  0  0  0
  7 29  1  0  0  0  0
  7 30  1  0  0  0  0
  8  9  1  6  0  0  0
  8 22  1  0  0  0  0
  8 10  1  0  0  0  0
 10 11  1  0  0  0  0
 10 31  1  0  0  0  0
 10 32  1  0  0  0  0
 11 12  1  0  0  0  0
 11 33  1  0  0  0  0
 11 34  1  0  0  0  0
 12 20  1  0  0  0  0
 12 13  2  0  0  0  0
 13 14  1  0  0  0  0
 13 22  1  0  0  0  0
 14 19  2  0  0  0  0
 14 15  1  0  0  0  0
 15 16  2  0  0  0  0
 15 35  1  0  0  0  0
 16 17  1  0  0  0  0
 16 36  1  0  0  0  0
 17 18  2  0  0  0  0
 17 37  1  0  0  0  0
 18 19  1  0  0  0  0
 18 38  1  0  0  0  0
 19 20  1  0  0  0  0
 20 21  1  0  0  0  0
 21 39  1  0  0  0  0
 21 40  1  0  0  0  0
 21 41  1  0  0  0  0
 22 23  2  0  0  0  0
M  END
$$$$
