ZINC00001916
 OpenBabel08292219463D

 23 23  0  0  0  0  0  0  0  0999 V2000
   -0.0167    1.3781    0.0096 C   0  0  0  0  0  0  0  0  0  0  0  0
    1.1709    2.0855    0.0021 C   0  0  0  0  0  0  0  0  0  0  0  0
    2.3773    1.4107   -0.0130 C   0  0  0  0  0  0  0  0  0  0  0  0
    2.3960    0.0285   -0.0201 C   0  0  0  0  0  0  0  0  0  0  0  0
    1.2084   -0.6789   -0.0117 C   0  0  0  0  0  0  0  0  0  0  0  0
    0.0021   -0.0041    0.0020 C   0  0  0  0  0  0  0  0  0  0  0  0
    3.7112   -0.7071   -0.0376 C   0  0  0  0  0  0  0  0  0  0  0  0
    4.1644   -0.9594    1.3773 C   0  0  0  0  0  0  0  0  0  0  0  0
    3.4866   -0.5795    2.3079 O   0  0  0  0  0  0  0  0  0  0  0  0
    5.3234   -1.6075    1.6082 N   0  0  0  0  0  0  0  0  0  0  0  0
    5.7288   -1.8331    2.8736 C   0  0  0  0  0  0  0  0  0  0  0  0
    5.0492   -1.4522    3.8065 O   0  0  0  0  0  0  0  0  0  0  0  0
    6.8877   -2.4812    3.1045 N   0  0  0  0  0  0  0  0  0  0  0  0
   -0.9591    1.9053    0.0259 H   0  0  0  0  0  0  0  0  0  0  0  0
    1.1563    3.1654    0.0076 H   0  0  0  0  0  0  0  0  0  0  0  0
    3.3051    1.9634   -0.0196 H   0  0  0  0  0  0  0  0  0  0  0  0
    1.2231   -1.7588   -0.0176 H   0  0  0  0  0  0  0  0  0  0  0  0
   -0.9258   -0.5567    0.0082 H   0  0  0  0  0  0  0  0  0  0  0  0
    3.5884   -1.6586   -0.5549 H   0  0  0  0  0  0  0  0  0  0  0  0
    4.4573   -0.1052   -0.5563 H   0  0  0  0  0  0  0  0  0  0  0  0
    5.8657   -1.9115    0.8637 H   0  0  0  0  0  0  0  0  0  0  0  0
    7.4301   -2.7852    2.3600 H   0  0  0  0  0  0  0  0  0  0  0  0
    7.1795   -2.6436    4.0153 H   0  0  0  0  0  0  0  0  0  0  0  0
  1  6  2  0  0  0  0
  1  2  1  0  0  0  0
  1 14  1  0  0  0  0
  2  3  2  0  0  0  0
  2 15  1  0  0  0  0
  3  4  1  0  0  0  0
  3 16  1  0  0  0  0
  4  5  2  0  0  0  0
  4  7  1  0  0  0  0
  5  6  1  0  0  0  0
  5 17  1  0  0  0  0
  6 18  1  0  0  0  0
  7  8  1  0  0  0  0
  7 19  1  0  0  0  0
  7 20  1  0  0  0  0
  8  9  2  0  0  0  0
  8 10  1  0  0  0  0
 10 11  1  0  0  0  0
 10 21  1  0  0  0  0
 11 12  2  0  0  0  0
 11 13  1  0  0  0  0
 13 22  1  0  0  0  0
 13 23  1  0  0  0  0
M  END
$$$$
