ZINC00608101
 OpenBabel08292219463D

 37 39  0  0  1  0  0  0  0  0999 V2000
   -0.0167    1.3792    0.0096 C   0  0  0  0  0  0  0  0  0  0  0  0
    1.1708    2.0869    0.0021 C   0  0  0  0  0  0  0  0  0  0  0  0
    2.3773    1.4131   -0.0135 C   0  0  0  0  0  0  0  0  0  0  0  0
    2.3974    0.0294   -0.0212 C   0  0  0  0  0  0  0  0  0  0  0  0
    1.2096   -0.6792   -0.0132 C   0  0  0  0  0  0  0  0  0  0  0  0
    0.0021   -0.0041    0.0020 C   0  0  0  0  0  0  0  0  0  0  0  0
   -1.4893   -0.8926    0.0121 Cl  0  0  0  0  0  0  0  0  0  0  0  0
    3.9130   -0.8168   -0.0414 Cl  0  0  0  0  0  0  0  0  0  0  0  0
    3.6714    2.1853   -0.0227 C   0  0  1  0  0  0  0  0  0  0  0  0
    4.4207    1.6456    0.5564 H   0  0  0  0  0  0  0  0  0  0  0  0
    4.1592    2.3459   -1.4640 C   0  0  0  0  0  0  0  0  0  0  0  0
    5.4746    2.9910   -1.4653 N   0  0  0  0  0  0  0  0  0  0  0  0
    5.7191    4.3369   -1.5139 C   0  0  0  0  0  0  0  0  0  0  0  0
    7.0569    4.4907   -1.4946 C   0  0  0  0  0  0  0  0  0  0  0  0
    7.6139    3.2720   -1.4358 N   0  0  0  0  0  4  0  0  0  0  0  0
    6.6721    2.3690   -1.4129 C   0  0  0  0  0  0  0  0  0  0  0  0
    3.4606    3.4751    0.5553 O   0  0  0  0  0  0  0  0  0  0  0  0
    4.6108    4.0135    1.2103 C   0  0  0  0  0  0  0  0  0  0  0  0
    4.2765    5.3681    1.7798 C   0  0  0  0  0  0  0  0  0  0  0  0
    3.0088    5.8995    1.6296 C   0  0  0  0  0  0  0  0  0  0  0  0
    2.7412    7.1199    2.1542 C   0  0  0  0  0  0  0  0  0  0  0  0
    4.3079    7.5582    2.8894 S   0  0  0  0  0  0  0  0  0  0  0  0
    5.2130    6.0827    2.4525 C   0  0  0  0  0  0  0  0  0  0  0  0
    6.8638    5.6705    2.7971 Cl  0  0  0  0  0  0  0  0  0  0  0  0
   -0.9592    1.9062    0.0260 H   0  0  0  0  0  0  0  0  0  0  0  0
    1.1557    3.1667    0.0080 H   0  0  0  0  0  0  0  0  0  0  0  0
    1.2248   -1.7590   -0.0191 H   0  0  0  0  0  0  0  0  0  0  0  0
    4.2350    1.3651   -1.9333 H   0  0  0  0  0  0  0  0  0  0  0  0
    3.4522    2.9613   -2.0204 H   0  0  0  0  0  0  0  0  0  0  0  0
    4.9812    5.1241   -1.5594 H   0  0  0  0  0  0  0  0  0  0  0  0
    7.5881    5.4307   -1.5217 H   0  0  0  0  0  0  0  0  0  0  0  0
    6.8251    1.3010   -1.3629 H   0  0  0  0  0  0  0  0  0  0  0  0
    4.9159    3.3458    2.0161 H   0  0  0  0  0  0  0  0  0  0  0  0
    5.4250    4.1120    0.4923 H   0  0  0  0  0  0  0  0  0  0  0  0
    2.2434    5.3501    1.1017 H   0  0  0  0  0  0  0  0  0  0  0  0
    1.8193    7.6820    2.1326 H   0  0  0  0  0  0  0  0  0  0  0  0
    8.5665    3.0907   -1.4106 H   0  0  0  0  0  0  0  0  0  0  0  0
  1  6  2  0  0  0  0
  1  2  1  0  0  0  0
  1 25  1  0  0  0  0
  2  3  2  0  0  0  0
  2 26  1  0  0  0  0
  3  4  1  0  0  0  0
  3  9  1  0  0  0  0
  4  5  2  0  0  0  0
  4  8  1  0  0  0  0
  5  6  1  0  0  0  0
  5 27  1  0  0  0  0
  6  7  1  0  0  0  0
  9 10  1  1  0  0  0
  9 11  1  0  0  0  0
  9 17  1  0  0  0  0
 11 12  1  0  0  0  0
 11 28  1  0  0  0  0
 11 29  1  0  0  0  0
 12 16  1  0  0  0  0
 12 13  1  0  0  0  0
 13 14  2  0  0  0  0
 13 30  1  0  0  0  0
 14 15  1  0  0  0  0
 14 31  1  0  0  0  0
 15 16  2  0  0  0  0
 15 37  1  0  0  0  0
 16 32  1  0  0  0  0
 17 18  1  0  0  0  0
 18 19  1  0  0  0  0
 18 33  1  0  0  0  0
 18 34  1  0  0  0  0
 19 23  2  0  0  0  0
 19 20  1  0  0  0  0
 20 21  2  0  0  0  0
 20 35  1  0  0  0  0
 21 22  1  0  0  0  0
 21 36  1  0  0  0  0
 22 23  1  0  0  0  0
 23 24  1  0  0  0  0
M  END
$$$$
