ZINC13540519
 OpenBabel08292219463D

 56 59  0  0  1  0  0  0  0  0999 V2000
    0.2967    1.7501    0.1712 C   0  0  0  0  0  0  0  0  0  0  0  0
    0.1675    0.2258    0.1445 C   0  0  2  0  0  0  0  0  0  0  0  0
   -1.3077   -0.0869    0.2058 C   0  0  0  0  0  0  0  0  0  0  0  0
   -1.5904   -1.4224    0.8930 C   0  0  0  0  0  0  0  0  0  0  0  0
   -0.9397   -1.3793    2.2627 C   0  0  0  0  0  0  0  0  0  0  0  0
   -1.5565   -1.6372    3.2752 O   0  0  0  0  0  0  0  0  0  0  0  0
    0.4818   -1.0073    2.2914 C   0  0  0  0  0  0  0  0  0  0  0  0
    0.9832   -0.2947    1.2864 C   0  0  0  0  0  0  0  0  0  0  0  0
    2.4740   -0.0014    1.2728 C   0  0  0  0  0  0  0  0  0  0  0  0
    3.0281   -0.4675   -0.0783 C   0  0  0  0  0  0  0  0  0  0  0  0
    2.2552    0.1993   -1.2162 C   0  0  2  0  0  0  0  0  0  0  0  0
    2.3175    1.2829   -1.1160 H   0  0  0  0  0  0  0  0  0  0  0  0
    0.7819   -0.2403   -1.1760 C   0  0  2  0  0  0  0  0  0  0  0  0
    0.7296   -1.3276   -1.2325 H   0  0  0  0  0  0  0  0  0  0  0  0
   -0.0092    0.3460   -2.3416 C   0  0  2  0  0  0  0  0  0  0  0  0
   -1.0204   -0.0606   -2.3254 H   0  0  0  0  0  0  0  0  0  0  0  0
    0.6429    0.0145   -3.6933 C   0  0  0  0  0  0  0  0  0  0  0  0
    2.0600    0.5538   -3.6529 C   0  0  1  0  0  0  0  0  0  0  0  0
    2.8321   -0.2237   -2.5548 C   0  0  1  0  0  0  0  0  0  0  0  0
    2.7038   -1.2963   -2.7003 H   0  0  0  0  0  0  0  0  0  0  0  0
    4.2819    0.1957   -2.8200 C   0  0  0  0  0  0  0  0  0  0  0  0
    4.3727    0.1711   -4.3702 C   0  0  0  0  0  0  0  0  0  0  0  0
    2.9089    0.3273   -4.8997 C   0  0  2  0  0  0  0  0  0  0  0  0
    2.8367    1.5293   -5.8058 C   0  0  0  0  0  0  0  0  0  0  0  0
    3.6584    2.4090   -5.7086 O   0  0  0  0  0  0  0  0  0  0  0  0
    1.7392    1.6336   -6.8332 C   0  0  0  0  0  0  0  0  0  0  0  0
    1.8843    2.8536   -7.5630 O   0  0  0  0  0  0  0  0  0  0  0  0
    2.4692   -0.8428   -5.5921 O   0  0  0  0  0  0  0  0  0  0  0  0
    2.0381    2.0433   -3.3040 C   0  0  0  0  0  0  0  0  0  0  0  0
   -0.0754    1.7657   -2.1930 O   0  0  0  0  0  0  0  0  0  0  0  0
    1.2651    2.0399   -0.2367 H   0  0  0  0  0  0  0  0  0  0  0  0
   -0.4977    2.1927   -0.4296 H   0  0  0  0  0  0  0  0  0  0  0  0
    0.2149    2.1038    1.1990 H   0  0  0  0  0  0  0  0  0  0  0  0
   -1.8145    0.7069    0.7544 H   0  0  0  0  0  0  0  0  0  0  0  0
   -1.7039   -0.1210   -0.8091 H   0  0  0  0  0  0  0  0  0  0  0  0
   -2.6661   -1.5636    0.9987 H   0  0  0  0  0  0  0  0  0  0  0  0
   -1.1654   -2.2373    0.3070 H   0  0  0  0  0  0  0  0  0  0  0  0
    1.1129   -1.3192    3.1104 H   0  0  0  0  0  0  0  0  0  0  0  0
    2.6410    1.0692    1.3912 H   0  0  0  0  0  0  0  0  0  0  0  0
    2.9647   -0.5443    2.0806 H   0  0  0  0  0  0  0  0  0  0  0  0
    4.0819   -0.1980   -0.1498 H   0  0  0  0  0  0  0  0  0  0  0  0
    2.9265   -1.5499   -0.1572 H   0  0  0  0  0  0  0  0  0  0  0  0
    0.6608   -1.0652   -3.8418 H   0  0  0  0  0  0  0  0  0  0  0  0
    0.0871    0.4918   -4.5004 H   0  0  0  0  0  0  0  0  0  0  0  0
    4.4690    1.1995   -2.4386 H   0  0  0  0  0  0  0  0  0  0  0  0
    4.9769   -0.5204   -2.3815 H   0  0  0  0  0  0  0  0  0  0  0  0
    5.0055    0.9864   -4.7209 H   0  0  0  0  0  0  0  0  0  0  0  0
    4.7734   -0.7852   -4.7063 H   0  0  0  0  0  0  0  0  0  0  0  0
    1.8030    0.7896   -7.5200 H   0  0  0  0  0  0  0  0  0  0  0  0
    0.7709    1.6225   -6.3329 H   0  0  0  0  0  0  0  0  0  0  0  0
    1.2102    2.9876   -8.2432 H   0  0  0  0  0  0  0  0  0  0  0  0
    2.9727   -1.0376   -6.3944 H   0  0  0  0  0  0  0  0  0  0  0  0
    1.7348    2.1686   -2.2646 H   0  0  0  0  0  0  0  0  0  0  0  0
    3.0336    2.4642   -3.4452 H   0  0  0  0  0  0  0  0  0  0  0  0
    1.3304    2.5583   -3.9536 H   0  0  0  0  0  0  0  0  0  0  0  0
   -0.5640    2.2126   -2.8977 H   0  0  0  0  0  0  0  0  0  0  0  0
  1 31  1  0  0  0  0
  1 32  1  0  0  0  0
  1 33  1  0  0  0  0
  2  1  1  1  0  0  0
  2  8  1  0  0  0  0
  2 13  1  0  0  0  0
  2  3  1  0  0  0  0
  3  4  1  0  0  0  0
  3 34  1  0  0  0  0
  3 35  1  0  0  0  0
  4  5  1  0  0  0  0
  4 36  1  0  0  0  0
  4 37  1  0  0  0  0
  5  6  2  0  0  0  0
  5  7  1  0  0  0  0
  7  8  2  0  0  0  0
  7 38  1  0  0  0  0
  8  9  1  0  0  0  0
  9 10  1  0  0  0  0
  9 39  1  0  0  0  0
  9 40  1  0  0  0  0
 10 11  1  0  0  0  0
 10 41  1  0  0  0  0
 10 42  1  0  0  0  0
 11 12  1  1  0  0  0
 11 19  1  0  0  0  0
 11 13  1  0  0  0  0
 13 14  1  6  0  0  0
 13 15  1  0  0  0  0
 15 16  1  1  0  0  0
 15 17  1  0  0  0  0
 15 30  1  0  0  0  0
 17 18  1  0  0  0  0
 17 43  1  0  0  0  0
 17 44  1  0  0  0  0
 18 23  1  0  0  0  0
 18 19  1  0  0  0  0
 18 29  1  1  0  0  0
 19 20  1  6  0  0  0
 19 21  1  0  0  0  0
 21 22  1  0  0  0  0
 21 45  1  0  0  0  0
 21 46  1  0  0  0  0
 22 23  1  0  0  0  0
 22 47  1  0  0  0  0
 22 48  1  0  0  0  0
 23 24  1  6  0  0  0
 23 28  1  0  0  0  0
 24 25  2  0  0  0  0
 24 26  1  0  0  0  0
 26 27  1  0  0  0  0
 26 49  1  0  0  0  0
 26 50  1  0  0  0  0
 27 51  1  0  0  0  0
 28 52  1  0  0  0  0
 29 53  1  0  0  0  0
 29 54  1  0  0  0  0
 29 55  1  0  0  0  0
 30 56  1  0  0  0  0
M  END
$$$$
