ZINC38141758
 OpenBabel08292219463D

 32 32  0  0  1  0  0  0  0  0999 V2000
   -0.0187    1.5258    0.0104 C   0  0  0  0  0  0  0  0  0  0  0  0
    0.0021   -0.0041    0.0020 C   0  0  2  0  0  0  0  0  0  0  0  0
    0.5123   -0.3556   -0.8948 H   0  0  0  0  0  0  0  0  0  0  0  0
   -1.4117   -0.5257    0.0127 C   0  0  0  0  0  0  0  0  0  0  0  0
   -2.2591   -0.2043    1.0565 C   0  0  0  0  0  0  0  0  0  0  0  0
   -3.5560   -0.6827    1.0663 C   0  0  0  0  0  0  0  0  0  0  0  0
   -4.0056   -1.4823    0.0321 C   0  0  0  0  0  0  0  0  0  0  0  0
   -3.1585   -1.8029   -1.0121 C   0  0  0  0  0  0  0  0  0  0  0  0
   -1.8629   -1.3209   -1.0241 C   0  0  0  0  0  0  0  0  0  0  0  0
   -5.4191   -2.0047    0.0433 C   0  0  0  0  0  0  0  0  0  0  0  0
   -6.3366   -1.0086   -0.6687 C   0  0  0  0  0  0  0  0  0  0  0  0
   -5.9482   -0.9236   -2.1461 C   0  0  0  0  0  0  0  0  0  0  0  0
   -7.7883   -1.4770   -0.5491 C   0  0  0  0  0  0  0  0  0  0  0  0
    0.7309   -0.5033    1.2229 C   0  0  0  0  0  0  0  0  0  0  0  0
    0.1557   -1.2165    2.0272 O   0  0  0  0  0  0  0  0  0  0  0  0
    1.8959   -0.1939    1.4064 O   0  0  0  0  0  1  0  0  0  0  0  0
    1.0039    1.9031    0.0027 H   0  0  0  0  0  0  0  0  0  0  0  0
   -0.5459    1.8868   -0.8726 H   0  0  0  0  0  0  0  0  0  0  0  0
   -0.5289    1.8773    0.9072 H   0  0  0  0  0  0  0  0  0  0  0  0
   -1.9079    0.4204    1.8645 H   0  0  0  0  0  0  0  0  0  0  0  0
   -4.2179   -0.4322    1.8822 H   0  0  0  0  0  0  0  0  0  0  0  0
   -3.5096   -2.4278   -1.8199 H   0  0  0  0  0  0  0  0  0  0  0  0
   -1.2022   -1.5684   -1.8418 H   0  0  0  0  0  0  0  0  0  0  0  0
   -5.4557   -2.9647   -0.4717 H   0  0  0  0  0  0  0  0  0  0  0  0
   -5.7512   -2.1322    1.0737 H   0  0  0  0  0  0  0  0  0  0  0  0
   -6.2328   -0.0260   -0.2086 H   0  0  0  0  0  0  0  0  0  0  0  0
   -6.6019   -0.2140   -2.6534 H   0  0  0  0  0  0  0  0  0  0  0  0
   -4.9140   -0.5899   -2.2313 H   0  0  0  0  0  0  0  0  0  0  0  0
   -6.0521   -1.9062   -2.6062 H   0  0  0  0  0  0  0  0  0  0  0  0
   -8.0650   -1.5376    0.5035 H   0  0  0  0  0  0  0  0  0  0  0  0
   -8.4419   -0.7674   -1.0563 H   0  0  0  0  0  0  0  0  0  0  0  0
   -7.8921   -2.4596   -1.0092 H   0  0  0  0  0  0  0  0  0  0  0  0
  1  2  1  0  0  0  0
  1 17  1  0  0  0  0
  1 18  1  0  0  0  0
  1 19  1  0  0  0  0
  2  3  1  6  0  0  0
  2  4  1  0  0  0  0
  2 14  1  0  0  0  0
  4  9  2  0  0  0  0
  4  5  1  0  0  0  0
  5  6  2  0  0  0  0
  5 20  1  0  0  0  0
  6  7  1  0  0  0  0
  6 21  1  0  0  0  0
  7  8  2  0  0  0  0
  7 10  1  0  0  0  0
  8  9  1  0  0  0  0
  8 22  1  0  0  0  0
  9 23  1  0  0  0  0
 10 11  1  0  0  0  0
 10 24  1  0  0  0  0
 10 25  1  0  0  0  0
 11 12  1  0  0  0  0
 11 13  1  0  0  0  0
 11 26  1  0  0  0  0
 12 27  1  0  0  0  0
 12 28  1  0  0  0  0
 12 29  1  0  0  0  0
 13 30  1  0  0  0  0
 13 31  1  0  0  0  0
 13 32  1  0  0  0  0
 14 15  2  0  0  0  0
 14 16  1  0  0  0  0
M  END
$$$$
