ZINC01543873
 OpenBabel08292219463D

 39 39  0  0  0  0  0  0  0  0999 V2000
   -0.0153    1.3806    0.0293 C   0  0  0  0  0  0  0  0  0  0  0  0
    0.1395    0.2185    0.7628 C   0  0  0  0  0  0  0  0  0  0  0  0
    1.3439   -0.4572    0.7427 C   0  0  0  0  0  0  0  0  0  0  0  0
    2.3999    0.0313   -0.0154 C   0  0  0  0  0  0  0  0  0  0  0  0
    2.2411    1.1983   -0.7512 C   0  0  0  0  0  0  0  0  0  0  0  0
    1.0343    1.8696   -0.7267 C   0  0  0  0  0  0  0  0  0  0  0  0
    3.6215   -0.6506   -0.0375 N   0  0  0  0  0  0  0  0  0  0  0  0
    3.6447   -1.9949    0.0568 C   0  0  0  0  0  0  0  0  0  0  0  0
    2.6055   -2.6203    0.0643 O   0  0  0  0  0  0  0  0  0  0  0  0
    4.9618   -2.7209    0.1528 C   0  0  0  0  0  0  0  0  0  0  0  0
    4.7083   -4.2267    0.2488 C   0  0  0  0  0  0  0  0  0  0  0  0
    6.0454   -4.9638    0.3463 C   0  0  0  0  0  0  0  0  0  0  0  0
    5.7919   -6.4696    0.4422 C   0  0  0  0  0  0  0  0  0  0  0  0
    7.1291   -7.2067    0.5397 C   0  0  0  0  0  0  0  0  0  0  0  0
    6.8756   -8.7125    0.6357 C   0  0  0  0  0  0  0  0  0  0  0  0
    8.1927   -9.4386    0.7317 C   0  0  0  0  0  0  0  0  0  0  0  0
    9.2318   -8.8132    0.7242 O   0  0  0  0  0  0  0  0  0  0  0  0
    8.2158  -10.7828    0.8260 N   0  0  0  0  0  0  0  0  0  0  0  0
    9.4534  -11.4650    0.9162 O   0  0  0  0  0  0  0  0  0  0  0  0
   -0.9594    1.9049    0.0433 H   0  0  0  0  0  0  0  0  0  0  0  0
   -0.6821   -0.1608    1.3522 H   0  0  0  0  0  0  0  0  0  0  0  0
    1.4644   -1.3643    1.3164 H   0  0  0  0  0  0  0  0  0  0  0  0
    3.0605    1.5809   -1.3416 H   0  0  0  0  0  0  0  0  0  0  0  0
    0.9101    2.7772   -1.2987 H   0  0  0  0  0  0  0  0  0  0  0  0
    4.4517   -0.1559   -0.1206 H   0  0  0  0  0  0  0  0  0  0  0  0
    5.5591   -2.5088   -0.7339 H   0  0  0  0  0  0  0  0  0  0  0  0
    5.4977   -2.3854    1.0407 H   0  0  0  0  0  0  0  0  0  0  0  0
    4.1109   -4.4388    1.1355 H   0  0  0  0  0  0  0  0  0  0  0  0
    4.1723   -4.5622   -0.6391 H   0  0  0  0  0  0  0  0  0  0  0  0
    6.6428   -4.7517   -0.5405 H   0  0  0  0  0  0  0  0  0  0  0  0
    6.5814   -4.6283    1.2342 H   0  0  0  0  0  0  0  0  0  0  0  0
    5.1946   -6.6817    1.3290 H   0  0  0  0  0  0  0  0  0  0  0  0
    5.2560   -6.8051   -0.4457 H   0  0  0  0  0  0  0  0  0  0  0  0
    7.7264   -6.9946   -0.3470 H   0  0  0  0  0  0  0  0  0  0  0  0
    7.6650   -6.8712    1.4276 H   0  0  0  0  0  0  0  0  0  0  0  0
    6.2783   -8.9246    1.5224 H   0  0  0  0  0  0  0  0  0  0  0  0
    6.3396   -9.0480   -0.2522 H   0  0  0  0  0  0  0  0  0  0  0  0
    7.3847  -11.2830    0.8320 H   0  0  0  0  0  0  0  0  0  0  0  0
    9.3689  -12.4262    0.9801 H   0  0  0  0  0  0  0  0  0  0  0  0
  1  6  2  0  0  0  0
  1  2  1  0  0  0  0
  1 20  1  0  0  0  0
  2  3  2  0  0  0  0
  2 21  1  0  0  0  0
  3  4  1  0  0  0  0
  3 22  1  0  0  0  0
  4  5  2  0  0  0  0
  4  7  1  0  0  0  0
  5  6  1  0  0  0  0
  5 23  1  0  0  0  0
  6 24  1  0  0  0  0
  7  8  1  0  0  0  0
  7 25  1  0  0  0  0
  8  9  2  0  0  0  0
  8 10  1  0  0  0  0
 10 11  1  0  0  0  0
 10 26  1  0  0  0  0
 10 27  1  0  0  0  0
 11 12  1  0  0  0  0
 11 28  1  0  0  0  0
 11 29  1  0  0  0  0
 12 13  1  0  0  0  0
 12 30  1  0  0  0  0
 12 31  1  0  0  0  0
 13 14  1  0  0  0  0
 13 32  1  0  0  0  0
 13 33  1  0  0  0  0
 14 15  1  0  0  0  0
 14 34  1  0  0  0  0
 14 35  1  0  0  0  0
 15 16  1  0  0  0  0
 15 36  1  0  0  0  0
 15 37  1  0  0  0  0
 16 17  2  0  0  0  0
 16 18  1  0  0  0  0
 18 19  1  0  0  0  0
 18 38  1  0  0  0  0
 19 39  1  0  0  0  0
M  END
$$$$
