ZINC13444037
 OpenBabel08292219463D

 51 55  0  0  0  0  0  0  0  0999 V2000
    5.9204    9.0812    5.4748 C   0  0  0  0  0  0  0  0  0  0  0  0
    6.2938    8.0426    4.4487 C   0  0  0  0  0  0  0  0  0  0  0  0
    5.9155    8.1907    3.1303 C   0  0  0  0  0  0  0  0  0  0  0  0
    6.2977    7.2180    2.2102 C   0  0  0  0  0  0  0  0  0  0  0  0
    6.9811    6.1627    2.6377 N   0  0  0  0  0  0  0  0  0  0  0  0
    7.3193    6.0546    3.9073 C   0  0  0  0  0  0  0  0  0  0  0  0
    6.9923    6.9702    4.7973 N   0  0  0  0  0  0  0  0  0  0  0  0
    8.1028    4.8476    4.3547 C   0  0  0  0  0  0  0  0  0  0  0  0
    5.9446    7.3455    0.8751 N   0  0  0  0  0  0  0  0  0  0  0  0
    5.4930    8.5162    0.3920 C   0  0  0  0  0  0  0  0  0  0  0  0
    5.1006    8.5796   -0.7536 O   0  0  0  0  0  0  0  0  0  0  0  0
    5.4632    9.7482    1.2563 C   0  0  0  0  0  0  0  0  0  0  0  0
    5.0916    9.3700    2.6913 C   0  0  0  0  0  0  0  0  0  0  0  0
    6.0709    6.1931   -0.0205 C   0  0  0  0  0  0  0  0  0  0  0  0
    4.7846    5.4079   -0.0132 C   0  0  0  0  0  0  0  0  0  0  0  0
    3.7865    5.7124   -0.9213 C   0  0  0  0  0  0  0  0  0  0  0  0
    2.6063    4.9972   -0.9191 C   0  0  0  0  0  0  0  0  0  0  0  0
    2.4210    3.9661    0.0008 C   0  0  0  0  0  0  0  0  0  0  0  0
    3.4282    3.6676    0.9174 C   0  0  0  0  0  0  0  0  0  0  0  0
    4.6064    4.3859    0.9019 C   0  0  0  0  0  0  0  0  0  0  0  0
    1.1557    3.1942    0.0082 C   0  0  0  0  0  0  0  0  0  0  0  0
   -0.0686    3.8568    0.0235 C   0  0  0  0  0  0  0  0  0  0  0  0
   -1.2446    3.1342    0.0309 C   0  0  0  0  0  0  0  0  0  0  0  0
   -1.2166    1.7496    0.0173 C   0  0  0  0  0  0  0  0  0  0  0  0
   -0.0126    1.0758    0.0080 C   0  0  0  0  0  0  0  0  0  0  0  0
    1.1849    1.7894    0.0004 C   0  0  0  0  0  0  0  0  0  0  0  0
    2.4777    1.0724   -0.0164 C   0  0  0  0  0  0  0  0  0  0  0  0
    4.0472   -0.4615   -0.0394 N   0  0  0  0  0  0  0  0  0  0  0  0
    4.5838    0.7105   -0.0379 N   0  0  0  0  0  0  0  0  0  0  0  0
    3.6760    1.6186   -0.0245 N   0  0  0  0  0  0  0  0  0  0  0  0
    6.7037    9.8374    5.5281 H   0  0  0  0  0  0  0  0  0  0  0  0
    4.9797    9.5521    5.1895 H   0  0  0  0  0  0  0  0  0  0  0  0
    5.8078    8.6055    6.4490 H   0  0  0  0  0  0  0  0  0  0  0  0
    9.1696    5.0555    4.2712 H   0  0  0  0  0  0  0  0  0  0  0  0
    7.8573    4.6189    5.3918 H   0  0  0  0  0  0  0  0  0  0  0  0
    7.8484    3.9953    3.7247 H   0  0  0  0  0  0  0  0  0  0  0  0
    4.7270   10.4500    0.8644 H   0  0  0  0  0  0  0  0  0  0  0  0
    6.4484   10.2145    1.2482 H   0  0  0  0  0  0  0  0  0  0  0  0
    4.0338    9.1108    2.7362 H   0  0  0  0  0  0  0  0  0  0  0  0
    5.2865   10.2151    3.3516 H   0  0  0  0  0  0  0  0  0  0  0  0
    6.8873    5.5561    0.3200 H   0  0  0  0  0  0  0  0  0  0  0  0
    6.2788    6.5404   -1.0325 H   0  0  0  0  0  0  0  0  0  0  0  0
    3.9310    6.5116   -1.6332 H   0  0  0  0  0  0  0  0  0  0  0  0
    1.8279    5.2356   -1.6288 H   0  0  0  0  0  0  0  0  0  0  0  0
    3.2883    2.8731    1.6354 H   0  0  0  0  0  0  0  0  0  0  0  0
    5.3890    4.1529    1.6088 H   0  0  0  0  0  0  0  0  0  0  0  0
   -0.0982    4.9364    0.0293 H   0  0  0  0  0  0  0  0  0  0  0  0
   -2.1924    3.6517    0.0424 H   0  0  0  0  0  0  0  0  0  0  0  0
   -2.1427    1.1939    0.0187 H   0  0  0  0  0  0  0  0  0  0  0  0
    0.0021   -0.0041    0.0020 H   0  0  0  0  0  0  0  0  0  0  0  0
    2.6741   -0.2531   -0.0205 N   0  0  0  0  0  2  0  0  0  0  0  0
  1  2  1  0  0  0  0
  1 31  1  0  0  0  0
  1 32  1  0  0  0  0
  1 33  1  0  0  0  0
  2  7  2  0  0  0  0
  2  3  1  0  0  0  0
  3 13  1  0  0  0  0
  3  4  2  0  0  0  0
  4  5  1  0  0  0  0
  4  9  1  0  0  0  0
  5  6  2  0  0  0  0
  6  7  1  0  0  0  0
  6  8  1  0  0  0  0
  8 34  1  0  0  0  0
  8 35  1  0  0  0  0
  8 36  1  0  0  0  0
  9 10  1  0  0  0  0
  9 14  1  0  0  0  0
 10 11  2  0  0  0  0
 10 12  1  0  0  0  0
 12 13  1  0  0  0  0
 12 37  1  0  0  0  0
 12 38  1  0  0  0  0
 13 39  1  0  0  0  0
 13 40  1  0  0  0  0
 14 15  1  0  0  0  0
 14 41  1  0  0  0  0
 14 42  1  0  0  0  0
 15 20  2  0  0  0  0
 15 16  1  0  0  0  0
 16 17  2  0  0  0  0
 16 43  1  0  0  0  0
 17 18  1  0  0  0  0
 17 44  1  0  0  0  0
 18 19  2  0  0  0  0
 18 21  1  0  0  0  0
 19 20  1  0  0  0  0
 19 45  1  0  0  0  0
 20 46  1  0  0  0  0
 21 26  2  0  0  0  0
 21 22  1  0  0  0  0
 22 23  2  0  0  0  0
 22 47  1  0  0  0  0
 23 24  1  0  0  0  0
 23 48  1  0  0  0  0
 24 25  2  0  0  0  0
 24 49  1  0  0  0  0
 25 26  1  0  0  0  0
 25 50  1  0  0  0  0
 26 27  1  0  0  0  0
 27 30  2  0  0  0  0
 27 51  1  0  0  0  0
 28 29  2  0  0  0  0
 28 51  1  0  0  0  0
 29 30  1  0  0  0  0
M  END
$$$$
