ZINC03809192
 OpenBabel08292219463D

 70 72  0  0  1  0  0  0  0  0999 V2000
    0.3679    1.5402   -0.4399 C   0  0  0  0  0  0  0  0  0  0  0  0
    0.2023    0.0937    0.0302 C   0  0  0  0  0  0  0  0  0  0  0  0
    1.0206   -0.1253    1.3043 C   0  0  0  0  0  0  0  0  0  0  0  0
   -1.2745   -0.1829    0.3187 C   0  0  0  0  0  0  0  0  0  0  0  0
   -1.4537   -1.6034    0.6291 N   0  0  0  0  0  0  0  0  0  0  0  0
   -1.2714   -2.0819    2.0018 C   0  0  0  0  0  0  0  0  0  0  0  0
   -2.5657   -1.8736    2.7906 C   0  0  2  0  0  0  0  0  0  0  0  0
   -2.8629   -0.8265    2.7312 H   0  0  0  0  0  0  0  0  0  0  0  0
   -2.3382   -2.2568    4.2543 C   0  0  2  0  0  0  0  0  0  0  0  0
   -1.4926   -1.6942    4.6500 H   0  0  0  0  0  0  0  0  0  0  0  0
   -2.0430   -3.7551    4.3492 C   0  0  0  0  0  0  0  0  0  0  0  0
   -1.6984   -4.1100    5.7726 C   0  0  0  0  0  0  0  0  0  0  0  0
   -0.3851   -4.0540    6.2004 C   0  0  0  0  0  0  0  0  0  0  0  0
   -0.0690   -4.3796    7.5061 C   0  0  0  0  0  0  0  0  0  0  0  0
   -1.0662   -4.7607    8.3843 C   0  0  0  0  0  0  0  0  0  0  0  0
   -2.3797   -4.8159    7.9567 C   0  0  0  0  0  0  0  0  0  0  0  0
   -2.6963   -4.4862    6.6522 C   0  0  0  0  0  0  0  0  0  0  0  0
   -3.5393   -1.9455    5.0330 N   0  0  0  0  0  0  0  0  0  0  0  0
   -3.4423   -1.7111    6.3567 C   0  0  0  0  0  0  0  0  0  0  0  0
   -2.3586   -1.7580    6.9042 O   0  0  0  0  0  0  0  0  0  0  0  0
   -4.5462   -1.4249    7.0723 O   0  0  0  0  0  0  0  0  0  0  0  0
   -4.3696   -1.1876    8.4704 C   0  0  1  0  0  0  0  0  0  0  0  0
   -3.3809   -0.7744    8.6701 H   0  0  0  0  0  0  0  0  0  0  0  0
   -5.4810   -0.2504    9.0166 C   0  0  0  0  0  0  0  0  0  0  0  0
   -5.5484   -0.7053   10.4963 C   0  0  0  0  0  0  0  0  0  0  0  0
   -5.3312   -2.1248   10.4625 O   0  0  0  0  0  0  0  0  0  0  0  0
   -4.5981   -2.4817    9.2805 C   0  0  0  0  0  0  0  0  0  0  0  0
   -3.5974   -2.6937    2.2383 O   0  0  0  0  0  0  0  0  0  0  0  0
   -1.8623   -2.6682   -0.5715 S   0  0  0  0  0  0  0  0  0  0  0  0
   -2.4948   -3.7717    0.0622 O   0  0  0  0  0  0  0  0  0  0  0  0
   -2.4979   -1.9078   -1.5898 O   0  0  0  0  0  0  0  0  0  0  0  0
   -0.3597   -3.2772   -1.2614 C   0  0  0  0  0  0  0  0  0  0  0  0
    0.2301   -2.6155   -2.3228 C   0  0  0  0  0  0  0  0  0  0  0  0
    1.4078   -3.0901   -2.8659 C   0  0  0  0  0  0  0  0  0  0  0  0
    2.0000   -4.2335   -2.3448 C   0  0  0  0  0  0  0  0  0  0  0  0
    1.4048   -4.8957   -1.2785 C   0  0  0  0  0  0  0  0  0  0  0  0
    0.2301   -4.4125   -0.7365 C   0  0  0  0  0  0  0  0  0  0  0  0
    3.1909   -4.7165   -2.8919 N   0  0  0  0  0  0  0  0  0  0  0  0
    1.4200    1.7373   -0.6455 H   0  0  0  0  0  0  0  0  0  0  0  0
   -0.2151    1.6962   -1.3477 H   0  0  0  0  0  0  0  0  0  0  0  0
    0.0166    2.2177    0.3384 H   0  0  0  0  0  0  0  0  0  0  0  0
    0.5536   -0.5837   -0.7481 H   0  0  0  0  0  0  0  0  0  0  0  0
    1.0168   -1.1846    1.5610 H   0  0  0  0  0  0  0  0  0  0  0  0
    2.0461    0.2047    1.1387 H   0  0  0  0  0  0  0  0  0  0  0  0
    0.5818    0.4481    2.1209 H   0  0  0  0  0  0  0  0  0  0  0  0
   -1.5975    0.4183    1.1686 H   0  0  0  0  0  0  0  0  0  0  0  0
   -1.8704    0.0756   -0.5567 H   0  0  0  0  0  0  0  0  0  0  0  0
   -1.0219   -3.1428    1.9866 H   0  0  0  0  0  0  0  0  0  0  0  0
   -0.4631   -1.5253    2.4762 H   0  0  0  0  0  0  0  0  0  0  0  0
   -2.9219   -4.3191    4.0367 H   0  0  0  0  0  0  0  0  0  0  0  0
   -1.2031   -4.0018    3.6997 H   0  0  0  0  0  0  0  0  0  0  0  0
    0.3941   -3.7562    5.5143 H   0  0  0  0  0  0  0  0  0  0  0  0
    0.9572   -4.3365    7.8401 H   0  0  0  0  0  0  0  0  0  0  0  0
   -0.8192   -5.0158    9.4042 H   0  0  0  0  0  0  0  0  0  0  0  0
   -3.1587   -5.1140    8.6427 H   0  0  0  0  0  0  0  0  0  0  0  0
   -3.7229   -4.5257    6.3192 H   0  0  0  0  0  0  0  0  0  0  0  0
   -4.4045   -1.9080    4.5959 H   0  0  0  0  0  0  0  0  0  0  0  0
   -5.1851    0.7959    8.9404 H   0  0  0  0  0  0  0  0  0  0  0  0
   -6.4287   -0.4267    8.5079 H   0  0  0  0  0  0  0  0  0  0  0  0
   -4.7669   -0.2167   11.0782 H   0  0  0  0  0  0  0  0  0  0  0  0
   -6.5292   -0.4825   10.9163 H   0  0  0  0  0  0  0  0  0  0  0  0
   -5.1756   -3.1916    8.6883 H   0  0  0  0  0  0  0  0  0  0  0  0
   -3.6388   -2.9209    9.5543 H   0  0  0  0  0  0  0  0  0  0  0  0
   -3.4004   -3.6402    2.2581 H   0  0  0  0  0  0  0  0  0  0  0  0
   -0.2310   -1.7268   -2.7277 H   0  0  0  0  0  0  0  0  0  0  0  0
    1.8677   -2.5730   -3.6950 H   0  0  0  0  0  0  0  0  0  0  0  0
    1.8624   -5.7852   -0.8712 H   0  0  0  0  0  0  0  0  0  0  0  0
   -0.2308   -4.9244    0.0953 H   0  0  0  0  0  0  0  0  0  0  0  0
    3.6053   -4.2533   -3.6367 H   0  0  0  0  0  0  0  0  0  0  0  0
    3.6034   -5.5150   -2.5272 H   0  0  0  0  0  0  0  0  0  0  0  0
  1  2  1  0  0  0  0
  1 39  1  0  0  0  0
  1 40  1  0  0  0  0
  1 41  1  0  0  0  0
  2  3  1  0  0  0  0
  2  4  1  0  0  0  0
  2 42  1  0  0  0  0
  3 43  1  0  0  0  0
  3 44  1  0  0  0  0
  3 45  1  0  0  0  0
  4  5  1  0  0  0  0
  4 46  1  0  0  0  0
  4 47  1  0  0  0  0
  5  6  1  0  0  0  0
  5 29  1  0  0  0  0
  6  7  1  0  0  0  0
  6 48  1  0  0  0  0
  6 49  1  0  0  0  0
  7  8  1  6  0  0  0
  7  9  1  0  0  0  0
  7 28  1  0  0  0  0
  9 10  1  1  0  0  0
  9 11  1  0  0  0  0
  9 18  1  0  0  0  0
 11 12  1  0  0  0  0
 11 50  1  0  0  0  0
 11 51  1  0  0  0  0
 12 17  2  0  0  0  0
 12 13  1  0  0  0  0
 13 14  2  0  0  0  0
 13 52  1  0  0  0  0
 14 15  1  0  0  0  0
 14 53  1  0  0  0  0
 15 16  2  0  0  0  0
 15 54  1  0  0  0  0
 16 17  1  0  0  0  0
 16 55  1  0  0  0  0
 17 56  1  0  0  0  0
 18 19  1  0  0  0  0
 18 57  1  0  0  0  0
 19 20  2  0  0  0  0
 19 21  1  0  0  0  0
 21 22  1  0  0  0  0
 22 23  1  1  0  0  0
 22 27  1  0  0  0  0
 22 24  1  0  0  0  0
 24 25  1  0  0  0  0
 24 58  1  0  0  0  0
 24 59  1  0  0  0  0
 25 26  1  0  0  0  0
 25 60  1  0  0  0  0
 25 61  1  0  0  0  0
 26 27  1  0  0  0  0
 27 62  1  0  0  0  0
 27 63  1  0  0  0  0
 28 64  1  0  0  0  0
 29 30  2  0  0  0  0
 29 31  2  0  0  0  0
 29 32  1  0  0  0  0
 32 37  2  0  0  0  0
 32 33  1  0  0  0  0
 33 34  2  0  0  0  0
 33 65  1  0  0  0  0
 34 35  1  0  0  0  0
 34 66  1  0  0  0  0
 35 36  2  0  0  0  0
 35 38  1  0  0  0  0
 36 37  1  0  0  0  0
 36 67  1  0  0  0  0
 37 68  1  0  0  0  0
 38 69  1  0  0  0  0
 38 70  1  0  0  0  0
M  END
$$$$
