ZINC00896958
 OpenBabel08292219463D

 51 53  0  0  1  0  0  0  0  0999 V2000
   -0.0178    1.4648    0.0101 C   0  0  0  0  0  0  0  0  0  0  0  0
    0.0021   -0.0041    0.0020 N   0  3  0  0  0  0  0  0  0  0  0  0
    0.7097   -0.4841   -1.1991 C   0  0  0  0  0  0  0  0  0  0  0  0
    1.9322   -1.2931   -0.7168 C   0  0  0  0  0  0  0  0  0  0  0  0
    2.1672   -0.7497    0.7171 C   0  0  1  0  0  0  0  0  0  0  0  0
    2.7372    0.1791    0.6942 H   0  0  0  0  0  0  0  0  0  0  0  0
    0.7163   -0.4986    1.1983 C   0  0  0  0  0  0  0  0  0  0  0  0
    2.8167   -1.7256    1.5343 O   0  0  0  0  0  0  0  0  0  0  0  0
    4.1581   -1.6955    1.5698 C   0  0  0  0  0  0  0  0  0  0  0  0
    4.7610   -0.8679    0.9283 O   0  0  0  0  0  0  0  0  0  0  0  0
    4.9123   -2.6938    2.4098 C   0  0  1  0  0  0  0  0  0  0  0  0
    6.2985   -2.8778    1.8479 C   0  0  0  0  0  0  0  0  0  0  0  0
    7.3354   -2.0780    2.2905 C   0  0  0  0  0  0  0  0  0  0  0  0
    8.6069   -2.2467    1.7751 C   0  0  0  0  0  0  0  0  0  0  0  0
    8.8416   -3.2155    0.8174 C   0  0  0  0  0  0  0  0  0  0  0  0
    7.8048   -4.0159    0.3754 C   0  0  0  0  0  0  0  0  0  0  0  0
    6.5342   -3.8501    0.8940 C   0  0  0  0  0  0  0  0  0  0  0  0
    5.0089   -2.1807    3.8480 C   0  0  0  0  0  0  0  0  0  0  0  0
    5.6305   -3.2557    4.7737 C   0  0  0  0  0  0  0  0  0  0  0  0
    5.1174   -2.8858    6.1807 C   0  0  0  0  0  0  0  0  0  0  0  0
    3.8252   -2.0753    5.9783 C   0  0  0  0  0  0  0  0  0  0  0  0
    3.5982   -1.9809    4.4554 C   0  0  0  0  0  0  0  0  0  0  0  0
    4.2228   -3.9454    2.3959 O   0  0  0  0  0  0  0  0  0  0  0  0
   -1.3740   -0.5182    0.0002 C   0  0  0  0  0  0  0  0  0  0  0  0
    1.0047    1.8421    0.0024 H   0  0  0  0  0  0  0  0  0  0  0  0
   -0.5450    1.8259   -0.8730 H   0  0  0  0  0  0  0  0  0  0  0  0
   -0.5280    1.8163    0.9069 H   0  0  0  0  0  0  0  0  0  0  0  0
    0.0508   -1.1230   -1.7872 H   0  0  0  0  0  0  0  0  0  0  0  0
    1.0396    0.3641   -1.7990 H   0  0  0  0  0  0  0  0  0  0  0  0
    1.7040   -2.3586   -0.6926 H   0  0  0  0  0  0  0  0  0  0  0  0
    2.7978   -1.0975   -1.3498 H   0  0  0  0  0  0  0  0  0  0  0  0
    0.7029    0.2542    1.9865 H   0  0  0  0  0  0  0  0  0  0  0  0
    0.2676   -1.4270    1.5514 H   0  0  0  0  0  0  0  0  0  0  0  0
    7.1521   -1.3210    3.0388 H   0  0  0  0  0  0  0  0  0  0  0  0
    9.4170   -1.6213    2.1204 H   0  0  0  0  0  0  0  0  0  0  0  0
    9.8349   -3.3468    0.4142 H   0  0  0  0  0  0  0  0  0  0  0  0
    7.9881   -4.7726   -0.3731 H   0  0  0  0  0  0  0  0  0  0  0  0
    5.7249   -4.4779    0.5514 H   0  0  0  0  0  0  0  0  0  0  0  0
    5.5816   -1.2542    3.8883 H   0  0  0  0  0  0  0  0  0  0  0  0
    5.2841   -4.2496    4.4904 H   0  0  0  0  0  0  0  0  0  0  0  0
    6.7188   -3.2058    4.7392 H   0  0  0  0  0  0  0  0  0  0  0  0
    4.9053   -3.7905    6.7506 H   0  0  0  0  0  0  0  0  0  0  0  0
    5.8597   -2.2812    6.7019 H   0  0  0  0  0  0  0  0  0  0  0  0
    2.9860   -2.5865    6.4500 H   0  0  0  0  0  0  0  0  0  0  0  0
    3.9404   -1.0773    6.4012 H   0  0  0  0  0  0  0  0  0  0  0  0
    3.2033   -1.0006    4.1886 H   0  0  0  0  0  0  0  0  0  0  0  0
    2.9236   -2.7689    4.1207 H   0  0  0  0  0  0  0  0  0  0  0  0
    4.1245   -4.3306    1.5144 H   0  0  0  0  0  0  0  0  0  0  0  0
   -1.8992   -0.1476   -0.8802 H   0  0  0  0  0  0  0  0  0  0  0  0
   -1.3547   -1.6079   -0.0202 H   0  0  0  0  0  0  0  0  0  0  0  0
   -1.8892   -0.1807    0.8995 H   0  0  0  0  0  0  0  0  0  0  0  0
  1  2  1  0  0  0  0
  1 25  1  0  0  0  0
  1 26  1  0  0  0  0
  1 27  1  0  0  0  0
  2  7  1  0  0  0  0
  2  3  1  0  0  0  0
  2 24  1  0  0  0  0
  3  4  1  0  0  0  0
  3 28  1  0  0  0  0
  3 29  1  0  0  0  0
  4  5  1  0  0  0  0
  4 30  1  0  0  0  0
  4 31  1  0  0  0  0
  5  6  1  6  0  0  0
  5  7  1  0  0  0  0
  5  8  1  0  0  0  0
  7 32  1  0  0  0  0
  7 33  1  0  0  0  0
  8  9  1  0  0  0  0
  9 10  2  0  0  0  0
 11  9  1  6  0  0  0
 11 12  1  0  0  0  0
 11 18  1  0  0  0  0
 11 23  1  0  0  0  0
 12 17  2  0  0  0  0
 12 13  1  0  0  0  0
 13 14  2  0  0  0  0
 13 34  1  0  0  0  0
 14 15  1  0  0  0  0
 14 35  1  0  0  0  0
 15 16  2  0  0  0  0
 15 36  1  0  0  0  0
 16 17  1  0  0  0  0
 16 37  1  0  0  0  0
 17 38  1  0  0  0  0
 18 22  1  0  0  0  0
 18 19  1  0  0  0  0
 18 39  1  0  0  0  0
 19 20  1  0  0  0  0
 19 40  1  0  0  0  0
 19 41  1  0  0  0  0
 20 21  1  0  0  0  0
 20 42  1  0  0  0  0
 20 43  1  0  0  0  0
 21 22  1  0  0  0  0
 21 44  1  0  0  0  0
 21 45  1  0  0  0  0
 22 46  1  0  0  0  0
 22 47  1  0  0  0  0
 23 48  1  0  0  0  0
 24 49  1  0  0  0  0
 24 50  1  0  0  0  0
 24 51  1  0  0  0  0
M  CHG  1   2   1
M  END
$$$$
