ZINC00005152
 OpenBabel08292219463D

 28 27  0  0  1  0  0  0  0  0999 V2000
   -0.0284    1.4730    0.3254 C   0  0  0  0  0  0  0  0  0  0  0  0
   -0.0192   -0.0501    0.1800 C   0  0  0  0  0  0  0  0  0  0  0  0
    0.6151   -0.6772    1.4231 C   0  0  0  0  0  0  0  0  0  0  0  0
   -1.4550   -0.5567    0.0292 C   0  0  0  0  0  0  0  0  0  0  0  0
   -1.4383   -2.0610   -0.2495 C   0  0  1  0  0  0  0  0  0  0  0  0
   -0.8692   -2.5686    0.5293 H   0  0  0  0  0  0  0  0  0  0  0  0
   -2.8727   -2.5933   -0.2618 C   0  0  0  0  0  0  0  0  0  0  0  0
   -2.8509   -4.0925   -0.4137 C   0  0  0  0  0  0  0  0  0  0  0  0
   -1.7868   -4.6806   -0.5038 O   0  0  0  0  0  0  0  0  0  0  0  0
   -3.8974   -4.7171   -0.4466 O   0  0  0  0  0  1  0  0  0  0  0  0
   -0.7863   -2.3206   -1.6090 C   0  0  0  0  0  0  0  0  0  0  0  0
   -1.4913   -1.5537   -2.6447 N   0  3  0  0  0  0  0  0  0  0  0  0
    0.9945    1.8339    0.4328 H   0  0  0  0  0  0  0  0  0  0  0  0
   -0.4803    1.9198   -0.5602 H   0  0  0  0  0  0  0  0  0  0  0  0
   -0.6060    1.7503    1.2072 H   0  0  0  0  0  0  0  0  0  0  0  0
    0.5584   -0.3274   -0.7018 H   0  0  0  0  0  0  0  0  0  0  0  0
    0.6216   -1.7622    1.3195 H   0  0  0  0  0  0  0  0  0  0  0  0
    1.6379   -0.3162    1.5305 H   0  0  0  0  0  0  0  0  0  0  0  0
    0.0374   -0.3999    2.3049 H   0  0  0  0  0  0  0  0  0  0  0  0
   -2.0068   -0.3637    0.9492 H   0  0  0  0  0  0  0  0  0  0  0  0
   -1.9378   -0.0390   -0.7995 H   0  0  0  0  0  0  0  0  0  0  0  0
   -3.3660   -2.3301    0.6738 H   0  0  0  0  0  0  0  0  0  0  0  0
   -3.4171   -2.1514   -1.0964 H   0  0  0  0  0  0  0  0  0  0  0  0
    0.2584   -2.0114   -1.5759 H   0  0  0  0  0  0  0  0  0  0  0  0
   -0.8433   -3.3839   -1.8422 H   0  0  0  0  0  0  0  0  0  0  0  0
   -2.4413   -1.8852   -2.7206 H   0  0  0  0  0  0  0  0  0  0  0  0
   -1.4953   -0.5760   -2.3951 H   0  0  0  0  0  0  0  0  0  0  0  0
   -1.0217   -1.6729   -3.5297 H   0  0  0  0  0  0  0  0  0  0  0  0
  1  2  1  0  0  0  0
  1 13  1  0  0  0  0
  1 14  1  0  0  0  0
  1 15  1  0  0  0  0
  2  3  1  0  0  0  0
  2  4  1  0  0  0  0
  2 16  1  0  0  0  0
  3 17  1  0  0  0  0
  3 18  1  0  0  0  0
  3 19  1  0  0  0  0
  4  5  1  0  0  0  0
  4 20  1  0  0  0  0
  4 21  1  0  0  0  0
  5  6  1  1  0  0  0
  5  7  1  0  0  0  0
  5 11  1  0  0  0  0
  7  8  1  0  0  0  0
  7 22  1  0  0  0  0
  7 23  1  0  0  0  0
  8  9  2  0  0  0  0
  8 10  1  0  0  0  0
 11 12  1  0  0  0  0
 11 24  1  0  0  0  0
 11 25  1  0  0  0  0
 12 26  1  0  0  0  0
 12 27  1  0  0  0  0
 12 28  1  0  0  0  0
M  CHG  1  12   1
M  END
$$$$
