ZINC00508068
 OpenBabel08292219463D

 39 40  0  0  1  0  0  0  0  0999 V2000
    0.2765    1.2822   -0.7825 C   0  0  0  0  0  0  0  0  0  0  0  0
    0.2120   -0.1841   -0.7206 N   0  3  0  0  0  0  0  0  0  0  0  0
    1.1095   -0.6695    0.3362 C   0  0  0  0  0  0  0  0  0  0  0  0
   -1.1648   -0.6016   -0.4238 C   0  0  0  0  0  0  0  0  0  0  0  0
   -2.0794   -0.2049   -1.5844 C   0  0  0  0  0  0  0  0  0  0  0  0
   -3.5134   -0.6397   -1.2752 C   0  0  2  0  0  0  0  0  0  0  0  0
   -3.8212   -0.2217   -0.3168 H   0  0  0  0  0  0  0  0  0  0  0  0
   -3.5795   -2.1439   -1.2117 C   0  0  0  0  0  0  0  0  0  0  0  0
   -3.1373   -2.9009   -2.2805 C   0  0  0  0  0  0  0  0  0  0  0  0
   -3.1980   -4.2807   -2.2222 C   0  0  0  0  0  0  0  0  0  0  0  0
   -3.7005   -4.9035   -1.0951 C   0  0  0  0  0  0  0  0  0  0  0  0
   -4.1418   -4.1465   -0.0259 C   0  0  0  0  0  0  0  0  0  0  0  0
   -4.0772   -2.7668   -0.0825 C   0  0  0  0  0  0  0  0  0  0  0  0
   -4.4341   -0.1417   -2.3594 C   0  0  0  0  0  0  0  0  0  0  0  0
   -3.9890   -0.0990   -3.6673 C   0  0  0  0  0  0  0  0  0  0  0  0
   -4.8438    0.3608   -4.6571 C   0  0  0  0  0  0  0  0  0  0  0  0
   -6.1202    0.7622   -4.2927 C   0  0  0  0  0  0  0  0  0  0  0  0
   -6.4949    0.6911   -2.9645 C   0  0  0  0  0  0  0  0  0  0  0  0
   -5.6567    0.2431   -2.0501 N   0  0  0  0  0  0  0  0  0  0  0  0
    1.2981    1.5920   -1.0028 H   0  0  0  0  0  0  0  0  0  0  0  0
   -0.3894    1.6424   -1.5667 H   0  0  0  0  0  0  0  0  0  0  0  0
   -0.0313    1.7002    0.1759 H   0  0  0  0  0  0  0  0  0  0  0  0
    0.8017   -0.2515    1.2946 H   0  0  0  0  0  0  0  0  0  0  0  0
    1.0617   -1.7575    0.3821 H   0  0  0  0  0  0  0  0  0  0  0  0
    2.1311   -0.3597    0.1159 H   0  0  0  0  0  0  0  0  0  0  0  0
   -1.1957   -1.6829   -0.2901 H   0  0  0  0  0  0  0  0  0  0  0  0
   -1.5038   -0.1127    0.4895 H   0  0  0  0  0  0  0  0  0  0  0  0
   -2.0485    0.8765   -1.7181 H   0  0  0  0  0  0  0  0  0  0  0  0
   -1.7404   -0.6938   -2.4977 H   0  0  0  0  0  0  0  0  0  0  0  0
   -2.7447   -2.4144   -3.1611 H   0  0  0  0  0  0  0  0  0  0  0  0
   -2.8531   -4.8721   -3.0575 H   0  0  0  0  0  0  0  0  0  0  0  0
   -3.7485   -5.9815   -1.0498 H   0  0  0  0  0  0  0  0  0  0  0  0
   -4.5347   -4.6330    0.8546 H   0  0  0  0  0  0  0  0  0  0  0  0
   -4.4186   -2.1755    0.7543 H   0  0  0  0  0  0  0  0  0  0  0  0
   -2.9878   -0.4194   -3.9150 H   0  0  0  0  0  0  0  0  0  0  0  0
   -4.5233    0.4056   -5.6875 H   0  0  0  0  0  0  0  0  0  0  0  0
   -6.8125    1.1261   -5.0374 H   0  0  0  0  0  0  0  0  0  0  0  0
   -7.4872    1.0018   -2.6726 H   0  0  0  0  0  0  0  0  0  0  0  0
    0.4970   -0.5710   -1.6079 H   0  0  0  0  0  0  0  0  0  0  0  0
  1  2  1  0  0  0  0
  1 20  1  0  0  0  0
  1 21  1  0  0  0  0
  1 22  1  0  0  0  0
  2  3  1  0  0  0  0
  2  4  1  0  0  0  0
  2 39  1  0  0  0  0
  3 23  1  0  0  0  0
  3 24  1  0  0  0  0
  3 25  1  0  0  0  0
  4  5  1  0  0  0  0
  4 26  1  0  0  0  0
  4 27  1  0  0  0  0
  5  6  1  0  0  0  0
  5 28  1  0  0  0  0
  5 29  1  0  0  0  0
  6  7  1  1  0  0  0
  6  8  1  0  0  0  0
  6 14  1  0  0  0  0
  8 13  2  0  0  0  0
  8  9  1  0  0  0  0
  9 10  2  0  0  0  0
  9 30  1  0  0  0  0
 10 11  1  0  0  0  0
 10 31  1  0  0  0  0
 11 12  2  0  0  0  0
 11 32  1  0  0  0  0
 12 13  1  0  0  0  0
 12 33  1  0  0  0  0
 13 34  1  0  0  0  0
 14 19  2  0  0  0  0
 14 15  1  0  0  0  0
 15 16  2  0  0  0  0
 15 35  1  0  0  0  0
 16 17  1  0  0  0  0
 16 36  1  0  0  0  0
 17 18  2  0  0  0  0
 17 37  1  0  0  0  0
 18 19  1  0  0  0  0
 18 38  1  0  0  0  0
M  CHG  1   2   1
M  END
$$$$
