ZINC01530797
 OpenBabel08292219463D

 31 32  0  0  1  0  0  0  0  0999 V2000
   -1.2228    4.9980   -1.4621 C   0  0  0  0  0  0  0  0  0  0  0  0
   -1.1811    3.4697   -1.4036 C   0  0  0  0  0  0  0  0  0  0  0  0
   -1.3115    3.0112    0.0503 C   0  0  2  0  0  0  0  0  0  0  0  0
   -0.2087    3.6608    0.8929 C   0  0  0  0  0  0  0  0  0  0  0  0
    1.1484    3.1468    0.4005 C   0  0  0  0  0  0  0  0  0  0  0  0
    1.1555    1.6419    0.4528 C   0  0  0  0  0  0  0  0  0  0  0  0
    2.2033    1.0582    0.6287 O   0  0  0  0  0  0  0  0  0  0  0  0
    0.0248    0.9346    0.3089 N   0  0  0  0  0  0  0  0  0  0  0  0
   -1.1699    1.5135    0.1166 C   0  0  0  0  0  0  0  0  0  0  0  0
   -2.1555    0.8175   -0.0015 O   0  0  0  0  0  0  0  0  0  0  0  0
   -2.6601    3.4163    0.5871 C   0  0  0  0  0  0  0  0  0  0  0  0
   -2.7474    4.1432    1.7596 C   0  0  0  0  0  0  0  0  0  0  0  0
   -3.9842    4.5186    2.2497 C   0  0  0  0  0  0  0  0  0  0  0  0
   -5.1343    4.1588    1.5723 C   0  0  0  0  0  0  0  0  0  0  0  0
   -5.0472    3.4279    0.4023 C   0  0  0  0  0  0  0  0  0  0  0  0
   -3.8102    3.0562   -0.0901 C   0  0  0  0  0  0  0  0  0  0  0  0
   -0.3418    5.4047   -0.9655 H   0  0  0  0  0  0  0  0  0  0  0  0
   -1.2350    5.3215   -2.5029 H   0  0  0  0  0  0  0  0  0  0  0  0
   -2.1211    5.3565   -0.9596 H   0  0  0  0  0  0  0  0  0  0  0  0
   -0.2346    3.1161   -1.8126 H   0  0  0  0  0  0  0  0  0  0  0  0
   -2.0050    3.0611   -1.9887 H   0  0  0  0  0  0  0  0  0  0  0  0
   -0.3431    3.3931    1.9410 H   0  0  0  0  0  0  0  0  0  0  0  0
   -0.2512    4.7445    0.7837 H   0  0  0  0  0  0  0  0  0  0  0  0
    1.9398    3.5372    1.0404 H   0  0  0  0  0  0  0  0  0  0  0  0
    1.3123    3.4764   -0.6254 H   0  0  0  0  0  0  0  0  0  0  0  0
    0.0736   -0.0336    0.3413 H   0  0  0  0  0  0  0  0  0  0  0  0
   -1.8491    4.4207    2.2911 H   0  0  0  0  0  0  0  0  0  0  0  0
   -4.0522    5.0900    3.1636 H   0  0  0  0  0  0  0  0  0  0  0  0
   -6.1008    4.4492    1.9570 H   0  0  0  0  0  0  0  0  0  0  0  0
   -5.9457    3.1468   -0.1270 H   0  0  0  0  0  0  0  0  0  0  0  0
   -3.7422    2.4848   -1.0040 H   0  0  0  0  0  0  0  0  0  0  0  0
  1  2  1  0  0  0  0
  1 17  1  0  0  0  0
  1 18  1  0  0  0  0
  1 19  1  0  0  0  0
  2 20  1  0  0  0  0
  2 21  1  0  0  0  0
  3  2  1  6  0  0  0
  3  9  1  0  0  0  0
  3  4  1  0  0  0  0
  3 11  1  0  0  0  0
  4  5  1  0  0  0  0
  4 22  1  0  0  0  0
  4 23  1  0  0  0  0
  5  6  1  0  0  0  0
  5 24  1  0  0  0  0
  5 25  1  0  0  0  0
  6  7  2  0  0  0  0
  6  8  1  0  0  0  0
  8  9  1  0  0  0  0
  8 26  1  0  0  0  0
  9 10  2  0  0  0  0
 11 16  2  0  0  0  0
 11 12  1  0  0  0  0
 12 13  2  0  0  0  0
 12 27  1  0  0  0  0
 13 14  1  0  0  0  0
 13 28  1  0  0  0  0
 14 15  2  0  0  0  0
 14 29  1  0  0  0  0
 15 16  1  0  0  0  0
 15 30  1  0  0  0  0
 16 31  1  0  0  0  0
M  END
$$$$
