ZINC00896569
 OpenBabel08292219463D

 25 26  0  0  0  0  0  0  0  0999 V2000
   -0.0166    1.3759    0.0096 C   0  0  0  0  0  0  0  0  0  0  0  0
    1.1783    2.0936    0.0021 C   0  0  0  0  0  0  0  0  0  0  0  0
    2.3810    1.3999   -0.0038 C   0  0  0  0  0  0  0  0  0  0  0  0
    2.3964    0.0208   -0.0214 C   0  0  0  0  0  0  0  0  0  0  0  0
    1.2071   -0.6851   -0.0176 C   0  0  0  0  0  0  0  0  0  0  0  0
    0.0021   -0.0041    0.0020 C   0  0  0  0  0  0  0  0  0  0  0  0
   -1.4912   -0.8892    0.0171 Cl  0  0  0  0  0  0  0  0  0  0  0  0
    1.2257   -2.4469   -0.0375 S   0  0  0  0  0  0  0  0  0  0  0  0
    0.3240   -2.8510   -1.0587 O   0  0  0  0  0  0  0  0  0  0  0  0
    2.5915   -2.8387   -0.0283 O   0  0  0  0  0  0  0  0  0  0  0  0
    0.5765   -2.9596    1.3971 N   0  0  0  0  0  0  0  0  0  0  0  0
    3.9039    2.2965    0.0305 S   0  0  0  0  0  0  0  0  0  0  0  0
    4.3999    2.2217    1.3600 O   0  0  0  0  0  0  0  0  0  0  0  0
    4.6592    1.8751   -1.0969 O   0  0  0  0  0  0  0  0  0  0  0  0
    3.4681    3.8842   -0.2385 N   0  0  0  0  0  0  0  0  0  0  0  0
    2.2292    4.3347    0.4274 C   0  0  0  0  0  0  0  0  0  0  0  0
    1.1255    3.4848   -0.0123 N   0  0  0  0  0  0  0  0  0  0  0  0
   -0.9601    1.9014    0.0260 H   0  0  0  0  0  0  0  0  0  0  0  0
    3.3378   -0.5082   -0.0387 H   0  0  0  0  0  0  0  0  0  0  0  0
    0.1003   -3.8036    1.4398 H   0  0  0  0  0  0  0  0  0  0  0  0
    0.6725   -2.4160    2.1947 H   0  0  0  0  0  0  0  0  0  0  0  0
    3.9962    4.4753   -0.7977 H   0  0  0  0  0  0  0  0  0  0  0  0
    2.3449    4.2538    1.5082 H   0  0  0  0  0  0  0  0  0  0  0  0
    2.0240    5.3702    0.1559 H   0  0  0  0  0  0  0  0  0  0  0  0
    0.3146    3.9114   -0.3308 H   0  0  0  0  0  0  0  0  0  0  0  0
  1  6  2  0  0  0  0
  1  2  1  0  0  0  0
  1 18  1  0  0  0  0
  2 17  1  0  0  0  0
  2  3  2  0  0  0  0
  3  4  1  0  0  0  0
  3 12  1  0  0  0  0
  4  5  2  0  0  0  0
  4 19  1  0  0  0  0
  5  6  1  0  0  0  0
  5  8  1  0  0  0  0
  6  7  1  0  0  0  0
  8  9  2  0  0  0  0
  8 10  2  0  0  0  0
  8 11  1  0  0  0  0
 11 20  1  0  0  0  0
 11 21  1  0  0  0  0
 12 13  2  0  0  0  0
 12 14  2  0  0  0  0
 12 15  1  0  0  0  0
 15 16  1  0  0  0  0
 15 22  1  0  0  0  0
 16 17  1  0  0  0  0
 16 23  1  0  0  0  0
 16 24  1  0  0  0  0
 17 25  1  0  0  0  0
M  END
$$$$
