ZINC00001288
 OpenBabel08292219463D

 36 36  0  0  0  0  0  0  0  0999 V2000
   -0.2834    1.2073    0.3254 C   0  0  0  0  0  0  0  0  0  0  0  0
    0.0849   -0.2347   -0.0294 C   0  0  0  0  0  0  0  0  0  0  0  0
    0.7204   -0.2658   -1.3490 N   0  0  0  0  0  0  0  0  0  0  0  0
    2.1739   -0.1249   -1.4656 C   0  0  0  0  0  0  0  0  0  0  0  0
    2.8522   -1.3989   -0.9580 C   0  0  0  0  0  0  0  0  0  0  0  0
   -0.0323   -0.4241   -2.4558 C   0  0  0  0  0  0  0  0  0  0  0  0
   -1.2435   -0.3463   -2.3836 O   0  0  0  0  0  0  0  0  0  0  0  0
    0.5577   -0.6687   -3.6426 N   0  0  0  0  0  0  0  0  0  0  0  0
    1.9464   -1.1491   -3.7123 C   0  0  0  0  0  0  0  0  0  0  0  0
    1.9891   -2.3811   -4.6223 C   0  0  0  0  0  0  0  0  0  0  0  0
    1.3972   -2.0477   -5.9240 N   0  3  0  0  0  0  0  0  0  0  0  0
   -0.0263   -1.7278   -5.7588 C   0  0  0  0  0  0  0  0  0  0  0  0
   -0.1708   -0.4688   -4.9050 C   0  0  0  0  0  0  0  0  0  0  0  0
    1.5374   -3.1942   -6.8317 C   0  0  0  0  0  0  0  0  0  0  0  0
    0.6185    1.8192    0.3419 H   0  0  0  0  0  0  0  0  0  0  0  0
   -0.9750    1.5996   -0.4202 H   0  0  0  0  0  0  0  0  0  0  0  0
   -0.7562    1.2305    1.3072 H   0  0  0  0  0  0  0  0  0  0  0  0
    0.7765   -0.6270    0.7162 H   0  0  0  0  0  0  0  0  0  0  0  0
   -0.8170   -0.8465   -0.0459 H   0  0  0  0  0  0  0  0  0  0  0  0
    2.4406    0.0373   -2.5100 H   0  0  0  0  0  0  0  0  0  0  0  0
    2.5055    0.7254   -0.8697 H   0  0  0  0  0  0  0  0  0  0  0  0
    2.5855   -1.5611    0.0863 H   0  0  0  0  0  0  0  0  0  0  0  0
    2.5206   -2.2492   -1.5540 H   0  0  0  0  0  0  0  0  0  0  0  0
    3.9336   -1.2941   -1.0448 H   0  0  0  0  0  0  0  0  0  0  0  0
    2.5843   -0.3671   -4.1243 H   0  0  0  0  0  0  0  0  0  0  0  0
    2.2911   -1.4189   -2.7140 H   0  0  0  0  0  0  0  0  0  0  0  0
    3.0239   -2.6934   -4.7628 H   0  0  0  0  0  0  0  0  0  0  0  0
    1.4239   -3.1920   -4.1629 H   0  0  0  0  0  0  0  0  0  0  0  0
   -0.4767   -1.5587   -6.7369 H   0  0  0  0  0  0  0  0  0  0  0  0
   -0.5306   -2.5584   -5.2651 H   0  0  0  0  0  0  0  0  0  0  0  0
   -1.2251   -0.2890   -4.6949 H   0  0  0  0  0  0  0  0  0  0  0  0
    0.2496    0.3831   -5.4395 H   0  0  0  0  0  0  0  0  0  0  0  0
    1.0238   -4.0575   -6.4087 H   0  0  0  0  0  0  0  0  0  0  0  0
    1.0984   -2.9480   -7.7985 H   0  0  0  0  0  0  0  0  0  0  0  0
    2.5942   -3.4277   -6.9615 H   0  0  0  0  0  0  0  0  0  0  0  0
    1.8765   -1.2510   -6.3159 H   0  0  0  0  0  0  0  0  0  0  0  0
  1  2  1  0  0  0  0
  1 15  1  0  0  0  0
  1 16  1  0  0  0  0
  1 17  1  0  0  0  0
  2  3  1  0  0  0  0
  2 18  1  0  0  0  0
  2 19  1  0  0  0  0
  3  4  1  0  0  0  0
  3  6  1  0  0  0  0
  4  5  1  0  0  0  0
  4 20  1  0  0  0  0
  4 21  1  0  0  0  0
  5 22  1  0  0  0  0
  5 23  1  0  0  0  0
  5 24  1  0  0  0  0
  6  7  2  0  0  0  0
  6  8  1  0  0  0  0
  8 13  1  0  0  0  0
  8  9  1  0  0  0  0
  9 10  1  0  0  0  0
  9 25  1  0  0  0  0
  9 26  1  0  0  0  0
 10 11  1  0  0  0  0
 10 27  1  0  0  0  0
 10 28  1  0  0  0  0
 11 12  1  0  0  0  0
 11 14  1  0  0  0  0
 11 36  1  0  0  0  0
 12 13  1  0  0  0  0
 12 29  1  0  0  0  0
 12 30  1  0  0  0  0
 13 31  1  0  0  0  0
 13 32  1  0  0  0  0
 14 33  1  0  0  0  0
 14 34  1  0  0  0  0
 14 35  1  0  0  0  0
M  CHG  1  11   1
M  END
$$$$
