ZINC08143723
 OpenBabel08292219463D

 54 55  0  0  1  0  0  0  0  0999 V2000
    0.8862    2.7878   -0.9604 C   0  0  0  0  0  0  0  0  0  0  0  0
   -0.3571    1.9399   -1.0388 C   0  0  0  0  0  0  0  0  0  0  0  0
   -0.6103    1.3272   -2.0545 O   0  0  0  0  0  0  0  0  0  0  0  0
   -1.1906    1.8666    0.0178 N   0  0  0  0  0  0  0  0  0  0  0  0
   -2.3918    1.1548   -0.0860 C   0  0  0  0  0  0  0  0  0  0  0  0
   -2.4229   -0.1988    0.2147 C   0  0  0  0  0  0  0  0  0  0  0  0
   -3.6209   -0.9076    0.1109 C   0  0  0  0  0  0  0  0  0  0  0  0
   -4.7837   -0.2504   -0.2957 C   0  0  0  0  0  0  0  0  0  0  0  0
   -4.7446    1.1030   -0.5946 C   0  0  0  0  0  0  0  0  0  0  0  0
   -3.5517    1.8061   -0.4845 C   0  0  0  0  0  0  0  0  0  0  0  0
   -3.5005    3.8529   -0.9286 I   0  0  0  0  0  0  0  0  0  0  0  0
   -5.9101    1.7630   -1.0023 N   0  0  0  0  0  0  0  0  0  0  0  0
   -6.7874    2.3831   -0.0062 C   0  0  0  0  0  0  0  0  0  0  0  0
   -6.2251    1.8278   -2.3112 C   0  0  0  0  0  0  0  0  0  0  0  0
   -5.4988    1.3143   -3.1358 O   0  0  0  0  0  0  0  0  0  0  0  0
   -7.4796    2.5381   -2.7500 C   0  0  0  0  0  0  0  0  0  0  0  0
   -6.5853   -1.3079   -0.4545 I   0  0  0  0  0  0  0  0  0  0  0  0
   -3.6582   -2.3500    0.4299 C   0  0  0  0  0  0  0  0  0  0  0  0
   -3.8953   -2.7155    1.5648 O   0  0  0  0  0  0  0  0  0  0  0  0
   -3.4294   -3.2602   -0.5374 N   0  0  0  0  0  0  0  0  0  0  0  0
   -3.4664   -4.6902   -0.2211 C   0  0  2  0  0  0  0  0  0  0  0  0
   -3.0749   -4.8513    0.7834 H   0  0  0  0  0  0  0  0  0  0  0  0
   -2.6138   -5.4607   -1.2339 C   0  0  2  0  0  0  0  0  0  0  0  0
   -2.9749   -5.2593   -2.2425 H   0  0  0  0  0  0  0  0  0  0  0  0
   -2.7228   -6.9602   -0.9405 C   0  0  1  0  0  0  0  0  0  0  0  0
   -2.3156   -7.1692    0.0488 H   0  0  0  0  0  0  0  0  0  0  0  0
   -4.1956   -7.3754   -0.9857 C   0  0  2  0  0  0  0  0  0  0  0  0
   -4.5908   -7.2047   -1.9871 H   0  0  0  0  0  0  0  0  0  0  0  0
   -4.9371   -6.5995   -0.0422 O   0  0  0  0  0  0  0  0  0  0  0  0
   -4.9105   -5.1931   -0.2941 C   0  0  1  0  0  0  0  0  0  0  0  0
   -5.3151   -4.9937   -1.2864 H   0  0  0  0  0  0  0  0  0  0  0  0
   -5.7004   -4.5182    0.6870 O   0  0  0  0  0  0  0  0  0  0  0  0
   -4.3186   -8.8595   -0.6347 C   0  0  0  0  0  0  0  0  0  0  0  0
   -5.6773   -9.2744   -0.7889 O   0  0  0  0  0  0  0  0  0  0  0  0
   -1.9894   -7.6936   -1.9235 O   0  0  0  0  0  0  0  0  0  0  0  0
   -1.2499   -5.0495   -1.1215 O   0  0  0  0  0  0  0  0  0  0  0  0
   -0.6742   -1.1782    0.8247 I   0  0  0  0  0  0  0  0  0  0  0  0
    1.4277    2.7268   -1.9044 H   0  0  0  0  0  0  0  0  0  0  0  0
    0.6078    3.8239   -0.7676 H   0  0  0  0  0  0  0  0  0  0  0  0
    1.5223    2.4262   -0.1525 H   0  0  0  0  0  0  0  0  0  0  0  0
   -0.9583    2.3071    0.8503 H   0  0  0  0  0  0  0  0  0  0  0  0
   -6.4784    3.4154    0.1576 H   0  0  0  0  0  0  0  0  0  0  0  0
   -7.8160    2.3645   -0.3662 H   0  0  0  0  0  0  0  0  0  0  0  0
   -6.7204    1.8307    0.9310 H   0  0  0  0  0  0  0  0  0  0  0  0
   -7.4344    3.5815   -2.4381 H   0  0  0  0  0  0  0  0  0  0  0  0
   -7.5654    2.4867   -3.8354 H   0  0  0  0  0  0  0  0  0  0  0  0
   -8.3464    2.0598   -2.2940 H   0  0  0  0  0  0  0  0  0  0  0  0
   -3.2402   -2.9685   -1.4429 H   0  0  0  0  0  0  0  0  0  0  0  0
   -6.6290   -4.7878    0.6978 H   0  0  0  0  0  0  0  0  0  0  0  0
   -3.6826   -9.4440   -1.2995 H   0  0  0  0  0  0  0  0  0  0  0  0
   -4.0059   -9.0158    0.3977 H   0  0  0  0  0  0  0  0  0  0  0  0
   -5.8296  -10.2068   -0.5827 H   0  0  0  0  0  0  0  0  0  0  0  0
   -2.0189   -8.6525   -1.8018 H   0  0  0  0  0  0  0  0  0  0  0  0
   -0.6520   -5.4980   -1.7351 H   0  0  0  0  0  0  0  0  0  0  0  0
  1  2  1  0  0  0  0
  1 38  1  0  0  0  0
  1 39  1  0  0  0  0
  1 40  1  0  0  0  0
  2  3  2  0  0  0  0
  2  4  1  0  0  0  0
  4  5  1  0  0  0  0
  4 41  1  0  0  0  0
  5 10  2  0  0  0  0
  5  6  1  0  0  0  0
  6  7  2  0  0  0  0
  6 37  1  0  0  0  0
  7  8  1  0  0  0  0
  7 18  1  0  0  0  0
  8  9  2  0  0  0  0
  8 17  1  0  0  0  0
  9 10  1  0  0  0  0
  9 12  1  0  0  0  0
 10 11  1  0  0  0  0
 12 13  1  0  0  0  0
 12 14  1  0  0  0  0
 13 42  1  0  0  0  0
 13 43  1  0  0  0  0
 13 44  1  0  0  0  0
 14 15  2  0  0  0  0
 14 16  1  0  0  0  0
 16 45  1  0  0  0  0
 16 46  1  0  0  0  0
 16 47  1  0  0  0  0
 18 19  2  0  0  0  0
 18 20  1  0  0  0  0
 20 21  1  0  0  0  0
 20 48  1  0  0  0  0
 21 22  1  1  0  0  0
 21 30  1  0  0  0  0
 21 23  1  0  0  0  0
 23 24  1  6  0  0  0
 23 25  1  0  0  0  0
 23 36  1  0  0  0  0
 25 26  1  1  0  0  0
 25 27  1  0  0  0  0
 25 35  1  0  0  0  0
 27 28  1  6  0  0  0
 27 29  1  0  0  0  0
 27 33  1  0  0  0  0
 29 30  1  0  0  0  0
 30 31  1  6  0  0  0
 30 32  1  0  0  0  0
 32 49  1  0  0  0  0
 33 34  1  0  0  0  0
 33 50  1  0  0  0  0
 33 51  1  0  0  0  0
 34 52  1  0  0  0  0
 35 53  1  0  0  0  0
 36 54  1  0  0  0  0
M  END
$$$$
