ZINC00643153
 OpenBabel08292219463D

 65 69  0  0  1  0  0  0  0  0999 V2000
    2.3952   -0.7566    1.2944 C   0  0  0  0  0  0  0  0  0  0  0  0
    2.3911    0.0040   -0.0066 C   0  0  0  0  0  0  0  0  0  0  0  0
    2.3896    1.2168   -0.0000 O   0  0  0  0  0  0  0  0  0  0  0  0
    2.3891   -0.6636   -1.1775 N   0  0  0  0  0  0  0  0  0  0  0  0
    2.3847   -2.1330   -1.2007 C   0  0  0  0  0  0  0  0  0  0  0  0
    1.1892   -2.6064   -2.0367 C   0  0  0  0  0  0  0  0  0  0  0  0
    1.1909   -1.8779   -3.3131 N   0  0  0  0  0  0  0  0  0  0  0  0
    1.1953   -0.4084   -3.2899 C   0  0  0  0  0  0  0  0  0  0  0  0
    2.3851    0.0650   -2.4538 C   0  0  0  0  0  0  0  0  0  0  0  0
    1.1889   -2.5710   -4.5288 C   0  0  0  0  0  0  0  0  0  0  0  0
    1.0744   -1.8751   -5.7250 C   0  0  0  0  0  0  0  0  0  0  0  0
    1.0730   -2.5599   -6.9243 C   0  0  0  0  0  0  0  0  0  0  0  0
    1.1857   -3.9423   -6.9342 C   0  0  0  0  0  0  0  0  0  0  0  0
    1.2996   -4.6382   -5.7398 C   0  0  0  0  0  0  0  0  0  0  0  0
    1.3070   -3.9545   -4.5398 C   0  0  0  0  0  0  0  0  0  0  0  0
    1.1842   -4.6158   -8.1157 O   0  0  0  0  0  0  0  0  0  0  0  0
    1.3038   -6.0384   -8.0517 C   0  0  0  0  0  0  0  0  0  0  0  0
    1.2832   -6.6162   -9.4682 C   0  0  2  0  0  0  0  0  0  0  0  0
    0.3976   -6.2797  -10.0072 H   0  0  0  0  0  0  0  0  0  0  0  0
    1.3452   -8.1636   -9.4292 C   0  0  0  0  0  0  0  0  0  0  0  0
    1.9410   -8.4666  -10.7136 O   0  0  0  0  0  0  0  0  0  0  0  0
    2.8876   -7.4084  -10.9385 C   0  0  1  0  0  0  0  0  0  0  0  0
    2.4824   -6.2557  -10.1832 O   0  0  0  0  0  0  0  0  0  0  0  0
    4.2786   -7.8586  -10.4876 C   0  0  0  0  0  0  0  0  0  0  0  0
    4.2427   -8.2035   -9.0642 N   0  0  0  0  0  0  0  0  0  0  0  0
    4.4700   -7.3526   -8.0163 C   0  0  0  0  0  0  0  0  0  0  0  0
    4.3369   -8.0779   -6.8895 C   0  0  0  0  0  0  0  0  0  0  0  0
    4.0365   -9.3373   -7.2397 N   0  0  0  0  0  4  0  0  0  0  0  0
    3.9734   -9.4188   -8.5407 C   0  0  0  0  0  0  0  0  0  0  0  0
    2.9214   -7.0624  -12.4048 C   0  0  0  0  0  0  0  0  0  0  0  0
    4.1017   -7.1781  -13.1151 C   0  0  0  0  0  0  0  0  0  0  0  0
    4.1335   -6.8610  -14.4599 C   0  0  0  0  0  0  0  0  0  0  0  0
    2.9836   -6.4279  -15.0963 C   0  0  0  0  0  0  0  0  0  0  0  0
    1.8023   -6.3124  -14.3863 C   0  0  0  0  0  0  0  0  0  0  0  0
    1.7700   -6.6346  -13.0412 C   0  0  0  0  0  0  0  0  0  0  0  0
    0.2863   -6.4958  -12.1506 Cl  0  0  0  0  0  0  0  0  0  0  0  0
    3.0239   -6.0291  -16.7854 Cl  0  0  0  0  0  0  0  0  0  0  0  0
    1.3685   -0.9413    1.6105 H   0  0  0  0  0  0  0  0  0  0  0  0
    2.9099   -1.7076    1.1576 H   0  0  0  0  0  0  0  0  0  0  0  0
    2.9101   -0.1710    2.0560 H   0  0  0  0  0  0  0  0  0  0  0  0
    3.3104   -2.4946   -1.6485 H   0  0  0  0  0  0  0  0  0  0  0  0
    2.2940   -2.5147   -0.1837 H   0  0  0  0  0  0  0  0  0  0  0  0
    1.2760   -3.6763   -2.2261 H   0  0  0  0  0  0  0  0  0  0  0  0
    0.2632   -2.4013   -1.4997 H   0  0  0  0  0  0  0  0  0  0  0  0
    1.2861   -0.0267   -4.3068 H   0  0  0  0  0  0  0  0  0  0  0  0
    0.2697   -0.0468   -2.8421 H   0  0  0  0  0  0  0  0  0  0  0  0
    2.2946    1.1346   -2.2643 H   0  0  0  0  0  0  0  0  0  0  0  0
    3.3108   -0.1365   -2.9929 H   0  0  0  0  0  0  0  0  0  0  0  0
    0.9862   -0.7987   -5.7174 H   0  0  0  0  0  0  0  0  0  0  0  0
    0.9836   -2.0189   -7.8548 H   0  0  0  0  0  0  0  0  0  0  0  0
    1.3871   -5.7146   -5.7484 H   0  0  0  0  0  0  0  0  0  0  0  0
    1.4005   -4.4961   -3.6102 H   0  0  0  0  0  0  0  0  0  0  0  0
    2.2428   -6.3025   -7.5652 H   0  0  0  0  0  0  0  0  0  0  0  0
    0.4708   -6.4477   -7.4801 H   0  0  0  0  0  0  0  0  0  0  0  0
    1.9806   -8.5083   -8.6134 H   0  0  0  0  0  0  0  0  0  0  0  0
    0.3461   -8.5924   -9.3516 H   0  0  0  0  0  0  0  0  0  0  0  0
    4.5830   -8.7314  -11.0653 H   0  0  0  0  0  0  0  0  0  0  0  0
    4.9919   -7.0501  -10.6477 H   0  0  0  0  0  0  0  0  0  0  0  0
    4.7104   -6.3016   -8.0809 H   0  0  0  0  0  0  0  0  0  0  0  0
    4.4519   -7.7100   -5.8806 H   0  0  0  0  0  0  0  0  0  0  0  0
    3.7461  -10.3110   -9.1052 H   0  0  0  0  0  0  0  0  0  0  0  0
    4.9995   -7.5160  -12.6189 H   0  0  0  0  0  0  0  0  0  0  0  0
    5.0561   -6.9509  -15.0141 H   0  0  0  0  0  0  0  0  0  0  0  0
    0.9046   -5.9745  -14.8826 H   0  0  0  0  0  0  0  0  0  0  0  0
    3.8861  -10.0709   -6.6232 H   0  0  0  0  0  0  0  0  0  0  0  0
  1  2  1  0  0  0  0
  1 38  1  0  0  0  0
  1 39  1  0  0  0  0
  1 40  1  0  0  0  0
  2  3  2  0  0  0  0
  2  4  1  0  0  0  0
  4  9  1  0  0  0  0
  4  5  1  0  0  0  0
  5  6  1  0  0  0  0
  5 41  1  0  0  0  0
  5 42  1  0  0  0  0
  6  7  1  0  0  0  0
  6 43  1  0  0  0  0
  6 44  1  0  0  0  0
  7  8  1  0  0  0  0
  7 10  1  0  0  0  0
  8  9  1  0  0  0  0
  8 45  1  0  0  0  0
  8 46  1  0  0  0  0
  9 47  1  0  0  0  0
  9 48  1  0  0  0  0
 10 15  2  0  0  0  0
 10 11  1  0  0  0  0
 11 12  2  0  0  0  0
 11 49  1  0  0  0  0
 12 13  1  0  0  0  0
 12 50  1  0  0  0  0
 13 14  2  0  0  0  0
 13 16  1  0  0  0  0
 14 15  1  0  0  0  0
 14 51  1  0  0  0  0
 15 52  1  0  0  0  0
 16 17  1  0  0  0  0
 17 18  1  0  0  0  0
 17 53  1  0  0  0  0
 17 54  1  0  0  0  0
 18 19  1  6  0  0  0
 18 23  1  0  0  0  0
 18 20  1  0  0  0  0
 20 21  1  0  0  0  0
 20 55  1  0  0  0  0
 20 56  1  0  0  0  0
 21 22  1  0  0  0  0
 22 23  1  0  0  0  0
 22 24  1  1  0  0  0
 22 30  1  0  0  0  0
 24 25  1  0  0  0  0
 24 57  1  0  0  0  0
 24 58  1  0  0  0  0
 25 29  1  0  0  0  0
 25 26  1  0  0  0  0
 26 27  2  0  0  0  0
 26 59  1  0  0  0  0
 27 28  1  0  0  0  0
 27 60  1  0  0  0  0
 28 29  2  0  0  0  0
 28 65  1  0  0  0  0
 29 61  1  0  0  0  0
 30 35  2  0  0  0  0
 30 31  1  0  0  0  0
 31 32  2  0  0  0  0
 31 62  1  0  0  0  0
 32 33  1  0  0  0  0
 32 63  1  0  0  0  0
 33 34  2  0  0  0  0
 33 37  1  0  0  0  0
 34 35  1  0  0  0  0
 34 64  1  0  0  0  0
 35 36  1  0  0  0  0
M  END
$$$$
