ZINC01532673
 OpenBabel08292219463D

 26 25  0  0  1  0  0  0  0  0999 V2000
    0.5593    1.3331   -0.0212 C   0  0  0  0  0  0  0  0  0  0  0  0
    0.8470   -0.1459   -0.2869 C   0  0  1  0  0  0  0  0  0  0  0  0
    1.5680   -0.5127    0.4436 H   0  0  0  0  0  0  0  0  0  0  0  0
   -0.4316   -0.9351   -0.1706 C   0  0  0  0  0  0  0  0  0  0  0  0
   -0.9426   -1.4180   -1.1667 O   0  0  0  0  0  0  0  0  0  0  0  0
   -0.9550   -1.0907    0.9195 O   0  0  0  0  0  1  0  0  0  0  0  0
    1.3977   -0.3023   -1.6397 N   0  3  0  0  0  0  0  0  0  0  0  0
    2.1196    2.2581    0.0007 S   0  0  0  0  0  0  0  0  0  0  0  0
    2.6162    2.4400   -1.9799 S   0  0  0  0  0  0  0  0  0  0  0  0
    1.7035    3.9087   -2.5281 C   0  0  0  0  0  0  0  0  0  0  0  0
    2.4128    5.1673   -2.0245 C   0  0  1  0  0  0  0  0  0  0  0  0
    3.4543    5.1505   -2.3454 H   0  0  0  0  0  0  0  0  0  0  0  0
    1.7326    6.3875   -2.5899 C   0  0  0  0  0  0  0  0  0  0  0  0
    1.0874    7.1195   -1.8588 O   0  0  0  0  0  0  0  0  0  0  0  0
    1.8275    6.6426   -3.7783 O   0  0  0  0  0  1  0  0  0  0  0  0
    2.3531    5.2091   -0.5573 N   0  3  0  0  0  0  0  0  0  0  0  0
   -0.0845    1.7252   -0.8085 H   0  0  0  0  0  0  0  0  0  0  0  0
    0.0606    1.4389    0.9423 H   0  0  0  0  0  0  0  0  0  0  0  0
    0.7853    0.1441   -2.3058 H   0  0  0  0  0  0  0  0  0  0  0  0
    2.3105    0.1254   -1.6828 H   0  0  0  0  0  0  0  0  0  0  0  0
    1.6629    3.9257   -3.6172 H   0  0  0  0  0  0  0  0  0  0  0  0
    0.6904    3.8775   -2.1272 H   0  0  0  0  0  0  0  0  0  0  0  0
    2.9005    4.4518   -0.1767 H   0  0  0  0  0  0  0  0  0  0  0  0
    2.7234    6.0890   -0.2306 H   0  0  0  0  0  0  0  0  0  0  0  0
    1.4755   -1.2840   -1.8598 H   0  0  0  0  0  0  0  0  0  0  0  0
    1.3944    5.1153   -0.2569 H   0  0  0  0  0  0  0  0  0  0  0  0
  1  2  1  0  0  0  0
  1  8  1  0  0  0  0
  1 17  1  0  0  0  0
  1 18  1  0  0  0  0
  2  3  1  1  0  0  0
  2  4  1  0  0  0  0
  2  7  1  0  0  0  0
  4  5  2  0  0  0  0
  4  6  1  0  0  0  0
  7 19  1  0  0  0  0
  7 20  1  0  0  0  0
  7 25  1  0  0  0  0
  8  9  1  0  0  0  0
  9 10  1  0  0  0  0
 10 11  1  0  0  0  0
 10 21  1  0  0  0  0
 10 22  1  0  0  0  0
 11 12  1  6  0  0  0
 11 13  1  0  0  0  0
 11 16  1  0  0  0  0
 13 14  2  0  0  0  0
 13 15  1  0  0  0  0
 16 23  1  0  0  0  0
 16 24  1  0  0  0  0
 16 26  1  0  0  0  0
M  CHG  2   7   1  16   1
M  END
$$$$
