ZINC00001798
 OpenBabel08292219463D

 27 28  0  0  1  0  0  0  0  0999 V2000
   -0.0178    1.4648    0.0101 C   0  0  0  0  0  0  0  0  0  0  0  0
    0.0021   -0.0041    0.0020 N   0  3  1  0  0  0  0  0  0  0  0  0
    0.7116   -0.4854   -1.2024 C   0  0  0  0  0  0  0  0  0  0  0  0
    2.1644   -0.7417   -0.7297 C   0  0  0  0  0  0  0  0  0  0  0  0
    1.9349   -1.3008    0.6992 C   0  0  0  0  0  0  0  0  0  0  0  0
    0.7144   -0.4972    1.1951 C   0  0  2  0  0  0  0  0  0  0  0  0
    1.0466    0.3444    1.8028 H   0  0  0  0  0  0  0  0  0  0  0  0
   -0.1934   -1.3894    2.0019 C   0  0  0  0  0  0  0  0  0  0  0  0
   -0.1954   -1.3208    3.3869 C   0  0  0  0  0  0  0  0  0  0  0  0
   -1.0469   -2.1606    4.0879 C   0  0  0  0  0  0  0  0  0  0  0  0
   -1.8599   -3.0322    3.3880 C   0  0  0  0  0  0  0  0  0  0  0  0
   -1.8312   -3.0705    2.0703 N   0  0  0  0  0  0  0  0  0  0  0  0
   -1.0384   -2.2821    1.3707 C   0  0  0  0  0  0  0  0  0  0  0  0
    1.0047    1.8421    0.0024 H   0  0  0  0  0  0  0  0  0  0  0  0
   -0.5450    1.8259   -0.8730 H   0  0  0  0  0  0  0  0  0  0  0  0
   -0.5280    1.8163    0.9069 H   0  0  0  0  0  0  0  0  0  0  0  0
    0.2615   -1.4100   -1.5639 H   0  0  0  0  0  0  0  0  0  0  0  0
    0.6951    0.2760   -1.9822 H   0  0  0  0  0  0  0  0  0  0  0  0
    2.6567   -1.4795   -1.3633 H   0  0  0  0  0  0  0  0  0  0  0  0
    2.7345    0.1867   -0.6988 H   0  0  0  0  0  0  0  0  0  0  0  0
    1.7066   -2.3661    0.6641 H   0  0  0  0  0  0  0  0  0  0  0  0
    2.8030   -1.1122    1.3308 H   0  0  0  0  0  0  0  0  0  0  0  0
    0.4514   -0.6298    3.9071 H   0  0  0  0  0  0  0  0  0  0  0  0
   -1.0745   -2.1344    5.1672 H   0  0  0  0  0  0  0  0  0  0  0  0
   -2.5262   -3.6898    3.9266 H   0  0  0  0  0  0  0  0  0  0  0  0
   -1.0464   -2.3382    0.2922 H   0  0  0  0  0  0  0  0  0  0  0  0
   -0.9431   -0.3572    0.0007 H   0  0  0  0  0  0  0  0  0  0  0  0
  1  2  1  0  0  0  0
  1 14  1  0  0  0  0
  1 15  1  0  0  0  0
  1 16  1  0  0  0  0
  2  6  1  0  0  0  0
  2  3  1  0  0  0  0
  2 27  1  6  0  0  0
  3  4  1  0  0  0  0
  3 17  1  0  0  0  0
  3 18  1  0  0  0  0
  4  5  1  0  0  0  0
  4 19  1  0  0  0  0
  4 20  1  0  0  0  0
  5  6  1  0  0  0  0
  5 21  1  0  0  0  0
  5 22  1  0  0  0  0
  6  7  1  1  0  0  0
  6  8  1  0  0  0  0
  8 13  2  0  0  0  0
  8  9  1  0  0  0  0
  9 10  2  0  0  0  0
  9 23  1  0  0  0  0
 10 11  1  0  0  0  0
 10 24  1  0  0  0  0
 11 12  2  0  0  0  0
 11 25  1  0  0  0  0
 12 13  1  0  0  0  0
 13 26  1  0  0  0  0
M  CHG  1   2   1
M  END
$$$$
