ZINC01995484
 OpenBabel08292219463D

 48 49  0  0  1  0  0  0  0  0999 V2000
   -0.0187    1.5258    0.0104 C   0  0  0  0  0  0  0  0  0  0  0  0
    0.0021   -0.0041    0.0020 C   0  0  0  0  0  0  0  0  0  0  0  0
    0.7421   -0.5109    1.2415 C   0  0  0  0  0  0  0  0  0  0  0  0
   -1.4333   -0.5336    0.0129 C   0  0  1  0  0  0  0  0  0  0  0  0
   -1.9605   -0.1726   -0.8702 H   0  0  0  0  0  0  0  0  0  0  0  0
   -1.4129   -2.0405    0.0046 C   0  0  0  0  0  0  0  0  0  0  0  0
   -1.5765   -2.6526    1.0334 O   0  0  0  0  0  0  0  0  0  0  0  0
   -1.2129   -2.7027   -1.1457 O   0  0  0  0  0  0  0  0  0  0  0  0
   -1.2058   -4.1301   -1.0798 C   0  0  0  0  0  0  0  0  0  0  0  0
   -0.9657   -4.7040   -2.4776 C   0  0  2  0  0  0  0  0  0  0  0  0
   -0.8718   -5.7881   -2.4141 H   0  0  0  0  0  0  0  0  0  0  0  0
    0.3214   -4.1137   -3.0571 C   0  0  0  0  0  0  0  0  0  0  0  0
    0.2444   -2.6870   -3.0325 O   0  0  0  0  0  0  0  0  0  0  0  0
   -2.0667   -4.3702   -3.3252 O   0  0  0  0  0  0  0  0  0  0  0  0
   -2.3201   -5.3294   -4.3537 C   0  0  0  0  0  0  0  0  0  0  0  0
   -3.4626   -4.8911   -5.1593 N   0  0  0  0  0  0  0  0  0  0  0  0
   -4.1847   -3.7468   -4.9807 C   0  0  0  0  0  0  0  0  0  0  0  0
   -5.1264   -3.6755   -5.8755 N   0  0  0  0  0  0  0  0  0  0  0  0
   -5.0655   -4.7653   -6.6789 C   0  0  0  0  0  0  0  0  0  0  0  0
   -3.9971   -5.5514   -6.2323 C   0  0  0  0  0  0  0  0  0  0  0  0
   -3.7087   -6.6969   -6.8608 N   0  0  0  0  0  0  0  0  0  0  0  0
   -4.4111   -7.0990   -7.8965 C   0  0  0  0  0  0  0  0  0  0  0  0
   -5.4606   -6.3760   -8.3796 N   0  0  0  0  0  0  0  0  0  0  0  0
   -5.9585   -6.7011   -9.1460 H   0  0  0  0  0  0  0  0  0  0  0  0
   -5.8164   -5.2125   -7.7912 C   0  0  0  0  0  0  0  0  0  0  0  0
   -6.7524   -4.5576   -8.2170 O   0  0  0  0  0  0  0  0  0  0  0  0
   -4.0778   -8.2808   -8.5093 N   0  0  0  0  0  0  0  0  0  0  0  0
   -2.1209   -0.0599    1.2215 N   0  3  0  0  0  0  0  0  0  0  0  0
    1.0039    1.9031    0.0027 H   0  0  0  0  0  0  0  0  0  0  0  0
   -0.5459    1.8868   -0.8726 H   0  0  0  0  0  0  0  0  0  0  0  0
   -0.5289    1.8773    0.9072 H   0  0  0  0  0  0  0  0  0  0  0  0
    0.5123   -0.3556   -0.8948 H   0  0  0  0  0  0  0  0  0  0  0  0
    0.7568   -1.6008    1.2356 H   0  0  0  0  0  0  0  0  0  0  0  0
    1.7647   -0.1336    1.2338 H   0  0  0  0  0  0  0  0  0  0  0  0
    0.2319   -0.1594    2.1383 H   0  0  0  0  0  0  0  0  0  0  0  0
   -0.4108   -4.4590   -0.4105 H   0  0  0  0  0  0  0  0  0  0  0  0
   -2.1664   -4.4812   -0.7030 H   0  0  0  0  0  0  0  0  0  0  0  0
    1.1725   -4.4420   -2.4605 H   0  0  0  0  0  0  0  0  0  0  0  0
    0.4460   -4.4531   -4.0854 H   0  0  0  0  0  0  0  0  0  0  0  0
    1.0282   -2.2446   -3.3860 H   0  0  0  0  0  0  0  0  0  0  0  0
   -1.4402   -5.4205   -4.9904 H   0  0  0  0  0  0  0  0  0  0  0  0
   -2.5435   -6.2959   -3.9021 H   0  0  0  0  0  0  0  0  0  0  0  0
   -4.0020   -3.0110   -4.2116 H   0  0  0  0  0  0  0  0  0  0  0  0
   -3.3332   -8.8062   -8.1771 H   0  0  0  0  0  0  0  0  0  0  0  0
   -4.5868   -8.5906   -9.2747 H   0  0  0  0  0  0  0  0  0  0  0  0
   -2.1346    0.9490    1.2270 H   0  0  0  0  0  0  0  0  0  0  0  0
   -3.0675   -0.4091    1.2287 H   0  0  0  0  0  0  0  0  0  0  0  0
   -1.6329   -0.3942    2.0389 H   0  0  0  0  0  0  0  0  0  0  0  0
  1  2  1  0  0  0  0
  1 29  1  0  0  0  0
  1 30  1  0  0  0  0
  1 31  1  0  0  0  0
  2  3  1  0  0  0  0
  2  4  1  0  0  0  0
  2 32  1  0  0  0  0
  3 33  1  0  0  0  0
  3 34  1  0  0  0  0
  3 35  1  0  0  0  0
  4  5  1  6  0  0  0
  4  6  1  0  0  0  0
  4 28  1  0  0  0  0
  6  7  2  0  0  0  0
  6  8  1  0  0  0  0
  8  9  1  0  0  0  0
  9 10  1  0  0  0  0
  9 36  1  0  0  0  0
  9 37  1  0  0  0  0
 10 11  1  1  0  0  0
 10 12  1  0  0  0  0
 10 14  1  0  0  0  0
 12 13  1  0  0  0  0
 12 38  1  0  0  0  0
 12 39  1  0  0  0  0
 13 40  1  0  0  0  0
 14 15  1  0  0  0  0
 15 16  1  0  0  0  0
 15 41  1  0  0  0  0
 15 42  1  0  0  0  0
 16 20  1  0  0  0  0
 16 17  1  0  0  0  0
 17 18  2  0  0  0  0
 17 43  1  0  0  0  0
 18 19  1  0  0  0  0
 19 25  1  0  0  0  0
 19 20  2  0  0  0  0
 20 21  1  0  0  0  0
 21 22  2  0  0  0  0
 22 23  1  0  0  0  0
 22 27  1  0  0  0  0
 23 24  1  0  0  0  0
 23 25  1  0  0  0  0
 25 26  2  0  0  0  0
 27 44  1  0  0  0  0
 27 45  1  0  0  0  0
 28 46  1  0  0  0  0
 28 47  1  0  0  0  0
 28 48  1  0  0  0  0
M  CHG  1  28   1
M  END
$$$$
