ZINC00895199
 OpenBabel08292219463D

 25 25  0  0  1  0  0  0  0  0999 V2000
   -0.0167    1.3779    0.0096 C   0  0  0  0  0  0  0  0  0  0  0  0
    1.1696    2.0886    0.0021 C   0  0  0  0  0  0  0  0  0  0  0  0
    2.3802    1.4154   -0.0130 C   0  0  0  0  0  0  0  0  0  0  0  0
    2.3990    0.0236   -0.0206 C   0  0  0  0  0  0  0  0  0  0  0  0
    1.2071   -0.6822   -0.0130 C   0  0  0  0  0  0  0  0  0  0  0  0
    0.0021   -0.0041    0.0020 C   0  0  0  0  0  0  0  0  0  0  0  0
   -1.2936   -0.7736    0.0102 C   0  0  0  0  0  0  0  0  0  0  0  0
   -1.7458   -1.0263   -1.4294 C   0  0  1  0  0  0  0  0  0  0  0  0
   -0.9475   -1.5252   -1.9788 H   0  0  0  0  0  0  0  0  0  0  0  0
   -2.9739   -1.8997   -1.4243 C   0  0  0  0  0  0  0  0  0  0  0  0
   -4.0821   -1.3931   -1.3810 O   0  0  0  0  0  0  0  0  0  0  0  0
   -2.8593   -3.1129   -1.4633 O   0  0  0  0  0  1  0  0  0  0  0  0
   -2.0588    0.2549   -2.0764 N   0  3  0  0  0  0  0  0  0  0  0  0
    3.5850   -0.6417   -0.0359 O   0  0  0  0  0  0  0  0  0  0  0  0
    3.5476    2.1129   -0.0209 O   0  0  0  0  0  0  0  0  0  0  0  0
   -0.9598    1.9038    0.0259 H   0  0  0  0  0  0  0  0  0  0  0  0
    1.1522    3.1684    0.0077 H   0  0  0  0  0  0  0  0  0  0  0  0
    1.2190   -1.7621   -0.0189 H   0  0  0  0  0  0  0  0  0  0  0  0
   -1.1467   -1.7271    0.5175 H   0  0  0  0  0  0  0  0  0  0  0  0
   -2.0555   -0.1967    0.5344 H   0  0  0  0  0  0  0  0  0  0  0  0
   -1.2366    0.8397   -2.0799 H   0  0  0  0  0  0  0  0  0  0  0  0
   -2.3570    0.0883   -3.0258 H   0  0  0  0  0  0  0  0  0  0  0  0
    3.9367   -0.8389    0.8430 H   0  0  0  0  0  0  0  0  0  0  0  0
    3.8938    2.3101    0.8602 H   0  0  0  0  0  0  0  0  0  0  0  0
   -2.7979    0.7168   -1.5679 H   0  0  0  0  0  0  0  0  0  0  0  0
  1  6  2  0  0  0  0
  1  2  1  0  0  0  0
  1 16  1  0  0  0  0
  2  3  2  0  0  0  0
  2 17  1  0  0  0  0
  3  4  1  0  0  0  0
  3 15  1  0  0  0  0
  4  5  2  0  0  0  0
  4 14  1  0  0  0  0
  5  6  1  0  0  0  0
  5 18  1  0  0  0  0
  6  7  1  0  0  0  0
  7  8  1  0  0  0  0
  7 19  1  0  0  0  0
  7 20  1  0  0  0  0
  8  9  1  6  0  0  0
  8 10  1  0  0  0  0
  8 13  1  0  0  0  0
 10 11  2  0  0  0  0
 10 12  1  0  0  0  0
 13 21  1  0  0  0  0
 13 22  1  0  0  0  0
 13 25  1  0  0  0  0
 14 23  1  0  0  0  0
 15 24  1  0  0  0  0
M  CHG  1  13   1
M  END
$$$$
