ZINC01530713
 OpenBabel08292219463D

 44 45  0  0  1  0  0  0  0  0999 V2000
   -0.0187    1.5258    0.0104 C   0  0  0  0  0  0  0  0  0  0  0  0
    0.0021   -0.0041    0.0020 C   0  0  0  0  0  0  0  0  0  0  0  0
    0.7421   -0.5109    1.2415 C   0  0  0  0  0  0  0  0  0  0  0  0
   -1.4333   -0.5336    0.0129 C   0  0  1  0  0  0  0  0  0  0  0  0
   -1.9605   -0.1726   -0.8702 H   0  0  0  0  0  0  0  0  0  0  0  0
   -1.4129   -2.0405    0.0046 C   0  0  0  0  0  0  0  0  0  0  0  0
   -1.5765   -2.6526    1.0334 O   0  0  0  0  0  0  0  0  0  0  0  0
   -1.2129   -2.7027   -1.1457 O   0  0  0  0  0  0  0  0  0  0  0  0
   -1.2058   -4.1301   -1.0798 C   0  0  0  0  0  0  0  0  0  0  0  0
   -0.9657   -4.7040   -2.4776 C   0  0  0  0  0  0  0  0  0  0  0  0
    0.3420   -4.3397   -2.9240 O   0  0  0  0  0  0  0  0  0  0  0  0
    0.6688   -4.8286   -4.2263 C   0  0  0  0  0  0  0  0  0  0  0  0
    2.0235   -4.3998   -4.5832 N   0  0  0  0  0  0  0  0  0  0  0  0
    2.8649   -3.6553   -3.8082 C   0  0  0  0  0  0  0  0  0  0  0  0
    3.9870   -3.4606   -4.4371 N   0  0  0  0  0  0  0  0  0  0  0  0
    3.9334   -4.0660   -5.6485 C   0  0  0  0  0  0  0  0  0  0  0  0
    2.6788   -4.6776   -5.7520 C   0  0  0  0  0  0  0  0  0  0  0  0
    2.3622   -5.3576   -6.8601 N   0  0  0  0  0  0  0  0  0  0  0  0
    3.2119   -5.4653   -7.8571 C   0  0  0  0  0  0  0  0  0  0  0  0
    4.4490   -4.8947   -7.8142 N   0  0  0  0  0  0  0  0  0  0  0  0
    5.0523   -4.9933   -8.5673 H   0  0  0  0  0  0  0  0  0  0  0  0
    4.8362   -4.1853   -6.7309 C   0  0  0  0  0  0  0  0  0  0  0  0
    5.9413   -3.6728   -6.6822 O   0  0  0  0  0  0  0  0  0  0  0  0
    2.8430   -6.1731   -8.9734 N   0  0  0  0  0  0  0  0  0  0  0  0
   -2.1209   -0.0599    1.2215 N   0  3  0  0  0  0  0  0  0  0  0  0
    1.0039    1.9031    0.0027 H   0  0  0  0  0  0  0  0  0  0  0  0
   -0.5459    1.8868   -0.8726 H   0  0  0  0  0  0  0  0  0  0  0  0
   -0.5289    1.8773    0.9072 H   0  0  0  0  0  0  0  0  0  0  0  0
    0.5123   -0.3556   -0.8948 H   0  0  0  0  0  0  0  0  0  0  0  0
    0.7568   -1.6008    1.2356 H   0  0  0  0  0  0  0  0  0  0  0  0
    1.7647   -0.1336    1.2338 H   0  0  0  0  0  0  0  0  0  0  0  0
    0.2319   -0.1594    2.1383 H   0  0  0  0  0  0  0  0  0  0  0  0
   -0.4108   -4.4590   -0.4105 H   0  0  0  0  0  0  0  0  0  0  0  0
   -2.1664   -4.4812   -0.7030 H   0  0  0  0  0  0  0  0  0  0  0  0
   -1.0484   -5.7904   -2.4435 H   0  0  0  0  0  0  0  0  0  0  0  0
   -1.7094   -4.3045   -3.1671 H   0  0  0  0  0  0  0  0  0  0  0  0
    0.6200   -5.9175   -4.2285 H   0  0  0  0  0  0  0  0  0  0  0  0
   -0.0409   -4.4316   -4.9521 H   0  0  0  0  0  0  0  0  0  0  0  0
    2.6337   -3.2833   -2.8210 H   0  0  0  0  0  0  0  0  0  0  0  0
    1.9660   -6.5852   -9.0186 H   0  0  0  0  0  0  0  0  0  0  0  0
    3.4592   -6.2614   -9.7173 H   0  0  0  0  0  0  0  0  0  0  0  0
   -1.6329   -0.3941    2.0389 H   0  0  0  0  0  0  0  0  0  0  0  0
   -2.1346    0.9490    1.2270 H   0  0  0  0  0  0  0  0  0  0  0  0
   -3.0675   -0.4091    1.2287 H   0  0  0  0  0  0  0  0  0  0  0  0
  1  2  1  0  0  0  0
  1 26  1  0  0  0  0
  1 27  1  0  0  0  0
  1 28  1  0  0  0  0
  2  3  1  0  0  0  0
  2  4  1  0  0  0  0
  2 29  1  0  0  0  0
  3 30  1  0  0  0  0
  3 31  1  0  0  0  0
  3 32  1  0  0  0  0
  4  5  1  6  0  0  0
  4  6  1  0  0  0  0
  4 25  1  0  0  0  0
  6  7  2  0  0  0  0
  6  8  1  0  0  0  0
  8  9  1  0  0  0  0
  9 10  1  0  0  0  0
  9 33  1  0  0  0  0
  9 34  1  0  0  0  0
 10 11  1  0  0  0  0
 10 35  1  0  0  0  0
 10 36  1  0  0  0  0
 11 12  1  0  0  0  0
 12 13  1  0  0  0  0
 12 37  1  0  0  0  0
 12 38  1  0  0  0  0
 13 17  1  0  0  0  0
 13 14  1  0  0  0  0
 14 15  2  0  0  0  0
 14 39  1  0  0  0  0
 15 16  1  0  0  0  0
 16 22  1  0  0  0  0
 16 17  2  0  0  0  0
 17 18  1  0  0  0  0
 18 19  2  0  0  0  0
 19 20  1  0  0  0  0
 19 24  1  0  0  0  0
 20 21  1  0  0  0  0
 20 22  1  0  0  0  0
 22 23  2  0  0  0  0
 24 40  1  0  0  0  0
 24 41  1  0  0  0  0
 25 42  1  0  0  0  0
 25 43  1  0  0  0  0
 25 44  1  0  0  0  0
M  CHG  1  25   1
M  END
$$$$
