ZINC22446674
 OpenBabel08292219463D

 57 60  0  0  0  0  0  0  0  0999 V2000
   -0.2453    1.6096    0.6316 C   0  0  0  0  0  0  0  0  0  0  0  0
   -0.1751    0.0857    0.5149 C   0  0  0  0  0  0  0  0  0  0  0  0
   -1.8554   -0.5916    0.4222 S   0  0  0  0  0  0  0  0  0  0  0  0
   -1.6072   -2.3313    0.2930 C   0  0  0  0  0  0  0  0  0  0  0  0
   -0.3190   -2.8499    0.2893 C   0  0  0  0  0  0  0  0  0  0  0  0
   -0.1274   -4.2153    0.1904 C   0  0  0  0  0  0  0  0  0  0  0  0
   -1.2167   -5.0691    0.0930 C   0  0  0  0  0  0  0  0  0  0  0  0
   -2.5110   -4.5561    0.0920 C   0  0  0  0  0  0  0  0  0  0  0  0
   -2.6995   -3.1826    0.2007 C   0  0  0  0  0  0  0  0  0  0  0  0
   -3.6287   -5.3795   -0.0168 N   0  0  0  0  0  0  0  0  0  0  0  0
   -3.6641   -6.7252    0.3392 C   0  0  0  0  0  0  0  0  0  0  0  0
   -4.8869   -7.3005    0.6692 C   0  0  0  0  0  0  0  0  0  0  0  0
   -4.9579   -8.6347    1.0221 C   0  0  0  0  0  0  0  0  0  0  0  0
   -3.8135   -9.4090    1.0497 C   0  0  0  0  0  0  0  0  0  0  0  0
   -2.5922   -8.8473    0.7254 C   0  0  0  0  0  0  0  0  0  0  0  0
   -2.5130   -7.5075    0.3727 C   0  0  0  0  0  0  0  0  0  0  0  0
   -0.9478   -6.8061   -0.0263 S   0  0  0  0  0  0  0  0  0  0  0  0
   -4.8590   -4.7857   -0.5458 C   0  0  0  0  0  0  0  0  0  0  0  0
   -5.6874   -4.2163    0.6076 C   0  0  0  0  0  0  0  0  0  0  0  0
   -6.9724   -3.5961    0.0551 C   0  0  0  0  0  0  0  0  0  0  0  0
   -7.7677   -3.0494    1.1626 N   0  0  0  0  0  0  0  0  0  0  0  0
   -8.2535   -4.1221    2.0420 C   0  0  0  0  0  0  0  0  0  0  0  0
   -9.0248   -3.5082    3.2124 C   0  0  0  0  0  0  0  0  0  0  0  0
  -10.1552   -2.7247    2.6969 N   0  3  0  0  0  0  0  0  0  0  0  0
   -9.6528   -1.6424    1.8403 C   0  0  0  0  0  0  0  0  0  0  0  0
   -8.8867   -2.2408    0.6584 C   0  0  0  0  0  0  0  0  0  0  0  0
  -10.9059   -2.1503    3.8214 C   0  0  0  0  0  0  0  0  0  0  0  0
    0.7643    2.0166    0.6874 H   0  0  0  0  0  0  0  0  0  0  0  0
   -0.7539    2.0179   -0.2417 H   0  0  0  0  0  0  0  0  0  0  0  0
   -0.7963    1.8801    1.5324 H   0  0  0  0  0  0  0  0  0  0  0  0
    0.3759   -0.1848   -0.3858 H   0  0  0  0  0  0  0  0  0  0  0  0
    0.3334   -0.3225    1.3883 H   0  0  0  0  0  0  0  0  0  0  0  0
    0.5312   -2.1880    0.3630 H   0  0  0  0  0  0  0  0  0  0  0  0
    0.8743   -4.6191    0.1887 H   0  0  0  0  0  0  0  0  0  0  0  0
   -3.7001   -2.7762    0.2095 H   0  0  0  0  0  0  0  0  0  0  0  0
   -5.7852   -6.7014    0.6498 H   0  0  0  0  0  0  0  0  0  0  0  0
   -5.9110   -9.0737    1.2777 H   0  0  0  0  0  0  0  0  0  0  0  0
   -3.8729  -10.4518    1.3246 H   0  0  0  0  0  0  0  0  0  0  0  0
   -1.6980   -9.4524    0.7472 H   0  0  0  0  0  0  0  0  0  0  0  0
   -4.6064   -3.9854   -1.2414 H   0  0  0  0  0  0  0  0  0  0  0  0
   -5.4370   -5.5499   -1.0656 H   0  0  0  0  0  0  0  0  0  0  0  0
   -5.9401   -5.0165    1.3032 H   0  0  0  0  0  0  0  0  0  0  0  0
   -5.1095   -3.4521    1.1274 H   0  0  0  0  0  0  0  0  0  0  0  0
   -6.7197   -2.7959   -0.6404 H   0  0  0  0  0  0  0  0  0  0  0  0
   -7.5503   -4.3603   -0.4646 H   0  0  0  0  0  0  0  0  0  0  0  0
   -8.9123   -4.7834    1.4792 H   0  0  0  0  0  0  0  0  0  0  0  0
   -7.4059   -4.6913    2.4237 H   0  0  0  0  0  0  0  0  0  0  0  0
   -9.3981   -4.3029    3.8583 H   0  0  0  0  0  0  0  0  0  0  0  0
   -8.3619   -2.8576    3.7830 H   0  0  0  0  0  0  0  0  0  0  0  0
  -10.4917   -1.0539    1.4689 H   0  0  0  0  0  0  0  0  0  0  0  0
   -8.9868   -1.0013    2.4178 H   0  0  0  0  0  0  0  0  0  0  0  0
   -8.5011   -1.4375    0.0307 H   0  0  0  0  0  0  0  0  0  0  0  0
   -9.5560   -2.8711    0.0729 H   0  0  0  0  0  0  0  0  0  0  0  0
  -10.2500   -1.5026    4.4031 H   0  0  0  0  0  0  0  0  0  0  0  0
  -11.7448   -1.5689    3.4390 H   0  0  0  0  0  0  0  0  0  0  0  0
  -11.2799   -2.9534    4.4565 H   0  0  0  0  0  0  0  0  0  0  0  0
  -10.7625   -3.3246    2.1590 H   0  0  0  0  0  0  0  0  0  0  0  0
  1  2  1  0  0  0  0
  1 28  1  0  0  0  0
  1 29  1  0  0  0  0
  1 30  1  0  0  0  0
  2  3  1  0  0  0  0
  2 31  1  0  0  0  0
  2 32  1  0  0  0  0
  3  4  1  0  0  0  0
  4  9  2  0  0  0  0
  4  5  1  0  0  0  0
  5  6  2  0  0  0  0
  5 33  1  0  0  0  0
  6  7  1  0  0  0  0
  6 34  1  0  0  0  0
  7 17  1  0  0  0  0
  7  8  2  0  0  0  0
  8  9  1  0  0  0  0
  8 10  1  0  0  0  0
  9 35  1  0  0  0  0
 10 11  1  0  0  0  0
 10 18  1  0  0  0  0
 11 16  2  0  0  0  0
 11 12  1  0  0  0  0
 12 13  2  0  0  0  0
 12 36  1  0  0  0  0
 13 14  1  0  0  0  0
 13 37  1  0  0  0  0
 14 15  2  0  0  0  0
 14 38  1  0  0  0  0
 15 16  1  0  0  0  0
 15 39  1  0  0  0  0
 16 17  1  0  0  0  0
 18 19  1  0  0  0  0
 18 40  1  0  0  0  0
 18 41  1  0  0  0  0
 19 20  1  0  0  0  0
 19 42  1  0  0  0  0
 19 43  1  0  0  0  0
 20 21  1  0  0  0  0
 20 44  1  0  0  0  0
 20 45  1  0  0  0  0
 21 26  1  0  0  0  0
 21 22  1  0  0  0  0
 22 23  1  0  0  0  0
 22 46  1  0  0  0  0
 22 47  1  0  0  0  0
 23 24  1  0  0  0  0
 23 48  1  0  0  0  0
 23 49  1  0  0  0  0
 24 25  1  0  0  0  0
 24 27  1  0  0  0  0
 24 57  1  0  0  0  0
 25 26  1  0  0  0  0
 25 50  1  0  0  0  0
 25 51  1  0  0  0  0
 26 52  1  0  0  0  0
 26 53  1  0  0  0  0
 27 54  1  0  0  0  0
 27 55  1  0  0  0  0
 27 56  1  0  0  0  0
M  CHG  1  24   1
M  END
$$$$
