ZINC00000095
 OpenBabel08292219463D

 41 42  0  0  1  0  0  0  0  0999 V2000
    0.7152    3.4993   -1.5012 C   0  0  0  0  0  0  0  0  0  0  0  0
   -1.5606    3.5978   -2.3221 C   0  0  0  0  0  0  0  0  0  0  0  0
   -0.7527    1.5927   -1.2315 C   0  0  0  0  0  0  0  0  0  0  0  0
   -0.0127    1.0858    0.0080 C   0  0  0  0  0  0  0  0  0  0  0  0
   -0.6816    1.5467    1.1837 O   0  0  0  0  0  0  0  0  0  0  0  0
   -0.0679    1.1266    2.4039 C   0  0  2  0  0  0  0  0  0  0  0  0
    1.0052    1.0126    2.2505 H   0  0  0  0  0  0  0  0  0  0  0  0
   -0.6566   -0.1922    2.8343 C   0  0  0  0  0  0  0  0  0  0  0  0
   -1.9932   -0.4602    2.6049 C   0  0  0  0  0  0  0  0  0  0  0  0
   -2.5322   -1.6717    2.9957 C   0  0  0  0  0  0  0  0  0  0  0  0
   -1.7368   -2.6115    3.6241 C   0  0  0  0  0  0  0  0  0  0  0  0
   -0.4014   -2.3415    3.8582 C   0  0  0  0  0  0  0  0  0  0  0  0
    0.1386   -1.1317    3.4635 C   0  0  0  0  0  0  0  0  0  0  0  0
   -0.3156    2.1599    3.4726 C   0  0  0  0  0  0  0  0  0  0  0  0
   -1.5466    2.7830    3.5591 C   0  0  0  0  0  0  0  0  0  0  0  0
   -1.7758    3.7273    4.5421 C   0  0  0  0  0  0  0  0  0  0  0  0
   -0.7699    4.0564    5.4327 C   0  0  0  0  0  0  0  0  0  0  0  0
    0.4633    3.4365    5.3424 C   0  0  0  0  0  0  0  0  0  0  0  0
    0.6900    2.4885    4.3624 C   0  0  0  0  0  0  0  0  0  0  0  0
   -1.0804    5.3540    6.7728 Br  0  0  0  0  0  0  0  0  0  0  0  0
    1.0839    3.0928   -2.4430 H   0  0  0  0  0  0  0  0  0  0  0  0
    0.7481    4.5882   -1.5378 H   0  0  0  0  0  0  0  0  0  0  0  0
    1.3409    3.1441   -0.6824 H   0  0  0  0  0  0  0  0  0  0  0  0
   -2.5894    3.3142   -2.1000 H   0  0  0  0  0  0  0  0  0  0  0  0
   -1.4794    4.6846   -2.3412 H   0  0  0  0  0  0  0  0  0  0  0  0
   -1.2743    3.1949   -3.2936 H   0  0  0  0  0  0  0  0  0  0  0  0
   -0.2958    1.1691   -2.1259 H   0  0  0  0  0  0  0  0  0  0  0  0
   -1.7985    1.2898   -1.1795 H   0  0  0  0  0  0  0  0  0  0  0  0
    0.0021   -0.0041    0.0020 H   0  0  0  0  0  0  0  0  0  0  0  0
    1.0099    1.4631    0.0003 H   0  0  0  0  0  0  0  0  0  0  0  0
   -2.6156    0.2756    2.1173 H   0  0  0  0  0  0  0  0  0  0  0  0
   -3.5754   -1.8828    2.8125 H   0  0  0  0  0  0  0  0  0  0  0  0
   -2.1585   -3.5570    3.9318 H   0  0  0  0  0  0  0  0  0  0  0  0
    0.2200   -3.0757    4.3491 H   0  0  0  0  0  0  0  0  0  0  0  0
    1.1819   -0.9207    3.6464 H   0  0  0  0  0  0  0  0  0  0  0  0
   -2.3306    2.5289    2.8611 H   0  0  0  0  0  0  0  0  0  0  0  0
   -2.7390    4.2108    4.6124 H   0  0  0  0  0  0  0  0  0  0  0  0
    1.2491    3.6935    6.0373 H   0  0  0  0  0  0  0  0  0  0  0  0
    1.6529    2.0047    4.2916 H   0  0  0  0  0  0  0  0  0  0  0  0
   -0.6782    3.0686   -1.2610 N   0  3  0  0  0  0  0  0  0  0  0  0
   -0.9893    3.4364   -0.3542 H   0  0  0  0  0  0  0  0  0  0  0  0
  1 21  1  0  0  0  0
  1 22  1  0  0  0  0
  1 23  1  0  0  0  0
  1 40  1  0  0  0  0
  2 24  1  0  0  0  0
  2 25  1  0  0  0  0
  2 26  1  0  0  0  0
  2 40  1  0  0  0  0
  3  4  1  0  0  0  0
  3 27  1  0  0  0  0
  3 28  1  0  0  0  0
  3 40  1  0  0  0  0
  4  5  1  0  0  0  0
  4 29  1  0  0  0  0
  4 30  1  0  0  0  0
  5  6  1  0  0  0  0
  6  7  1  6  0  0  0
  6  8  1  0  0  0  0
  6 14  1  0  0  0  0
  8 13  2  0  0  0  0
  8  9  1  0  0  0  0
  9 10  2  0  0  0  0
  9 31  1  0  0  0  0
 10 11  1  0  0  0  0
 10 32  1  0  0  0  0
 11 12  2  0  0  0  0
 11 33  1  0  0  0  0
 12 13  1  0  0  0  0
 12 34  1  0  0  0  0
 13 35  1  0  0  0  0
 14 19  2  0  0  0  0
 14 15  1  0  0  0  0
 15 16  2  0  0  0  0
 15 36  1  0  0  0  0
 16 17  1  0  0  0  0
 16 37  1  0  0  0  0
 17 18  2  0  0  0  0
 17 20  1  0  0  0  0
 18 19  1  0  0  0  0
 18 38  1  0  0  0  0
 19 39  1  0  0  0  0
 40 41  1  0  0  0  0
M  CHG  1  40   1
M  END
$$$$
