ZINC02019621
 OpenBabel08292219463D

 46 48  0  0  1  0  0  0  0  0999 V2000
    5.1248   -1.5847   -2.4868 C   0  0  0  0  0  0  0  0  0  0  0  0
    3.6982   -2.0035   -2.1258 C   0  0  2  0  0  0  0  0  0  0  0  0
    2.9920   -1.2869   -2.5452 H   0  0  0  0  0  0  0  0  0  0  0  0
    3.5466   -2.0380   -0.6038 C   0  0  0  0  0  0  0  0  0  0  0  0
    3.6995   -0.6835   -0.0669 N   0  0  0  0  0  0  0  0  0  0  0  0
    2.5769    0.1393   -0.0679 C   0  0  0  0  0  0  0  0  0  0  0  0
    1.3153   -0.4475   -0.0813 C   0  0  0  0  0  0  0  0  0  0  0  0
    0.1798    0.3393   -0.0926 C   0  0  0  0  0  0  0  0  0  0  0  0
    0.2878    1.7172   -0.0893 C   0  0  0  0  0  0  0  0  0  0  0  0
    1.5361    2.3113   -0.0738 C   0  0  0  0  0  0  0  0  0  0  0  0
    2.6813    1.5274   -0.0620 C   0  0  0  0  0  0  0  0  0  0  0  0
    4.2625    2.3028   -0.0349 S   0  0  0  0  0  0  0  0  0  0  0  0
    5.3578    1.0200    0.4746 C   0  0  0  0  0  0  0  0  0  0  0  0
    4.9567   -0.3167    0.4069 C   0  0  0  0  0  0  0  0  0  0  0  0
    5.8295   -1.3104    0.8168 C   0  0  0  0  0  0  0  0  0  0  0  0
    7.1050   -0.9763    1.2912 C   0  0  0  0  0  0  0  0  0  0  0  0
    7.4970    0.3666    1.3507 C   0  0  0  0  0  0  0  0  0  0  0  0
    6.6257    1.3511    0.9454 C   0  0  0  0  0  0  0  0  0  0  0  0
    8.0271   -2.0309    1.7249 C   0  0  0  0  0  0  0  0  0  0  0  0
    7.6860   -3.1942    1.6732 O   0  0  0  0  0  0  0  0  0  0  0  0
    9.3985   -1.6699    2.2348 C   0  0  0  0  0  0  0  0  0  0  0  0
    2.0552   -3.7659   -2.3650 C   0  0  0  0  0  0  0  0  0  0  0  0
    3.6727   -3.3720   -4.1232 C   0  0  0  0  0  0  0  0  0  0  0  0
    5.3269   -0.5942   -2.0790 H   0  0  0  0  0  0  0  0  0  0  0  0
    5.8310   -2.3012   -2.0675 H   0  0  0  0  0  0  0  0  0  0  0  0
    5.2328   -1.5601   -3.5712 H   0  0  0  0  0  0  0  0  0  0  0  0
    4.3117   -2.6865   -0.1770 H   0  0  0  0  0  0  0  0  0  0  0  0
    2.5596   -2.4219   -0.3456 H   0  0  0  0  0  0  0  0  0  0  0  0
    1.2233   -1.5236   -0.0833 H   0  0  0  0  0  0  0  0  0  0  0  0
   -0.7958   -0.1240   -0.1036 H   0  0  0  0  0  0  0  0  0  0  0  0
   -0.6020    2.3292   -0.1035 H   0  0  0  0  0  0  0  0  0  0  0  0
    1.6203    3.3880   -0.0713 H   0  0  0  0  0  0  0  0  0  0  0  0
    5.5261   -2.3459    0.7712 H   0  0  0  0  0  0  0  0  0  0  0  0
    8.4798    0.6286    1.7139 H   0  0  0  0  0  0  0  0  0  0  0  0
    6.9271    2.3872    0.9924 H   0  0  0  0  0  0  0  0  0  0  0  0
    9.3598   -1.5287    3.2240 H   0  0  0  0  0  0  0  0  0  0  0  0
   10.0942   -2.4784    2.0102 H   0  0  0  0  0  0  0  0  0  0  0  0
    9.7369   -0.7542    1.7500 H   0  0  0  0  0  0  0  0  0  0  0  0
    1.3514   -3.0085   -2.7100 H   0  0  0  0  0  0  0  0  0  0  0  0
    1.8469   -4.7109   -2.8668 H   0  0  0  0  0  0  0  0  0  0  0  0
    1.9503   -3.8957   -1.2878 H   0  0  0  0  0  0  0  0  0  0  0  0
    4.7144   -3.1187   -4.3202 H   0  0  0  0  0  0  0  0  0  0  0  0
    3.4634   -4.3715   -4.5043 H   0  0  0  0  0  0  0  0  0  0  0  0
    3.0234   -2.6506   -4.6193 H   0  0  0  0  0  0  0  0  0  0  0  0
    3.4439   -3.3569   -2.6630 N   0  3  0  0  0  0  0  0  0  0  0  0
    4.0896   -4.0193   -2.2174 H   0  0  0  0  0  0  0  0  0  0  0  0
  1  2  1  0  0  0  0
  1 24  1  0  0  0  0
  1 25  1  0  0  0  0
  1 26  1  0  0  0  0
  2  3  1  6  0  0  0
  2  4  1  0  0  0  0
  2 45  1  0  0  0  0
  4  5  1  0  0  0  0
  4 27  1  0  0  0  0
  4 28  1  0  0  0  0
  5 14  1  0  0  0  0
  5  6  1  0  0  0  0
  6 11  2  0  0  0  0
  6  7  1  0  0  0  0
  7  8  2  0  0  0  0
  7 29  1  0  0  0  0
  8  9  1  0  0  0  0
  8 30  1  0  0  0  0
  9 10  2  0  0  0  0
  9 31  1  0  0  0  0
 10 11  1  0  0  0  0
 10 32  1  0  0  0  0
 11 12  1  0  0  0  0
 12 13  1  0  0  0  0
 13 18  2  0  0  0  0
 13 14  1  0  0  0  0
 14 15  2  0  0  0  0
 15 16  1  0  0  0  0
 15 33  1  0  0  0  0
 16 17  2  0  0  0  0
 16 19  1  0  0  0  0
 17 18  1  0  0  0  0
 17 34  1  0  0  0  0
 18 35  1  0  0  0  0
 19 20  2  0  0  0  0
 19 21  1  0  0  0  0
 21 36  1  0  0  0  0
 21 37  1  0  0  0  0
 21 38  1  0  0  0  0
 22 39  1  0  0  0  0
 22 40  1  0  0  0  0
 22 41  1  0  0  0  0
 22 45  1  0  0  0  0
 23 42  1  0  0  0  0
 23 43  1  0  0  0  0
 23 44  1  0  0  0  0
 23 45  1  0  0  0  0
 45 46  1  0  0  0  0
M  CHG  1  45   1
M  END
$$$$
