ZINC13545634
 OpenBabel08292219463D

 34 34  0  0  1  0  0  0  0  0999 V2000
   -0.0187    1.5258    0.0104 C   0  0  0  0  0  0  0  0  0  0  0  0
    0.0021   -0.0041    0.0020 C   0  0  0  0  0  0  0  0  0  0  0  0
    0.7182   -0.4975   -1.2568 C   0  0  0  0  0  0  0  0  0  0  0  0
    0.7390   -2.0273   -1.2652 C   0  0  1  0  0  0  0  0  0  0  0  0
    1.1870   -2.3897   -0.3400 H   0  0  0  0  0  0  0  0  0  0  0  0
   -0.6921   -2.5562   -1.3801 C   0  0  0  0  0  0  0  0  0  0  0  0
    1.5619   -2.5197   -2.4574 C   0  0  0  0  0  0  0  0  0  0  0  0
    0.9130   -1.9991   -3.7260 C   0  0  0  0  0  0  0  0  0  0  0  0
    1.6655   -1.2305   -4.5416 N   0  0  0  0  0  0  0  0  0  0  0  0
    2.9377   -0.9298   -4.2568 C   0  0  0  0  0  0  0  0  0  0  0  0
    3.5417   -0.2320   -5.0469 O   0  0  0  0  0  0  0  0  0  0  0  0
    3.5932   -1.3411   -3.1654 N   0  0  0  0  0  0  0  0  0  0  0  0
    3.0074   -2.1192   -2.2308 C   0  0  0  0  0  0  0  0  0  0  0  0
    3.6140   -2.4843   -1.2466 O   0  0  0  0  0  0  0  0  0  0  0  0
   -0.2385   -2.2640   -3.9975 O   0  0  0  0  0  0  0  0  0  0  0  0
    1.4935   -4.0480   -2.4802 C   0  0  0  0  0  0  0  0  0  0  0  0
    2.3074   -4.5773   -3.6627 C   0  0  0  0  0  0  0  0  0  0  0  0
    1.0039    1.9031    0.0027 H   0  0  0  0  0  0  0  0  0  0  0  0
   -0.5459    1.8868   -0.8726 H   0  0  0  0  0  0  0  0  0  0  0  0
   -0.5289    1.8773    0.9072 H   0  0  0  0  0  0  0  0  0  0  0  0
    0.5293   -0.3651    0.8851 H   0  0  0  0  0  0  0  0  0  0  0  0
   -1.0205   -0.3814    0.0098 H   0  0  0  0  0  0  0  0  0  0  0  0
    0.1910   -0.1364   -2.1398 H   0  0  0  0  0  0  0  0  0  0  0  0
    1.7408   -0.1202   -1.2645 H   0  0  0  0  0  0  0  0  0  0  0  0
   -1.2784   -2.2054   -0.5308 H   0  0  0  0  0  0  0  0  0  0  0  0
   -1.1402   -2.1938   -2.3053 H   0  0  0  0  0  0  0  0  0  0  0  0
   -0.6774   -3.6460   -1.3861 H   0  0  0  0  0  0  0  0  0  0  0  0
    1.2722   -0.8861   -5.3587 H   0  0  0  0  0  0  0  0  0  0  0  0
    4.5171   -1.0725   -3.0424 H   0  0  0  0  0  0  0  0  0  0  0  0
    1.9031   -4.4439   -1.5509 H   0  0  0  0  0  0  0  0  0  0  0  0
    0.4553   -4.3637   -2.5833 H   0  0  0  0  0  0  0  0  0  0  0  0
    1.8978   -4.1814   -4.5920 H   0  0  0  0  0  0  0  0  0  0  0  0
    3.3456   -4.2615   -3.5595 H   0  0  0  0  0  0  0  0  0  0  0  0
    2.2587   -5.6661   -3.6789 H   0  0  0  0  0  0  0  0  0  0  0  0
  1  2  1  0  0  0  0
  1 18  1  0  0  0  0
  1 19  1  0  0  0  0
  1 20  1  0  0  0  0
  2  3  1  0  0  0  0
  2 21  1  0  0  0  0
  2 22  1  0  0  0  0
  3  4  1  0  0  0  0
  3 23  1  0  0  0  0
  3 24  1  0  0  0  0
  4  5  1  1  0  0  0
  4  6  1  0  0  0  0
  4  7  1  0  0  0  0
  6 25  1  0  0  0  0
  6 26  1  0  0  0  0
  6 27  1  0  0  0  0
  7  8  1  0  0  0  0
  7 16  1  0  0  0  0
  7 13  1  0  0  0  0
  8 15  2  0  0  0  0
  8  9  1  0  0  0  0
  9 10  1  0  0  0  0
  9 28  1  0  0  0  0
 10 12  1  0  0  0  0
 10 11  2  0  0  0  0
 12 13  1  0  0  0  0
 12 29  1  0  0  0  0
 13 14  2  0  0  0  0
 16 17  1  0  0  0  0
 16 30  1  0  0  0  0
 16 31  1  0  0  0  0
 17 32  1  0  0  0  0
 17 33  1  0  0  0  0
 17 34  1  0  0  0  0
M  END
$$$$
