ZINC32709485
 OpenBabel08292219463D

 49 51  0  0  0  0  0  0  0  0999 V2000
   -0.0439    2.3575   -2.1286 C   0  0  0  0  0  0  0  0  0  0  0  0
   -0.0345    0.8826   -1.7219 C   0  0  0  0  0  0  0  0  0  0  0  0
    0.9312    0.1516   -2.5532 N   0  3  0  0  0  0  0  0  0  0  0  0
    2.2877    0.6408   -2.2729 C   0  0  0  0  0  0  0  0  0  0  0  0
    2.6135    0.4215   -0.7941 C   0  0  0  0  0  0  0  0  0  0  0  0
    0.8547   -1.2829   -2.2460 C   0  0  0  0  0  0  0  0  0  0  0  0
    1.7457   -2.0472   -3.1909 C   0  0  0  0  0  0  0  0  0  0  0  0
    2.9536   -2.5487   -2.7473 C   0  0  0  0  0  0  0  0  0  0  0  0
    3.7745   -3.2530   -3.6182 C   0  0  0  0  0  0  0  0  0  0  0  0
    3.3797   -3.4524   -4.9350 C   0  0  0  0  0  0  0  0  0  0  0  0
    2.1718   -2.9504   -5.3768 C   0  0  0  0  0  0  0  0  0  0  0  0
    1.3498   -2.2517   -4.5044 C   0  0  0  0  0  0  0  0  0  0  0  0
    0.1577   -1.7624   -4.9388 O   0  0  0  0  0  0  0  0  0  0  0  0
    4.9989   -3.7611   -3.1697 N   0  0  0  0  0  0  0  0  0  0  0  0
    5.4262   -5.0117   -3.5896 C   0  0  0  0  0  0  0  0  0  0  0  0
    4.5922   -5.8445   -4.3202 C   0  0  0  0  0  0  0  0  0  0  0  0
    5.0490   -7.0902   -4.7264 C   0  0  0  0  0  0  0  0  0  0  0  0
    6.2587   -7.5123   -4.4391 N   0  0  0  0  0  0  0  0  0  0  0  0
    7.1166   -6.7622   -3.7381 C   0  0  0  0  0  3  0  0  0  0  0  0
    6.7293   -5.4762   -3.2911 C   0  0  0  0  0  0  0  0  0  0  0  0
    7.6338   -4.6924   -2.5614 C   0  0  0  0  0  0  0  0  0  0  0  0
    8.8796   -5.1742   -2.2934 C   0  0  0  0  0  0  0  0  0  0  0  0
    9.2666   -6.4380   -2.7362 C   0  0  0  0  0  0  0  0  0  0  0  0
    8.4078   -7.2290   -3.4385 C   0  0  0  0  0  0  0  0  0  0  0  0
   10.8626   -7.0182   -2.3760 Cl  0  0  0  0  0  0  0  0  0  0  0  0
    0.9508    2.7800   -1.9866 H   0  0  0  0  0  0  0  0  0  0  0  0
   -0.3289    2.4435   -3.1772 H   0  0  0  0  0  0  0  0  0  0  0  0
   -0.7604    2.9000   -1.5118 H   0  0  0  0  0  0  0  0  0  0  0  0
    0.2505    0.7967   -0.6733 H   0  0  0  0  0  0  0  0  0  0  0  0
   -1.0292    0.4602   -1.8638 H   0  0  0  0  0  0  0  0  0  0  0  0
    3.0045    0.0962   -2.8875 H   0  0  0  0  0  0  0  0  0  0  0  0
    2.3453    1.7045   -2.5038 H   0  0  0  0  0  0  0  0  0  0  0  0
    1.9076    0.9805   -0.1798 H   0  0  0  0  0  0  0  0  0  0  0  0
    2.5384   -0.6402   -0.5591 H   0  0  0  0  0  0  0  0  0  0  0  0
    3.6266    0.7681   -0.5900 H   0  0  0  0  0  0  0  0  0  0  0  0
    1.1822   -1.4527   -1.2203 H   0  0  0  0  0  0  0  0  0  0  0  0
   -0.1741   -1.6245   -2.3602 H   0  0  0  0  0  0  0  0  0  0  0  0
    3.2599   -2.3928   -1.7234 H   0  0  0  0  0  0  0  0  0  0  0  0
    4.0177   -3.9997   -5.6131 H   0  0  0  0  0  0  0  0  0  0  0  0
    1.8649   -3.1050   -6.4006 H   0  0  0  0  0  0  0  0  0  0  0  0
    0.2085   -0.8672   -5.3011 H   0  0  0  0  0  0  0  0  0  0  0  0
    5.5487   -3.2385   -2.5651 H   0  0  0  0  0  0  0  0  0  0  0  0
    3.5915   -5.5253   -4.5715 H   0  0  0  0  0  0  0  0  0  0  0  0
    4.3909   -7.7308   -5.2946 H   0  0  0  0  0  0  0  0  0  0  0  0
    7.3448   -3.7116   -2.2138 H   0  0  0  0  0  0  0  0  0  0  0  0
    9.5759   -4.5695   -1.7314 H   0  0  0  0  0  0  0  0  0  0  0  0
    8.7225   -8.2060   -3.7747 H   0  0  0  0  0  0  0  0  0  0  0  0
    0.7153    0.2988   -3.5278 H   0  0  0  0  0  0  0  0  0  0  0  0
    6.5374   -8.3905   -4.7426 H   0  0  0  0  0  0  0  0  0  0  0  0
  1  2  1  0  0  0  0
  1 26  1  0  0  0  0
  1 27  1  0  0  0  0
  1 28  1  0  0  0  0
  2  3  1  0  0  0  0
  2 29  1  0  0  0  0
  2 30  1  0  0  0  0
  3  4  1  0  0  0  0
  3  6  1  0  0  0  0
  3 48  1  0  0  0  0
  4  5  1  0  0  0  0
  4 31  1  0  0  0  0
  4 32  1  0  0  0  0
  5 33  1  0  0  0  0
  5 34  1  0  0  0  0
  5 35  1  0  0  0  0
  6  7  1  0  0  0  0
  6 36  1  0  0  0  0
  6 37  1  0  0  0  0
  7 12  2  0  0  0  0
  7  8  1  0  0  0  0
  8  9  2  0  0  0  0
  8 38  1  0  0  0  0
  9 10  1  0  0  0  0
  9 14  1  0  0  0  0
 10 11  2  0  0  0  0
 10 39  1  0  0  0  0
 11 12  1  0  0  0  0
 11 40  1  0  0  0  0
 12 13  1  0  0  0  0
 13 41  1  0  0  0  0
 14 15  1  0  0  0  0
 14 42  1  0  0  0  0
 15 20  2  0  0  0  0
 15 16  1  0  0  0  0
 16 17  2  0  0  0  0
 16 43  1  0  0  0  0
 17 18  1  0  0  0  0
 17 44  1  0  0  0  0
 18 19  1  0  0  0  0
 18 49  1  0  0  0  0
 19 24  1  0  0  0  0
 19 20  1  0  0  0  0
 20 21  1  0  0  0  0
 21 22  2  0  0  0  0
 21 45  1  0  0  0  0
 22 23  1  0  0  0  0
 22 46  1  0  0  0  0
 23 24  2  0  0  0  0
 23 25  1  0  0  0  0
 24 47  1  0  0  0  0
M  CHG  1   3   1
M  END
$$$$
