ZINC00005151
 OpenBabel08292219463D

 48 50  0  0  1  0  0  0  0  0999 V2000
    1.1428   -1.0368   -0.9116 C   0  0  0  0  0  0  0  0  0  0  0  0
    0.4598   -0.4713    0.3352 C   0  0  0  0  0  0  0  0  0  0  0  0
    0.0753    0.9888    0.0881 C   0  0  0  0  0  0  0  0  0  0  0  0
    0.3835    1.6088    2.4083 C   0  0  0  0  0  0  0  0  0  0  0  0
    1.4766    2.6287    2.0831 C   0  0  0  0  0  0  0  0  0  0  0  0
    2.4516    2.7031    3.2298 C   0  0  0  0  0  0  0  0  0  0  0  0
    3.5791    1.9806    3.4397 C   0  0  0  0  0  0  0  0  0  0  0  0
    4.3303    2.2251    4.5740 C   0  0  0  0  0  0  0  0  0  0  0  0
    3.9116    3.1726    5.4482 C   0  0  0  0  0  0  0  0  0  0  0  0
    2.4170    3.7600    4.6681 S   0  0  0  0  0  0  0  0  0  0  0  0
   -1.7527    0.7509    1.6579 C   0  0  2  0  0  0  0  0  0  0  0  0
   -1.4550   -0.2664    1.9120 H   0  0  0  0  0  0  0  0  0  0  0  0
   -2.7377    0.7226    0.4831 C   0  0  0  0  0  0  0  0  0  0  0  0
   -3.8380   -0.2878    0.8011 C   0  0  0  0  0  0  0  0  0  0  0  0
   -4.4219   -0.0241    2.1642 C   0  0  0  0  0  0  0  0  0  0  0  0
   -3.7807    0.7436    3.1094 C   0  0  0  0  0  0  0  0  0  0  0  0
   -4.3702    0.9412    4.3516 C   0  0  0  0  0  0  0  0  0  0  0  0
   -5.5958    0.3795    4.6463 C   0  0  0  0  0  0  0  0  0  0  0  0
   -6.2457   -0.3877    3.6991 C   0  0  0  0  0  0  0  0  0  0  0  0
   -5.6605   -0.5899    2.4605 C   0  0  0  0  0  0  0  0  0  0  0  0
   -6.2982   -1.3450    1.5277 O   0  0  0  0  0  0  0  0  0  0  0  0
   -2.4482    1.3982    2.8538 C   0  0  0  0  0  0  0  0  0  0  0  0
    1.4167   -2.0771   -0.7356 H   0  0  0  0  0  0  0  0  0  0  0  0
    0.4587   -0.9795   -1.7582 H   0  0  0  0  0  0  0  0  0  0  0  0
    2.0396   -0.4568   -1.1293 H   0  0  0  0  0  0  0  0  0  0  0  0
    1.1439   -0.5286    1.1818 H   0  0  0  0  0  0  0  0  0  0  0  0
   -0.4370   -1.0513    0.5529 H   0  0  0  0  0  0  0  0  0  0  0  0
    0.9708    1.5667   -0.1405 H   0  0  0  0  0  0  0  0  0  0  0  0
   -0.6176    1.0450   -0.7514 H   0  0  0  0  0  0  0  0  0  0  0  0
   -0.1420    1.9153    3.3128 H   0  0  0  0  0  0  0  0  0  0  0  0
    0.8355    0.6293    2.5650 H   0  0  0  0  0  0  0  0  0  0  0  0
    2.0021    2.3222    1.1787 H   0  0  0  0  0  0  0  0  0  0  0  0
    1.0246    3.6081    1.9264 H   0  0  0  0  0  0  0  0  0  0  0  0
    3.8874    1.2273    2.7299 H   0  0  0  0  0  0  0  0  0  0  0  0
    5.2349    1.6663    4.7632 H   0  0  0  0  0  0  0  0  0  0  0  0
    4.3643    3.4896    6.3760 H   0  0  0  0  0  0  0  0  0  0  0  0
   -3.1754    1.7115    0.3472 H   0  0  0  0  0  0  0  0  0  0  0  0
   -2.2160    0.4240   -0.4261 H   0  0  0  0  0  0  0  0  0  0  0  0
   -4.6255   -0.2093    0.0515 H   0  0  0  0  0  0  0  0  0  0  0  0
   -3.4194   -1.2939    0.7785 H   0  0  0  0  0  0  0  0  0  0  0  0
   -3.8642    1.5402    5.0942 H   0  0  0  0  0  0  0  0  0  0  0  0
   -6.0455    0.5391    5.6151 H   0  0  0  0  0  0  0  0  0  0  0  0
   -7.2058   -0.8283    3.9238 H   0  0  0  0  0  0  0  0  0  0  0  0
   -6.0789   -2.2860    1.5665 H   0  0  0  0  0  0  0  0  0  0  0  0
   -1.8192    1.2898    3.7373 H   0  0  0  0  0  0  0  0  0  0  0  0
   -2.6015    2.4580    2.6502 H   0  0  0  0  0  0  0  0  0  0  0  0
   -0.5755    1.5630    1.2846 N   0  3  2  0  0  0  0  0  0  0  0  0
   -0.8840    2.5186    1.0702 H   0  0  0  0  0  0  0  0  0  0  0  0
  1  2  1  0  0  0  0
  1 23  1  0  0  0  0
  1 24  1  0  0  0  0
  1 25  1  0  0  0  0
  2  3  1  0  0  0  0
  2 26  1  0  0  0  0
  2 27  1  0  0  0  0
  3 28  1  0  0  0  0
  3 29  1  0  0  0  0
  3 47  1  0  0  0  0
  4  5  1  0  0  0  0
  4 30  1  0  0  0  0
  4 31  1  0  0  0  0
  4 47  1  0  0  0  0
  5  6  1  0  0  0  0
  5 32  1  0  0  0  0
  5 33  1  0  0  0  0
  6 10  1  0  0  0  0
  6  7  2  0  0  0  0
  7  8  1  0  0  0  0
  7 34  1  0  0  0  0
  8  9  2  0  0  0  0
  8 35  1  0  0  0  0
  9 10  1  0  0  0  0
  9 36  1  0  0  0  0
 11 12  1  1  0  0  0
 11 22  1  0  0  0  0
 11 13  1  0  0  0  0
 11 47  1  0  0  0  0
 13 14  1  0  0  0  0
 13 37  1  0  0  0  0
 13 38  1  0  0  0  0
 14 15  1  0  0  0  0
 14 39  1  0  0  0  0
 14 40  1  0  0  0  0
 15 20  2  0  0  0  0
 15 16  1  0  0  0  0
 16 17  2  0  0  0  0
 16 22  1  0  0  0  0
 17 18  1  0  0  0  0
 17 41  1  0  0  0  0
 18 19  2  0  0  0  0
 18 42  1  0  0  0  0
 19 20  1  0  0  0  0
 19 43  1  0  0  0  0
 20 21  1  0  0  0  0
 21 44  1  0  0  0  0
 22 45  1  0  0  0  0
 22 46  1  0  0  0  0
 47 48  1  6  0  0  0
M  CHG  1  47   1
M  END
$$$$
