ZINC85536932
 OpenBabel08292219463D

117122  0  0  1  0  0  0  0  0999 V2000
    0.3216    1.0837    0.7671 C   0  0  0  0  0  0  0  0  0  0  0  0
    0.3612   -0.4306    0.7863 C   0  0  0  0  0  0  0  0  0  0  0  0
   -0.6561   -1.1382    0.7713 C   0  0  0  0  0  0  0  0  0  0  0  0
   -2.0043   -0.4380    0.8911 C   0  0  2  0  0  0  0  0  0  0  0  0
   -1.9825    0.4679    0.2130 H   0  0  0  0  0  0  0  0  0  0  0  0
   -2.1696    0.0317    2.2468 C   0  0  0  0  0  0  0  0  0  0  0  0
   -2.4523    1.2058    2.5079 O   0  0  0  0  0  0  0  0  0  0  0  0
   -1.9849   -0.8626    3.4902 C   0  0  2  0  0  0  0  0  0  0  0  0
   -2.5776   -0.1840    4.7184 C   0  0  2  0  0  0  0  0  0  0  0  0
   -3.5146    0.3186    4.3817 H   0  0  0  0  0  0  0  0  0  0  0  0
   -1.5583    0.8501    5.2052 C   0  0  0  0  0  0  0  0  0  0  0  0
   -0.3032    0.1603    5.7476 C   0  0  2  0  0  0  0  0  0  0  0  0
    0.4329    0.8446    6.0374 H   0  0  0  0  0  0  0  0  0  0  0  0
    0.1323   -0.9980    4.8753 C   0  0  2  0  0  0  0  0  0  0  0  0
   -0.5572   -1.3612    3.5995 C   0  0  1  0  0  0  0  0  0  0  0  0
    0.0246   -0.8747    2.8400 H   0  0  0  0  0  0  0  0  0  0  0  0
   -0.3726   -2.8646    3.2273 C   0  0  1  0  0  0  0  0  0  0  0  0
   -1.2031   -3.5402    3.2802 H   0  0  0  0  0  0  0  0  0  0  0  0
    0.4063   -2.9942    1.8820 C   0  0  1  0  0  0  0  0  0  0  0  0
   -0.4784   -2.6262    0.7015 C   0  0  0  0  0  0  0  0  0  0  0  0
   -1.7192   -3.4052    0.7536 C   0  0  0  0  0  0  0  0  0  0  0  0
    0.1884   -3.0099   -0.6194 C   0  0  0  0  0  0  0  0  0  0  0  0
    1.6929   -2.2504    1.8292 C   0  0  0  0  0  0  0  0  0  0  0  0
    1.7713   -1.0340    0.9150 C   0  0  2  0  0  0  0  0  0  0  0  0
    2.1186   -1.3898   -0.0503 H   0  0  0  0  0  0  0  0  0  0  0  0
    2.7121   -0.0608    1.4920 O   0  0  0  0  0  0  0  0  0  0  0  0
    3.3696    0.7341    0.6332 C   0  0  0  0  0  0  0  0  0  0  0  0
    3.1758    0.6309   -0.5549 O   0  0  0  0  0  0  0  0  0  0  0  0
    4.3495    1.7553    1.1509 C   0  0  1  0  0  0  0  0  0  0  0  0
    3.8544    2.3970    1.8798 H   0  0  0  0  0  0  0  0  0  0  0  0
    5.5267    1.0405    1.8173 C   0  0  2  0  0  0  0  0  0  0  0  0
    5.1616    0.4343    2.6463 H   0  0  0  0  0  0  0  0  0  0  0  0
    6.5066    2.0617    2.3350 C   0  0  0  0  0  0  0  0  0  0  0  0
    7.4001    2.6635    1.4687 C   0  0  0  0  0  0  0  0  0  0  0  0
    8.2989    3.6002    1.9436 C   0  0  0  0  0  0  0  0  0  0  0  0
    8.3040    3.9355    3.2847 C   0  0  0  0  0  0  0  0  0  0  0  0
    7.4098    3.3343    4.1508 C   0  0  0  0  0  0  0  0  0  0  0  0
    6.5082    2.4008    3.6751 C   0  0  0  0  0  0  0  0  0  0  0  0
    6.1922    0.1780    0.8377 N   0  0  0  0  0  0  0  0  0  0  0  0
    6.8941   -0.8954    1.2518 C   0  0  0  0  0  0  0  0  0  0  0  0
    6.9751   -1.1478    2.4376 O   0  0  0  0  0  0  0  0  0  0  0  0
    7.5056   -1.6881    0.3515 O   0  0  0  0  0  0  0  0  0  0  0  0
    8.2321   -2.8082    0.8610 C   0  0  0  0  0  0  0  0  0  0  0  0
    7.2814   -3.7231    1.6356 C   0  0  0  0  0  0  0  0  0  0  0  0
    8.8531   -3.5849   -0.3018 C   0  0  0  0  0  0  0  0  0  0  0  0
    9.3397   -2.3158    1.7946 C   0  0  0  0  0  0  0  0  0  0  0  0
    4.8281    2.5500    0.0640 O   0  0  0  0  0  0  0  0  0  0  0  0
    0.6476   -4.3926    1.7711 O   0  0  0  0  0  0  0  0  0  0  0  0
    0.5686   -3.4060    4.2176 O   0  0  0  0  0  0  0  0  0  0  0  0
    0.4416   -4.7095    4.5331 C   0  0  0  0  0  0  0  0  0  0  0  0
   -0.4223   -5.3808    4.0054 O   0  0  0  0  0  0  0  0  0  0  0  0
    1.3530   -5.3225    5.5210 C   0  0  0  0  0  0  0  0  0  0  0  0
    2.3435   -4.5524    6.1338 C   0  0  0  0  0  0  0  0  0  0  0  0
    3.1912   -5.1312    7.0553 C   0  0  0  0  0  0  0  0  0  0  0  0
    3.0616   -6.4717    7.3729 C   0  0  0  0  0  0  0  0  0  0  0  0
    2.0826   -7.2408    6.7690 C   0  0  0  0  0  0  0  0  0  0  0  0
    1.2242   -6.6733    5.8504 C   0  0  0  0  0  0  0  0  0  0  0  0
   -0.0961   -1.8495    6.0642 C   0  0  0  0  0  0  0  0  0  0  0  0
   -0.6014   -0.7279    6.8817 O   0  0  0  0  0  0  0  0  0  0  0  0
    1.5304   -0.9235    4.6227 O   0  0  0  0  0  0  0  0  0  0  0  0
    2.3339   -0.7599    5.6854 C   0  0  0  0  0  0  0  0  0  0  0  0
    1.8606   -0.6828    6.7944 O   0  0  0  0  0  0  0  0  0  0  0  0
    3.8263   -0.6725    5.4953 C   0  0  0  0  0  0  0  0  0  0  0  0
   -2.8246   -1.2021    5.6902 O   0  0  0  0  0  0  0  0  0  0  0  0
   -3.9249   -0.9225    6.5581 C   0  0  0  0  0  0  0  0  0  0  0  0
   -3.0138   -2.0011    3.2825 C   0  0  0  0  0  0  0  0  0  0  0  0
   -3.1047   -1.1785    0.4778 O   0  0  0  0  0  0  0  0  0  0  0  0
   -4.1763   -0.3876   -0.0401 C   0  0  0  0  0  0  0  0  0  0  0  0
    1.3356    1.4747    0.8510 H   0  0  0  0  0  0  0  0  0  0  0  0
   -0.1226    1.4237   -0.1684 H   0  0  0  0  0  0  0  0  0  0  0  0
   -0.2765    1.4422    1.6048 H   0  0  0  0  0  0  0  0  0  0  0  0
   -1.3139    1.5379    4.4854 H   0  0  0  0  0  0  0  0  0  0  0  0
   -2.0573    1.4344    6.0218 H   0  0  0  0  0  0  0  0  0  0  0  0
   -2.4513   -2.9684    0.0744 H   0  0  0  0  0  0  0  0  0  0  0  0
   -1.5154   -4.4337    0.4556 H   0  0  0  0  0  0  0  0  0  0  0  0
   -2.1136   -3.3928    1.7697 H   0  0  0  0  0  0  0  0  0  0  0  0
    1.2105   -2.6314   -0.6339 H   0  0  0  0  0  0  0  0  0  0  0  0
    0.2016   -4.0954   -0.7179 H   0  0  0  0  0  0  0  0  0  0  0  0
   -0.3713   -2.5766   -1.4483 H   0  0  0  0  0  0  0  0  0  0  0  0
    2.0102   -1.9404    2.8361 H   0  0  0  0  0  0  0  0  0  0  0  0
    2.5238   -2.9943    1.5113 H   0  0  0  0  0  0  0  0  0  0  0  0
    7.3962    2.4015    0.4210 H   0  0  0  0  0  0  0  0  0  0  0  0
    8.9975    4.0699    1.2670 H   0  0  0  0  0  0  0  0  0  0  0  0
    9.0067    4.6668    3.6559 H   0  0  0  0  0  0  0  0  0  0  0  0
    7.4140    3.5960    5.1986 H   0  0  0  0  0  0  0  0  0  0  0  0
    5.8071    1.9338    4.3511 H   0  0  0  0  0  0  0  0  0  0  0  0
    6.1275    0.3795   -0.1090 H   0  0  0  0  0  0  0  0  0  0  0  0
    6.4924   -4.0739    0.9704 H   0  0  0  0  0  0  0  0  0  0  0  0
    7.8356   -4.5775    2.0242 H   0  0  0  0  0  0  0  0  0  0  0  0
    6.8391   -3.1697    2.4639 H   0  0  0  0  0  0  0  0  0  0  0  0
    9.5304   -2.9331   -0.8536 H   0  0  0  0  0  0  0  0  0  0  0  0
    9.4072   -4.4393    0.0868 H   0  0  0  0  0  0  0  0  0  0  0  0
    8.0640   -3.9357   -0.9669 H   0  0  0  0  0  0  0  0  0  0  0  0
    8.8973   -1.7624    2.6230 H   0  0  0  0  0  0  0  0  0  0  0  0
    9.8939   -3.1702    2.1832 H   0  0  0  0  0  0  0  0  0  0  0  0
   10.0170   -1.6640    1.2428 H   0  0  0  0  0  0  0  0  0  0  0  0
    5.2808    2.0434   -0.6241 H   0  0  0  0  0  0  0  0  0  0  0  0
    1.1670   -4.7610    2.4988 H   0  0  0  0  0  0  0  0  0  0  0  0
    2.4459   -3.5061    5.8866 H   0  0  0  0  0  0  0  0  0  0  0  0
    3.9579   -4.5368    7.5298 H   0  0  0  0  0  0  0  0  0  0  0  0
    3.7280   -6.9199    8.0950 H   0  0  0  0  0  0  0  0  0  0  0  0
    1.9874   -8.2867    7.0209 H   0  0  0  0  0  0  0  0  0  0  0  0
    0.4573   -7.2735    5.3834 H   0  0  0  0  0  0  0  0  0  0  0  0
   -0.9179   -2.5941    5.9104 H   0  0  0  0  0  0  0  0  0  0  0  0
    0.7183   -2.3508    6.5654 H   0  0  0  0  0  0  0  0  0  0  0  0
    4.1134    0.3686    5.3475 H   0  0  0  0  0  0  0  0  0  0  0  0
    4.3288   -1.0659    6.3790 H   0  0  0  0  0  0  0  0  0  0  0  0
    4.1162   -1.2568    4.6221 H   0  0  0  0  0  0  0  0  0  0  0  0
   -3.7323    0.0019    7.1026 H   0  0  0  0  0  0  0  0  0  0  0  0
   -4.8347   -0.8138    5.9678 H   0  0  0  0  0  0  0  0  0  0  0  0
   -4.0468   -1.7424    7.2659 H   0  0  0  0  0  0  0  0  0  0  0  0
   -3.0261   -2.2926    2.2323 H   0  0  0  0  0  0  0  0  0  0  0  0
   -2.7350   -2.8590    3.8945 H   0  0  0  0  0  0  0  0  0  0  0  0
   -4.0047   -1.6532    3.5746 H   0  0  0  0  0  0  0  0  0  0  0  0
   -4.9966   -1.0394   -0.3406 H   0  0  0  0  0  0  0  0  0  0  0  0
   -4.5234    0.3022    0.7292 H   0  0  0  0  0  0  0  0  0  0  0  0
   -3.8262    0.1776   -0.9038 H   0  0  0  0  0  0  0  0  0  0  0  0
  1  2  1  0  0  0  0
  1 69  1  0  0  0  0
  1 70  1  0  0  0  0
  1 71  1  0  0  0  0
  2 24  1  0  0  0  0
  2  3  2  0  0  0  0
  3 20  1  0  0  0  0
  3  4  1  0  0  0  0
  4  5  1  6  0  0  0
  4  6  1  0  0  0  0
  4 67  1  0  0  0  0
  6  7  2  0  0  0  0
  6  8  1  0  0  0  0
  8 15  1  0  0  0  0
  8  9  1  0  0  0  0
  8 66  1  6  0  0  0
  9 10  1  6  0  0  0
  9 11  1  0  0  0  0
  9 64  1  0  0  0  0
 11 12  1  0  0  0  0
 11 72  1  0  0  0  0
 11 73  1  0  0  0  0
 12 13  1  1  0  0  0
 12 59  1  0  0  0  0
 12 14  1  0  0  0  0
 14 15  1  0  0  0  0
 14 58  1  0  0  0  0
 14 60  1  6  0  0  0
 15 16  1  6  0  0  0
 15 17  1  0  0  0  0
 17 18  1  6  0  0  0
 17 19  1  0  0  0  0
 17 49  1  0  0  0  0
 19 20  1  0  0  0  0
 19 23  1  0  0  0  0
 19 48  1  6  0  0  0
 20 21  1  0  0  0  0
 20 22  1  0  0  0  0
 21 74  1  0  0  0  0
 21 75  1  0  0  0  0
 21 76  1  0  0  0  0
 22 77  1  0  0  0  0
 22 78  1  0  0  0  0
 22 79  1  0  0  0  0
 23 24  1  0  0  0  0
 23 80  1  0  0  0  0
 23 81  1  0  0  0  0
 24 25  1  6  0  0  0
 24 26  1  0  0  0  0
 26 27  1  0  0  0  0
 27 28  2  0  0  0  0
 27 29  1  0  0  0  0
 29 30  1  1  0  0  0
 29 31  1  0  0  0  0
 29 47  1  0  0  0  0
 31 32  1  1  0  0  0
 31 33  1  0  0  0  0
 31 39  1  0  0  0  0
 33 38  2  0  0  0  0
 33 34  1  0  0  0  0
 34 35  2  0  0  0  0
 34 82  1  0  0  0  0
 35 36  1  0  0  0  0
 35 83  1  0  0  0  0
 36 37  2  0  0  0  0
 36 84  1  0  0  0  0
 37 38  1  0  0  0  0
 37 85  1  0  0  0  0
 38 86  1  0  0  0  0
 39 40  1  0  0  0  0
 39 87  1  0  0  0  0
 40 41  2  0  0  0  0
 40 42  1  0  0  0  0
 42 43  1  0  0  0  0
 43 44  1  0  0  0  0
 43 45  1  0  0  0  0
 43 46  1  0  0  0  0
 44 88  1  0  0  0  0
 44 89  1  0  0  0  0
 44 90  1  0  0  0  0
 45 91  1  0  0  0  0
 45 92  1  0  0  0  0
 45 93  1  0  0  0  0
 46 94  1  0  0  0  0
 46 95  1  0  0  0  0
 46 96  1  0  0  0  0
 47 97  1  0  0  0  0
 48 98  1  0  0  0  0
 49 50  1  0  0  0  0
 50 51  2  0  0  0  0
 50 52  1  0  0  0  0
 52 57  2  0  0  0  0
 52 53  1  0  0  0  0
 53 54  2  0  0  0  0
 53 99  1  0  0  0  0
 54 55  1  0  0  0  0
 54100  1  0  0  0  0
 55 56  2  0  0  0  0
 55101  1  0  0  0  0
 56 57  1  0  0  0  0
 56102  1  0  0  0  0
 57103  1  0  0  0  0
 58 59  1  0  0  0  0
 58104  1  0  0  0  0
 58105  1  0  0  0  0
 60 61  1  0  0  0  0
 61 62  2  0  0  0  0
 61 63  1  0  0  0  0
 63106  1  0  0  0  0
 63107  1  0  0  0  0
 63108  1  0  0  0  0
 64 65  1  0  0  0  0
 65109  1  0  0  0  0
 65110  1  0  0  0  0
 65111  1  0  0  0  0
 66112  1  0  0  0  0
 66113  1  0  0  0  0
 66114  1  0  0  0  0
 67 68  1  0  0  0  0
 68115  1  0  0  0  0
 68116  1  0  0  0  0
 68117  1  0  0  0  0
M  END
$$$$
