ZINC02005550
 OpenBabel08292219463D

 35 35  0  0  1  0  0  0  0  0999 V2000
    2.4582    7.5557    2.4152 C   0  0  0  0  0  0  0  0  0  0  0  0
    1.1866    6.7049    2.4267 C   0  0  0  0  0  0  0  0  0  0  0  0
    1.2192    5.7232    1.2536 C   0  0  0  0  0  0  0  0  0  0  0  0
   -0.0523    4.8723    1.2652 C   0  0  2  0  0  0  0  0  0  0  0  0
   -0.9338    5.5302    1.2623 H   0  0  0  0  0  0  0  0  0  0  0  0
   -0.0711    4.0004    2.5222 C   0  0  0  0  0  0  0  0  0  0  0  0
   -0.0790    3.9783    0.0239 C   0  0  0  0  0  0  0  0  0  0  0  0
    1.0734    2.9968    0.1241 C   0  0  0  0  0  0  0  0  0  0  0  0
    2.2192    3.3805    0.2215 O   0  0  0  0  0  0  0  0  0  0  0  0
    0.7755    1.6804    0.1014 N   0  0  0  0  0  0  0  0  0  0  0  0
   -0.4836    1.2408   -0.0051 C   0  0  0  0  0  0  0  0  0  0  0  0
   -0.6612    0.0390   -0.0178 O   0  0  0  0  0  0  0  0  0  0  0  0
   -1.5610    2.0279   -0.1040 N   0  0  0  0  0  0  0  0  0  0  0  0
   -1.4657    3.3744   -0.0932 C   0  0  0  0  0  0  0  0  0  0  0  0
   -2.4514    4.0751   -0.1787 O   0  0  0  0  0  0  0  0  0  0  0  0
    0.1551    4.8638   -1.2017 C   0  0  0  0  0  0  0  0  0  0  0  0
    0.2140    4.0046   -2.4384 C   0  0  0  0  0  0  0  0  0  0  0  0
   -0.5821    4.2547   -3.4482 C   0  0  0  0  0  0  0  0  0  0  0  0
    2.4348    8.2615    3.2586 H   0  0  0  0  0  0  0  0  0  0  0  0
    2.5162    8.1155    1.4701 H   0  0  0  0  0  0  0  0  0  0  0  0
    3.3377    6.9017    2.5086 H   0  0  0  0  0  0  0  0  0  0  0  0
    1.1286    6.1451    3.3718 H   0  0  0  0  0  0  0  0  0  0  0  0
    0.3070    7.3588    2.3333 H   0  0  0  0  0  0  0  0  0  0  0  0
    1.2772    6.2831    0.3085 H   0  0  0  0  0  0  0  0  0  0  0  0
    2.0988    5.0694    1.3470 H   0  0  0  0  0  0  0  0  0  0  0  0
   -0.9853    3.3887    2.5305 H   0  0  0  0  0  0  0  0  0  0  0  0
   -0.0520    4.6432    3.4146 H   0  0  0  0  0  0  0  0  0  0  0  0
    0.8104    3.3424    2.5252 H   0  0  0  0  0  0  0  0  0  0  0  0
    1.5797    0.9332    0.1715 H   0  0  0  0  0  0  0  0  0  0  0  0
   -2.5618    1.5811   -0.1976 H   0  0  0  0  0  0  0  0  0  0  0  0
   -0.6697    5.5855   -1.2956 H   0  0  0  0  0  0  0  0  0  0  0  0
    1.1052    5.4059   -1.0863 H   0  0  0  0  0  0  0  0  0  0  0  0
    0.9255    3.1675   -2.4932 H   0  0  0  0  0  0  0  0  0  0  0  0
   -0.5391    3.6276   -4.3509 H   0  0  0  0  0  0  0  0  0  0  0  0
   -1.2936    5.0918   -3.3934 H   0  0  0  0  0  0  0  0  0  0  0  0
  1  2  1  0  0  0  0
  1 19  1  0  0  0  0
  1 20  1  0  0  0  0
  1 21  1  0  0  0  0
  2  3  1  0  0  0  0
  2 22  1  0  0  0  0
  2 23  1  0  0  0  0
  3  4  1  0  0  0  0
  3 24  1  0  0  0  0
  3 25  1  0  0  0  0
  4  5  1  6  0  0  0
  4  6  1  0  0  0  0
  4  7  1  0  0  0  0
  6 26  1  0  0  0  0
  6 27  1  0  0  0  0
  6 28  1  0  0  0  0
  7 14  1  0  0  0  0
  7  8  1  0  0  0  0
  7 16  1  0  0  0  0
  8  9  2  0  0  0  0
  8 10  1  0  0  0  0
 10 11  1  0  0  0  0
 10 29  1  0  0  0  0
 11 12  2  0  0  0  0
 11 13  1  0  0  0  0
 13 14  1  0  0  0  0
 13 30  1  0  0  0  0
 14 15  2  0  0  0  0
 16 17  1  0  0  0  0
 16 31  1  0  0  0  0
 16 32  1  0  0  0  0
 17 18  2  0  0  0  0
 17 33  1  0  0  0  0
 18 34  1  0  0  0  0
 18 35  1  0  0  0  0
M  END
$$$$
