ZINC00056647
 OpenBabel08292219463D

 41 43  0  0  1  0  0  0  0  0999 V2000
    1.3066   -0.1092   -1.0556 C   0  0  0  0  0  0  0  0  0  0  0  0
    0.4256    0.0595    0.1839 C   0  0  2  0  0  0  0  0  0  0  0  0
    0.9006   -0.4264    1.0361 H   0  0  0  0  0  0  0  0  0  0  0  0
   -0.9410   -0.5795   -0.0710 C   0  0  0  0  0  0  0  0  0  0  0  0
   -0.7796   -2.0254   -0.2428 N   0  0  0  0  0  0  0  0  0  0  0  0
   -0.6741   -2.5487   -1.5360 C   0  0  0  0  0  0  0  0  0  0  0  0
   -1.4268   -2.0146   -2.5702 C   0  0  0  0  0  0  0  0  0  0  0  0
   -1.3184   -2.5387   -3.8465 C   0  0  0  0  0  0  0  0  0  0  0  0
   -0.4631   -3.5939   -4.0998 C   0  0  0  0  0  0  0  0  0  0  0  0
    0.2941   -4.1353   -3.0737 C   0  0  0  0  0  0  0  0  0  0  0  0
    0.1895   -3.6155   -1.7977 C   0  0  0  0  0  0  0  0  0  0  0  0
    1.1410   -4.2843   -0.4691 S   0  0  0  0  0  0  0  0  0  0  0  0
    0.1207   -3.9475    0.9322 C   0  0  0  0  0  0  0  0  0  0  0  0
   -0.7296   -2.8433    0.8913 C   0  0  0  0  0  0  0  0  0  0  0  0
   -1.5307   -2.5676    1.9884 C   0  0  0  0  0  0  0  0  0  0  0  0
   -1.4773   -3.3824    3.1058 C   0  0  0  0  0  0  0  0  0  0  0  0
   -0.6290   -4.4727    3.1373 C   0  0  0  0  0  0  0  0  0  0  0  0
    0.1650   -4.7585    2.0500 C   0  0  0  0  0  0  0  0  0  0  0  0
    0.2516    1.4898    0.4700 N   0  3  0  0  0  0  0  0  0  0  0  0
   -0.5699    1.6514    1.6770 C   0  0  0  0  0  0  0  0  0  0  0  0
    1.5659    2.1094    0.6856 C   0  0  0  0  0  0  0  0  0  0  0  0
    2.2802    0.3460   -0.8741 H   0  0  0  0  0  0  0  0  0  0  0  0
    1.4356   -1.1705   -1.2679 H   0  0  0  0  0  0  0  0  0  0  0  0
    0.8315    0.3766   -1.9079 H   0  0  0  0  0  0  0  0  0  0  0  0
   -1.5968   -0.3855    0.7778 H   0  0  0  0  0  0  0  0  0  0  0  0
   -1.3789   -0.1531   -0.9734 H   0  0  0  0  0  0  0  0  0  0  0  0
   -2.0979   -1.1901   -2.3799 H   0  0  0  0  0  0  0  0  0  0  0  0
   -1.9065   -2.1202   -4.6499 H   0  0  0  0  0  0  0  0  0  0  0  0
   -0.3851   -3.9973   -5.0986 H   0  0  0  0  0  0  0  0  0  0  0  0
    0.9628   -4.9603   -3.2701 H   0  0  0  0  0  0  0  0  0  0  0  0
   -2.1960   -1.7170    1.9713 H   0  0  0  0  0  0  0  0  0  0  0  0
   -2.1026   -3.1645    3.9590 H   0  0  0  0  0  0  0  0  0  0  0  0
   -0.5938   -5.1036    4.0132 H   0  0  0  0  0  0  0  0  0  0  0  0
    0.8278   -5.6107    2.0759 H   0  0  0  0  0  0  0  0  0  0  0  0
   -0.1429    1.0623    2.4887 H   0  0  0  0  0  0  0  0  0  0  0  0
   -0.5918    2.7028    1.9636 H   0  0  0  0  0  0  0  0  0  0  0  0
   -1.5847    1.3088    1.4744 H   0  0  0  0  0  0  0  0  0  0  0  0
    2.1755    1.9896   -0.2100 H   0  0  0  0  0  0  0  0  0  0  0  0
    1.4369    3.1708    0.8979 H   0  0  0  0  0  0  0  0  0  0  0  0
    2.0607    1.6278    1.5290 H   0  0  0  0  0  0  0  0  0  0  0  0
   -0.2064    1.9357   -0.3107 H   0  0  0  0  0  0  0  0  0  0  0  0
  1  2  1  0  0  0  0
  1 22  1  0  0  0  0
  1 23  1  0  0  0  0
  1 24  1  0  0  0  0
  2  3  1  1  0  0  0
  2  4  1  0  0  0  0
  2 19  1  0  0  0  0
  4  5  1  0  0  0  0
  4 25  1  0  0  0  0
  4 26  1  0  0  0  0
  5 14  1  0  0  0  0
  5  6  1  0  0  0  0
  6 11  2  0  0  0  0
  6  7  1  0  0  0  0
  7  8  2  0  0  0  0
  7 27  1  0  0  0  0
  8  9  1  0  0  0  0
  8 28  1  0  0  0  0
  9 10  2  0  0  0  0
  9 29  1  0  0  0  0
 10 11  1  0  0  0  0
 10 30  1  0  0  0  0
 11 12  1  0  0  0  0
 12 13  1  0  0  0  0
 13 18  2  0  0  0  0
 13 14  1  0  0  0  0
 14 15  2  0  0  0  0
 15 16  1  0  0  0  0
 15 31  1  0  0  0  0
 16 17  2  0  0  0  0
 16 32  1  0  0  0  0
 17 18  1  0  0  0  0
 17 33  1  0  0  0  0
 18 34  1  0  0  0  0
 19 20  1  0  0  0  0
 19 21  1  0  0  0  0
 19 41  1  0  0  0  0
 20 35  1  0  0  0  0
 20 36  1  0  0  0  0
 20 37  1  0  0  0  0
 21 38  1  0  0  0  0
 21 39  1  0  0  0  0
 21 40  1  0  0  0  0
M  CHG  1  19   1
M  END
$$$$
