ZINC00061044
 OpenBabel08292219463D

 26 27  0  0  0  0  0  0  0  0999 V2000
    0.3839    1.4777    0.0243 C   0  0  0  0  0  0  0  0  0  0  0  0
    0.1823   -0.0157    0.0073 C   0  0  0  0  0  0  0  0  0  0  0  0
   -0.3323   -0.7301   -1.0140 C   0  0  0  0  0  0  0  0  0  0  0  0
   -0.3518   -2.0916   -0.6315 C   0  0  0  0  0  0  0  0  0  0  0  0
   -0.7514   -3.0228   -1.3073 O   0  0  0  0  0  0  0  0  0  0  0  0
    0.1529   -2.1724    0.6166 N   0  0  0  0  0  0  0  0  0  0  0  0
    0.4955   -0.8755    1.0216 N   0  0  0  0  0  0  0  0  0  0  0  0
    1.0841   -0.5053    2.3111 C   0  0  0  0  0  0  0  0  0  0  0  0
    0.3112   -3.3407    1.3687 C   0  0  0  0  0  0  0  0  0  0  0  0
   -0.1358   -3.3884    2.6829 C   0  0  0  0  0  0  0  0  0  0  0  0
    0.0217   -4.5439    3.4227 C   0  0  0  0  0  0  0  0  0  0  0  0
    0.6235   -5.6526    2.8565 C   0  0  0  0  0  0  0  0  0  0  0  0
    1.0700   -5.6084    1.5485 C   0  0  0  0  0  0  0  0  0  0  0  0
    0.9105   -4.4579    0.8013 C   0  0  0  0  0  0  0  0  0  0  0  0
    1.3735    1.7152   -0.3659 H   0  0  0  0  0  0  0  0  0  0  0  0
   -0.3753    1.9539   -0.5961 H   0  0  0  0  0  0  0  0  0  0  0  0
    0.2992    1.8441    1.0474 H   0  0  0  0  0  0  0  0  0  0  0  0
   -0.6712   -0.3320   -1.9590 H   0  0  0  0  0  0  0  0  0  0  0  0
    1.2520    0.5714    2.3381 H   0  0  0  0  0  0  0  0  0  0  0  0
    0.4044   -0.7873    3.1151 H   0  0  0  0  0  0  0  0  0  0  0  0
    2.0339   -1.0244    2.4393 H   0  0  0  0  0  0  0  0  0  0  0  0
   -0.6056   -2.5226    3.1258 H   0  0  0  0  0  0  0  0  0  0  0  0
   -0.3254   -4.5814    4.4448 H   0  0  0  0  0  0  0  0  0  0  0  0
    0.7454   -6.5550    3.4372 H   0  0  0  0  0  0  0  0  0  0  0  0
    1.5403   -6.4758    1.1094 H   0  0  0  0  0  0  0  0  0  0  0  0
    1.2551   -4.4255   -0.2217 H   0  0  0  0  0  0  0  0  0  0  0  0
  1  2  1  0  0  0  0
  1 15  1  0  0  0  0
  1 16  1  0  0  0  0
  1 17  1  0  0  0  0
  2  7  1  0  0  0  0
  2  3  2  0  0  0  0
  3  4  1  0  0  0  0
  3 18  1  0  0  0  0
  4  5  2  0  0  0  0
  4  6  1  0  0  0  0
  6  7  1  0  0  0  0
  6  9  1  0  0  0  0
  7  8  1  0  0  0  0
  8 19  1  0  0  0  0
  8 20  1  0  0  0  0
  8 21  1  0  0  0  0
  9 14  2  0  0  0  0
  9 10  1  0  0  0  0
 10 11  2  0  0  0  0
 10 22  1  0  0  0  0
 11 12  1  0  0  0  0
 11 23  1  0  0  0  0
 12 13  2  0  0  0  0
 12 24  1  0  0  0  0
 13 14  1  0  0  0  0
 13 25  1  0  0  0  0
 14 26  1  0  0  0  0
M  END
$$$$
