ZINC02008866
 OpenBabel08292219463D

 44 46  0  0  1  0  0  0  0  0999 V2000
   -0.0184    1.5028    0.0103 C   0  0  0  0  0  0  0  0  0  0  0  0
    0.0021   -0.0041    0.0020 C   0  0  0  0  0  0  0  0  0  0  0  0
    1.0605   -0.5961   -0.0113 O   0  0  0  0  0  0  0  0  0  0  0  0
   -1.1558   -0.6938    0.0094 N   0  0  0  0  0  0  0  0  0  0  0  0
   -1.1360   -2.1586    0.0013 C   0  0  0  0  0  0  0  0  0  0  0  0
   -2.5713   -2.6882    0.0122 C   0  0  1  0  0  0  0  0  0  0  0  0
   -3.1231   -2.3295   -0.8567 H   0  0  0  0  0  0  0  0  0  0  0  0
   -2.5894   -4.2338    0.0787 C   0  0  0  0  0  0  0  0  0  0  0  0
   -3.7428   -4.4949    0.9625 N   0  0  0  0  0  0  0  0  0  0  0  0
   -4.0623   -3.3379    1.5724 C   0  0  0  0  0  0  0  0  0  0  0  0
   -4.9920   -3.2201    2.3460 O   0  0  0  0  0  0  0  0  0  0  0  0
   -3.2440   -2.3264    1.2341 O   0  0  0  0  0  0  0  0  0  0  0  0
   -4.3895   -5.7266    1.1355 C   0  0  0  0  0  0  0  0  0  0  0  0
   -3.9477   -6.8457    0.4427 C   0  0  0  0  0  0  0  0  0  0  0  0
   -4.5840   -8.0598    0.6124 C   0  0  0  0  0  0  0  0  0  0  0  0
   -5.6658   -8.1621    1.4760 C   0  0  0  0  0  0  0  0  0  0  0  0
   -6.1089   -7.0417    2.1703 C   0  0  0  0  0  0  0  0  0  0  0  0
   -5.4678   -5.8283    2.0041 C   0  0  0  0  0  0  0  0  0  0  0  0
   -7.1617   -7.1403    3.0111 F   0  0  0  0  0  0  0  0  0  0  0  0
   -6.3113   -9.3934    1.6476 N   0  0  0  0  0  0  0  0  0  0  0  0
   -7.4400   -9.7833    0.7878 C   0  0  0  0  0  0  0  0  0  0  0  0
   -7.1664  -11.1879    0.2381 C   0  0  0  0  0  0  0  0  0  0  0  0
   -6.8618  -12.0671    1.3235 O   0  0  0  0  0  0  0  0  0  0  0  0
   -5.6826  -11.7131    2.0502 C   0  0  0  0  0  0  0  0  0  0  0  0
   -5.8767  -10.3378    2.6891 C   0  0  0  0  0  0  0  0  0  0  0  0
    1.0042    1.8801    0.0026 H   0  0  0  0  0  0  0  0  0  0  0  0
   -0.5455    1.8639   -0.8728 H   0  0  0  0  0  0  0  0  0  0  0  0
   -0.5286    1.8543    0.9071 H   0  0  0  0  0  0  0  0  0  0  0  0
   -2.0023   -0.2203    0.0200 H   0  0  0  0  0  0  0  0  0  0  0  0
   -0.6258   -2.5101   -0.8955 H   0  0  0  0  0  0  0  0  0  0  0  0
   -0.6088   -2.5197    0.8844 H   0  0  0  0  0  0  0  0  0  0  0  0
   -2.7531   -4.6629   -0.9098 H   0  0  0  0  0  0  0  0  0  0  0  0
   -1.6683   -4.6140    0.5203 H   0  0  0  0  0  0  0  0  0  0  0  0
   -3.1062   -6.7667   -0.2297 H   0  0  0  0  0  0  0  0  0  0  0  0
   -4.2399   -8.9297    0.0727 H   0  0  0  0  0  0  0  0  0  0  0  0
   -5.8083   -4.9587    2.5466 H   0  0  0  0  0  0  0  0  0  0  0  0
   -8.3606   -9.7904    1.3713 H   0  0  0  0  0  0  0  0  0  0  0  0
   -7.5334   -9.0778   -0.0378 H   0  0  0  0  0  0  0  0  0  0  0  0
   -8.0491  -11.5513   -0.2881 H   0  0  0  0  0  0  0  0  0  0  0  0
   -6.3211  -11.1516   -0.4492 H   0  0  0  0  0  0  0  0  0  0  0  0
   -5.4979  -12.4543    2.8278 H   0  0  0  0  0  0  0  0  0  0  0  0
   -4.8320  -11.6787    1.3695 H   0  0  0  0  0  0  0  0  0  0  0  0
   -4.9353   -9.9993    3.1219 H   0  0  0  0  0  0  0  0  0  0  0  0
   -6.6372  -10.4016    3.4673 H   0  0  0  0  0  0  0  0  0  0  0  0
  1  2  1  0  0  0  0
  1 26  1  0  0  0  0
  1 27  1  0  0  0  0
  1 28  1  0  0  0  0
  2  3  2  0  0  0  0
  2  4  1  0  0  0  0
  4  5  1  0  0  0  0
  4 29  1  0  0  0  0
  5  6  1  0  0  0  0
  5 30  1  0  0  0  0
  5 31  1  0  0  0  0
  6  7  1  6  0  0  0
  6 12  1  0  0  0  0
  6  8  1  0  0  0  0
  8  9  1  0  0  0  0
  8 32  1  0  0  0  0
  8 33  1  0  0  0  0
  9 10  1  0  0  0  0
  9 13  1  0  0  0  0
 10 11  2  0  0  0  0
 10 12  1  0  0  0  0
 13 18  2  0  0  0  0
 13 14  1  0  0  0  0
 14 15  2  0  0  0  0
 14 34  1  0  0  0  0
 15 16  1  0  0  0  0
 15 35  1  0  0  0  0
 16 17  2  0  0  0  0
 16 20  1  0  0  0  0
 17 18  1  0  0  0  0
 17 19  1  0  0  0  0
 18 36  1  0  0  0  0
 20 25  1  0  0  0  0
 20 21  1  0  0  0  0
 21 22  1  0  0  0  0
 21 37  1  0  0  0  0
 21 38  1  0  0  0  0
 22 23  1  0  0  0  0
 22 39  1  0  0  0  0
 22 40  1  0  0  0  0
 23 24  1  0  0  0  0
 24 25  1  0  0  0  0
 24 41  1  0  0  0  0
 24 42  1  0  0  0  0
 25 43  1  0  0  0  0
 25 44  1  0  0  0  0
M  END
$$$$
