ZINC03977981
 OpenBabel08292219463D

 62 66  0  0  1  0  0  0  0  0999 V2000
   -0.9004    1.6716   -0.1307 C   0  0  0  0  0  0  0  0  0  0  0  0
   -1.0920    0.1537   -0.1188 C   0  0  2  0  0  0  0  0  0  0  0  0
   -2.4073   -0.1928    0.5529 C   0  0  0  0  0  0  0  0  0  0  0  0
   -2.3974    0.4670    1.9409 C   0  0  1  0  0  0  0  0  0  0  0  0
   -3.3176    0.2078    2.4645 H   0  0  0  0  0  0  0  0  0  0  0  0
   -1.2042    0.0074    2.7736 C   0  0  1  0  0  0  0  0  0  0  0  0
    0.1233    0.2315    2.0322 C   0  0  2  0  0  0  0  0  0  0  0  0
    0.2656    1.2960    1.8463 H   0  0  0  0  0  0  0  0  0  0  0  0
    0.0373   -0.5124    0.7116 C   0  0  2  0  0  0  0  0  0  0  0  0
   -0.1858   -1.5657    0.8818 H   0  0  0  0  0  0  0  0  0  0  0  0
    1.2439   -0.3509   -0.2190 C   0  0  0  0  0  0  0  0  0  0  0  0
    0.6557   -0.6788   -1.6186 C   0  0  2  0  0  0  0  0  0  0  0  0
    1.1311   -0.1040   -2.4134 H   0  0  0  0  0  0  0  0  0  0  0  0
   -0.8744   -0.4051   -1.5196 C   0  0  1  0  0  0  0  0  0  0  0  0
   -1.4846   -1.7047   -1.6363 O   0  0  0  0  0  0  0  0  0  0  0  0
   -0.5206   -2.4958   -2.3638 C   0  0  0  0  0  0  0  0  0  0  0  0
    0.7697   -2.1017   -1.8255 O   0  0  0  0  0  0  0  0  0  0  0  0
   -0.7664   -3.9871   -2.1265 C   0  0  0  0  0  0  0  0  0  0  0  0
   -0.5854   -2.1742   -3.8582 C   0  0  0  0  0  0  0  0  0  0  0  0
   -1.3454    0.5523   -2.5839 C   0  0  0  0  0  0  0  0  0  0  0  0
   -0.5708    1.3379   -3.0750 O   0  0  0  0  0  0  0  0  0  0  0  0
   -2.7831    0.5294   -3.0352 C   0  0  0  0  0  0  0  0  0  0  0  0
   -3.0105    1.5987   -3.9554 O   0  0  0  0  0  0  0  0  0  0  0  0
    1.2810   -0.3043    2.8768 C   0  0  0  0  0  0  0  0  0  0  0  0
    1.3789    0.4916    4.1821 C   0  0  1  0  0  0  0  0  0  0  0  0
    1.6310    1.5291    3.9627 H   0  0  0  0  0  0  0  0  0  0  0  0
    0.0307    0.4274    4.8750 C   0  0  0  0  0  0  0  0  0  0  0  0
   -0.0222    0.0472    6.1440 C   0  0  0  0  0  0  0  0  0  0  0  0
   -1.3131   -0.0477    6.8430 C   0  0  0  0  0  0  0  0  0  0  0  0
   -1.3629   -0.3587    8.0184 O   0  0  0  0  0  0  0  0  0  0  0  0
   -2.5438    0.2427    6.0880 C   0  0  0  0  0  0  0  0  0  0  0  0
   -2.4665    0.6276    4.8238 C   0  0  0  0  0  0  0  0  0  0  0  0
   -1.1768    0.7847    4.0927 C   0  0  2  0  0  0  0  0  0  0  0  0
   -1.0516    2.2717    3.7550 C   0  0  0  0  0  0  0  0  0  0  0  0
    2.3614   -0.0694    5.0050 F   0  0  0  0  0  0  0  0  0  0  0  0
   -1.3327   -1.3586    3.0471 F   0  0  0  0  0  0  0  0  0  0  0  0
   -2.3350    1.8858    1.7825 O   0  0  0  0  0  0  0  0  0  0  0  0
   -0.0485    1.9254   -0.7615 H   0  0  0  0  0  0  0  0  0  0  0  0
   -1.7984    2.1481   -0.5240 H   0  0  0  0  0  0  0  0  0  0  0  0
   -0.7179    2.0228    0.8849 H   0  0  0  0  0  0  0  0  0  0  0  0
   -3.2383    0.1949   -0.0363 H   0  0  0  0  0  0  0  0  0  0  0  0
   -2.4974   -1.2741    0.6567 H   0  0  0  0  0  0  0  0  0  0  0  0
    1.6192    0.6721   -0.1890 H   0  0  0  0  0  0  0  0  0  0  0  0
    2.0303   -1.0585    0.0436 H   0  0  0  0  0  0  0  0  0  0  0  0
   -1.7686   -4.2487   -2.4659 H   0  0  0  0  0  0  0  0  0  0  0  0
   -0.0312   -4.5694   -2.6820 H   0  0  0  0  0  0  0  0  0  0  0  0
   -0.6744   -4.2058   -1.0627 H   0  0  0  0  0  0  0  0  0  0  0  0
   -0.2608   -1.1468   -4.0232 H   0  0  0  0  0  0  0  0  0  0  0  0
    0.0682   -2.8540   -4.4048 H   0  0  0  0  0  0  0  0  0  0  0  0
   -1.6099   -2.2927   -4.2112 H   0  0  0  0  0  0  0  0  0  0  0  0
   -2.9955   -0.4216   -3.5235 H   0  0  0  0  0  0  0  0  0  0  0  0
   -3.4370    0.6483   -2.1713 H   0  0  0  0  0  0  0  0  0  0  0  0
   -3.9173    1.6451   -4.2882 H   0  0  0  0  0  0  0  0  0  0  0  0
    1.1069   -1.3558    3.1053 H   0  0  0  0  0  0  0  0  0  0  0  0
    2.2127   -0.2042    2.3201 H   0  0  0  0  0  0  0  0  0  0  0  0
    0.8901   -0.1952    6.6688 H   0  0  0  0  0  0  0  0  0  0  0  0
   -3.5076    0.1416    6.5648 H   0  0  0  0  0  0  0  0  0  0  0  0
   -3.3883    0.8261    4.2974 H   0  0  0  0  0  0  0  0  0  0  0  0
   -2.0253    2.6595    3.4554 H   0  0  0  0  0  0  0  0  0  0  0  0
   -0.6983    2.8149    4.6315 H   0  0  0  0  0  0  0  0  0  0  0  0
   -0.3422    2.4002    2.9375 H   0  0  0  0  0  0  0  0  0  0  0  0
   -3.0784    2.2596    1.2899 H   0  0  0  0  0  0  0  0  0  0  0  0
  1 38  1  0  0  0  0
  1 39  1  0  0  0  0
  1 40  1  0  0  0  0
  2  1  1  6  0  0  0
  2  9  1  0  0  0  0
  2 14  1  0  0  0  0
  2  3  1  0  0  0  0
  3  4  1  0  0  0  0
  3 41  1  0  0  0  0
  3 42  1  0  0  0  0
  4  5  1  1  0  0  0
  4  6  1  0  0  0  0
  4 37  1  0  0  0  0
  6 33  1  0  0  0  0
  6  7  1  0  0  0  0
  6 36  1  1  0  0  0
  7  8  1  6  0  0  0
  7  9  1  0  0  0  0
  7 24  1  0  0  0  0
  9 10  1  1  0  0  0
  9 11  1  0  0  0  0
 11 12  1  0  0  0  0
 11 43  1  0  0  0  0
 11 44  1  0  0  0  0
 12 13  1  6  0  0  0
 12 17  1  0  0  0  0
 12 14  1  0  0  0  0
 14 15  1  0  0  0  0
 14 20  1  6  0  0  0
 15 16  1  0  0  0  0
 16 17  1  0  0  0  0
 16 18  1  0  0  0  0
 16 19  1  0  0  0  0
 18 45  1  0  0  0  0
 18 46  1  0  0  0  0
 18 47  1  0  0  0  0
 19 48  1  0  0  0  0
 19 49  1  0  0  0  0
 19 50  1  0  0  0  0
 20 21  2  0  0  0  0
 20 22  1  0  0  0  0
 22 23  1  0  0  0  0
 22 51  1  0  0  0  0
 22 52  1  0  0  0  0
 23 53  1  0  0  0  0
 24 25  1  0  0  0  0
 24 54  1  0  0  0  0
 24 55  1  0  0  0  0
 25 26  1  6  0  0  0
 25 27  1  0  0  0  0
 25 35  1  0  0  0  0
 27 33  1  0  0  0  0
 27 28  2  0  0  0  0
 28 29  1  0  0  0  0
 28 56  1  0  0  0  0
 29 30  2  0  0  0  0
 29 31  1  0  0  0  0
 31 32  2  0  0  0  0
 31 57  1  0  0  0  0
 32 33  1  0  0  0  0
 32 58  1  0  0  0  0
 33 34  1  6  0  0  0
 34 59  1  0  0  0  0
 34 60  1  0  0  0  0
 34 61  1  0  0  0  0
 37 62  1  0  0  0  0
M  END
$$$$
