ZINC01543916
 OpenBabel08292219463D

 48 49  0  0  1  0  0  0  0  0999 V2000
   -0.0187    1.5258    0.0104 C   0  0  0  0  0  0  0  0  0  0  0  0
    0.0021   -0.0041    0.0020 C   0  0  0  0  0  0  0  0  0  0  0  0
    0.7421   -0.5109    1.2415 C   0  0  0  0  0  0  0  0  0  0  0  0
   -1.4333   -0.5336    0.0129 C   0  0  1  0  0  0  0  0  0  0  0  0
   -1.9605   -0.1726   -0.8702 H   0  0  0  0  0  0  0  0  0  0  0  0
   -1.4129   -2.0405    0.0046 C   0  0  0  0  0  0  0  0  0  0  0  0
   -1.5765   -2.6526    1.0334 O   0  0  0  0  0  0  0  0  0  0  0  0
   -1.2129   -2.7027   -1.1457 O   0  0  0  0  0  0  0  0  0  0  0  0
   -1.2058   -4.1301   -1.0798 C   0  0  0  0  0  0  0  0  0  0  0  0
   -0.9657   -4.7040   -2.4776 C   0  0  1  0  0  0  0  0  0  0  0  0
   -1.0484   -5.7904   -2.4435 H   0  0  0  0  0  0  0  0  0  0  0  0
   -2.0096   -4.1432   -3.4454 C   0  0  0  0  0  0  0  0  0  0  0  0
   -1.9798   -2.7151   -3.4030 O   0  0  0  0  0  0  0  0  0  0  0  0
    0.3420   -4.3397   -2.9240 O   0  0  0  0  0  0  0  0  0  0  0  0
    0.9387   -5.2881   -3.8108 C   0  0  0  0  0  0  0  0  0  0  0  0
    2.2694   -4.8186   -4.2045 N   0  0  0  0  0  0  0  0  0  0  0  0
    2.8711   -3.6634   -3.7968 C   0  0  0  0  0  0  0  0  0  0  0  0
    4.0487   -3.5638   -4.3407 N   0  0  0  0  0  0  0  0  0  0  0  0
    4.2726   -4.6447   -5.1270 C   0  0  0  0  0  0  0  0  0  0  0  0
    3.1389   -5.4611   -5.0435 C   0  0  0  0  0  0  0  0  0  0  0  0
    3.0978   -6.6105   -5.7275 N   0  0  0  0  0  0  0  0  0  0  0  0
    4.1077   -6.9911   -6.4777 C   0  0  0  0  0  0  0  0  0  0  0  0
    5.2395   -6.2409   -6.5968 N   0  0  0  0  0  0  0  0  0  0  0  0
    5.9668   -6.5506   -7.1590 H   0  0  0  0  0  0  0  0  0  0  0  0
    5.3501   -5.0637   -5.9422 C   0  0  0  0  0  0  0  0  0  0  0  0
    6.3590   -4.3864   -6.0408 O   0  0  0  0  0  0  0  0  0  0  0  0
    4.0203   -8.1782   -7.1605 N   0  0  0  0  0  0  0  0  0  0  0  0
   -2.1209   -0.0599    1.2215 N   0  3  0  0  0  0  0  0  0  0  0  0
    1.0039    1.9031    0.0027 H   0  0  0  0  0  0  0  0  0  0  0  0
   -0.5459    1.8868   -0.8726 H   0  0  0  0  0  0  0  0  0  0  0  0
   -0.5289    1.8773    0.9072 H   0  0  0  0  0  0  0  0  0  0  0  0
    0.5123   -0.3556   -0.8948 H   0  0  0  0  0  0  0  0  0  0  0  0
    0.7568   -1.6008    1.2356 H   0  0  0  0  0  0  0  0  0  0  0  0
    1.7647   -0.1336    1.2338 H   0  0  0  0  0  0  0  0  0  0  0  0
    0.2319   -0.1594    2.1383 H   0  0  0  0  0  0  0  0  0  0  0  0
   -0.4108   -4.4590   -0.4105 H   0  0  0  0  0  0  0  0  0  0  0  0
   -2.1664   -4.4812   -0.7030 H   0  0  0  0  0  0  0  0  0  0  0  0
   -1.7857   -4.4813   -4.4572 H   0  0  0  0  0  0  0  0  0  0  0  0
   -2.9997   -4.4947   -3.1556 H   0  0  0  0  0  0  0  0  0  0  0  0
   -2.6174   -2.2907   -3.9933 H   0  0  0  0  0  0  0  0  0  0  0  0
    1.0273   -6.2508   -3.3072 H   0  0  0  0  0  0  0  0  0  0  0  0
    0.3151   -5.3983   -4.6980 H   0  0  0  0  0  0  0  0  0  0  0  0
    2.4348   -2.9401   -3.1238 H   0  0  0  0  0  0  0  0  0  0  0  0
    3.2214   -8.7232   -7.0855 H   0  0  0  0  0  0  0  0  0  0  0  0
    4.7574   -8.4724   -7.7182 H   0  0  0  0  0  0  0  0  0  0  0  0
   -2.1346    0.9490    1.2270 H   0  0  0  0  0  0  0  0  0  0  0  0
   -3.0675   -0.4091    1.2287 H   0  0  0  0  0  0  0  0  0  0  0  0
   -1.6329   -0.3942    2.0389 H   0  0  0  0  0  0  0  0  0  0  0  0
  1  2  1  0  0  0  0
  1 29  1  0  0  0  0
  1 30  1  0  0  0  0
  1 31  1  0  0  0  0
  2  3  1  0  0  0  0
  2  4  1  0  0  0  0
  2 32  1  0  0  0  0
  3 33  1  0  0  0  0
  3 34  1  0  0  0  0
  3 35  1  0  0  0  0
  4  5  1  6  0  0  0
  4  6  1  0  0  0  0
  4 28  1  0  0  0  0
  6  7  2  0  0  0  0
  6  8  1  0  0  0  0
  8  9  1  0  0  0  0
  9 10  1  0  0  0  0
  9 36  1  0  0  0  0
  9 37  1  0  0  0  0
 10 11  1  1  0  0  0
 10 12  1  0  0  0  0
 10 14  1  0  0  0  0
 12 13  1  0  0  0  0
 12 38  1  0  0  0  0
 12 39  1  0  0  0  0
 13 40  1  0  0  0  0
 14 15  1  0  0  0  0
 15 16  1  0  0  0  0
 15 41  1  0  0  0  0
 15 42  1  0  0  0  0
 16 20  1  0  0  0  0
 16 17  1  0  0  0  0
 17 18  2  0  0  0  0
 17 43  1  0  0  0  0
 18 19  1  0  0  0  0
 19 25  1  0  0  0  0
 19 20  2  0  0  0  0
 20 21  1  0  0  0  0
 21 22  2  0  0  0  0
 22 23  1  0  0  0  0
 22 27  1  0  0  0  0
 23 24  1  0  0  0  0
 23 25  1  0  0  0  0
 25 26  2  0  0  0  0
 27 44  1  0  0  0  0
 27 45  1  0  0  0  0
 28 46  1  0  0  0  0
 28 47  1  0  0  0  0
 28 48  1  0  0  0  0
M  CHG  1  28   1
M  END
$$$$
