ZINC01530660
 OpenBabel08292219463D

 29 29  0  0  0  0  0  0  0  0999 V2000
   -0.6909    2.8389    6.4136 C   0  0  0  0  0  0  0  0  0  0  0  0
    0.7902    2.6725    6.0801 C   0  0  0  0  0  0  0  0  0  0  0  0
    0.9522    1.7222    4.9662 N   0  0  0  0  0  0  0  0  0  0  0  0
    0.1609    2.3187    3.5958 P   0  0  2  0  0  0  0  0  0  0  0  0
    0.9337    3.4388    3.0139 O   0  0  0  0  0  0  0  0  0  0  0  0
   -1.2963    2.8434    4.0780 O   0  0  0  0  0  0  0  0  0  0  0  0
   -1.4098    3.5989    5.2974 C   0  0  0  0  0  0  0  0  0  0  0  0
   -0.0184    1.0926    2.4569 N   0  0  0  0  0  0  0  0  0  0  0  0
   -0.7288    1.5792    1.2668 C   0  0  0  0  0  0  0  0  0  0  0  0
   -0.0127    1.0858    0.0080 C   0  0  0  0  0  0  0  0  0  0  0  0
   -0.8847    1.6831   -1.4527 Cl  0  0  0  0  0  0  0  0  0  0  0  0
    2.3725    1.4722    4.6869 C   0  0  0  0  0  0  0  0  0  0  0  0
    3.2010    1.7893    5.9335 C   0  0  0  0  0  0  0  0  0  0  0  0
    4.9443    1.4824    5.5907 Cl  0  0  0  0  0  0  0  0  0  0  0  0
   -0.7893    3.3929    7.3471 H   0  0  0  0  0  0  0  0  0  0  0  0
   -1.1457    1.8551    6.5296 H   0  0  0  0  0  0  0  0  0  0  0  0
    1.2075    3.6380    5.7940 H   0  0  0  0  0  0  0  0  0  0  0  0
    1.3183    2.2950    6.9557 H   0  0  0  0  0  0  0  0  0  0  0  0
   -0.9485    4.5776    5.1655 H   0  0  0  0  0  0  0  0  0  0  0  0
   -2.4618    3.7222    5.5546 H   0  0  0  0  0  0  0  0  0  0  0  0
   -0.4874    0.2936    2.8566 H   0  0  0  0  0  0  0  0  0  0  0  0
   -0.7436    2.6691    1.2728 H   0  0  0  0  0  0  0  0  0  0  0  0
   -1.7514    1.2020    1.2746 H   0  0  0  0  0  0  0  0  0  0  0  0
    0.0021   -0.0041    0.0020 H   0  0  0  0  0  0  0  0  0  0  0  0
    1.0099    1.4631    0.0003 H   0  0  0  0  0  0  0  0  0  0  0  0
    2.5107    0.4256    4.4155 H   0  0  0  0  0  0  0  0  0  0  0  0
    2.6981    2.1072    3.8630 H   0  0  0  0  0  0  0  0  0  0  0  0
    3.0628    2.8359    6.2050 H   0  0  0  0  0  0  0  0  0  0  0  0
    2.8754    1.1542    6.7574 H   0  0  0  0  0  0  0  0  0  0  0  0
  1  7  1  0  0  0  0
  1  2  1  0  0  0  0
  1 15  1  0  0  0  0
  1 16  1  0  0  0  0
  2  3  1  0  0  0  0
  2 17  1  0  0  0  0
  2 18  1  0  0  0  0
  3  4  1  0  0  0  0
  3 12  1  0  0  0  0
  4  5  2  6  0  0  0
  4  6  1  0  0  0  0
  4  8  1  0  0  0  0
  6  7  1  0  0  0  0
  7 19  1  0  0  0  0
  7 20  1  0  0  0  0
  8  9  1  0  0  0  0
  8 21  1  0  0  0  0
  9 10  1  0  0  0  0
  9 22  1  0  0  0  0
  9 23  1  0  0  0  0
 10 11  1  0  0  0  0
 10 24  1  0  0  0  0
 10 25  1  0  0  0  0
 12 13  1  0  0  0  0
 12 26  1  0  0  0  0
 12 27  1  0  0  0  0
 13 14  1  0  0  0  0
 13 28  1  0  0  0  0
 13 29  1  0  0  0  0
M  END
$$$$
