ZINC00902159
 OpenBabel08292219463D

 24 24  0  0  1  0  0  0  0  0999 V2000
   -0.0171    1.4086    0.0098 C   0  0  0  0  0  0  0  0  0  0  0  0
    1.1525    2.0867    0.0023 C   0  0  0  0  0  0  0  0  0  0  0  0
    2.3359    1.4277   -0.0126 N   0  0  0  0  0  0  0  0  0  0  0  0
    2.3918    0.0702   -0.0204 C   0  0  0  0  0  0  0  0  0  0  0  0
    1.2556   -0.6667   -0.0135 C   0  0  0  0  0  0  0  0  0  0  0  0
    0.0021   -0.0041    0.0020 C   0  0  0  0  0  0  0  0  0  0  0  0
   -1.0411   -0.6423    0.0090 O   0  0  0  0  0  0  0  0  0  0  0  0
    1.3161   -2.0263   -0.0218 O   0  0  0  0  0  0  0  0  0  0  0  0
    3.5833    2.1960   -0.0209 C   0  0  0  0  0  0  0  0  0  0  0  0
    4.0316    2.4562    1.4187 C   0  0  1  0  0  0  0  0  0  0  0  0
    4.2792    1.5095    1.8989 H   0  0  0  0  0  0  0  0  0  0  0  0
    5.2455    3.3492    1.4132 C   0  0  0  0  0  0  0  0  0  0  0  0
    5.1585    4.4986    1.8103 O   0  0  0  0  0  0  0  0  0  0  0  0
    6.3145    2.9222    1.0115 O   0  0  0  0  0  1  0  0  0  0  0  0
    2.9451    3.1113    2.1591 N   0  3  0  0  0  0  0  0  0  0  0  0
   -0.9564    1.9413    0.0261 H   0  0  0  0  0  0  0  0  0  0  0  0
    1.1431    3.1666    0.0078 H   0  0  0  0  0  0  0  0  0  0  0  0
    3.3512   -0.4257   -0.0326 H   0  0  0  0  0  0  0  0  0  0  0  0
    0.4512   -2.4586   -0.0159 H   0  0  0  0  0  0  0  0  0  0  0  0
    4.3543    1.6313   -0.5451 H   0  0  0  0  0  0  0  0  0  0  0  0
    3.4210    3.1469   -0.5283 H   0  0  0  0  0  0  0  0  0  0  0  0
    3.2407    3.2829    3.1084 H   0  0  0  0  0  0  0  0  0  0  0  0
    2.7159    3.9877    1.7146 H   0  0  0  0  0  0  0  0  0  0  0  0
    2.1323    2.5134    2.1628 H   0  0  0  0  0  0  0  0  0  0  0  0
  1  6  1  0  0  0  0
  1  2  2  0  0  0  0
  1 16  1  0  0  0  0
  2  3  1  0  0  0  0
  2 17  1  0  0  0  0
  3  4  1  0  0  0  0
  3  9  1  0  0  0  0
  4  5  2  0  0  0  0
  4 18  1  0  0  0  0
  5  6  1  0  0  0  0
  5  8  1  0  0  0  0
  6  7  2  0  0  0  0
  8 19  1  0  0  0  0
  9 10  1  0  0  0  0
  9 20  1  0  0  0  0
  9 21  1  0  0  0  0
 10 11  1  1  0  0  0
 10 12  1  0  0  0  0
 10 15  1  0  0  0  0
 12 13  2  0  0  0  0
 12 14  1  0  0  0  0
 15 22  1  0  0  0  0
 15 23  1  0  0  0  0
 15 24  1  0  0  0  0
M  CHG  1  15   1
M  END
$$$$
