ZINC08214625
 OpenBabel08292219463D

 20 19  0  0  0  0  0  0  0  0999 V2000
   -4.8887    0.9873    0.1563 C   0  0  0  0  0  0  0  0  0  0  0  0
   -3.6669    1.8995    0.0298 C   0  0  0  0  0  0  0  0  0  0  0  0
   -2.3948    1.0495    0.0191 C   0  0  0  0  0  0  0  0  0  0  0  0
   -1.2502    1.9051    0.0183 O   0  0  0  0  0  0  0  0  0  0  0  0
   -0.0144    1.2138    0.0087 N   0  0  0  0  0  4  0  0  0  0  0  0
    0.0021   -0.0041    0.0020 O   0  0  0  0  0  0  0  0  0  0  0  0
    1.0320    1.8371    0.0021 O   0  5  0  0  0  0  0  0  0  0  0  0
   -3.7524    2.6442   -1.1869 O   0  0  0  0  0  0  0  0  0  0  0  0
   -4.5196    3.8299   -1.0837 N   0  0  0  0  0  4  0  0  0  0  0  0
   -5.0349    4.1313   -0.0220 O   0  0  0  0  0  0  0  0  0  0  0  0
   -4.6642    4.5483   -2.0566 O   0  5  0  0  0  0  0  0  0  0  0  0
   -6.0675    1.7850    0.2834 O   0  0  0  0  0  0  0  0  0  0  0  0
   -7.2611    1.0332    0.4074 N   0  0  0  0  0  4  0  0  0  0  0  0
   -7.2177   -0.1840    0.3992 O   0  0  0  0  0  0  0  0  0  0  0  0
   -8.3310    1.6038    0.5223 O   0  5  0  0  0  0  0  0  0  0  0  0
   -4.9680    0.3608   -0.7321 H   0  0  0  0  0  0  0  0  0  0  0  0
   -4.7807    0.3556    1.0380 H   0  0  0  0  0  0  0  0  0  0  0  0
   -3.6375    2.5869    0.8752 H   0  0  0  0  0  0  0  0  0  0  0  0
   -2.3824    0.4252   -0.8743 H   0  0  0  0  0  0  0  0  0  0  0  0
   -2.3739    0.4156    0.9056 H   0  0  0  0  0  0  0  0  0  0  0  0
  1  2  1  0  0  0  0
  1 12  1  0  0  0  0
  1 16  1  0  0  0  0
  1 17  1  0  0  0  0
  2  3  1  0  0  0  0
  2  8  1  0  0  0  0
  2 18  1  0  0  0  0
  3  4  1  0  0  0  0
  3 19  1  0  0  0  0
  3 20  1  0  0  0  0
  4  5  1  0  0  0  0
  5  6  2  0  0  0  0
  5  7  1  0  0  0  0
  8  9  1  0  0  0  0
  9 10  2  0  0  0  0
  9 11  1  0  0  0  0
 12 13  1  0  0  0  0
 13 14  2  0  0  0  0
 13 15  1  0  0  0  0
M  CHG  3   7  -1  11  -1  15  -1
M  END
$$$$
