ZINC04099009
 OpenBabel08292219463D

 78 85  0  0  1  0  0  0  0  0999 V2000
   -1.2357    5.6113   -1.3177 C   0  0  0  0  0  0  0  0  0  0  0  0
    0.0050    5.0612   -0.8702 O   0  0  0  0  0  0  0  0  0  0  0  0
   -0.0127    3.7739   -0.4321 C   0  0  0  0  0  0  0  0  0  0  0  0
   -1.1993    3.0563   -0.4332 C   0  0  0  0  0  0  0  0  0  0  0  0
   -1.2194    1.7497    0.0173 C   0  0  0  0  0  0  0  0  0  0  0  0
   -0.0558    1.1495    0.4607 C   0  0  0  0  0  0  0  0  0  0  0  0
    1.1349    1.8601    0.4650 C   0  0  0  0  0  0  0  0  0  0  0  0
    1.1584    3.1758    0.0178 C   0  0  0  0  0  0  0  0  0  0  0  0
    2.3249    3.8768    0.0209 O   0  0  0  0  0  0  0  0  0  0  0  0
    2.2781    1.2706    0.9067 O   0  0  0  0  0  0  0  0  0  0  0  0
    2.1795   -0.0838    1.3515 C   0  0  0  0  0  0  0  0  0  0  0  0
   -2.5124    0.9755    0.0197 C   0  0  2  0  0  0  0  0  0  0  0  0
   -2.3045   -0.0902   -0.0761 H   0  0  0  0  0  0  0  0  0  0  0  0
   -3.3875    1.4337   -1.1314 C   0  0  0  0  0  0  0  0  0  0  0  0
   -3.0783    0.9540   -2.3971 C   0  0  0  0  0  0  0  0  0  0  0  0
   -3.8379    1.3198   -3.4927 C   0  0  0  0  0  0  0  0  0  0  0  0
   -4.9243    2.1752   -3.3224 C   0  0  0  0  0  0  0  0  0  0  0  0
   -5.2266    2.6527   -2.0607 C   0  0  0  0  0  0  0  0  0  0  0  0
   -4.4558    2.2893   -0.9644 C   0  0  0  0  0  0  0  0  0  0  0  0
   -4.8328    2.8840    0.3790 C   0  0  2  0  0  0  0  0  0  0  0  0
   -5.0953    3.9348    0.2570 H   0  0  0  0  0  0  0  0  0  0  0  0
   -3.6298    2.7577    1.2958 C   0  0  2  0  0  0  0  0  0  0  0  0
   -2.7993    3.3797    0.9620 H   0  0  0  0  0  0  0  0  0  0  0  0
   -3.2649    1.2375    1.3085 C   0  0  2  0  0  0  0  0  0  0  0  0
   -4.1682    0.6289    1.3505 H   0  0  0  0  0  0  0  0  0  0  0  0
   -2.4900    1.1281    2.5946 C   0  0  0  0  0  0  0  0  0  0  0  0
   -1.6291    0.3131    2.8276 O   0  0  0  0  0  0  0  0  0  0  0  0
   -2.9107    2.1000    3.4378 O   0  0  0  0  0  0  0  0  0  0  0  0
   -3.9240    2.9469    2.7922 C   0  0  0  0  0  0  0  0  0  0  0  0
   -5.9396    2.1686    0.9315 O   0  0  0  0  0  0  0  0  0  0  0  0
   -7.2153    2.6961    0.5623 C   0  0  1  0  0  0  0  0  0  0  0  0
   -7.2864    2.7434   -0.5244 H   0  0  0  0  0  0  0  0  0  0  0  0
   -8.3177    1.7845    1.1040 C   0  0  1  0  0  0  0  0  0  0  0  0
   -8.2060    1.6821    2.1834 H   0  0  0  0  0  0  0  0  0  0  0  0
   -9.6908    2.3911    0.7892 C   0  0  2  0  0  0  0  0  0  0  0  0
   -9.8311    2.4395   -0.2907 H   0  0  0  0  0  0  0  0  0  0  0  0
   -9.7432    3.8009    1.3778 C   0  0  1  0  0  0  0  0  0  0  0  0
   -9.6184    3.7480    2.4594 H   0  0  0  0  0  0  0  0  0  0  0  0
   -8.6023    4.6279    0.7712 C   0  0  2  0  0  0  0  0  0  0  0  0
   -8.7124    4.6576   -0.3128 H   0  0  0  0  0  0  0  0  0  0  0  0
   -7.3592    4.0135    1.1033 O   0  0  0  0  0  0  0  0  0  0  0  0
   -8.6848    6.0490    1.3300 C   0  0  0  0  0  0  0  0  0  0  0  0
   -9.9923    6.5669    1.0541 O   0  0  0  0  0  0  0  0  0  0  0  0
  -11.0616    5.7786    1.5788 C   0  0  2  0  0  0  0  0  0  0  0  0
  -10.9930    5.7578    2.6664 H   0  0  0  0  0  0  0  0  0  0  0  0
  -10.9816    4.4415    1.0723 O   0  0  0  0  0  0  0  0  0  0  0  0
  -12.3783    6.3888    1.1727 C   0  0  0  0  0  0  0  0  0  0  0  0
  -12.8654    7.6248    1.4418 C   0  0  0  0  0  0  0  0  0  0  0  0
  -14.1123    7.9739    0.9578 C   0  0  0  0  0  0  0  0  0  0  0  0
  -14.8155    7.0662    0.2373 C   0  0  0  0  0  0  0  0  0  0  0  0
  -13.7046    5.6687    0.2190 S   0  0  0  0  0  0  0  0  0  0  0  0
  -10.7168    1.5874    1.3753 O   0  0  0  0  0  0  0  0  0  0  0  0
   -8.2145    0.4977    0.4911 O   0  0  0  0  0  0  0  0  0  0  0  0
   -5.5113    2.3816   -4.5373 O   0  0  0  0  0  0  0  0  0  0  0  0
   -5.0207    1.3273   -5.3862 C   0  0  0  0  0  0  0  0  0  0  0  0
   -3.7416    0.9946   -4.8149 O   0  0  0  0  0  0  0  0  0  0  0  0
   -1.0815    6.6414   -1.6391 H   0  0  0  0  0  0  0  0  0  0  0  0
   -1.6137    5.0226   -2.1535 H   0  0  0  0  0  0  0  0  0  0  0  0
   -1.9581    5.5895   -0.5018 H   0  0  0  0  0  0  0  0  0  0  0  0
   -2.1098    3.5205   -0.7823 H   0  0  0  0  0  0  0  0  0  0  0  0
   -0.0750    0.1272    0.8084 H   0  0  0  0  0  0  0  0  0  0  0  0
    2.4908    4.3607    0.8415 H   0  0  0  0  0  0  0  0  0  0  0  0
    1.4790   -0.1426    2.1845 H   0  0  0  0  0  0  0  0  0  0  0  0
    1.8243   -0.7101    0.5331 H   0  0  0  0  0  0  0  0  0  0  0  0
    3.1601   -0.4319    1.6762 H   0  0  0  0  0  0  0  0  0  0  0  0
   -2.2373    0.2891   -2.5267 H   0  0  0  0  0  0  0  0  0  0  0  0
   -6.0692    3.3148   -1.9267 H   0  0  0  0  0  0  0  0  0  0  0  0
   -3.7957    3.9900    3.0814 H   0  0  0  0  0  0  0  0  0  0  0  0
   -4.9293    2.6021    3.0340 H   0  0  0  0  0  0  0  0  0  0  0  0
   -7.9327    6.6762    0.8514 H   0  0  0  0  0  0  0  0  0  0  0  0
   -8.5169    6.0302    2.4068 H   0  0  0  0  0  0  0  0  0  0  0  0
  -12.2868    8.3273    2.0232 H   0  0  0  0  0  0  0  0  0  0  0  0
  -14.5216    8.9538    1.1539 H   0  0  0  0  0  0  0  0  0  0  0  0
  -15.7940    7.1631   -0.2093 H   0  0  0  0  0  0  0  0  0  0  0  0
  -10.7305    0.6741    1.0578 H   0  0  0  0  0  0  0  0  0  0  0  0
   -7.3713    0.0523    0.6511 H   0  0  0  0  0  0  0  0  0  0  0  0
   -5.6897    0.4673   -5.3543 H   0  0  0  0  0  0  0  0  0  0  0  0
   -4.9020    1.6835   -6.4095 H   0  0  0  0  0  0  0  0  0  0  0  0
  1  2  1  0  0  0  0
  1 57  1  0  0  0  0
  1 58  1  0  0  0  0
  1 59  1  0  0  0  0
  2  3  1  0  0  0  0
  3  8  2  0  0  0  0
  3  4  1  0  0  0  0
  4  5  2  0  0  0  0
  4 60  1  0  0  0  0
  5  6  1  0  0  0  0
  5 12  1  0  0  0  0
  6  7  2  0  0  0  0
  6 61  1  0  0  0  0
  7  8  1  0  0  0  0
  7 10  1  0  0  0  0
  8  9  1  0  0  0  0
  9 62  1  0  0  0  0
 10 11  1  0  0  0  0
 11 63  1  0  0  0  0
 11 64  1  0  0  0  0
 11 65  1  0  0  0  0
 12 13  1  6  0  0  0
 12 24  1  0  0  0  0
 12 14  1  0  0  0  0
 14 19  2  0  0  0  0
 14 15  1  0  0  0  0
 15 16  2  0  0  0  0
 15 66  1  0  0  0  0
 16 56  1  0  0  0  0
 16 17  1  0  0  0  0
 17 18  2  0  0  0  0
 17 54  1  0  0  0  0
 18 19  1  0  0  0  0
 18 67  1  0  0  0  0
 19 20  1  0  0  0  0
 20 21  1  6  0  0  0
 20 22  1  0  0  0  0
 20 30  1  0  0  0  0
 22 23  1  6  0  0  0
 22 29  1  0  0  0  0
 22 24  1  0  0  0  0
 24 25  1  1  0  0  0
 24 26  1  0  0  0  0
 26 27  2  0  0  0  0
 26 28  1  0  0  0  0
 28 29  1  0  0  0  0
 29 68  1  0  0  0  0
 29 69  1  0  0  0  0
 30 31  1  0  0  0  0
 31 32  1  6  0  0  0
 31 41  1  0  0  0  0
 31 33  1  0  0  0  0
 33 34  1  1  0  0  0
 33 35  1  0  0  0  0
 33 53  1  0  0  0  0
 35 36  1  6  0  0  0
 35 37  1  0  0  0  0
 35 52  1  0  0  0  0
 37 38  1  1  0  0  0
 37 46  1  0  0  0  0
 37 39  1  0  0  0  0
 39 40  1  6  0  0  0
 39 41  1  0  0  0  0
 39 42  1  0  0  0  0
 42 43  1  0  0  0  0
 42 70  1  0  0  0  0
 42 71  1  0  0  0  0
 43 44  1  0  0  0  0
 44 45  1  1  0  0  0
 44 46  1  0  0  0  0
 44 47  1  0  0  0  0
 47 51  1  0  0  0  0
 47 48  2  0  0  0  0
 48 49  1  0  0  0  0
 48 72  1  0  0  0  0
 49 50  2  0  0  0  0
 49 73  1  0  0  0  0
 50 51  1  0  0  0  0
 50 74  1  0  0  0  0
 52 75  1  0  0  0  0
 53 76  1  0  0  0  0
 54 55  1  0  0  0  0
 55 56  1  0  0  0  0
 55 77  1  0  0  0  0
 55 78  1  0  0  0  0
M  END
$$$$
