ZINC00056555
 OpenBabel08292219463D

 46 48  0  0  0  0  0  0  0  0999 V2000
   -0.0173    1.4248    0.0099 C   0  0  0  0  0  0  0  0  0  0  0  0
    0.0021   -0.0041    0.0020 O   0  0  0  0  0  0  0  0  0  0  0  0
    0.6262   -0.6188    1.0422 C   0  0  0  0  0  0  0  0  0  0  0  0
    1.2021    0.1367    2.0510 C   0  0  0  0  0  0  0  0  0  0  0  0
    1.8358   -0.4897    3.1079 C   0  0  0  0  0  0  0  0  0  0  0  0
    1.8971   -1.8699    3.1612 C   0  0  0  0  0  0  0  0  0  0  0  0
    1.3251   -2.6295    2.1578 C   0  0  0  0  0  0  0  0  0  0  0  0
    0.6830   -2.0080    1.0988 C   0  0  0  0  0  0  0  0  0  0  0  0
    0.1145   -2.7540    0.1140 O   0  0  0  0  0  0  0  0  0  0  0  0
    0.2115   -4.1743    0.2380 C   0  0  0  0  0  0  0  0  0  0  0  0
    2.5896   -2.5476    4.3154 C   0  0  0  0  0  0  0  0  0  0  0  0
    1.5954   -2.8002    5.4194 C   0  0  0  0  0  0  0  0  0  0  0  0
    1.3868   -1.8306    6.4126 C   0  0  0  0  0  0  0  0  0  0  0  0
    2.0813   -0.6102    6.4178 C   0  0  0  0  0  0  0  0  0  0  0  0
    1.8397    0.2976    7.4073 C   0  0  0  0  0  0  0  0  0  0  0  0
    0.9067    0.0284    8.4207 C   0  0  0  0  0  0  0  0  0  0  0  0
    0.2161   -1.1496    8.4419 C   0  0  0  0  0  0  0  0  0  0  0  0
    0.4428   -2.1015    7.4380 C   0  0  0  0  0  0  0  0  0  0  0  0
   -0.2384   -3.3323    7.4069 C   0  0  0  0  0  0  0  0  0  0  0  0
    0.0362   -4.2060    6.3992 C   0  0  0  0  0  0  0  0  0  0  0  0
    0.9194   -3.9252    5.4505 N   0  0  0  0  0  0  0  0  0  0  0  0
    0.6880    0.9516    9.3935 O   0  0  0  0  0  0  0  0  0  0  0  0
   -0.2734    0.6206   10.3977 C   0  0  0  0  0  0  0  0  0  0  0  0
    2.5122    1.4790    7.4120 O   0  0  0  0  0  0  0  0  0  0  0  0
    3.4494    1.6962    6.3553 C   0  0  0  0  0  0  0  0  0  0  0  0
    1.0053    1.8021    0.0021 H   0  0  0  0  0  0  0  0  0  0  0  0
   -0.5445    1.7859   -0.8732 H   0  0  0  0  0  0  0  0  0  0  0  0
   -0.5275    1.7763    0.9067 H   0  0  0  0  0  0  0  0  0  0  0  0
    1.1562    1.2150    2.0113 H   0  0  0  0  0  0  0  0  0  0  0  0
    2.2842    0.1003    3.8935 H   0  0  0  0  0  0  0  0  0  0  0  0
    1.3747   -3.7075    2.2017 H   0  0  0  0  0  0  0  0  0  0  0  0
    1.2614   -4.4664    0.2576 H   0  0  0  0  0  0  0  0  0  0  0  0
   -0.2714   -4.4922    1.1620 H   0  0  0  0  0  0  0  0  0  0  0  0
   -0.2815   -4.6476   -0.6111 H   0  0  0  0  0  0  0  0  0  0  0  0
    3.0097   -3.4961    3.9808 H   0  0  0  0  0  0  0  0  0  0  0  0
    3.3894   -1.9067    4.6863 H   0  0  0  0  0  0  0  0  0  0  0  0
    2.8023   -0.3917    5.6438 H   0  0  0  0  0  0  0  0  0  0  0  0
   -0.4993   -1.3466    9.2266 H   0  0  0  0  0  0  0  0  0  0  0  0
   -0.9645   -3.5793    8.1673 H   0  0  0  0  0  0  0  0  0  0  0  0
   -0.4831   -5.1525    6.3692 H   0  0  0  0  0  0  0  0  0  0  0  0
   -0.3511    1.4413   11.1107 H   0  0  0  0  0  0  0  0  0  0  0  0
   -1.2436    0.4521    9.9304 H   0  0  0  0  0  0  0  0  0  0  0  0
    0.0414   -0.2840   10.9179 H   0  0  0  0  0  0  0  0  0  0  0  0
    4.2164    0.9223    6.3853 H   0  0  0  0  0  0  0  0  0  0  0  0
    2.9316    1.6577    5.3969 H   0  0  0  0  0  0  0  0  0  0  0  0
    3.9148    2.6741    6.4778 H   0  0  0  0  0  0  0  0  0  0  0  0
  1  2  1  0  0  0  0
  1 26  1  0  0  0  0
  1 27  1  0  0  0  0
  1 28  1  0  0  0  0
  2  3  1  0  0  0  0
  3  8  2  0  0  0  0
  3  4  1  0  0  0  0
  4  5  2  0  0  0  0
  4 29  1  0  0  0  0
  5  6  1  0  0  0  0
  5 30  1  0  0  0  0
  6  7  2  0  0  0  0
  6 11  1  0  0  0  0
  7  8  1  0  0  0  0
  7 31  1  0  0  0  0
  8  9  1  0  0  0  0
  9 10  1  0  0  0  0
 10 32  1  0  0  0  0
 10 33  1  0  0  0  0
 10 34  1  0  0  0  0
 11 12  1  0  0  0  0
 11 35  1  0  0  0  0
 11 36  1  0  0  0  0
 12 21  2  0  0  0  0
 12 13  1  0  0  0  0
 13 18  2  0  0  0  0
 13 14  1  0  0  0  0
 14 15  2  0  0  0  0
 14 37  1  0  0  0  0
 15 16  1  0  0  0  0
 15 24  1  0  0  0  0
 16 17  2  0  0  0  0
 16 22  1  0  0  0  0
 17 18  1  0  0  0  0
 17 38  1  0  0  0  0
 18 19  1  0  0  0  0
 19 20  2  0  0  0  0
 19 39  1  0  0  0  0
 20 21  1  0  0  0  0
 20 40  1  0  0  0  0
 22 23  1  0  0  0  0
 23 41  1  0  0  0  0
 23 42  1  0  0  0  0
 23 43  1  0  0  0  0
 24 25  1  0  0  0  0
 25 44  1  0  0  0  0
 25 45  1  0  0  0  0
 25 46  1  0  0  0  0
M  END
$$$$
