ZINC01532132
 OpenBabel08292219463D

 39 39  0  0  1  0  0  0  0  0999 V2000
   -0.0173    1.4248    0.0099 C   0  0  0  0  0  0  0  0  0  0  0  0
    0.0021   -0.0041    0.0020 O   0  0  0  0  0  0  0  0  0  0  0  0
    0.6181   -0.6108    1.0287 C   0  0  0  0  0  0  0  0  0  0  0  0
    1.1242    0.0494    1.9050 O   0  0  0  0  0  0  0  0  0  0  0  0
    0.6786   -2.1154    1.0883 C   0  0  2  0  0  0  0  0  0  0  0  0
    1.1992   -2.4933    0.2084 H   0  0  0  0  0  0  0  0  0  0  0  0
   -0.7422   -2.6820    1.1228 C   0  0  0  0  0  0  0  0  0  0  0  0
   -0.6847   -4.1865    1.0586 C   0  0  0  0  0  0  0  0  0  0  0  0
   -0.7013   -4.8271   -0.1663 C   0  0  0  0  0  0  0  0  0  0  0  0
   -0.6486   -6.2072   -0.2252 C   0  0  0  0  0  0  0  0  0  0  0  0
   -0.5789   -6.9467    0.9407 C   0  0  0  0  0  0  0  0  0  0  0  0
   -0.5614   -6.3060    2.1655 C   0  0  0  0  0  0  0  0  0  0  0  0
   -0.6097   -4.9258    2.2243 C   0  0  0  0  0  0  0  0  0  0  0  0
    1.3982   -2.5277    2.2960 N   0  0  0  0  0  0  0  0  0  0  0  0
    2.7438   -2.6029    2.2860 C   0  0  0  0  0  0  0  0  0  0  0  0
    3.3590   -2.3293    1.2772 O   0  0  0  0  0  0  0  0  0  0  0  0
    3.4841   -3.0271    3.5283 C   0  0  2  0  0  0  0  0  0  0  0  0
    2.9415   -3.8371    4.0158 H   0  0  0  0  0  0  0  0  0  0  0  0
    3.5957   -1.8391    4.4860 C   0  0  0  0  0  0  0  0  0  0  0  0
    4.2261   -2.2926    5.7775 C   0  0  0  0  0  0  0  0  0  0  0  0
    4.5555   -3.4580    5.9189 O   0  0  0  0  0  0  0  0  0  0  0  0
    4.4066   -1.4942    6.6811 O   0  0  0  0  0  1  0  0  0  0  0  0
    4.8296   -3.4894    3.1627 N   0  3  0  0  0  0  0  0  0  0  0  0
    1.0053    1.8021    0.0021 H   0  0  0  0  0  0  0  0  0  0  0  0
   -0.5445    1.7859   -0.8732 H   0  0  0  0  0  0  0  0  0  0  0  0
   -0.5275    1.7763    0.9067 H   0  0  0  0  0  0  0  0  0  0  0  0
   -1.2329   -2.3763    2.0469 H   0  0  0  0  0  0  0  0  0  0  0  0
   -1.3052   -2.3031    0.2699 H   0  0  0  0  0  0  0  0  0  0  0  0
   -0.7558   -4.2494   -1.0771 H   0  0  0  0  0  0  0  0  0  0  0  0
   -0.6623   -6.7077   -1.1821 H   0  0  0  0  0  0  0  0  0  0  0  0
   -0.5384   -8.0249    0.8946 H   0  0  0  0  0  0  0  0  0  0  0  0
   -0.5072   -6.8837    3.0763 H   0  0  0  0  0  0  0  0  0  0  0  0
   -0.5923   -4.4251    3.1810 H   0  0  0  0  0  0  0  0  0  0  0  0
    0.9062   -2.7466    3.1028 H   0  0  0  0  0  0  0  0  0  0  0  0
    4.2135   -1.0638    4.0328 H   0  0  0  0  0  0  0  0  0  0  0  0
    2.6016   -1.4401    4.6874 H   0  0  0  0  0  0  0  0  0  0  0  0
    5.3318   -2.7396    2.7114 H   0  0  0  0  0  0  0  0  0  0  0  0
    5.3252   -3.7734    3.9944 H   0  0  0  0  0  0  0  0  0  0  0  0
    4.7560   -4.2729    2.5311 H   0  0  0  0  0  0  0  0  0  0  0  0
  1  2  1  0  0  0  0
  1 24  1  0  0  0  0
  1 25  1  0  0  0  0
  1 26  1  0  0  0  0
  2  3  1  0  0  0  0
  3  4  2  0  0  0  0
  3  5  1  0  0  0  0
  5  6  1  6  0  0  0
  5  7  1  0  0  0  0
  5 14  1  0  0  0  0
  7  8  1  0  0  0  0
  7 27  1  0  0  0  0
  7 28  1  0  0  0  0
  8 13  2  0  0  0  0
  8  9  1  0  0  0  0
  9 10  2  0  0  0  0
  9 29  1  0  0  0  0
 10 11  1  0  0  0  0
 10 30  1  0  0  0  0
 11 12  2  0  0  0  0
 11 31  1  0  0  0  0
 12 13  1  0  0  0  0
 12 32  1  0  0  0  0
 13 33  1  0  0  0  0
 14 15  1  0  0  0  0
 14 34  1  0  0  0  0
 15 16  2  0  0  0  0
 15 17  1  0  0  0  0
 17 18  1  1  0  0  0
 17 19  1  0  0  0  0
 17 23  1  0  0  0  0
 19 20  1  0  0  0  0
 19 35  1  0  0  0  0
 19 36  1  0  0  0  0
 20 21  2  0  0  0  0
 20 22  1  0  0  0  0
 23 37  1  0  0  0  0
 23 38  1  0  0  0  0
 23 39  1  0  0  0  0
M  CHG  1  23   1
M  END
$$$$
