ZINC53683148
 OpenBabel08292219463D

 89 94  0  0  1  0  0  0  0  0999 V2000
   -2.7349   -0.7428   -0.7468 C   0  0  0  0  0  0  0  0  0  0  0  0
   -2.0900   -1.9898   -0.4801 O   0  0  0  0  0  0  0  0  0  0  0  0
   -1.3259   -2.5146   -1.4744 C   0  0  0  0  0  0  0  0  0  0  0  0
   -1.2108   -1.8196   -2.6724 C   0  0  0  0  0  0  0  0  0  0  0  0
   -0.4566   -2.2903   -3.7177 C   0  0  0  0  0  0  0  0  0  0  0  0
    0.2003   -3.5105   -3.5276 C   0  0  0  0  0  0  0  0  0  0  0  0
    0.0873   -4.2263   -2.3072 C   0  0  0  0  0  0  0  0  0  0  0  0
   -0.6807   -3.7251   -1.2586 C   0  0  0  0  0  0  0  0  0  0  0  0
    0.8338   -5.3636   -2.4305 N   0  0  0  0  0  0  0  0  0  0  0  0
    0.9356   -6.0415   -1.7442 H   0  0  0  0  0  0  0  0  0  0  0  0
    1.4167   -5.4028   -3.6686 C   0  0  0  0  0  0  0  0  0  0  0  0
    1.0641   -4.3029   -4.3743 C   0  0  0  0  0  0  0  0  0  0  0  0
    1.5364   -4.0346   -5.7811 C   0  0  0  0  0  0  0  0  0  0  0  0
    2.7157   -4.9736   -6.0743 C   0  0  0  0  0  0  0  0  0  0  0  0
    2.3574   -6.3425   -5.6902 N   0  3  2  0  0  0  0  0  0  0  0  0
    2.3224   -6.4711   -4.2268 C   0  0  2  0  0  0  0  0  0  0  0  0
    3.3278   -6.3414   -3.8262 H   0  0  0  0  0  0  0  0  0  0  0  0
    1.7965   -7.8573   -3.8518 C   0  0  0  0  0  0  0  0  0  0  0  0
    2.7472   -8.9163   -4.4254 C   0  0  1  0  0  0  0  0  0  0  0  0
    2.3648   -9.9120   -4.2008 H   0  0  0  0  0  0  0  0  0  0  0  0
    2.8414   -8.7317   -5.9413 C   0  0  1  0  0  0  0  0  0  0  0  0
    1.8604   -8.8989   -6.3858 H   0  0  0  0  0  0  0  0  0  0  0  0
    3.3230   -7.2986   -6.2439 C   0  0  0  0  0  0  0  0  0  0  0  0
    3.8379   -9.7294   -6.5286 C   0  0  0  0  0  0  0  0  0  0  0  0
    5.2147   -9.5167   -5.8964 C   0  0  2  0  0  0  0  0  0  0  0  0
    5.9221  -10.2321   -6.3158 H   0  0  0  0  0  0  0  0  0  0  0  0
    5.1140   -9.7247   -4.3836 C   0  0  1  0  0  0  0  0  0  0  0  0
    6.0949   -9.5811   -3.9306 H   0  0  0  0  0  0  0  0  0  0  0  0
    4.1276   -8.7398   -3.7882 C   0  0  1  0  0  0  0  0  0  0  0  0
    4.0517   -8.8888   -2.7111 H   0  0  0  0  0  0  0  0  0  0  0  0
    4.6345   -7.3483   -4.0668 C   0  0  0  0  0  0  0  0  0  0  0  0
    5.2801   -7.1289   -5.0642 O   0  0  0  0  0  0  0  0  0  0  0  0
    4.3686   -6.3525   -3.2069 O   0  0  0  0  0  0  0  0  0  0  0  0
    4.9742   -5.0859   -3.4737 C   0  0  0  0  0  0  0  0  0  0  0  0
    4.6539  -11.0505   -4.1142 O   0  0  0  0  0  0  0  0  0  0  0  0
    5.7014  -12.0133   -3.9806 C   0  0  0  0  0  0  0  0  0  0  0  0
    5.6636   -8.1873   -6.1670 O   0  0  0  0  0  0  0  0  0  0  0  0
    6.3800   -8.0004   -7.2951 C   0  0  0  0  0  0  0  0  0  0  0  0
    6.6164   -8.9417   -8.0285 O   0  0  0  0  0  0  0  0  0  0  0  0
    6.8572   -6.7069   -7.6257 C   0  0  0  0  0  0  0  0  0  0  0  0
    7.5613   -6.5169   -8.7630 C   0  0  0  0  0  0  0  0  0  0  0  0
    7.5280   -7.5311   -9.8259 C   0  0  0  0  0  0  0  0  0  0  0  0
    6.3063   -8.0767  -10.2370 C   0  0  0  0  0  0  0  0  0  0  0  0
    6.2789   -9.0297  -11.2371 C   0  0  0  0  0  0  0  0  0  0  0  0
    7.4649   -9.4476  -11.8359 C   0  0  0  0  0  0  0  0  0  0  0  0
    8.6825   -8.9070  -11.4295 C   0  0  0  0  0  0  0  0  0  0  0  0
    8.7173   -7.9497  -10.4337 C   0  0  0  0  0  0  0  0  0  0  0  0
    9.8380   -9.3180  -12.0171 O   0  0  0  0  0  0  0  0  0  0  0  0
   11.0504   -8.7219  -11.5515 C   0  0  0  0  0  0  0  0  0  0  0  0
    7.4341  -10.3855  -12.8190 O   0  0  0  0  0  0  0  0  0  0  0  0
    7.3023   -9.9140  -14.1615 C   0  0  0  0  0  0  0  0  0  0  0  0
    5.0924   -9.5606  -11.6368 O   0  0  0  0  0  0  0  0  0  0  0  0
    3.9153   -9.0868  -10.9796 C   0  0  0  0  0  0  0  0  0  0  0  0
   -1.9833    0.0146   -0.9694 H   0  0  0  0  0  0  0  0  0  0  0  0
   -3.4023   -0.8544   -1.6013 H   0  0  0  0  0  0  0  0  0  0  0  0
   -3.3109   -0.4375    0.1267 H   0  0  0  0  0  0  0  0  0  0  0  0
   -1.7314   -0.8801   -2.7844 H   0  0  0  0  0  0  0  0  0  0  0  0
   -0.3742   -1.7435   -4.6454 H   0  0  0  0  0  0  0  0  0  0  0  0
   -0.7734   -4.2556   -0.3225 H   0  0  0  0  0  0  0  0  0  0  0  0
    0.7270   -4.2293   -6.4848 H   0  0  0  0  0  0  0  0  0  0  0  0
    1.8605   -2.9977   -5.8693 H   0  0  0  0  0  0  0  0  0  0  0  0
    2.9479   -4.9438   -7.1388 H   0  0  0  0  0  0  0  0  0  0  0  0
    3.5867   -4.6521   -5.5032 H   0  0  0  0  0  0  0  0  0  0  0  0
    1.7561   -7.9517   -2.7666 H   0  0  0  0  0  0  0  0  0  0  0  0
    0.7996   -7.9957   -4.2704 H   0  0  0  0  0  0  0  0  0  0  0  0
    3.3933   -7.1614   -7.3230 H   0  0  0  0  0  0  0  0  0  0  0  0
    4.3003   -7.1329   -5.7906 H   0  0  0  0  0  0  0  0  0  0  0  0
    3.4979  -10.7446   -6.3240 H   0  0  0  0  0  0  0  0  0  0  0  0
    3.9070   -9.5812   -7.6063 H   0  0  0  0  0  0  0  0  0  0  0  0
    6.0530   -5.2112   -3.5659 H   0  0  0  0  0  0  0  0  0  0  0  0
    4.5746   -4.6808   -4.4034 H   0  0  0  0  0  0  0  0  0  0  0  0
    4.7568   -4.3996   -2.6552 H   0  0  0  0  0  0  0  0  0  0  0  0
    5.2702  -12.9935   -3.7774 H   0  0  0  0  0  0  0  0  0  0  0  0
    6.2773  -12.0543   -4.9052 H   0  0  0  0  0  0  0  0  0  0  0  0
    6.3558  -11.7265   -3.1575 H   0  0  0  0  0  0  0  0  0  0  0  0
    6.6578   -5.8735   -6.9684 H   0  0  0  0  0  0  0  0  0  0  0  0
    8.1486   -5.6197   -8.8909 H   0  0  0  0  0  0  0  0  0  0  0  0
    5.3863   -7.7534   -9.7728 H   0  0  0  0  0  0  0  0  0  0  0  0
    9.6613   -7.5277  -10.1222 H   0  0  0  0  0  0  0  0  0  0  0  0
   11.1724   -8.9295  -10.4884 H   0  0  0  0  0  0  0  0  0  0  0  0
   11.8944   -9.1374  -12.1020 H   0  0  0  0  0  0  0  0  0  0  0  0
   11.0091   -7.6441  -11.7088 H   0  0  0  0  0  0  0  0  0  0  0  0
    6.3717   -9.3552  -14.2607 H   0  0  0  0  0  0  0  0  0  0  0  0
    8.1437   -9.2645  -14.4028 H   0  0  0  0  0  0  0  0  0  0  0  0
    7.2909  -10.7629  -14.8452 H   0  0  0  0  0  0  0  0  0  0  0  0
    3.9855   -9.2970   -9.9124 H   0  0  0  0  0  0  0  0  0  0  0  0
    3.8214   -8.0117  -11.1327 H   0  0  0  0  0  0  0  0  0  0  0  0
    3.0410   -9.5902  -11.3924 H   0  0  0  0  0  0  0  0  0  0  0  0
    1.4400   -6.5556   -6.0522 H   0  0  0  0  0  0  0  0  0  0  0  0
  1  2  1  0  0  0  0
  1 54  1  0  0  0  0
  1 55  1  0  0  0  0
  1 56  1  0  0  0  0
  2  3  1  0  0  0  0
  3  8  2  0  0  0  0
  3  4  1  0  0  0  0
  4  5  2  0  0  0  0
  4 57  1  0  0  0  0
  5  6  1  0  0  0  0
  5 58  1  0  0  0  0
  6 12  1  0  0  0  0
  6  7  2  0  0  0  0
  7  8  1  0  0  0  0
  7  9  1  0  0  0  0
  8 59  1  0  0  0  0
  9 10  1  0  0  0  0
  9 11  1  0  0  0  0
 11 16  1  0  0  0  0
 11 12  2  0  0  0  0
 12 13  1  0  0  0  0
 13 14  1  0  0  0  0
 13 60  1  0  0  0  0
 13 61  1  0  0  0  0
 14 15  1  0  0  0  0
 14 62  1  0  0  0  0
 14 63  1  0  0  0  0
 15 23  1  0  0  0  0
 15 16  1  0  0  0  0
 15 89  1  6  0  0  0
 16 17  1  1  0  0  0
 16 18  1  0  0  0  0
 18 19  1  0  0  0  0
 18 64  1  0  0  0  0
 18 65  1  0  0  0  0
 19 20  1  1  0  0  0
 19 29  1  0  0  0  0
 19 21  1  0  0  0  0
 21 22  1  6  0  0  0
 21 23  1  0  0  0  0
 21 24  1  0  0  0  0
 23 66  1  0  0  0  0
 23 67  1  0  0  0  0
 24 25  1  0  0  0  0
 24 68  1  0  0  0  0
 24 69  1  0  0  0  0
 25 26  1  6  0  0  0
 25 27  1  0  0  0  0
 25 37  1  0  0  0  0
 27 28  1  1  0  0  0
 27 29  1  0  0  0  0
 27 35  1  0  0  0  0
 29 30  1  1  0  0  0
 29 31  1  0  0  0  0
 31 32  2  0  0  0  0
 31 33  1  0  0  0  0
 33 34  1  0  0  0  0
 34 70  1  0  0  0  0
 34 71  1  0  0  0  0
 34 72  1  0  0  0  0
 35 36  1  0  0  0  0
 36 73  1  0  0  0  0
 36 74  1  0  0  0  0
 36 75  1  0  0  0  0
 37 38  1  0  0  0  0
 38 39  2  0  0  0  0
 38 40  1  0  0  0  0
 40 41  2  0  0  0  0
 40 76  1  0  0  0  0
 41 42  1  0  0  0  0
 41 77  1  0  0  0  0
 42 47  2  0  0  0  0
 42 43  1  0  0  0  0
 43 44  2  0  0  0  0
 43 78  1  0  0  0  0
 44 45  1  0  0  0  0
 44 52  1  0  0  0  0
 45 46  2  0  0  0  0
 45 50  1  0  0  0  0
 46 47  1  0  0  0  0
 46 48  1  0  0  0  0
 47 79  1  0  0  0  0
 48 49  1  0  0  0  0
 49 80  1  0  0  0  0
 49 81  1  0  0  0  0
 49 82  1  0  0  0  0
 50 51  1  0  0  0  0
 51 83  1  0  0  0  0
 51 84  1  0  0  0  0
 51 85  1  0  0  0  0
 52 53  1  0  0  0  0
 53 86  1  0  0  0  0
 53 87  1  0  0  0  0
 53 88  1  0  0  0  0
M  CHG  1  15   1
M  END
$$$$
