ZINC01530775
 OpenBabel08292219463D

 51 52  0  0  0  0  0  0  0  0999 V2000
   -0.0169    1.3924    0.0097 C   0  0  0  0  0  0  0  0  0  0  0  0
    1.1675    2.0955    0.0022 C   0  0  0  0  0  0  0  0  0  0  0  0
    2.3802    1.4171   -0.0135 C   0  0  0  0  0  0  0  0  0  0  0  0
    2.4031    0.0276   -0.0217 C   0  0  0  0  0  0  0  0  0  0  0  0
    1.2228   -0.6824   -0.0138 C   0  0  0  0  0  0  0  0  0  0  0  0
    0.0021   -0.0041    0.0020 C   0  0  0  0  0  0  0  0  0  0  0  0
   -1.2662   -0.7620    0.0105 C   0  0  0  0  0  0  0  0  0  0  0  0
   -1.2462   -2.0942    0.0032 N   0  0  0  0  0  4  0  0  0  0  0  0
   -2.4299   -0.1132    0.0256 N   0  0  0  0  0  0  0  0  0  0  0  0
    3.5453    2.1133   -0.0214 O   0  0  0  0  0  0  0  0  0  0  0  0
    4.7553    1.3532   -0.0374 C   0  0  0  0  0  0  0  0  0  0  0  0
    5.9545    2.3033   -0.0443 C   0  0  0  0  0  0  0  0  0  0  0  0
    7.2499    1.4894   -0.0615 C   0  0  0  0  0  0  0  0  0  0  0  0
    8.4491    2.4396   -0.0683 C   0  0  0  0  0  0  0  0  0  0  0  0
    9.7445    1.6257   -0.0855 C   0  0  0  0  0  0  0  0  0  0  0  0
   10.8646    2.5131   -0.0919 O   0  0  0  0  0  0  0  0  0  0  0  0
   12.0985    1.9479   -0.1072 C   0  0  0  0  0  0  0  0  0  0  0  0
   12.2269    0.5642   -0.1216 C   0  0  0  0  0  0  0  0  0  0  0  0
   13.4774   -0.0130   -0.1367 C   0  0  0  0  0  0  0  0  0  0  0  0
   14.6171    0.7942   -0.1379 C   0  0  0  0  0  0  0  0  0  0  0  0
   14.4841    2.1844   -0.1239 C   0  0  0  0  0  0  0  0  0  0  0  0
   13.2303    2.7544   -0.1141 C   0  0  0  0  0  0  0  0  0  0  0  0
   15.9604    0.1789   -0.1536 C   0  0  0  0  0  0  0  0  0  0  0  0
   17.0466    0.9505   -0.1548 N   0  0  0  0  0  4  0  0  0  0  0  0
   16.0854   -1.1476   -0.1666 N   0  0  0  0  0  0  0  0  0  0  0  0
   -0.9589    1.9203    0.0260 H   0  0  0  0  0  0  0  0  0  0  0  0
    1.1536    3.1754    0.0081 H   0  0  0  0  0  0  0  0  0  0  0  0
    3.3474   -0.4962   -0.0346 H   0  0  0  0  0  0  0  0  0  0  0  0
    1.2413   -1.7622   -0.0204 H   0  0  0  0  0  0  0  0  0  0  0  0
   -0.3991   -2.5665   -0.0077 H   0  0  0  0  0  0  0  0  0  0  0  0
   -2.4445    0.8567    0.0309 H   0  0  0  0  0  0  0  0  0  0  0  0
   -3.2626   -0.6108    0.0312 H   0  0  0  0  0  0  0  0  0  0  0  0
    4.7984    0.7200    0.8488 H   0  0  0  0  0  0  0  0  0  0  0  0
    4.7807    0.7296   -0.9311 H   0  0  0  0  0  0  0  0  0  0  0  0
    5.9113    2.9365   -0.9305 H   0  0  0  0  0  0  0  0  0  0  0  0
    5.9290    2.9269    0.8494 H   0  0  0  0  0  0  0  0  0  0  0  0
    7.2930    0.8563    0.8247 H   0  0  0  0  0  0  0  0  0  0  0  0
    7.2753    0.8658   -0.9551 H   0  0  0  0  0  0  0  0  0  0  0  0
    8.4060    3.0727   -0.9545 H   0  0  0  0  0  0  0  0  0  0  0  0
    8.4236    3.0632    0.8253 H   0  0  0  0  0  0  0  0  0  0  0  0
    9.7877    0.9925    0.8007 H   0  0  0  0  0  0  0  0  0  0  0  0
    9.7700    1.0021   -0.9792 H   0  0  0  0  0  0  0  0  0  0  0  0
   11.3451   -0.0593   -0.1207 H   0  0  0  0  0  0  0  0  0  0  0  0
   13.5764   -1.0884   -0.1472 H   0  0  0  0  0  0  0  0  0  0  0  0
   15.3632    2.8117   -0.1244 H   0  0  0  0  0  0  0  0  0  0  0  0
   13.1265    3.8294   -0.1073 H   0  0  0  0  0  0  0  0  0  0  0  0
   16.9556    1.9162   -0.1453 H   0  0  0  0  0  0  0  0  0  0  0  0
   15.2946   -1.7093   -0.1657 H   0  0  0  0  0  0  0  0  0  0  0  0
   16.9672   -1.5515   -0.1768 H   0  0  0  0  0  0  0  0  0  0  0  0
   -2.0789   -2.5918    0.0088 H   0  0  0  0  0  0  0  0  0  0  0  0
   17.9285    0.5466   -0.1650 H   0  0  0  0  0  0  0  0  0  0  0  0
  1  6  2  0  0  0  0
  1  2  1  0  0  0  0
  1 26  1  0  0  0  0
  2  3  2  0  0  0  0
  2 27  1  0  0  0  0
  3  4  1  0  0  0  0
  3 10  1  0  0  0  0
  4  5  2  0  0  0  0
  4 28  1  0  0  0  0
  5  6  1  0  0  0  0
  5 29  1  0  0  0  0
  6  7  1  0  0  0  0
  7  8  2  0  0  0  0
  7  9  1  0  0  0  0
  8 30  1  0  0  0  0
  8 50  1  0  0  0  0
  9 31  1  0  0  0  0
  9 32  1  0  0  0  0
 10 11  1  0  0  0  0
 11 12  1  0  0  0  0
 11 33  1  0  0  0  0
 11 34  1  0  0  0  0
 12 13  1  0  0  0  0
 12 35  1  0  0  0  0
 12 36  1  0  0  0  0
 13 14  1  0  0  0  0
 13 37  1  0  0  0  0
 13 38  1  0  0  0  0
 14 15  1  0  0  0  0
 14 39  1  0  0  0  0
 14 40  1  0  0  0  0
 15 16  1  0  0  0  0
 15 41  1  0  0  0  0
 15 42  1  0  0  0  0
 16 17  1  0  0  0  0
 17 22  2  0  0  0  0
 17 18  1  0  0  0  0
 18 19  2  0  0  0  0
 18 43  1  0  0  0  0
 19 20  1  0  0  0  0
 19 44  1  0  0  0  0
 20 21  2  0  0  0  0
 20 23  1  0  0  0  0
 21 22  1  0  0  0  0
 21 45  1  0  0  0  0
 22 46  1  0  0  0  0
 23 24  2  0  0  0  0
 23 25  1  0  0  0  0
 24 47  1  0  0  0  0
 24 51  1  0  0  0  0
 25 48  1  0  0  0  0
 25 49  1  0  0  0  0
M  END
$$$$
