ZINC12503300
 OpenBabel08292219463D

 45 47  0  0  1  0  0  0  0  0999 V2000
    0.5871    1.4364   -0.4496 C   0  0  0  0  0  0  0  0  0  0  0  0
    0.5213    0.0101   -0.3909 O   0  0  0  0  0  0  0  0  0  0  0  0
    1.1292   -0.5919    0.6627 C   0  0  0  0  0  0  0  0  0  0  0  0
    1.7671    0.1723    1.6175 C   0  0  0  0  0  0  0  0  0  0  0  0
    2.3901   -0.4430    2.6979 C   0  0  0  0  0  0  0  0  0  0  0  0
    2.3735   -1.8456    2.8233 C   0  0  0  0  0  0  0  0  0  0  0  0
    1.7269   -2.6167    1.8552 C   0  0  0  0  0  0  0  0  0  0  0  0
    1.1021   -1.9940    0.7813 C   0  0  0  0  0  0  0  0  0  0  0  0
    0.4136   -2.8052   -0.2399 C   0  0  0  0  0  0  0  0  0  0  0  0
   -0.1296   -2.2624   -1.1828 O   0  0  0  0  0  0  0  0  0  0  0  0
    0.3865   -4.1480   -0.1282 N   0  0  0  0  0  0  0  0  0  0  0  0
   -0.2974   -4.9538   -1.1427 C   0  0  0  0  0  0  0  0  0  0  0  0
   -0.0742   -6.4389   -0.8501 C   0  0  2  0  0  0  0  0  0  0  0  0
   -0.4145   -6.6732    0.1585 H   0  0  0  0  0  0  0  0  0  0  0  0
    1.4236   -6.7825   -0.9920 C   0  0  0  0  0  0  0  0  0  0  0  0
    1.3990   -8.1874   -1.6498 C   0  0  0  0  0  0  0  0  0  0  0  0
    0.1717   -8.0722   -2.5879 C   0  0  0  0  0  0  0  0  0  0  0  0
   -0.8088   -7.2592   -1.8306 N   0  3  2  0  0  0  0  0  0  0  0  0
   -1.5457   -6.3853   -2.7531 C   0  0  0  0  0  0  0  0  0  0  0  0
   -2.3695   -7.2275   -3.6929 C   0  0  0  0  0  0  0  0  0  0  0  0
   -3.6597   -7.0243   -3.7944 C   0  0  0  0  0  0  0  0  0  0  0  0
    3.0481   -2.1623    3.9553 N   0  0  0  0  0  0  0  0  0  0  0  0
    3.4734   -1.0938    4.5313 N   0  0  0  0  0  0  0  0  0  0  0  0
    3.0884    0.0277    3.7830 N   0  0  0  0  0  0  0  0  0  0  0  0
    3.2783    0.9558    3.9912 H   0  0  0  0  0  0  0  0  0  0  0  0
    1.6299    1.7504   -0.4945 H   0  0  0  0  0  0  0  0  0  0  0  0
    0.0631    1.7880   -1.3384 H   0  0  0  0  0  0  0  0  0  0  0  0
    0.1185    1.8586    0.4393 H   0  0  0  0  0  0  0  0  0  0  0  0
    1.7831    1.2483    1.5259 H   0  0  0  0  0  0  0  0  0  0  0  0
    1.7093   -3.6930    1.9426 H   0  0  0  0  0  0  0  0  0  0  0  0
    0.8199   -4.5810    0.6239 H   0  0  0  0  0  0  0  0  0  0  0  0
   -1.3651   -4.7357   -1.1208 H   0  0  0  0  0  0  0  0  0  0  0  0
    0.1024   -4.7135   -2.1278 H   0  0  0  0  0  0  0  0  0  0  0  0
    1.9246   -6.0626   -1.6391 H   0  0  0  0  0  0  0  0  0  0  0  0
    1.9039   -6.8231   -0.0144 H   0  0  0  0  0  0  0  0  0  0  0  0
    2.3105   -8.3676   -2.2197 H   0  0  0  0  0  0  0  0  0  0  0  0
    1.2474   -8.9660   -0.9022 H   0  0  0  0  0  0  0  0  0  0  0  0
    0.4483   -7.5693   -3.5146 H   0  0  0  0  0  0  0  0  0  0  0  0
   -0.2386   -9.0597   -2.7989 H   0  0  0  0  0  0  0  0  0  0  0  0
   -2.2027   -5.7277   -2.1839 H   0  0  0  0  0  0  0  0  0  0  0  0
   -0.8397   -5.7852   -3.3272 H   0  0  0  0  0  0  0  0  0  0  0  0
   -1.8962   -7.9985   -4.2827 H   0  0  0  0  0  0  0  0  0  0  0  0
   -4.1330   -6.2533   -3.2046 H   0  0  0  0  0  0  0  0  0  0  0  0
   -4.2500   -7.6279   -4.4679 H   0  0  0  0  0  0  0  0  0  0  0  0
   -1.4559   -7.8655   -1.3491 H   0  0  0  0  0  0  0  0  0  0  0  0
  1  2  1  0  0  0  0
  1 26  1  0  0  0  0
  1 27  1  0  0  0  0
  1 28  1  0  0  0  0
  2  3  1  0  0  0  0
  3  8  2  0  0  0  0
  3  4  1  0  0  0  0
  4  5  2  0  0  0  0
  4 29  1  0  0  0  0
  5 24  1  0  0  0  0
  5  6  1  0  0  0  0
  6  7  2  0  0  0  0
  6 22  1  0  0  0  0
  7  8  1  0  0  0  0
  7 30  1  0  0  0  0
  8  9  1  0  0  0  0
  9 10  2  0  0  0  0
  9 11  1  0  0  0  0
 11 12  1  0  0  0  0
 11 31  1  0  0  0  0
 12 13  1  0  0  0  0
 12 32  1  0  0  0  0
 12 33  1  0  0  0  0
 13 14  1  1  0  0  0
 13 18  1  0  0  0  0
 13 15  1  0  0  0  0
 15 16  1  0  0  0  0
 15 34  1  0  0  0  0
 15 35  1  0  0  0  0
 16 17  1  0  0  0  0
 16 36  1  0  0  0  0
 16 37  1  0  0  0  0
 17 18  1  0  0  0  0
 17 38  1  0  0  0  0
 17 39  1  0  0  0  0
 18 19  1  0  0  0  0
 18 45  1  1  0  0  0
 19 20  1  0  0  0  0
 19 40  1  0  0  0  0
 19 41  1  0  0  0  0
 20 21  2  0  0  0  0
 20 42  1  0  0  0  0
 21 43  1  0  0  0  0
 21 44  1  0  0  0  0
 22 23  2  0  0  0  0
 23 24  1  0  0  0  0
 24 25  1  0  0  0  0
M  CHG  1  18   1
M  END
$$$$
