ZINC01530886
 OpenBabel08292219463D

 68 73  0  0  0  0  0  0  0  0999 V2000
    0.5194    0.5989   -0.6499 C   0  0  0  0  0  0  0  0  0  0  0  0
    0.5553   -0.9228   -0.4944 C   0  0  0  0  0  0  0  0  0  0  0  0
   -0.8744   -1.4676   -0.4781 C   0  0  0  0  0  0  0  0  0  0  0  0
   -0.8390   -2.9664   -0.3250 C   0  0  0  0  0  0  0  0  0  0  0  0
   -0.7870   -3.8153   -1.3104 N   0  0  0  0  0  0  0  0  0  0  0  0
   -0.7679   -5.0811   -0.8228 C   0  0  0  0  0  0  0  0  0  0  0  0
   -0.7166   -6.3432   -1.4255 C   0  0  0  0  0  0  0  0  0  0  0  0
   -0.7106   -7.4677   -0.6561 C   0  0  0  0  0  0  0  0  0  0  0  0
   -0.7553   -7.3741    0.7409 C   0  0  0  0  0  0  0  0  0  0  0  0
   -0.8066   -6.1262    1.3568 C   0  0  0  0  0  0  0  0  0  0  0  0
   -0.8125   -4.9799    0.5794 C   0  0  0  0  0  0  0  0  0  0  0  0
   -0.8510   -3.6282    0.8627 N   0  0  0  0  0  0  0  0  0  0  0  0
   -0.8997   -3.0209    2.1950 C   0  0  0  0  0  0  0  0  0  0  0  0
   -2.3363   -2.8503    2.6171 C   0  0  0  0  0  0  0  0  0  0  0  0
   -3.0114   -1.6833    2.3071 C   0  0  0  0  0  0  0  0  0  0  0  0
   -4.3269   -1.5212    2.6909 C   0  0  0  0  0  0  0  0  0  0  0  0
   -4.9758   -2.5369    3.3923 C   0  0  0  0  0  0  0  0  0  0  0  0
   -4.2901   -3.7111    3.7015 C   0  0  0  0  0  0  0  0  0  0  0  0
   -2.9763   -3.8635    3.3081 C   0  0  0  0  0  0  0  0  0  0  0  0
   -6.3880   -2.3689    3.8077 C   0  0  0  0  0  0  0  0  0  0  0  0
   -7.3736   -2.1235    2.8559 C   0  0  0  0  0  0  0  0  0  0  0  0
   -8.6883   -1.9680    3.2469 C   0  0  0  0  0  0  0  0  0  0  0  0
   -9.0381   -2.0543    4.5848 C   0  0  0  0  0  0  0  0  0  0  0  0
   -8.0772   -2.2963    5.5435 C   0  0  0  0  0  0  0  0  0  0  0  0
   -6.7424   -2.4622    5.1668 C   0  0  0  0  0  0  0  0  0  0  0  0
   -5.7120   -2.7270    6.1853 C   0  0  0  0  0  0  0  0  0  0  0  0
   -6.0382   -2.9345    7.3459 O   0  0  0  0  0  0  0  0  0  0  0  0
   -4.5299   -2.7394    5.8706 O   0  0  0  0  0  1  0  0  0  0  0  0
   -0.7486   -8.6023    1.5628 C   0  0  0  0  0  0  0  0  0  0  0  0
   -0.4281   -8.6582    2.8328 N   0  0  0  0  0  0  0  0  0  0  0  0
   -0.5296   -9.9362    3.2723 C   0  0  0  0  0  0  0  0  0  0  0  0
   -0.3102  -10.5463    4.5117 C   0  0  0  0  0  0  0  0  0  0  0  0
   -0.5006  -11.8916    4.6514 C   0  0  0  0  0  0  0  0  0  0  0  0
   -0.9109  -12.6642    3.5740 C   0  0  0  0  0  0  0  0  0  0  0  0
   -1.1335  -12.0847    2.3426 C   0  0  0  0  0  0  0  0  0  0  0  0
   -0.9454  -10.7191    2.1808 C   0  0  0  0  0  0  0  0  0  0  0  0
   -1.0820   -9.8522    1.1139 N   0  0  0  0  0  0  0  0  0  0  0  0
   -1.5019  -10.2047   -0.2446 C   0  0  0  0  0  0  0  0  0  0  0  0
   -0.6687   -6.4586   -2.9273 C   0  0  0  0  0  0  0  0  0  0  0  0
    1.5379    0.9870   -0.6615 H   0  0  0  0  0  0  0  0  0  0  0  0
    0.0215    0.8570   -1.5845 H   0  0  0  0  0  0  0  0  0  0  0  0
   -0.0268    1.0367    0.1857 H   0  0  0  0  0  0  0  0  0  0  0  0
    1.1014   -1.3606   -1.3299 H   0  0  0  0  0  0  0  0  0  0  0  0
    1.0531   -1.1809    0.4403 H   0  0  0  0  0  0  0  0  0  0  0  0
   -1.4205   -1.0298    0.3574 H   0  0  0  0  0  0  0  0  0  0  0  0
   -1.3722   -1.2095   -1.4128 H   0  0  0  0  0  0  0  0  0  0  0  0
   -0.6713   -8.4388   -1.1270 H   0  0  0  0  0  0  0  0  0  0  0  0
   -0.8418   -6.0527    2.4337 H   0  0  0  0  0  0  0  0  0  0  0  0
   -0.3859   -3.6663    2.9074 H   0  0  0  0  0  0  0  0  0  0  0  0
   -0.4106   -2.0472    2.1685 H   0  0  0  0  0  0  0  0  0  0  0  0
   -2.5078   -0.8974    1.7638 H   0  0  0  0  0  0  0  0  0  0  0  0
   -4.8527   -0.6094    2.4489 H   0  0  0  0  0  0  0  0  0  0  0  0
   -4.7874   -4.5011    4.2447 H   0  0  0  0  0  0  0  0  0  0  0  0
   -2.4453   -4.7740    3.5437 H   0  0  0  0  0  0  0  0  0  0  0  0
   -7.1095   -2.0544    1.8109 H   0  0  0  0  0  0  0  0  0  0  0  0
   -9.4495   -1.7774    2.5049 H   0  0  0  0  0  0  0  0  0  0  0  0
  -10.0700   -1.9309    4.8786 H   0  0  0  0  0  0  0  0  0  0  0  0
   -8.3570   -2.3619    6.5846 H   0  0  0  0  0  0  0  0  0  0  0  0
    0.0096   -9.9547    5.3568 H   0  0  0  0  0  0  0  0  0  0  0  0
   -0.3297  -12.3590    5.6099 H   0  0  0  0  0  0  0  0  0  0  0  0
   -1.0566  -13.7268    3.7008 H   0  0  0  0  0  0  0  0  0  0  0  0
   -1.4530  -12.6908    1.5078 H   0  0  0  0  0  0  0  0  0  0  0  0
   -0.6216  -10.3622   -0.8677 H   0  0  0  0  0  0  0  0  0  0  0  0
   -2.0950  -11.1188   -0.2158 H   0  0  0  0  0  0  0  0  0  0  0  0
   -2.1017   -9.3954   -0.6610 H   0  0  0  0  0  0  0  0  0  0  0  0
    0.3698   -6.4595   -3.2587 H   0  0  0  0  0  0  0  0  0  0  0  0
   -1.1493   -7.3870   -3.2359 H   0  0  0  0  0  0  0  0  0  0  0  0
   -1.1918   -5.6129   -3.3737 H   0  0  0  0  0  0  0  0  0  0  0  0
  1  2  1  0  0  0  0
  1 40  1  0  0  0  0
  1 41  1  0  0  0  0
  1 42  1  0  0  0  0
  2  3  1  0  0  0  0
  2 43  1  0  0  0  0
  2 44  1  0  0  0  0
  3  4  1  0  0  0  0
  3 45  1  0  0  0  0
  3 46  1  0  0  0  0
  4 12  1  0  0  0  0
  4  5  2  0  0  0  0
  5  6  1  0  0  0  0
  6 11  2  0  0  0  0
  6  7  1  0  0  0  0
  7  8  2  0  0  0  0
  7 39  1  0  0  0  0
  8  9  1  0  0  0  0
  8 47  1  0  0  0  0
  9 10  2  0  0  0  0
  9 29  1  0  0  0  0
 10 11  1  0  0  0  0
 10 48  1  0  0  0  0
 11 12  1  0  0  0  0
 12 13  1  0  0  0  0
 13 14  1  0  0  0  0
 13 49  1  0  0  0  0
 13 50  1  0  0  0  0
 14 19  2  0  0  0  0
 14 15  1  0  0  0  0
 15 16  2  0  0  0  0
 15 51  1  0  0  0  0
 16 17  1  0  0  0  0
 16 52  1  0  0  0  0
 17 18  2  0  0  0  0
 17 20  1  0  0  0  0
 18 19  1  0  0  0  0
 18 53  1  0  0  0  0
 19 54  1  0  0  0  0
 20 25  2  0  0  0  0
 20 21  1  0  0  0  0
 21 22  2  0  0  0  0
 21 55  1  0  0  0  0
 22 23  1  0  0  0  0
 22 56  1  0  0  0  0
 23 24  2  0  0  0  0
 23 57  1  0  0  0  0
 24 25  1  0  0  0  0
 24 58  1  0  0  0  0
 25 26  1  0  0  0  0
 26 27  2  0  0  0  0
 26 28  1  0  0  0  0
 29 37  1  0  0  0  0
 29 30  2  0  0  0  0
 30 31  1  0  0  0  0
 31 36  2  0  0  0  0
 31 32  1  0  0  0  0
 32 33  2  0  0  0  0
 32 59  1  0  0  0  0
 33 34  1  0  0  0  0
 33 60  1  0  0  0  0
 34 35  2  0  0  0  0
 34 61  1  0  0  0  0
 35 36  1  0  0  0  0
 35 62  1  0  0  0  0
 36 37  1  0  0  0  0
 37 38  1  0  0  0  0
 38 63  1  0  0  0  0
 38 64  1  0  0  0  0
 38 65  1  0  0  0  0
 39 66  1  0  0  0  0
 39 67  1  0  0  0  0
 39 68  1  0  0  0  0
M  END
$$$$
