ZINC04228258
 OpenBabel08292219463D

 32 33  0  0  1  0  0  0  0  0999 V2000
   -0.0187    1.5258    0.0104 C   0  0  0  0  0  0  0  0  0  0  0  0
    0.0021   -0.0041    0.0020 C   0  0  2  0  0  0  0  0  0  0  0  0
   -1.0205   -0.3814    0.0098 H   0  0  0  0  0  0  0  0  0  0  0  0
    0.7421   -0.5109    1.2415 C   0  0  2  0  0  0  0  0  0  0  0  0
    1.7647   -0.1336    1.2338 H   0  0  0  0  0  0  0  0  0  0  0  0
    0.7628   -2.0407    1.2331 C   0  0  2  0  0  0  0  0  0  0  0  0
   -0.2578   -2.4233    1.2408 H   0  0  0  0  0  0  0  0  0  0  0  0
    1.5207   -2.5570    2.4656 C   0  0  0  0  0  0  0  0  0  0  0  0
    2.9193   -2.1160    2.3626 N   0  0  0  0  0  0  0  0  0  0  0  0
    3.5798   -2.2490    1.1575 C   0  0  0  0  0  0  0  0  0  0  0  0
    2.8769   -2.4454    0.0035 C   0  0  0  0  0  0  0  0  0  0  0  0
    3.5779   -2.5726   -1.2128 C   0  0  0  0  0  0  0  0  0  0  0  0
    2.9703   -2.7464   -2.2602 O   0  0  0  0  0  0  0  0  0  0  0  0
    4.9192   -2.5006   -1.2110 N   0  0  0  0  0  0  0  0  0  0  0  0
    5.5869   -2.3137   -0.0930 C   0  0  0  0  0  0  0  0  0  0  0  0
    4.9482   -2.1854    1.1018 N   0  0  0  0  0  0  0  0  0  0  0  0
    5.4610   -2.0490    1.9138 H   0  0  0  0  0  0  0  0  0  0  0  0
    6.9562   -2.2467   -0.1324 N   0  0  0  0  0  0  0  0  0  0  0  0
    1.4662   -2.5226    0.0334 N   0  0  0  0  0  0  0  0  0  0  0  0
    0.0732   -0.0501    2.4172 O   0  0  0  0  0  0  0  0  0  0  0  0
    0.6709   -0.4649   -1.1737 O   0  0  0  0  0  0  0  0  0  0  0  0
    1.0039    1.9031    0.0027 H   0  0  0  0  0  0  0  0  0  0  0  0
   -0.5459    1.8868   -0.8726 H   0  0  0  0  0  0  0  0  0  0  0  0
   -0.5289    1.8773    0.9072 H   0  0  0  0  0  0  0  0  0  0  0  0
    1.0720   -2.1484    3.3710 H   0  0  0  0  0  0  0  0  0  0  0  0
    1.4795   -3.6459    2.4931 H   0  0  0  0  0  0  0  0  0  0  0  0
    3.3723   -1.7360    3.1316 H   0  0  0  0  0  0  0  0  0  0  0  0
    7.4220   -2.3368   -0.9784 H   0  0  0  0  0  0  0  0  0  0  0  0
    7.4588   -2.1092    0.6857 H   0  0  0  0  0  0  0  0  0  0  0  0
    0.9724   -2.8853   -0.7187 H   0  0  0  0  0  0  0  0  0  0  0  0
   -0.8437   -0.3483    2.4905 H   0  0  0  0  0  0  0  0  0  0  0  0
    1.5879   -0.1667   -1.2470 H   0  0  0  0  0  0  0  0  0  0  0  0
  1  2  1  0  0  0  0
  1 22  1  0  0  0  0
  1 23  1  0  0  0  0
  1 24  1  0  0  0  0
  2  3  1  1  0  0  0
  2  4  1  0  0  0  0
  2 21  1  0  0  0  0
  4  5  1  6  0  0  0
  4  6  1  0  0  0  0
  4 20  1  0  0  0  0
  6  7  1  1  0  0  0
  6 19  1  0  0  0  0
  6  8  1  0  0  0  0
  8  9  1  0  0  0  0
  8 25  1  0  0  0  0
  8 26  1  0  0  0  0
  9 10  1  0  0  0  0
  9 27  1  0  0  0  0
 10 16  1  0  0  0  0
 10 11  2  0  0  0  0
 11 12  1  0  0  0  0
 11 19  1  0  0  0  0
 12 13  2  0  0  0  0
 12 14  1  0  0  0  0
 14 15  2  0  0  0  0
 15 16  1  0  0  0  0
 15 18  1  0  0  0  0
 16 17  1  0  0  0  0
 18 28  1  0  0  0  0
 18 29  1  0  0  0  0
 19 30  1  0  0  0  0
 20 31  1  0  0  0  0
 21 32  1  0  0  0  0
M  END
$$$$
