ZINC03798537
 OpenBabel08292219463D

 68 70  0  0  1  0  0  0  0  0999 V2000
   -6.5886   -3.5092   -5.6025 C   0  0  0  0  0  0  0  0  0  0  0  0
   -5.4280   -3.8335   -4.6598 C   0  0  0  0  0  0  0  0  0  0  0  0
   -5.0346   -2.6492   -3.9636 O   0  0  0  0  0  0  0  0  0  0  0  0
   -4.0106   -2.7646   -3.0822 C   0  0  0  0  0  0  0  0  0  0  0  0
   -3.3896   -3.9904   -2.8919 C   0  0  0  0  0  0  0  0  0  0  0  0
   -2.3470   -4.1062   -1.9947 C   0  0  0  0  0  0  0  0  0  0  0  0
   -1.9124   -3.0029   -1.2773 C   0  0  0  0  0  0  0  0  0  0  0  0
   -2.5163   -1.7777   -1.4524 C   0  0  0  0  0  0  0  0  0  0  0  0
   -3.5702   -1.6436   -2.3624 C   0  0  0  0  0  0  0  0  0  0  0  0
   -4.2169   -0.3364   -2.5592 C   0  0  0  0  0  0  0  0  0  0  0  0
   -3.8298    0.6385   -1.9296 O   0  0  0  0  0  0  0  0  0  0  0  0
   -5.1415   -0.2246   -3.3524 O   0  0  0  0  0  1  0  0  0  0  0  0
   -1.6774   -5.4412   -1.7935 C   0  0  0  0  0  0  0  0  0  0  0  0
   -0.5298   -5.5784   -2.7607 C   0  0  0  0  0  0  0  0  0  0  0  0
   -0.2804   -4.6806   -3.5369 O   0  0  0  0  0  0  0  0  0  0  0  0
    0.2192   -6.6989   -2.7631 N   0  0  0  0  0  0  0  0  0  0  0  0
    1.2625   -6.8804   -3.7754 C   0  0  1  0  0  0  0  0  0  0  0  0
    1.7360   -5.9213   -3.9852 H   0  0  0  0  0  0  0  0  0  0  0  0
    2.3121   -7.8645   -3.2552 C   0  0  0  0  0  0  0  0  0  0  0  0
    3.0230   -7.2586   -2.0434 C   0  0  0  0  0  0  0  0  0  0  0  0
    2.0338   -7.1304   -0.8833 C   0  0  0  0  0  0  0  0  0  0  0  0
    4.1830   -8.1651   -1.6267 C   0  0  0  0  0  0  0  0  0  0  0  0
    0.6470   -7.4239   -5.0391 C   0  0  0  0  0  0  0  0  0  0  0  0
   -0.5117   -8.1731   -4.9772 C   0  0  0  0  0  0  0  0  0  0  0  0
   -1.0767   -8.6725   -6.1361 C   0  0  0  0  0  0  0  0  0  0  0  0
   -0.4845   -8.4235   -7.3609 C   0  0  0  0  0  0  0  0  0  0  0  0
    0.6738   -7.6750   -7.4300 C   0  0  0  0  0  0  0  0  0  0  0  0
    1.2413   -7.1672   -6.2680 C   0  0  0  0  0  0  0  0  0  0  0  0
    2.4099   -6.4052   -6.3348 N   0  0  0  0  0  0  0  0  0  0  0  0
    3.7286   -7.0490   -6.2616 C   0  0  0  0  0  0  0  0  0  0  0  0
    4.5590   -6.6109   -7.4721 C   0  0  0  0  0  0  0  0  0  0  0  0
    4.6080   -5.0823   -7.5259 C   0  0  0  0  0  0  0  0  0  0  0  0
    3.1899   -4.5301   -7.6876 C   0  0  0  0  0  0  0  0  0  0  0  0
    2.3440   -4.9452   -6.4857 C   0  0  0  0  0  0  0  0  0  0  0  0
   -6.2724   -2.7532   -6.3213 H   0  0  0  0  0  0  0  0  0  0  0  0
   -6.8886   -4.4126   -6.1336 H   0  0  0  0  0  0  0  0  0  0  0  0
   -7.4315   -3.1307   -5.0243 H   0  0  0  0  0  0  0  0  0  0  0  0
   -5.7441   -4.5894   -3.9410 H   0  0  0  0  0  0  0  0  0  0  0  0
   -4.5850   -4.2119   -5.2380 H   0  0  0  0  0  0  0  0  0  0  0  0
   -3.7225   -4.8553   -3.4464 H   0  0  0  0  0  0  0  0  0  0  0  0
   -1.0963   -3.1045   -0.5772 H   0  0  0  0  0  0  0  0  0  0  0  0
   -2.1743   -0.9209   -0.8909 H   0  0  0  0  0  0  0  0  0  0  0  0
   -1.3020   -5.5092   -0.7724 H   0  0  0  0  0  0  0  0  0  0  0  0
   -2.3983   -6.2395   -1.9695 H   0  0  0  0  0  0  0  0  0  0  0  0
    0.0675   -7.3851   -2.0945 H   0  0  0  0  0  0  0  0  0  0  0  0
    1.8248   -8.7947   -2.9630 H   0  0  0  0  0  0  0  0  0  0  0  0
    3.0408   -8.0671   -4.0401 H   0  0  0  0  0  0  0  0  0  0  0  0
    3.4079   -6.2725   -2.3035 H   0  0  0  0  0  0  0  0  0  0  0  0
    1.5511   -8.0920   -0.7094 H   0  0  0  0  0  0  0  0  0  0  0  0
    2.5669   -6.8234    0.0165 H   0  0  0  0  0  0  0  0  0  0  0  0
    1.2786   -6.3842   -1.1306 H   0  0  0  0  0  0  0  0  0  0  0  0
    4.8877   -8.2565   -2.4532 H   0  0  0  0  0  0  0  0  0  0  0  0
    4.6894   -7.7335   -0.7634 H   0  0  0  0  0  0  0  0  0  0  0  0
    3.7981   -9.1512   -1.3666 H   0  0  0  0  0  0  0  0  0  0  0  0
   -0.9767   -8.3693   -4.0223 H   0  0  0  0  0  0  0  0  0  0  0  0
   -1.9824   -9.2586   -6.0847 H   0  0  0  0  0  0  0  0  0  0  0  0
   -0.9282   -8.8154   -8.2642 H   0  0  0  0  0  0  0  0  0  0  0  0
    1.1359   -7.4812   -8.3867 H   0  0  0  0  0  0  0  0  0  0  0  0
    4.2326   -6.7461   -5.3438 H   0  0  0  0  0  0  0  0  0  0  0  0
    3.6076   -8.1322   -6.2742 H   0  0  0  0  0  0  0  0  0  0  0  0
    5.5714   -7.0044   -7.3804 H   0  0  0  0  0  0  0  0  0  0  0  0
    4.1011   -6.9926   -8.3847 H   0  0  0  0  0  0  0  0  0  0  0  0
    5.0433   -4.7002   -6.6025 H   0  0  0  0  0  0  0  0  0  0  0  0
    5.2188   -4.7681   -8.3722 H   0  0  0  0  0  0  0  0  0  0  0  0
    3.2277   -3.4425   -7.7493 H   0  0  0  0  0  0  0  0  0  0  0  0
    2.7449   -4.9313   -8.5982 H   0  0  0  0  0  0  0  0  0  0  0  0
    1.3097   -4.6407   -6.6461 H   0  0  0  0  0  0  0  0  0  0  0  0
    2.7326   -4.4670   -5.5866 H   0  0  0  0  0  0  0  0  0  0  0  0
  1  2  1  0  0  0  0
  1 35  1  0  0  0  0
  1 36  1  0  0  0  0
  1 37  1  0  0  0  0
  2  3  1  0  0  0  0
  2 38  1  0  0  0  0
  2 39  1  0  0  0  0
  3  4  1  0  0  0  0
  4  9  2  0  0  0  0
  4  5  1  0  0  0  0
  5  6  2  0  0  0  0
  5 40  1  0  0  0  0
  6  7  1  0  0  0  0
  6 13  1  0  0  0  0
  7  8  2  0  0  0  0
  7 41  1  0  0  0  0
  8  9  1  0  0  0  0
  8 42  1  0  0  0  0
  9 10  1  0  0  0  0
 10 11  2  0  0  0  0
 10 12  1  0  0  0  0
 13 14  1  0  0  0  0
 13 43  1  0  0  0  0
 13 44  1  0  0  0  0
 14 15  2  0  0  0  0
 14 16  1  0  0  0  0
 16 17  1  0  0  0  0
 16 45  1  0  0  0  0
 17 18  1  6  0  0  0
 17 19  1  0  0  0  0
 17 23  1  0  0  0  0
 19 20  1  0  0  0  0
 19 46  1  0  0  0  0
 19 47  1  0  0  0  0
 20 21  1  0  0  0  0
 20 22  1  0  0  0  0
 20 48  1  0  0  0  0
 21 49  1  0  0  0  0
 21 50  1  0  0  0  0
 21 51  1  0  0  0  0
 22 52  1  0  0  0  0
 22 53  1  0  0  0  0
 22 54  1  0  0  0  0
 23 28  2  0  0  0  0
 23 24  1  0  0  0  0
 24 25  2  0  0  0  0
 24 55  1  0  0  0  0
 25 26  1  0  0  0  0
 25 56  1  0  0  0  0
 26 27  2  0  0  0  0
 26 57  1  0  0  0  0
 27 28  1  0  0  0  0
 27 58  1  0  0  0  0
 28 29  1  0  0  0  0
 29 34  1  0  0  0  0
 29 30  1  0  0  0  0
 30 31  1  0  0  0  0
 30 59  1  0  0  0  0
 30 60  1  0  0  0  0
 31 32  1  0  0  0  0
 31 61  1  0  0  0  0
 31 62  1  0  0  0  0
 32 33  1  0  0  0  0
 32 63  1  0  0  0  0
 32 64  1  0  0  0  0
 33 34  1  0  0  0  0
 33 65  1  0  0  0  0
 33 66  1  0  0  0  0
 34 67  1  0  0  0  0
 34 68  1  0  0  0  0
M  END
$$$$
