ZINC01532556
 OpenBabel08292219463D

 17 16  0  0  1  0  0  0  0  0999 V2000
   -1.3296    1.9443    0.0189 C   0  0  0  0  0  0  0  0  0  0  0  0
   -2.4789    0.9344    0.0189 C   0  0  1  0  0  0  0  0  0  0  0  0
   -2.3587    0.2472    0.8564 H   0  0  0  0  0  0  0  0  0  0  0  0
   -3.7899    1.6653    0.1529 C   0  0  0  0  0  0  0  0  0  0  0  0
   -4.4685    1.8730   -0.8250 O   0  0  0  0  0  0  0  0  0  0  0  0
   -3.1758   -0.5391   -1.2387 H   0  0  0  0  0  0  0  0  0  0  0  0
   -2.5762    0.7935   -2.0327 H   0  0  0  0  0  0  0  0  0  0  0  0
   -0.0144    1.2086    0.0087 C   0  0  0  0  0  0  0  0  0  0  0  0
    0.0021   -0.0041    0.0020 O   0  0  0  0  0  0  0  0  0  0  0  0
    1.1435    1.8983    0.0013 N   0  0  0  0  0  0  0  0  0  0  0  0
   -1.3916    2.5653    0.9126 H   0  0  0  0  0  0  0  0  0  0  0  0
   -1.4000    2.5749   -0.8673 H   0  0  0  0  0  0  0  0  0  0  0  0
    1.9900    1.4248   -0.0093 H   0  0  0  0  0  0  0  0  0  0  0  0
    1.1304    2.8682    0.0067 H   0  0  0  0  0  0  0  0  0  0  0  0
   -4.2038    2.0856    1.3586 O   0  0  0  0  0  1  0  0  0  0  0  0
   -2.4430    0.1685   -1.2394 N   0  3  0  0  0  0  0  0  0  0  0  0
   -1.5306   -0.2942   -1.3270 H   0  0  0  0  0  0  0  0  0  0  0  0
  1  2  1  0  0  0  0
  1  8  1  0  0  0  0
  1 11  1  0  0  0  0
  1 12  1  0  0  0  0
  2  3  1  1  0  0  0
  2  4  1  0  0  0  0
  2 16  1  0  0  0  0
  4  5  2  0  0  0  0
  4 15  1  0  0  0  0
  6 16  1  0  0  0  0
  7 16  1  0  0  0  0
  8  9  2  0  0  0  0
  8 10  1  0  0  0  0
 10 13  1  0  0  0  0
 10 14  1  0  0  0  0
 16 17  1  0  0  0  0
M  CHG  1  16   1
M  END
$$$$
