ZINC22116608
 OpenBabel08292219463D

 37 39  0  0  1  0  0  0  0  0999 V2000
   -0.0167    1.3784    0.0096 C   0  0  0  0  0  0  0  0  0  0  0  0
    1.1695    2.0865    0.0021 C   0  0  0  0  0  0  0  0  0  0  0  0
    2.3802    1.4093   -0.0131 C   0  0  0  0  0  0  0  0  0  0  0  0
    2.3963    0.0221   -0.0206 C   0  0  0  0  0  0  0  0  0  0  0  0
    1.2074   -0.6814   -0.0130 C   0  0  0  0  0  0  0  0  0  0  0  0
    0.0021   -0.0041    0.0020 C   0  0  0  0  0  0  0  0  0  0  0  0
   -1.2934   -0.7740    0.0107 C   0  0  2  0  0  0  0  0  0  0  0  0
   -2.1266   -0.0713    0.0227 H   0  0  0  0  0  0  0  0  0  0  0  0
   -1.3519   -1.6424    1.2671 C   0  0  0  0  0  0  0  0  0  0  0  0
   -2.7503   -1.7398    1.6992 N   0  3  0  0  0  0  0  0  0  0  0  0
   -3.5601   -2.3813    0.6632 C   0  0  0  0  0  0  0  0  0  0  0  0
   -2.6818   -3.4165   -0.0466 C   0  0  0  0  0  0  0  0  0  0  0  0
   -2.0436   -2.8219   -1.2752 C   0  0  0  0  0  0  0  0  0  0  0  0
   -1.3758   -1.6180   -1.2375 C   0  0  0  0  0  0  0  0  0  0  0  0
   -0.7560   -1.1390   -2.3840 C   0  0  0  0  0  0  0  0  0  0  0  0
   -0.8274   -1.8478   -3.5697 C   0  0  0  0  0  0  0  0  0  0  0  0
   -1.5288   -3.0484   -3.6140 C   0  0  0  0  0  0  0  0  0  0  0  0
   -2.1335   -3.5286   -2.4671 C   0  0  0  0  0  0  0  0  0  0  0  0
   -3.0071   -5.0279   -2.5169 Cl  0  0  0  0  0  0  0  0  0  0  0  0
   -1.6213   -3.7441   -4.7792 O   0  5  0  0  0  0  0  0  0  0  0  0
   -0.2149   -1.3730   -4.6873 O   0  0  0  0  0  0  0  0  0  0  0  0
    3.5484    2.1036   -0.0209 O   0  0  0  0  0  0  0  0  0  0  0  0
   -0.9594    1.9052    0.0259 H   0  0  0  0  0  0  0  0  0  0  0  0
    1.1543    3.1664    0.0076 H   0  0  0  0  0  0  0  0  0  0  0  0
    3.3375   -0.5074   -0.0328 H   0  0  0  0  0  0  0  0  0  0  0  0
    1.2194   -1.7613   -0.0189 H   0  0  0  0  0  0  0  0  0  0  0  0
   -0.9675   -2.6374    1.0429 H   0  0  0  0  0  0  0  0  0  0  0  0
   -0.7555   -1.1852    2.0566 H   0  0  0  0  0  0  0  0  0  0  0  0
   -2.8005   -2.2844    2.5471 H   0  0  0  0  0  0  0  0  0  0  0  0
   -4.4179   -2.8758    1.1190 H   0  0  0  0  0  0  0  0  0  0  0  0
   -3.9019   -1.6342   -0.0532 H   0  0  0  0  0  0  0  0  0  0  0  0
   -1.9015   -3.7534    0.6358 H   0  0  0  0  0  0  0  0  0  0  0  0
   -3.2956   -4.2688   -0.3378 H   0  0  0  0  0  0  0  0  0  0  0  0
   -0.2135   -0.2057   -2.3496 H   0  0  0  0  0  0  0  0  0  0  0  0
    0.6981   -1.6733   -4.7931 H   0  0  0  0  0  0  0  0  0  0  0  0
    3.8951    2.3001    0.8601 H   0  0  0  0  0  0  0  0  0  0  0  0
   -3.1096   -0.8141    1.8783 H   0  0  0  0  0  0  0  0  0  0  0  0
  1  6  2  0  0  0  0
  1  2  1  0  0  0  0
  1 23  1  0  0  0  0
  2  3  2  0  0  0  0
  2 24  1  0  0  0  0
  3  4  1  0  0  0  0
  3 22  1  0  0  0  0
  4  5  2  0  0  0  0
  4 25  1  0  0  0  0
  5  6  1  0  0  0  0
  5 26  1  0  0  0  0
  6  7  1  0  0  0  0
  7  8  1  1  0  0  0
  7 14  1  0  0  0  0
  7  9  1  0  0  0  0
  9 10  1  0  0  0  0
  9 27  1  0  0  0  0
  9 28  1  0  0  0  0
 10 11  1  0  0  0  0
 10 29  1  0  0  0  0
 10 37  1  0  0  0  0
 11 12  1  0  0  0  0
 11 30  1  0  0  0  0
 11 31  1  0  0  0  0
 12 13  1  0  0  0  0
 12 32  1  0  0  0  0
 12 33  1  0  0  0  0
 13 18  2  0  0  0  0
 13 14  1  0  0  0  0
 14 15  2  0  0  0  0
 15 16  1  0  0  0  0
 15 34  1  0  0  0  0
 16 17  2  0  0  0  0
 16 21  1  0  0  0  0
 17 18  1  0  0  0  0
 17 20  1  0  0  0  0
 18 19  1  0  0  0  0
 21 35  1  0  0  0  0
 22 36  1  0  0  0  0
M  CHG  2  10   1  20  -1
M  END
$$$$
