ZINC06661227
 OpenBabel08292219463D

 20 20  0  0  1  0  0  0  0  0999 V2000
   -0.0165    1.3646    0.0095 C   0  0  0  0  0  0  0  0  0  0  0  0
    1.2671    1.7717   -0.0005 C   0  0  0  0  0  0  0  0  0  0  0  0
    2.0482    0.6814   -0.0138 N   0  0  0  0  0  0  0  0  0  0  0  0
    1.2973   -0.3859   -0.0124 C   0  0  0  0  0  0  0  0  0  0  0  0
    0.0021   -0.0041    0.0020 N   0  0  0  0  0  0  0  0  0  0  0  0
   -0.7708   -0.5902    0.0065 H   0  0  0  0  0  0  0  0  0  0  0  0
    1.7427    3.2017    0.0026 C   0  0  0  0  0  0  0  0  0  0  0  0
    2.7000    3.4183    1.1763 C   0  0  1  0  0  0  0  0  0  0  0  0
    3.5101    2.6910    1.1234 H   0  0  0  0  0  0  0  0  0  0  0  0
    3.2705    4.8115    1.1088 C   0  0  0  0  0  0  0  0  0  0  0  0
    2.6999    5.7317    1.6693 O   0  0  0  0  0  0  0  0  0  0  0  0
    4.3026    5.0184    0.4937 O   0  0  0  0  0  1  0  0  0  0  0  0
    1.9711    3.2483    2.4404 N   0  3  0  0  0  0  0  0  0  0  0  0
   -0.8922    1.9965    0.0253 H   0  0  0  0  0  0  0  0  0  0  0  0
    1.6529   -1.4057   -0.0218 H   0  0  0  0  0  0  0  0  0  0  0  0
    2.2605    3.4145   -0.9326 H   0  0  0  0  0  0  0  0  0  0  0  0
    0.8868    3.8690    0.1039 H   0  0  0  0  0  0  0  0  0  0  0  0
    1.2212    3.9216    2.4894 H   0  0  0  0  0  0  0  0  0  0  0  0
    1.5892    2.3155    2.4856 H   0  0  0  0  0  0  0  0  0  0  0  0
    2.6025    3.3911    3.2145 H   0  0  0  0  0  0  0  0  0  0  0  0
  1  5  1  0  0  0  0
  1  2  2  0  0  0  0
  1 14  1  0  0  0  0
  2  3  1  0  0  0  0
  2  7  1  0  0  0  0
  3  4  2  0  0  0  0
  4  5  1  0  0  0  0
  4 15  1  0  0  0  0
  5  6  1  0  0  0  0
  7  8  1  0  0  0  0
  7 16  1  0  0  0  0
  7 17  1  0  0  0  0
  8  9  1  6  0  0  0
  8 10  1  0  0  0  0
  8 13  1  0  0  0  0
 10 11  2  0  0  0  0
 10 12  1  0  0  0  0
 13 18  1  0  0  0  0
 13 19  1  0  0  0  0
 13 20  1  0  0  0  0
M  CHG  1  13   1
M  END
$$$$
