ZINC00002094
 OpenBabel08292219463D

 34 35  0  0  0  0  0  0  0  0999 V2000
   -0.0173    1.4248    0.0099 C   0  0  0  0  0  0  0  0  0  0  0  0
    0.0021   -0.0041    0.0020 O   0  0  0  0  0  0  0  0  0  0  0  0
    0.6068   -0.6081   -1.0575 C   0  0  0  0  0  0  0  0  0  0  0  0
   -0.1166   -0.9318   -2.2068 C   0  0  0  0  0  0  0  0  0  0  0  0
    0.5131   -1.5212   -3.2198 N   0  0  0  0  0  0  0  0  0  0  0  0
    1.7993   -1.7984   -3.1470 C   0  0  0  0  0  0  0  0  0  0  0  0
    2.5160   -1.5092   -2.0801 N   0  0  0  0  0  0  0  0  0  0  0  0
    1.9644   -0.9144   -1.0263 C   0  0  0  0  0  0  0  0  0  0  0  0
    2.7125   -0.6152    0.0651 O   0  0  0  0  0  0  0  0  0  0  0  0
    4.0978   -0.9625    0.0170 C   0  0  0  0  0  0  0  0  0  0  0  0
   -1.4726   -0.6434   -2.2911 N   0  0  0  0  0  2  0  0  0  0  0  0
   -2.3183   -1.0330   -3.6606 S   0  0  0  0  0  0  0  0  0  0  0  0
   -1.7997   -0.2191   -4.7035 O   0  0  0  0  0  0  0  0  0  0  0  0
   -2.3346   -2.4518   -3.7380 O   0  0  0  0  0  0  0  0  0  0  0  0
   -3.9857   -0.5234   -3.4058 C   0  0  0  0  0  0  0  0  0  0  0  0
   -4.8944   -1.3964   -2.8363 C   0  0  0  0  0  0  0  0  0  0  0  0
   -6.2021   -1.0002   -2.6352 C   0  0  0  0  0  0  0  0  0  0  0  0
   -6.6040    0.2768   -3.0058 C   0  0  0  0  0  0  0  0  0  0  0  0
   -5.6885    1.1512   -3.5776 C   0  0  0  0  0  0  0  0  0  0  0  0
   -4.3811    0.7505   -3.7707 C   0  0  0  0  0  0  0  0  0  0  0  0
   -7.9258    0.6806   -2.8042 N   0  0  0  0  0  0  0  0  0  0  0  0
    1.0053    1.8021    0.0021 H   0  0  0  0  0  0  0  0  0  0  0  0
   -0.5445    1.7859   -0.8732 H   0  0  0  0  0  0  0  0  0  0  0  0
   -0.5275    1.7763    0.9067 H   0  0  0  0  0  0  0  0  0  0  0  0
    2.2803   -2.2773   -3.9871 H   0  0  0  0  0  0  0  0  0  0  0  0
    4.5785   -0.6692    0.9503 H   0  0  0  0  0  0  0  0  0  0  0  0
    4.1979   -2.0392   -0.1205 H   0  0  0  0  0  0  0  0  0  0  0  0
    4.5737   -0.4441   -0.8154 H   0  0  0  0  0  0  0  0  0  0  0  0
   -4.5814   -2.3892   -2.5487 H   0  0  0  0  0  0  0  0  0  0  0  0
   -6.9114   -1.6825   -2.1907 H   0  0  0  0  0  0  0  0  0  0  0  0
   -5.9979    2.1446   -3.8672 H   0  0  0  0  0  0  0  0  0  0  0  0
   -3.6677    1.4313   -4.2112 H   0  0  0  0  0  0  0  0  0  0  0  0
   -8.5643    0.0691   -2.4051 H   0  0  0  0  0  0  0  0  0  0  0  0
   -8.2054    1.5726   -3.0634 H   0  0  0  0  0  0  0  0  0  0  0  0
  1  2  1  0  0  0  0
  1 22  1  0  0  0  0
  1 23  1  0  0  0  0
  1 24  1  0  0  0  0
  2  3  1  0  0  0  0
  3  8  2  0  0  0  0
  3  4  1  0  0  0  0
  4  5  2  0  0  0  0
  4 11  1  0  0  0  0
  5  6  1  0  0  0  0
  6  7  2  0  0  0  0
  6 25  1  0  0  0  0
  7  8  1  0  0  0  0
  8  9  1  0  0  0  0
  9 10  1  0  0  0  0
 10 26  1  0  0  0  0
 10 27  1  0  0  0  0
 10 28  1  0  0  0  0
 11 12  1  0  0  0  0
 12 13  2  0  0  0  0
 12 14  2  0  0  0  0
 12 15  1  0  0  0  0
 15 20  2  0  0  0  0
 15 16  1  0  0  0  0
 16 17  2  0  0  0  0
 16 29  1  0  0  0  0
 17 18  1  0  0  0  0
 17 30  1  0  0  0  0
 18 19  2  0  0  0  0
 18 21  1  0  0  0  0
 19 20  1  0  0  0  0
 19 31  1  0  0  0  0
 20 32  1  0  0  0  0
 21 33  1  0  0  0  0
 21 34  1  0  0  0  0
M  END
$$$$
