ZINC01532729
 OpenBabel08292219463D

 25 25  0  0  1  0  0  0  0  0999 V2000
   -0.0189    1.5408    0.0105 C   0  0  0  0  0  0  0  0  0  0  0  0
    1.3844    2.1871    0.0006 C   0  0  0  0  0  0  0  0  0  0  0  0
    2.3163    1.3009    1.3285 S   0  0  0  0  0  0  0  0  0  0  0  0
    1.2039   -0.4623    1.3296 S   0  0  0  0  0  0  0  0  0  0  0  0
    0.0021   -0.0041    0.0020 C   0  0  1  0  0  0  0  0  0  0  0  0
    0.3441   -0.3742   -0.9645 H   0  0  0  0  0  0  0  0  0  0  0  0
   -1.3869   -0.5581    0.3255 C   0  0  0  0  0  0  0  0  0  0  0  0
   -1.3725   -2.0820    0.1895 C   0  0  0  0  0  0  0  0  0  0  0  0
   -2.7614   -2.6361    0.5130 C   0  0  0  0  0  0  0  0  0  0  0  0
   -2.7470   -4.1600    0.3770 C   0  0  0  0  0  0  0  0  0  0  0  0
   -4.1151   -4.7057    0.6957 C   0  0  0  0  0  0  0  0  0  0  0  0
   -5.0180   -3.9462    1.0031 O   0  0  0  0  0  0  0  0  0  0  0  0
   -4.3191   -5.9067    0.6461 O   0  0  0  0  0  1  0  0  0  0  0  0
   -0.5499    1.8763    0.9013 H   0  0  0  0  0  0  0  0  0  0  0  0
   -0.5667    1.8858   -0.8664 H   0  0  0  0  0  0  0  0  0  0  0  0
    1.8652    2.0369   -0.9661 H   0  0  0  0  0  0  0  0  0  0  0  0
    1.3147    3.2504    0.2301 H   0  0  0  0  0  0  0  0  0  0  0  0
   -1.6576   -0.2870    1.3460 H   0  0  0  0  0  0  0  0  0  0  0  0
   -2.1160   -0.1384   -0.3675 H   0  0  0  0  0  0  0  0  0  0  0  0
   -1.1018   -2.3532   -0.8309 H   0  0  0  0  0  0  0  0  0  0  0  0
   -0.6434   -2.5018    0.8826 H   0  0  0  0  0  0  0  0  0  0  0  0
   -3.0321   -2.3649    1.5335 H   0  0  0  0  0  0  0  0  0  0  0  0
   -3.4905   -2.2163   -0.1800 H   0  0  0  0  0  0  0  0  0  0  0  0
   -2.4763   -4.4311   -0.6434 H   0  0  0  0  0  0  0  0  0  0  0  0
   -2.0179   -4.5797    1.0700 H   0  0  0  0  0  0  0  0  0  0  0  0
  1  5  1  0  0  0  0
  1  2  1  0  0  0  0
  1 14  1  0  0  0  0
  1 15  1  0  0  0  0
  2  3  1  0  0  0  0
  2 16  1  0  0  0  0
  2 17  1  0  0  0  0
  3  4  1  0  0  0  0
  4  5  1  0  0  0  0
  5  6  1  6  0  0  0
  5  7  1  0  0  0  0
  7  8  1  0  0  0  0
  7 18  1  0  0  0  0
  7 19  1  0  0  0  0
  8  9  1  0  0  0  0
  8 20  1  0  0  0  0
  8 21  1  0  0  0  0
  9 10  1  0  0  0  0
  9 22  1  0  0  0  0
  9 23  1  0  0  0  0
 10 11  1  0  0  0  0
 10 24  1  0  0  0  0
 10 25  1  0  0  0  0
 11 12  2  0  0  0  0
 11 13  1  0  0  0  0
M  END
$$$$
