ZINC00020246
 OpenBabel08292219463D

 48 50  0  0  1  0  0  0  0  0999 V2000
    0.0395    1.2585   -0.3765 C   0  0  0  0  0  0  0  0  0  0  0  0
    0.0671   -0.2472   -0.1060 C   0  0  1  0  0  0  0  0  0  0  0  0
    0.6259   -0.7482   -0.8964 H   0  0  0  0  0  0  0  0  0  0  0  0
    0.7421   -0.5109    1.2415 C   0  0  0  0  0  0  0  0  0  0  0  0
    2.1476   -0.1038    1.1716 N   0  0  0  0  0  0  0  0  0  0  0  0
    3.0557   -1.0158    0.6401 C   0  0  0  0  0  0  0  0  0  0  0  0
    2.7406   -2.3704    0.6684 C   0  0  0  0  0  0  0  0  0  0  0  0
    3.6161   -3.3021    0.1442 C   0  0  0  0  0  0  0  0  0  0  0  0
    4.8136   -2.8951   -0.4128 C   0  0  0  0  0  0  0  0  0  0  0  0
    5.1384   -1.5513   -0.4448 C   0  0  0  0  0  0  0  0  0  0  0  0
    4.2646   -0.6104    0.0814 C   0  0  0  0  0  0  0  0  0  0  0  0
    4.6996    1.0960    0.0408 S   0  0  0  0  0  0  0  0  0  0  0  0
    3.6122    1.8406    1.2097 C   0  0  0  0  0  0  0  0  0  0  0  0
    2.4729    1.1675    1.6366 C   0  0  0  0  0  0  0  0  0  0  0  0
    1.6311    1.7781    2.5599 C   0  0  0  0  0  0  0  0  0  0  0  0
    1.9211    3.0457    3.0399 C   0  0  0  0  0  0  0  0  0  0  0  0
    3.0545    3.7124    2.6018 C   0  0  0  0  0  0  0  0  0  0  0  0
    3.8987    3.1070    1.6973 C   0  0  0  0  0  0  0  0  0  0  0  0
    1.0921    3.6362    3.9417 O   0  0  0  0  0  0  0  0  0  0  0  0
    1.4513    4.9432    4.3943 C   0  0  0  0  0  0  0  0  0  0  0  0
   -1.3646   -0.7858   -0.0733 C   0  0  0  0  0  0  0  0  0  0  0  0
   -1.9727   -0.6409   -1.4027 N   0  3  0  0  0  0  0  0  0  0  0  0
   -1.2587   -1.4928   -2.3632 C   0  0  0  0  0  0  0  0  0  0  0  0
   -3.3833   -1.0464   -1.3427 C   0  0  0  0  0  0  0  0  0  0  0  0
    1.0594    1.6422   -0.3998 H   0  0  0  0  0  0  0  0  0  0  0  0
   -0.4414    1.4463   -1.3365 H   0  0  0  0  0  0  0  0  0  0  0  0
   -0.5193    1.7595    0.4140 H   0  0  0  0  0  0  0  0  0  0  0  0
    0.2364    0.0612    2.0194 H   0  0  0  0  0  0  0  0  0  0  0  0
    0.6828   -1.5738    1.4757 H   0  0  0  0  0  0  0  0  0  0  0  0
    1.8068   -2.6957    1.1028 H   0  0  0  0  0  0  0  0  0  0  0  0
    3.3639   -4.3519    0.1703 H   0  0  0  0  0  0  0  0  0  0  0  0
    5.4950   -3.6258   -0.8230 H   0  0  0  0  0  0  0  0  0  0  0  0
    6.0742   -1.2334   -0.8802 H   0  0  0  0  0  0  0  0  0  0  0  0
    0.7469    1.2624    2.9043 H   0  0  0  0  0  0  0  0  0  0  0  0
    3.2792    4.7006    2.9751 H   0  0  0  0  0  0  0  0  0  0  0  0
    4.7818    3.6275    1.3573 H   0  0  0  0  0  0  0  0  0  0  0  0
    1.4916    5.6239    3.5439 H   0  0  0  0  0  0  0  0  0  0  0  0
    0.7079    5.2975    5.1084 H   0  0  0  0  0  0  0  0  0  0  0  0
    2.4285    4.9052    4.8758 H   0  0  0  0  0  0  0  0  0  0  0  0
   -1.3502   -1.8391    0.2068 H   0  0  0  0  0  0  0  0  0  0  0  0
   -1.9477   -0.2238    0.6562 H   0  0  0  0  0  0  0  0  0  0  0  0
   -1.3245   -2.5333   -2.0450 H   0  0  0  0  0  0  0  0  0  0  0  0
   -1.7100   -1.3853   -3.3496 H   0  0  0  0  0  0  0  0  0  0  0  0
   -0.2120   -1.1920   -2.4077 H   0  0  0  0  0  0  0  0  0  0  0  0
   -3.9131   -0.4143   -0.6300 H   0  0  0  0  0  0  0  0  0  0  0  0
   -3.8345   -0.9389   -2.3291 H   0  0  0  0  0  0  0  0  0  0  0  0
   -3.4491   -2.0869   -1.0245 H   0  0  0  0  0  0  0  0  0  0  0  0
   -1.9118    0.3222   -1.6972 H   0  0  0  0  0  0  0  0  0  0  0  0
  1  2  1  0  0  0  0
  1 25  1  0  0  0  0
  1 26  1  0  0  0  0
  1 27  1  0  0  0  0
  2  3  1  6  0  0  0
  2  4  1  0  0  0  0
  2 21  1  0  0  0  0
  4  5  1  0  0  0  0
  4 28  1  0  0  0  0
  4 29  1  0  0  0  0
  5 14  1  0  0  0  0
  5  6  1  0  0  0  0
  6 11  2  0  0  0  0
  6  7  1  0  0  0  0
  7  8  2  0  0  0  0
  7 30  1  0  0  0  0
  8  9  1  0  0  0  0
  8 31  1  0  0  0  0
  9 10  2  0  0  0  0
  9 32  1  0  0  0  0
 10 11  1  0  0  0  0
 10 33  1  0  0  0  0
 11 12  1  0  0  0  0
 12 13  1  0  0  0  0
 13 18  2  0  0  0  0
 13 14  1  0  0  0  0
 14 15  2  0  0  0  0
 15 16  1  0  0  0  0
 15 34  1  0  0  0  0
 16 17  2  0  0  0  0
 16 19  1  0  0  0  0
 17 18  1  0  0  0  0
 17 35  1  0  0  0  0
 18 36  1  0  0  0  0
 19 20  1  0  0  0  0
 20 37  1  0  0  0  0
 20 38  1  0  0  0  0
 20 39  1  0  0  0  0
 21 22  1  0  0  0  0
 21 40  1  0  0  0  0
 21 41  1  0  0  0  0
 22 23  1  0  0  0  0
 22 24  1  0  0  0  0
 22 48  1  0  0  0  0
 23 42  1  0  0  0  0
 23 43  1  0  0  0  0
 23 44  1  0  0  0  0
 24 45  1  0  0  0  0
 24 46  1  0  0  0  0
 24 47  1  0  0  0  0
M  CHG  1  22   1
M  END
$$$$
