ZINC01566899
 OpenBabel08292219463D

 80 85  0  0  0  0  0  0  0  0999 V2000
  -10.5145    6.9065    1.5285 C   0  0  0  0  0  0  0  0  0  0  0  0
  -10.6900    6.1996    2.8043 N   0  3  0  0  0  0  0  0  0  0  0  0
  -10.9427    4.7760    2.5445 C   0  0  0  0  0  0  0  0  0  0  0  0
   -9.4725    6.3410    3.6140 C   0  0  0  0  0  0  0  0  0  0  0  0
   -8.2740    5.8001    2.8317 C   0  0  0  0  0  0  0  0  0  0  0  0
   -7.0059    5.9474    3.6750 C   0  0  0  0  0  0  0  0  0  0  0  0
   -5.8075    5.4065    2.8927 C   0  0  0  0  0  0  0  0  0  0  0  0
   -4.5394    5.5538    3.7360 C   0  0  0  0  0  0  0  0  0  0  0  0
   -3.3410    5.0128    2.9537 C   0  0  0  0  0  0  0  0  0  0  0  0
   -2.1235    5.1543    3.7634 N   0  3  0  0  0  0  0  0  0  0  0  0
   -2.2836    4.4137    5.0219 C   0  0  0  0  0  0  0  0  0  0  0  0
   -1.8931    6.5751    4.0572 C   0  0  0  0  0  0  0  0  0  0  0  0
   -0.9762    4.6155    3.0208 C   0  0  0  0  0  0  0  0  0  0  0  0
   -0.8262    5.3350    1.7028 C   0  0  0  0  0  0  0  0  0  0  0  0
   -0.5964    6.6583    1.3914 C   0  0  0  0  0  0  0  0  0  0  0  0
   -0.4951    7.0511    0.0685 C   0  0  0  0  0  0  0  0  0  0  0  0
   -0.6355    6.1196   -0.9442 C   0  0  0  0  0  0  0  0  0  0  0  0
   -0.8660    4.7935   -0.6419 C   0  0  0  0  0  0  0  0  0  0  0  0
   -0.9636    4.3890    0.6906 C   0  0  0  0  0  0  0  0  0  0  0  0
   -1.2017    3.0533    1.2916 C   0  0  0  0  0  0  0  0  0  0  0  0
   -1.2132    3.1648    2.6794 C   0  0  0  0  0  0  0  0  0  0  0  0
   -1.4177    2.0504    3.4650 C   0  0  0  0  0  0  0  0  0  0  0  0
   -1.6133    0.8139    2.8756 C   0  0  0  0  0  0  0  0  0  0  0  0
   -1.6036    0.6930    1.4977 C   0  0  0  0  0  0  0  0  0  0  0  0
   -1.3993    1.8025    0.7040 C   0  0  0  0  0  0  0  0  0  0  0  0
  -11.8303    6.7749    3.5300 C   0  0  0  0  0  0  0  0  0  0  0  0
  -11.5987    8.2450    3.7802 C   0  0  0  0  0  0  0  0  0  0  0  0
  -11.4130    9.3114    2.9262 C   0  0  0  0  0  0  0  0  0  0  0  0
  -11.2183   10.5824    3.4374 C   0  0  0  0  0  0  0  0  0  0  0  0
  -11.2087   10.7857    4.8056 C   0  0  0  0  0  0  0  0  0  0  0  0
  -11.3933    9.7245    5.6673 C   0  0  0  0  0  0  0  0  0  0  0  0
  -11.5911    8.4396    5.1587 C   0  0  0  0  0  0  0  0  0  0  0  0
  -11.8111    7.1411    5.8423 C   0  0  0  0  0  0  0  0  0  0  0  0
  -11.9562    6.1351    4.8909 C   0  0  0  0  0  0  0  0  0  0  0  0
  -12.1721    4.8315    5.2846 C   0  0  0  0  0  0  0  0  0  0  0  0
  -12.2456    4.5175    6.6302 C   0  0  0  0  0  0  0  0  0  0  0  0
  -12.1026    5.5100    7.5829 C   0  0  0  0  0  0  0  0  0  0  0  0
  -11.8864    6.8169    7.1980 C   0  0  0  0  0  0  0  0  0  0  0  0
   -9.7825    6.3778    0.9179 H   0  0  0  0  0  0  0  0  0  0  0  0
  -11.4674    6.9457    1.0008 H   0  0  0  0  0  0  0  0  0  0  0  0
  -10.1633    7.9204    1.7202 H   0  0  0  0  0  0  0  0  0  0  0  0
  -10.9147    4.2246    3.4844 H   0  0  0  0  0  0  0  0  0  0  0  0
  -11.9236    4.6592    2.0839 H   0  0  0  0  0  0  0  0  0  0  0  0
  -10.1772    4.3878    1.8726 H   0  0  0  0  0  0  0  0  0  0  0  0
   -9.5852    5.7786    4.5408 H   0  0  0  0  0  0  0  0  0  0  0  0
   -9.3102    7.3938    3.8452 H   0  0  0  0  0  0  0  0  0  0  0  0
   -8.1613    6.3625    1.9048 H   0  0  0  0  0  0  0  0  0  0  0  0
   -8.4363    4.7473    2.6004 H   0  0  0  0  0  0  0  0  0  0  0  0
   -7.1186    5.3850    4.6019 H   0  0  0  0  0  0  0  0  0  0  0  0
   -6.8437    7.0002    3.9062 H   0  0  0  0  0  0  0  0  0  0  0  0
   -5.6948    5.9689    1.9658 H   0  0  0  0  0  0  0  0  0  0  0  0
   -5.9698    4.3537    2.6614 H   0  0  0  0  0  0  0  0  0  0  0  0
   -4.6521    4.9914    4.6629 H   0  0  0  0  0  0  0  0  0  0  0  0
   -4.3771    6.6065    3.9673 H   0  0  0  0  0  0  0  0  0  0  0  0
   -3.2283    5.5753    2.0268 H   0  0  0  0  0  0  0  0  0  0  0  0
   -3.5032    3.9601    2.7225 H   0  0  0  0  0  0  0  0  0  0  0  0
   -1.3200    4.3417    5.5263 H   0  0  0  0  0  0  0  0  0  0  0  0
   -2.9915    4.9376    5.6642 H   0  0  0  0  0  0  0  0  0  0  0  0
   -2.6581    3.4125    4.8092 H   0  0  0  0  0  0  0  0  0  0  0  0
   -1.9452    7.1503    3.1328 H   0  0  0  0  0  0  0  0  0  0  0  0
   -2.6554    6.9311    4.7501 H   0  0  0  0  0  0  0  0  0  0  0  0
   -0.9077    6.6980    4.5066 H   0  0  0  0  0  0  0  0  0  0  0  0
   -0.0651    4.7183    3.6103 H   0  0  0  0  0  0  0  0  0  0  0  0
   -0.4906    7.3879    2.1807 H   0  0  0  0  0  0  0  0  0  0  0  0
   -0.3107    8.0873   -0.1737 H   0  0  0  0  0  0  0  0  0  0  0  0
   -0.5599    6.4309   -1.9756 H   0  0  0  0  0  0  0  0  0  0  0  0
   -0.9712    4.0688   -1.4357 H   0  0  0  0  0  0  0  0  0  0  0  0
   -1.4256    2.1427    4.5410 H   0  0  0  0  0  0  0  0  0  0  0  0
   -1.7733   -0.0582    3.4924 H   0  0  0  0  0  0  0  0  0  0  0  0
   -1.7567   -0.2739    1.0415 H   0  0  0  0  0  0  0  0  0  0  0  0
   -1.3929    1.7038   -0.3714 H   0  0  0  0  0  0  0  0  0  0  0  0
  -12.7485    6.6301    2.9608 H   0  0  0  0  0  0  0  0  0  0  0  0
  -11.4198    9.1547    1.8577 H   0  0  0  0  0  0  0  0  0  0  0  0
  -11.0733   11.4168    2.7672 H   0  0  0  0  0  0  0  0  0  0  0  0
  -11.0564   11.7793    5.2007 H   0  0  0  0  0  0  0  0  0  0  0  0
  -11.3855    9.8877    6.7349 H   0  0  0  0  0  0  0  0  0  0  0  0
  -12.2843    4.0551    4.5424 H   0  0  0  0  0  0  0  0  0  0  0  0
  -12.4143    3.4958    6.9371 H   0  0  0  0  0  0  0  0  0  0  0  0
  -12.1609    5.2609    8.6322 H   0  0  0  0  0  0  0  0  0  0  0  0
  -11.7757    7.5889    7.9451 H   0  0  0  0  0  0  0  0  0  0  0  0
  1  2  1  0  0  0  0
  1 39  1  0  0  0  0
  1 40  1  0  0  0  0
  1 41  1  0  0  0  0
  2  3  1  0  0  0  0
  2  4  1  0  0  0  0
  2 26  1  0  0  0  0
  3 42  1  0  0  0  0
  3 43  1  0  0  0  0
  3 44  1  0  0  0  0
  4  5  1  0  0  0  0
  4 45  1  0  0  0  0
  4 46  1  0  0  0  0
  5  6  1  0  0  0  0
  5 47  1  0  0  0  0
  5 48  1  0  0  0  0
  6  7  1  0  0  0  0
  6 49  1  0  0  0  0
  6 50  1  0  0  0  0
  7  8  1  0  0  0  0
  7 51  1  0  0  0  0
  7 52  1  0  0  0  0
  8  9  1  0  0  0  0
  8 53  1  0  0  0  0
  8 54  1  0  0  0  0
  9 10  1  0  0  0  0
  9 55  1  0  0  0  0
  9 56  1  0  0  0  0
 10 11  1  0  0  0  0
 10 12  1  0  0  0  0
 10 13  1  0  0  0  0
 11 57  1  0  0  0  0
 11 58  1  0  0  0  0
 11 59  1  0  0  0  0
 12 60  1  0  0  0  0
 12 61  1  0  0  0  0
 12 62  1  0  0  0  0
 13 21  1  0  0  0  0
 13 14  1  0  0  0  0
 13 63  1  0  0  0  0
 14 19  2  0  0  0  0
 14 15  1  0  0  0  0
 15 16  2  0  0  0  0
 15 64  1  0  0  0  0
 16 17  1  0  0  0  0
 16 65  1  0  0  0  0
 17 18  2  0  0  0  0
 17 66  1  0  0  0  0
 18 19  1  0  0  0  0
 18 67  1  0  0  0  0
 19 20  1  0  0  0  0
 20 25  2  0  0  0  0
 20 21  1  0  0  0  0
 21 22  2  0  0  0  0
 22 23  1  0  0  0  0
 22 68  1  0  0  0  0
 23 24  2  0  0  0  0
 23 69  1  0  0  0  0
 24 25  1  0  0  0  0
 24 70  1  0  0  0  0
 25 71  1  0  0  0  0
 26 34  1  0  0  0  0
 26 27  1  0  0  0  0
 26 72  1  0  0  0  0
 27 32  2  0  0  0  0
 27 28  1  0  0  0  0
 28 29  2  0  0  0  0
 28 73  1  0  0  0  0
 29 30  1  0  0  0  0
 29 74  1  0  0  0  0
 30 31  2  0  0  0  0
 30 75  1  0  0  0  0
 31 32  1  0  0  0  0
 31 76  1  0  0  0  0
 32 33  1  0  0  0  0
 33 38  2  0  0  0  0
 33 34  1  0  0  0  0
 34 35  2  0  0  0  0
 35 36  1  0  0  0  0
 35 77  1  0  0  0  0
 36 37  2  0  0  0  0
 36 78  1  0  0  0  0
 37 38  1  0  0  0  0
 37 79  1  0  0  0  0
 38 80  1  0  0  0  0
M  CHG  2   2   1  10   1
M  END
$$$$
