ZINC08101114
 OpenBabel08292219463D

 81 83  0  0  1  0  0  0  0  0999 V2000
   -7.8374   -0.1530    0.7552 C   0  0  0  0  0  0  0  0  0  0  0  0
   -6.7461   -1.0411    1.3562 C   0  0  1  0  0  0  0  0  0  0  0  0
   -7.1029   -1.4725    2.2915 H   0  0  0  0  0  0  0  0  0  0  0  0
   -6.4040   -2.1637    0.3745 C   0  0  2  0  0  0  0  0  0  0  0  0
   -7.2893   -2.7746    0.1980 H   0  0  0  0  0  0  0  0  0  0  0  0
   -5.2914   -3.0351    0.9631 C   0  0  0  0  0  0  0  0  0  0  0  0
   -4.9130   -4.1197   -0.0502 C   0  0  0  0  0  0  0  0  0  0  0  0
   -4.4949   -3.4521   -1.3639 C   0  0  1  0  0  0  0  0  0  0  0  0
   -4.2769   -4.2178   -2.1084 H   0  0  0  0  0  0  0  0  0  0  0  0
   -5.6383   -2.5645   -1.8626 C   0  0  1  0  0  0  0  0  0  0  0  0
   -6.5135   -3.1807   -2.0686 H   0  0  0  0  0  0  0  0  0  0  0  0
   -5.9613   -1.5980   -0.8608 O   0  0  0  0  0  0  0  0  0  0  0  0
   -5.2348   -1.8948   -3.0587 O   0  0  0  0  0  0  0  0  0  0  0  0
   -6.2555   -1.0833   -3.6431 C   0  0  2  0  0  0  0  0  0  0  0  0
   -6.9309   -0.7314   -2.8633 H   0  0  0  0  0  0  0  0  0  0  0  0
   -7.0414   -1.9088   -4.6639 C   0  0  1  0  0  0  0  0  0  0  0  0
   -7.8200   -1.2898   -5.1097 H   0  0  0  0  0  0  0  0  0  0  0  0
   -6.0934   -2.4028   -5.7586 C   0  0  0  0  0  0  0  0  0  0  0  0
   -5.4526   -1.2025   -6.4582 C   0  0  1  0  0  0  0  0  0  0  0  0
   -6.2312   -0.5835   -6.9039 H   0  0  0  0  0  0  0  0  0  0  0  0
   -4.6668   -0.3770   -5.4374 C   0  0  1  0  0  0  0  0  0  0  0  0
   -4.2103    0.4781   -5.9358 H   0  0  0  0  0  0  0  0  0  0  0  0
   -5.6147    0.1170   -4.3427 C   0  0  2  0  0  0  0  0  0  0  0  0
   -6.3933    0.7360   -4.7885 H   0  0  0  0  0  0  0  0  0  0  0  0
   -4.8808    0.8880   -3.3894 O   0  0  0  0  0  0  0  0  0  0  0  0
   -3.6460   -1.1885   -4.8530 O   0  0  0  0  0  0  0  0  0  0  0  0
   -2.3454   -0.5972   -4.8824 C   0  0  2  0  0  0  0  0  0  0  0  0
   -2.1716   -0.1496   -5.8609 H   0  0  0  0  0  0  0  0  0  0  0  0
   -1.2892   -1.6734   -4.6183 C   0  0  1  0  0  0  0  0  0  0  0  0
   -1.3250   -2.4211   -5.4107 H   0  0  0  0  0  0  0  0  0  0  0  0
    0.0968   -1.0219   -4.5916 C   0  0  1  0  0  0  0  0  0  0  0  0
    0.3149   -0.5885   -5.5678 H   0  0  0  0  0  0  0  0  0  0  0  0
    0.1107    0.0797   -3.5274 C   0  0  1  0  0  0  0  0  0  0  0  0
   -0.9997    1.0883   -3.8335 C   0  0  0  0  0  0  0  0  0  0  0  0
   -2.2579    0.4120   -3.8744 O   0  0  0  0  0  0  0  0  0  0  0  0
   -0.1265   -0.5388   -2.1482 C   0  0  0  0  0  0  0  0  0  0  0  0
    1.3762    0.7432   -3.5432 O   0  0  0  0  0  0  0  0  0  0  0  0
    1.1098   -2.0347   -4.2662 N   0  3  0  0  0  0  0  0  0  0  0  0
    1.1703   -3.0308   -5.3443 C   0  0  0  0  0  0  0  0  0  0  0  0
   -1.5486   -2.2986   -3.3598 O   0  0  0  0  0  0  0  0  0  0  0  0
   -4.5425   -1.6768   -7.5092 N   0  3  0  0  0  0  0  0  0  0  0  0
   -7.6566   -3.0613   -3.9922 N   0  3  0  0  0  0  0  0  0  0  0  0
   -3.2975   -2.6316   -1.1383 N   0  3  0  0  0  0  0  0  0  0  0  0
   -5.5460   -0.2345    1.6153 N   0  3  0  0  0  0  0  0  0  0  0  0
   -5.8419    0.7651    2.6503 C   0  0  0  0  0  0  0  0  0  0  0  0
   -8.1598    0.5783    1.4963 H   0  0  0  0  0  0  0  0  0  0  0  0
   -7.4436    0.3651   -0.1192 H   0  0  0  0  0  0  0  0  0  0  0  0
   -8.6863   -0.7698    0.4602 H   0  0  0  0  0  0  0  0  0  0  0  0
   -4.4196   -2.4170    1.1778 H   0  0  0  0  0  0  0  0  0  0  0  0
   -5.6430   -3.5026    1.8829 H   0  0  0  0  0  0  0  0  0  0  0  0
   -4.0830   -4.7092    0.3395 H   0  0  0  0  0  0  0  0  0  0  0  0
   -5.7709   -4.7683   -0.2276 H   0  0  0  0  0  0  0  0  0  0  0  0
   -5.3148   -3.0218   -5.3128 H   0  0  0  0  0  0  0  0  0  0  0  0
   -6.6533   -2.9909   -6.4858 H   0  0  0  0  0  0  0  0  0  0  0  0
   -4.4467    1.6668   -3.7638 H   0  0  0  0  0  0  0  0  0  0  0  0
   -1.0222    1.8514   -3.0556 H   0  0  0  0  0  0  0  0  0  0  0  0
   -0.8081    1.5580   -4.7983 H   0  0  0  0  0  0  0  0  0  0  0  0
    0.5212   -1.4065   -2.0229 H   0  0  0  0  0  0  0  0  0  0  0  0
    0.0986    0.1971   -1.3763 H   0  0  0  0  0  0  0  0  0  0  0  0
   -1.1683   -0.8478   -2.0629 H   0  0  0  0  0  0  0  0  0  0  0  0
    1.4555    1.4545   -2.8929 H   0  0  0  0  0  0  0  0  0  0  0  0
    2.0104   -1.5904   -4.1680 H   0  0  0  0  0  0  0  0  0  0  0  0
    1.9219   -3.7824   -5.1028 H   0  0  0  0  0  0  0  0  0  0  0  0
    0.1974   -3.5109   -5.4504 H   0  0  0  0  0  0  0  0  0  0  0  0
    1.4363   -2.5383   -6.2795 H   0  0  0  0  0  0  0  0  0  0  0  0
   -2.3594   -2.8254   -3.3420 H   0  0  0  0  0  0  0  0  0  0  0  0
   -5.0607   -2.2212   -8.1824 H   0  0  0  0  0  0  0  0  0  0  0  0
   -4.1199   -0.8852   -7.9706 H   0  0  0  0  0  0  0  0  0  0  0  0
   -8.1995   -2.7410   -3.2043 H   0  0  0  0  0  0  0  0  0  0  0  0
   -8.2587   -3.5464   -4.6405 H   0  0  0  0  0  0  0  0  0  0  0  0
   -2.5268   -3.2269   -0.8741 H   0  0  0  0  0  0  0  0  0  0  0  0
   -3.0646   -2.1363   -1.9859 H   0  0  0  0  0  0  0  0  0  0  0  0
   -4.7991   -0.8348    1.9313 H   0  0  0  0  0  0  0  0  0  0  0  0
   -6.6488    1.4136    2.3089 H   0  0  0  0  0  0  0  0  0  0  0  0
   -6.1451    0.2599    3.5673 H   0  0  0  0  0  0  0  0  0  0  0  0
   -4.9514    1.3636    2.8425 H   0  0  0  0  0  0  0  0  0  0  0  0
   -5.2653    0.2331    0.7665 H   0  0  0  0  0  0  0  0  0  0  0  0
   -3.8217   -2.2498   -7.0966 H   0  0  0  0  0  0  0  0  0  0  0  0
   -3.4785   -1.9682   -0.3999 H   0  0  0  0  0  0  0  0  0  0  0  0
    0.8636   -2.4907   -3.4005 H   0  0  0  0  0  0  0  0  0  0  0  0
   -6.9343   -3.6881   -3.6705 H   0  0  0  0  0  0  0  0  0  0  0  0
  1  2  1  0  0  0  0
  1 46  1  0  0  0  0
  1 47  1  0  0  0  0
  1 48  1  0  0  0  0
  2  3  1  1  0  0  0
  2  4  1  0  0  0  0
  2 44  1  0  0  0  0
  4  5  1  6  0  0  0
  4 12  1  0  0  0  0
  4  6  1  0  0  0  0
  6  7  1  0  0  0  0
  6 49  1  0  0  0  0
  6 50  1  0  0  0  0
  7  8  1  0  0  0  0
  7 51  1  0  0  0  0
  7 52  1  0  0  0  0
  8  9  1  6  0  0  0
  8 10  1  0  0  0  0
  8 43  1  0  0  0  0
 10 11  1  6  0  0  0
 10 12  1  0  0  0  0
 10 13  1  0  0  0  0
 13 14  1  0  0  0  0
 14 15  1  1  0  0  0
 14 23  1  0  0  0  0
 14 16  1  0  0  0  0
 16 17  1  6  0  0  0
 16 18  1  0  0  0  0
 16 42  1  0  0  0  0
 18 19  1  0  0  0  0
 18 53  1  0  0  0  0
 18 54  1  0  0  0  0
 19 20  1  6  0  0  0
 19 21  1  0  0  0  0
 19 41  1  0  0  0  0
 21 22  1  6  0  0  0
 21 23  1  0  0  0  0
 21 26  1  0  0  0  0
 23 24  1  6  0  0  0
 23 25  1  0  0  0  0
 25 55  1  0  0  0  0
 26 27  1  0  0  0  0
 27 28  1  6  0  0  0
 27 35  1  0  0  0  0
 27 29  1  0  0  0  0
 29 30  1  6  0  0  0
 29 31  1  0  0  0  0
 29 40  1  0  0  0  0
 31 32  1  6  0  0  0
 31 33  1  0  0  0  0
 31 38  1  0  0  0  0
 33 34  1  0  0  0  0
 33 36  1  0  0  0  0
 33 37  1  6  0  0  0
 34 35  1  0  0  0  0
 34 56  1  0  0  0  0
 34 57  1  0  0  0  0
 36 58  1  0  0  0  0
 36 59  1  0  0  0  0
 36 60  1  0  0  0  0
 37 61  1  0  0  0  0
 38 39  1  0  0  0  0
 38 62  1  0  0  0  0
 38 80  1  0  0  0  0
 39 63  1  0  0  0  0
 39 64  1  0  0  0  0
 39 65  1  0  0  0  0
 40 66  1  0  0  0  0
 41 67  1  0  0  0  0
 41 68  1  0  0  0  0
 41 78  1  0  0  0  0
 42 69  1  0  0  0  0
 42 70  1  0  0  0  0
 42 81  1  0  0  0  0
 43 71  1  0  0  0  0
 43 72  1  0  0  0  0
 43 79  1  0  0  0  0
 44 45  1  0  0  0  0
 44 73  1  0  0  0  0
 44 77  1  0  0  0  0
 45 74  1  0  0  0  0
 45 75  1  0  0  0  0
 45 76  1  0  0  0  0
M  CHG  5  38   1  41   1  42   1  43   1  44   1
M  END
$$$$
