ZINC53164616
 OpenBabel08292219463D

 69 71  0  0  1  0  0  0  0  0999 V2000
   13.4888   -4.7364   -5.9640 C   0  0  0  0  0  0  0  0  0  0  0  0
   11.9605   -4.7865   -6.0168 C   0  0  0  0  0  0  0  0  0  0  0  0
   11.4984   -5.9534   -5.3335 O   0  0  0  0  0  0  0  0  0  0  0  0
   10.1709   -6.1472   -5.2880 C   0  0  0  0  0  0  0  0  0  0  0  0
    9.4260   -5.3526   -5.8111 O   0  0  0  0  0  0  0  0  0  0  0  0
    9.6096   -7.3561   -4.5846 C   0  0  2  0  0  0  0  0  0  0  0  0
    9.9092   -7.3383   -3.5367 H   0  0  0  0  0  0  0  0  0  0  0  0
   10.1463   -8.6265   -5.2470 C   0  0  0  0  0  0  0  0  0  0  0  0
    9.6773   -9.8504   -4.4577 C   0  0  0  0  0  0  0  0  0  0  0  0
   10.2059  -11.1018   -5.1101 C   0  0  0  0  0  0  0  0  0  0  0  0
    9.4671  -11.7338   -6.0928 C   0  0  0  0  0  0  0  0  0  0  0  0
    9.9520  -12.8816   -6.6913 C   0  0  0  0  0  0  0  0  0  0  0  0
   11.1758  -13.3972   -6.3074 C   0  0  0  0  0  0  0  0  0  0  0  0
   11.9150  -12.7647   -5.3254 C   0  0  0  0  0  0  0  0  0  0  0  0
   11.4321  -11.6144   -4.7299 C   0  0  0  0  0  0  0  0  0  0  0  0
    8.1435   -7.3384   -4.6751 N   0  0  0  0  0  0  0  0  0  0  0  0
    7.5597   -6.5216   -3.6028 C   0  0  1  0  0  0  0  0  0  0  0  0
    8.1596   -6.6261   -2.6988 H   0  0  0  0  0  0  0  0  0  0  0  0
    7.5384   -5.0538   -4.0339 C   0  0  0  0  0  0  0  0  0  0  0  0
    6.1522   -6.9849   -3.3281 C   0  0  0  0  0  0  0  0  0  0  0  0
    5.4015   -7.2237   -4.2502 O   0  0  0  0  0  0  0  0  0  0  0  0
    5.7277   -7.1340   -2.0576 N   0  0  0  0  0  0  0  0  0  0  0  0
    6.5651   -6.7342   -0.9218 C   0  0  0  0  0  0  0  0  0  0  0  0
    5.7300   -5.9858    0.0870 C   0  0  0  0  0  0  0  0  0  0  0  0
    6.3946   -5.3201    1.1088 C   0  0  0  0  0  0  0  0  0  0  0  0
    5.6864   -4.6246    2.0712 C   0  0  0  0  0  0  0  0  0  0  0  0
    4.2959   -4.5943    2.0128 C   0  0  0  0  0  0  0  0  0  0  0  0
    3.6396   -5.2547    0.9915 C   0  0  0  0  0  0  0  0  0  0  0  0
    4.3551   -5.9482    0.0220 C   0  0  0  0  0  0  0  0  0  0  0  0
    3.5706   -6.6200   -1.0744 C   0  0  0  0  0  0  0  0  0  0  0  0
    4.4023   -7.6989   -1.7545 C   0  0  1  0  0  0  0  0  0  0  0  0
    4.5098   -8.5541   -1.0872 H   0  0  0  0  0  0  0  0  0  0  0  0
    3.7272   -8.1289   -3.0313 C   0  0  0  0  0  0  0  0  0  0  0  0
    4.1722   -9.0672   -3.6701 O   0  0  0  0  0  0  0  0  0  0  0  0
    2.7360   -7.5385   -3.4255 O   0  0  0  0  0  1  0  0  0  0  0  0
    3.5869   -3.9187    2.9563 O   0  0  0  0  0  0  0  0  0  0  0  0
    2.1634   -3.9320    2.8312 C   0  0  0  0  0  0  0  0  0  0  0  0
    6.3439   -3.9747    3.0686 O   0  0  0  0  0  0  0  0  0  0  0  0
    7.7708   -4.0515    3.0626 C   0  0  0  0  0  0  0  0  0  0  0  0
   13.8155   -4.7021   -4.9247 H   0  0  0  0  0  0  0  0  0  0  0  0
   13.8983   -5.6249   -6.4445 H   0  0  0  0  0  0  0  0  0  0  0  0
   13.8413   -3.8463   -6.4853 H   0  0  0  0  0  0  0  0  0  0  0  0
   11.5510   -3.8980   -5.5363 H   0  0  0  0  0  0  0  0  0  0  0  0
   11.6338   -4.8208   -7.0561 H   0  0  0  0  0  0  0  0  0  0  0  0
    9.7732   -8.6887   -6.2693 H   0  0  0  0  0  0  0  0  0  0  0  0
   11.2358   -8.5976   -5.2590 H   0  0  0  0  0  0  0  0  0  0  0  0
   10.0504   -9.7882   -3.4354 H   0  0  0  0  0  0  0  0  0  0  0  0
    8.5877   -9.8793   -4.4456 H   0  0  0  0  0  0  0  0  0  0  0  0
    8.5110  -11.3310   -6.3927 H   0  0  0  0  0  0  0  0  0  0  0  0
    9.3745  -13.3758   -7.4586 H   0  0  0  0  0  0  0  0  0  0  0  0
   11.5543  -14.2944   -6.7745 H   0  0  0  0  0  0  0  0  0  0  0  0
   12.8709  -13.1677   -5.0252 H   0  0  0  0  0  0  0  0  0  0  0  0
   12.0112  -11.1182   -3.9653 H   0  0  0  0  0  0  0  0  0  0  0  0
    7.8411   -7.0148   -5.5817 H   0  0  0  0  0  0  0  0  0  0  0  0
    6.9717   -4.4702   -3.3083 H   0  0  0  0  0  0  0  0  0  0  0  0
    8.5594   -4.6757   -4.0864 H   0  0  0  0  0  0  0  0  0  0  0  0
    7.0689   -4.9697   -5.0140 H   0  0  0  0  0  0  0  0  0  0  0  0
    6.9895   -7.6225   -0.4537 H   0  0  0  0  0  0  0  0  0  0  0  0
    7.3712   -6.0907   -1.2742 H   0  0  0  0  0  0  0  0  0  0  0  0
    7.4734   -5.3462    1.1522 H   0  0  0  0  0  0  0  0  0  0  0  0
    2.5608   -5.2319    0.9461 H   0  0  0  0  0  0  0  0  0  0  0  0
    2.6742   -7.0713   -0.6489 H   0  0  0  0  0  0  0  0  0  0  0  0
    3.2791   -5.8751   -1.8148 H   0  0  0  0  0  0  0  0  0  0  0  0
    1.7217   -3.3575    3.6455 H   0  0  0  0  0  0  0  0  0  0  0  0
    1.8784   -3.4885    1.8772 H   0  0  0  0  0  0  0  0  0  0  0  0
    1.8044   -4.9602    2.8756 H   0  0  0  0  0  0  0  0  0  0  0  0
    8.0789   -5.0942    3.1396 H   0  0  0  0  0  0  0  0  0  0  0  0
    8.1536   -3.6272    2.1345 H   0  0  0  0  0  0  0  0  0  0  0  0
    8.1684   -3.4917    3.9092 H   0  0  0  0  0  0  0  0  0  0  0  0
  1  2  1  0  0  0  0
  1 40  1  0  0  0  0
  1 41  1  0  0  0  0
  1 42  1  0  0  0  0
  2  3  1  0  0  0  0
  2 43  1  0  0  0  0
  2 44  1  0  0  0  0
  3  4  1  0  0  0  0
  4  5  2  0  0  0  0
  4  6  1  0  0  0  0
  6  7  1  1  0  0  0
  6  8  1  0  0  0  0
  6 16  1  0  0  0  0
  8  9  1  0  0  0  0
  8 45  1  0  0  0  0
  8 46  1  0  0  0  0
  9 10  1  0  0  0  0
  9 47  1  0  0  0  0
  9 48  1  0  0  0  0
 10 15  2  0  0  0  0
 10 11  1  0  0  0  0
 11 12  2  0  0  0  0
 11 49  1  0  0  0  0
 12 13  1  0  0  0  0
 12 50  1  0  0  0  0
 13 14  2  0  0  0  0
 13 51  1  0  0  0  0
 14 15  1  0  0  0  0
 14 52  1  0  0  0  0
 15 53  1  0  0  0  0
 16 17  1  0  0  0  0
 16 54  1  0  0  0  0
 17 18  1  1  0  0  0
 17 19  1  0  0  0  0
 17 20  1  0  0  0  0
 19 55  1  0  0  0  0
 19 56  1  0  0  0  0
 19 57  1  0  0  0  0
 20 21  2  0  0  0  0
 20 22  1  0  0  0  0
 22 31  1  0  0  0  0
 22 23  1  0  0  0  0
 23 24  1  0  0  0  0
 23 58  1  0  0  0  0
 23 59  1  0  0  0  0
 24 29  2  0  0  0  0
 24 25  1  0  0  0  0
 25 26  2  0  0  0  0
 25 60  1  0  0  0  0
 26 27  1  0  0  0  0
 26 38  1  0  0  0  0
 27 28  2  0  0  0  0
 27 36  1  0  0  0  0
 28 29  1  0  0  0  0
 28 61  1  0  0  0  0
 29 30  1  0  0  0  0
 30 31  1  0  0  0  0
 30 62  1  0  0  0  0
 30 63  1  0  0  0  0
 31 32  1  1  0  0  0
 31 33  1  0  0  0  0
 33 34  2  0  0  0  0
 33 35  1  0  0  0  0
 36 37  1  0  0  0  0
 37 64  1  0  0  0  0
 37 65  1  0  0  0  0
 37 66  1  0  0  0  0
 38 39  1  0  0  0  0
 39 67  1  0  0  0  0
 39 68  1  0  0  0  0
 39 69  1  0  0  0  0
M  END
$$$$
