ZINC49783788
 OpenBabel08292219463D

 87 91  0  0  1  0  0  0  0  0999 V2000
    1.4929   -0.8384   -3.6943 C   0  0  0  0  0  0  0  0  0  0  0  0
    1.1145   -1.7011   -2.4886 C   0  0  0  0  0  0  0  0  0  0  0  0
   -0.2915   -2.2700   -2.6898 C   0  0  0  0  0  0  0  0  0  0  0  0
   -0.6699   -3.1327   -1.4842 C   0  0  0  0  0  0  0  0  0  0  0  0
   -2.0548   -3.6930   -1.6823 C   0  0  0  0  0  0  0  0  0  0  0  0
   -2.6754   -3.4294   -2.6849 O   0  0  0  0  0  0  0  0  0  0  0  0
   -2.5988   -4.4850   -0.7449 O   0  0  0  0  0  0  0  0  0  0  0  0
   -3.9148   -4.9807   -0.9985 C   0  0  0  0  0  0  0  0  0  0  0  0
   -4.3570   -5.8446    0.1544 C   0  0  0  0  0  0  0  0  0  0  0  0
   -3.6211   -6.0179    1.0960 O   0  0  0  0  0  0  0  0  0  0  0  0
   -5.7176   -6.4923    0.1322 C   0  0  2  0  0  0  0  0  0  0  0  0
   -6.1596   -6.8099    1.5589 C   0  0  0  0  0  0  0  0  0  0  0  0
   -5.3094   -7.9063    2.1475 C   0  0  0  0  0  0  0  0  0  0  0  0
   -4.5443   -8.7429    1.3745 C   0  0  0  0  0  0  0  0  0  0  0  0
   -3.7793   -9.7510    1.9760 C   0  0  0  0  0  0  0  0  0  0  0  0
   -3.7823   -9.9118    3.3598 C   0  0  0  0  0  0  0  0  0  0  0  0
   -4.5644   -9.0497    4.1546 C   0  0  0  0  0  0  0  0  0  0  0  0
   -5.3221   -8.0538    3.5408 C   0  0  0  0  0  0  0  0  0  0  0  0
   -6.0778   -7.2207    4.2984 O   0  0  0  0  0  0  0  0  0  0  0  0
   -4.5769   -9.2054    5.6192 C   0  0  0  0  0  0  0  0  0  0  0  0
   -5.2512   -8.4617    6.3052 O   0  0  0  0  0  0  0  0  0  0  0  0
   -3.7685  -10.2678    6.2530 C   0  0  0  0  0  0  0  0  0  0  0  0
   -3.7742  -10.4233    7.6353 C   0  0  0  0  0  0  0  0  0  0  0  0
   -3.0147  -11.4208    8.2244 C   0  0  0  0  0  0  0  0  0  0  0  0
   -2.2473  -12.2677    7.4508 C   0  0  0  0  0  0  0  0  0  0  0  0
   -2.2269  -12.1303    6.0663 C   0  0  0  0  0  0  0  0  0  0  0  0
   -2.9887  -11.1279    5.4579 C   0  0  0  0  0  0  0  0  0  0  0  0
   -2.9768  -10.9714    3.9922 C   0  0  0  0  0  0  0  0  0  0  0  0
   -2.3033  -11.7159    3.3057 O   0  0  0  0  0  0  0  0  0  0  0  0
   -1.4711  -12.9646    5.3103 O   0  0  0  0  0  0  0  0  0  0  0  0
   -0.7191  -13.9640    6.0015 C   0  0  0  0  0  0  0  0  0  0  0  0
   -3.0300  -10.5773    1.2046 O   0  0  0  0  0  0  0  0  0  0  0  0
   -4.4766   -8.6247   -0.1266 C   0  0  2  0  0  0  0  0  0  0  0  0
   -3.5433   -8.1362   -0.4067 H   0  0  0  0  0  0  0  0  0  0  0  0
   -5.6517   -7.8059   -0.6559 C   0  0  0  0  0  0  0  0  0  0  0  0
   -4.5159   -9.9313   -0.7040 O   0  0  0  0  0  0  0  0  0  0  0  0
   -3.7225  -10.0691   -1.8845 C   0  0  1  0  0  0  0  0  0  0  0  0
   -2.7380   -9.6336   -1.7137 H   0  0  0  0  0  0  0  0  0  0  0  0
   -3.5716  -11.5534   -2.2278 C   0  0  0  0  0  0  0  0  0  0  0  0
   -4.9534  -12.1437   -2.5250 C   0  0  1  0  0  0  0  0  0  0  0  0
   -5.5764  -12.0808   -1.6328 H   0  0  0  0  0  0  0  0  0  0  0  0
   -5.6032  -11.3475   -3.6608 C   0  0  1  0  0  0  0  0  0  0  0  0
   -6.6093  -11.7257   -3.8417 H   0  0  0  0  0  0  0  0  0  0  0  0
   -5.6756   -9.8712   -3.2622 C   0  0  1  0  0  0  0  0  0  0  0  0
   -6.3064   -9.7634   -2.3798 H   0  0  0  0  0  0  0  0  0  0  0  0
   -4.3609   -9.3929   -2.9695 O   0  0  0  0  0  0  0  0  0  0  0  0
   -6.2689   -9.0597   -4.4156 C   0  0  0  0  0  0  0  0  0  0  0  0
   -4.8207  -11.4848   -4.8487 O   0  0  0  0  0  0  0  0  0  0  0  0
   -4.8115  -13.5457   -2.9257 N   0  0  0  0  0  0  0  0  0  0  0  0
   -4.7444  -14.5112   -1.9877 C   0  0  0  0  0  0  0  0  0  0  0  0
   -4.8015  -14.2193   -0.8119 O   0  0  0  0  0  0  0  0  0  0  0  0
   -4.5985  -15.9534   -2.3999 C   0  0  0  0  0  0  0  0  0  0  0  0
   -4.5512  -16.7619   -1.2591 F   0  0  0  0  0  0  0  0  0  0  0  0
   -5.6913  -16.3254   -3.1902 F   0  0  0  0  0  0  0  0  0  0  0  0
   -3.4174  -16.1116   -3.1329 F   0  0  0  0  0  0  0  0  0  0  0  0
   -6.6607   -5.6103   -0.4799 O   0  0  0  0  0  0  0  0  0  0  0  0
    2.4945   -0.4332   -3.5510 H   0  0  0  0  0  0  0  0  0  0  0  0
    1.4734   -1.4480   -4.5976 H   0  0  0  0  0  0  0  0  0  0  0  0
    0.7803   -0.0196   -3.7931 H   0  0  0  0  0  0  0  0  0  0  0  0
    1.8270   -2.5200   -2.3898 H   0  0  0  0  0  0  0  0  0  0  0  0
    1.1339   -1.0915   -1.5852 H   0  0  0  0  0  0  0  0  0  0  0  0
   -1.0041   -1.4511   -2.7886 H   0  0  0  0  0  0  0  0  0  0  0  0
   -0.3110   -2.8796   -3.5932 H   0  0  0  0  0  0  0  0  0  0  0  0
    0.0427   -3.9516   -1.3854 H   0  0  0  0  0  0  0  0  0  0  0  0
   -0.6504   -2.5231   -0.5808 H   0  0  0  0  0  0  0  0  0  0  0  0
   -4.6034   -4.1431   -1.1099 H   0  0  0  0  0  0  0  0  0  0  0  0
   -3.9103   -5.5715   -1.9145 H   0  0  0  0  0  0  0  0  0  0  0  0
   -6.0651   -5.9137    2.1721 H   0  0  0  0  0  0  0  0  0  0  0  0
   -7.2017   -7.1294    1.5492 H   0  0  0  0  0  0  0  0  0  0  0  0
   -6.9782   -7.5376    4.4528 H   0  0  0  0  0  0  0  0  0  0  0  0
   -4.3711   -9.7656    8.2498 H   0  0  0  0  0  0  0  0  0  0  0  0
   -3.0228  -11.5365    9.2982 H   0  0  0  0  0  0  0  0  0  0  0  0
   -1.6592  -13.0410    7.9225 H   0  0  0  0  0  0  0  0  0  0  0  0
   -0.0248  -13.4841    6.6912 H   0  0  0  0  0  0  0  0  0  0  0  0
   -1.3982  -14.6087    6.5594 H   0  0  0  0  0  0  0  0  0  0  0  0
   -0.1606  -14.5616    5.2809 H   0  0  0  0  0  0  0  0  0  0  0  0
   -2.1094  -10.2976    1.1077 H   0  0  0  0  0  0  0  0  0  0  0  0
   -6.5786   -8.3630   -0.5195 H   0  0  0  0  0  0  0  0  0  0  0  0
   -5.5033   -7.5922   -1.7144 H   0  0  0  0  0  0  0  0  0  0  0  0
   -2.9331  -11.6614   -3.1046 H   0  0  0  0  0  0  0  0  0  0  0  0
   -3.1248  -12.0789   -1.3838 H   0  0  0  0  0  0  0  0  0  0  0  0
   -7.2712   -9.4252   -4.6392 H   0  0  0  0  0  0  0  0  0  0  0  0
   -6.3204   -8.0086   -4.1316 H   0  0  0  0  0  0  0  0  0  0  0  0
   -5.6378   -9.1672   -5.2978 H   0  0  0  0  0  0  0  0  0  0  0  0
   -5.1744  -11.0053   -5.6103 H   0  0  0  0  0  0  0  0  0  0  0  0
   -4.7659  -13.7791   -3.8661 H   0  0  0  0  0  0  0  0  0  0  0  0
   -6.7580   -4.7620   -0.0259 H   0  0  0  0  0  0  0  0  0  0  0  0
  1  2  1  0  0  0  0
  1 57  1  0  0  0  0
  1 58  1  0  0  0  0
  1 59  1  0  0  0  0
  2  3  1  0  0  0  0
  2 60  1  0  0  0  0
  2 61  1  0  0  0  0
  3  4  1  0  0  0  0
  3 62  1  0  0  0  0
  3 63  1  0  0  0  0
  4  5  1  0  0  0  0
  4 64  1  0  0  0  0
  4 65  1  0  0  0  0
  5  6  2  0  0  0  0
  5  7  1  0  0  0  0
  7  8  1  0  0  0  0
  8  9  1  0  0  0  0
  8 66  1  0  0  0  0
  8 67  1  0  0  0  0
  9 10  2  0  0  0  0
 11  9  1  1  0  0  0
 11 35  1  0  0  0  0
 11 12  1  0  0  0  0
 11 56  1  0  0  0  0
 12 13  1  0  0  0  0
 12 68  1  0  0  0  0
 12 69  1  0  0  0  0
 13 18  2  0  0  0  0
 13 14  1  0  0  0  0
 14 15  2  0  0  0  0
 14 33  1  0  0  0  0
 15 16  1  0  0  0  0
 15 32  1  0  0  0  0
 16 28  1  0  0  0  0
 16 17  2  0  0  0  0
 17 18  1  0  0  0  0
 17 20  1  0  0  0  0
 18 19  1  0  0  0  0
 19 70  1  0  0  0  0
 20 21  2  0  0  0  0
 20 22  1  0  0  0  0
 22 27  2  0  0  0  0
 22 23  1  0  0  0  0
 23 24  2  0  0  0  0
 23 71  1  0  0  0  0
 24 25  1  0  0  0  0
 24 72  1  0  0  0  0
 25 26  2  0  0  0  0
 25 73  1  0  0  0  0
 26 27  1  0  0  0  0
 26 30  1  0  0  0  0
 27 28  1  0  0  0  0
 28 29  2  0  0  0  0
 30 31  1  0  0  0  0
 31 74  1  0  0  0  0
 31 75  1  0  0  0  0
 31 76  1  0  0  0  0
 32 77  1  0  0  0  0
 33 34  1  6  0  0  0
 33 35  1  0  0  0  0
 33 36  1  0  0  0  0
 35 78  1  0  0  0  0
 35 79  1  0  0  0  0
 36 37  1  0  0  0  0
 37 38  1  1  0  0  0
 37 46  1  0  0  0  0
 37 39  1  0  0  0  0
 39 40  1  0  0  0  0
 39 80  1  0  0  0  0
 39 81  1  0  0  0  0
 40 41  1  1  0  0  0
 40 42  1  0  0  0  0
 40 49  1  0  0  0  0
 42 43  1  6  0  0  0
 42 44  1  0  0  0  0
 42 48  1  0  0  0  0
 44 45  1  1  0  0  0
 44 46  1  0  0  0  0
 44 47  1  0  0  0  0
 47 82  1  0  0  0  0
 47 83  1  0  0  0  0
 47 84  1  0  0  0  0
 48 85  1  0  0  0  0
 49 50  1  0  0  0  0
 49 86  1  0  0  0  0
 50 51  2  0  0  0  0
 50 52  1  0  0  0  0
 52 53  1  0  0  0  0
 52 54  1  0  0  0  0
 52 55  1  0  0  0  0
 56 87  1  0  0  0  0
M  END
$$$$
