ZINC01530649
 OpenBabel08292219463D

 18 18  0  0  0  0  0  0  0  0999 V2000
   -0.0167    1.3783    0.0096 C   0  0  0  0  0  0  0  0  0  0  0  0
    1.1753    2.0872    0.0020 C   0  0  0  0  0  0  0  0  0  0  0  0
    2.3852    1.4070   -0.0132 C   0  0  0  0  0  0  0  0  0  0  0  0
    2.4001    0.0244   -0.0207 C   0  0  0  0  0  0  0  0  0  0  0  0
    1.2102   -0.6809   -0.0136 C   0  0  0  0  0  0  0  0  0  0  0  0
    0.0021   -0.0041    0.0020 C   0  0  0  0  0  0  0  0  0  0  0  0
   -1.4897   -0.8919    0.0121 Cl  0  0  0  0  0  0  0  0  0  0  0  0
    1.2313   -2.4168   -0.0237 Cl  0  0  0  0  0  0  0  0  0  0  0  0
    3.8789    2.2916   -0.0232 Cl  0  0  0  0  0  0  0  0  0  0  0  0
    1.1589    3.4465    0.0091 O   0  0  0  0  0  0  0  0  0  0  0  0
   -0.1221    4.0797    0.0242 C   0  0  0  0  0  0  0  0  0  0  0  0
    0.0530    5.5412    0.0300 C   0  0  0  0  0  0  0  0  0  0  0  0
    0.1927    6.7069    0.0345 C   0  0  0  0  0  0  0  0  0  0  0  0
    0.4426    8.7919    0.0427 I   0  0  0  0  0  0  0  0  0  0  0  0
   -0.9589    1.9059    0.0260 H   0  0  0  0  0  0  0  0  0  0  0  0
    3.3413   -0.5051   -0.0326 H   0  0  0  0  0  0  0  0  0  0  0  0
   -0.6838    3.7845   -0.8620 H   0  0  0  0  0  0  0  0  0  0  0  0
   -0.6672    3.7756    0.9178 H   0  0  0  0  0  0  0  0  0  0  0  0
  1  6  2  0  0  0  0
  1  2  1  0  0  0  0
  1 15  1  0  0  0  0
  2  3  2  0  0  0  0
  2 10  1  0  0  0  0
  3  4  1  0  0  0  0
  3  9  1  0  0  0  0
  4  5  2  0  0  0  0
  4 16  1  0  0  0  0
  5  6  1  0  0  0  0
  5  8  1  0  0  0  0
  6  7  1  0  0  0  0
 10 11  1  0  0  0  0
 11 12  1  0  0  0  0
 11 17  1  0  0  0  0
 11 18  1  0  0  0  0
 12 13  3  0  0  0  0
 13 14  1  0  0  0  0
M  END
$$$$
