ZINC01530688
 OpenBabel08292219463D

 45 48  0  0  1  0  0  0  0  0999 V2000
   -4.7096    1.3430    2.2454 C   0  0  0  0  0  0  0  0  0  0  0  0
   -4.6828   -0.1254    2.2123 N   0  3  0  0  0  0  0  0  0  0  0  0
   -3.7697   -0.5747    1.1528 C   0  0  0  0  0  0  0  0  0  0  0  0
   -3.7417   -2.1040    1.1183 C   0  0  0  0  0  0  0  0  0  0  0  0
   -2.7907   -2.5720    0.0149 C   0  0  0  0  0  0  0  0  0  0  0  0
   -2.6597   -4.0954    0.0667 C   0  0  1  0  0  0  0  0  0  0  0  0
   -4.0215   -4.8232    0.0106 C   0  0  0  0  0  0  0  0  0  0  0  0
   -3.8423   -6.3391    0.0533 C   0  0  0  0  0  0  0  0  0  0  0  0
   -2.3488   -6.7253    0.1407 C   0  0  1  0  0  0  0  0  0  0  0  0
   -1.6882   -6.0486   -1.0501 C   0  0  0  0  0  0  0  0  0  0  0  0
   -1.8517   -4.6645   -1.0890 C   0  0  0  0  0  0  0  0  0  0  0  0
   -1.3264   -3.9281   -2.1114 C   0  0  0  0  0  0  0  0  0  0  0  0
   -0.6062   -4.5800   -3.1047 C   0  0  0  0  0  0  0  0  0  0  0  0
   -0.4268   -5.9496   -3.0553 C   0  0  0  0  0  0  0  0  0  0  0  0
   -0.9845   -6.6958   -2.0246 C   0  0  0  0  0  0  0  0  0  0  0  0
   -1.8144   -5.9955    1.3627 C   0  0  0  0  0  0  0  0  0  0  0  0
   -1.9635   -4.5918    1.3239 C   0  0  0  0  0  0  0  0  0  0  0  0
   -1.5329   -3.7937    2.3445 C   0  0  0  0  0  0  0  0  0  0  0  0
   -0.9095   -4.3826    3.4374 C   0  0  0  0  0  0  0  0  0  0  0  0
   -0.7301   -5.7522    3.4874 C   0  0  0  0  0  0  0  0  0  0  0  0
   -1.2169   -6.5979    2.4324 C   0  0  0  0  0  0  0  0  0  0  0  0
   -5.3871    1.6763    3.0315 H   0  0  0  0  0  0  0  0  0  0  0  0
   -3.7068    1.7202    2.4459 H   0  0  0  0  0  0  0  0  0  0  0  0
   -5.0547    1.7219    1.2835 H   0  0  0  0  0  0  0  0  0  0  0  0
   -4.3633   -0.4762    3.1027 H   0  0  0  0  0  0  0  0  0  0  0  0
   -4.1148   -0.1957    0.1909 H   0  0  0  0  0  0  0  0  0  0  0  0
   -2.7669   -0.1974    1.3534 H   0  0  0  0  0  0  0  0  0  0  0  0
   -3.3966   -2.4829    2.0803 H   0  0  0  0  0  0  0  0  0  0  0  0
   -4.7445   -2.4813    0.9178 H   0  0  0  0  0  0  0  0  0  0  0  0
   -3.1863   -2.2741   -0.9562 H   0  0  0  0  0  0  0  0  0  0  0  0
   -1.8110   -2.1178    0.1629 H   0  0  0  0  0  0  0  0  0  0  0  0
   -4.6281   -4.5114    0.8609 H   0  0  0  0  0  0  0  0  0  0  0  0
   -4.5344   -4.5501   -0.9116 H   0  0  0  0  0  0  0  0  0  0  0  0
   -4.3652   -6.7360    0.9235 H   0  0  0  0  0  0  0  0  0  0  0  0
   -4.2715   -6.7748   -0.8490 H   0  0  0  0  0  0  0  0  0  0  0  0
   -2.1865   -7.8028    0.1645 H   0  0  0  0  0  0  0  0  0  0  0  0
   -1.4684   -2.8581   -2.1478 H   0  0  0  0  0  0  0  0  0  0  0  0
   -0.1840   -4.0128   -3.9210 H   0  0  0  0  0  0  0  0  0  0  0  0
    0.1348   -6.4454   -3.8333 H   0  0  0  0  0  0  0  0  0  0  0  0
   -0.8596   -7.7681   -1.9924 H   0  0  0  0  0  0  0  0  0  0  0  0
   -1.6741   -2.7238    2.3027 H   0  0  0  0  0  0  0  0  0  0  0  0
   -0.5623   -3.7660    4.2534 H   0  0  0  0  0  0  0  0  0  0  0  0
   -0.2442   -6.1987    4.3423 H   0  0  0  0  0  0  0  0  0  0  0  0
   -1.0918   -7.6703    2.4602 H   0  0  0  0  0  0  0  0  0  0  0  0
   -5.6110   -0.4746    2.0266 H   0  0  0  0  0  0  0  0  0  0  0  0
  1  2  1  0  0  0  0
  1 22  1  0  0  0  0
  1 23  1  0  0  0  0
  1 24  1  0  0  0  0
  2  3  1  0  0  0  0
  2 25  1  0  0  0  0
  2 45  1  0  0  0  0
  3  4  1  0  0  0  0
  3 26  1  0  0  0  0
  3 27  1  0  0  0  0
  4  5  1  0  0  0  0
  4 28  1  0  0  0  0
  4 29  1  0  0  0  0
  5 30  1  0  0  0  0
  5 31  1  0  0  0  0
  6  5  1  6  0  0  0
  6 11  1  0  0  0  0
  6 17  1  0  0  0  0
  6  7  1  0  0  0  0
  7  8  1  0  0  0  0
  7 32  1  0  0  0  0
  7 33  1  0  0  0  0
  8  9  1  0  0  0  0
  8 34  1  0  0  0  0
  8 35  1  0  0  0  0
  9 10  1  0  0  0  0
  9 16  1  0  0  0  0
  9 36  1  1  0  0  0
 10 15  2  0  0  0  0
 10 11  1  0  0  0  0
 11 12  2  0  0  0  0
 12 13  1  0  0  0  0
 12 37  1  0  0  0  0
 13 14  2  0  0  0  0
 13 38  1  0  0  0  0
 14 15  1  0  0  0  0
 14 39  1  0  0  0  0
 15 40  1  0  0  0  0
 16 21  2  0  0  0  0
 16 17  1  0  0  0  0
 17 18  2  0  0  0  0
 18 19  1  0  0  0  0
 18 41  1  0  0  0  0
 19 20  2  0  0  0  0
 19 42  1  0  0  0  0
 20 21  1  0  0  0  0
 20 43  1  0  0  0  0
 21 44  1  0  0  0  0
M  CHG  1   2   1
M  END
$$$$
