ZINC03875393
 OpenBabel08292219463D

 51 53  0  0  1  0  0  0  0  0999 V2000
   -0.0187    1.5258    0.0104 C   0  0  0  0  0  0  0  0  0  0  0  0
    0.0021   -0.0041    0.0020 C   0  0  0  0  0  0  0  0  0  0  0  0
    0.7421   -0.5109    1.2415 C   0  0  0  0  0  0  0  0  0  0  0  0
   -1.4333   -0.5336    0.0129 C   0  0  0  0  0  0  0  0  0  0  0  0
   -1.4157   -2.0577   -0.1212 C   0  0  1  0  0  0  0  0  0  0  0  0
   -0.7900   -2.4884    0.6606 H   0  0  0  0  0  0  0  0  0  0  0  0
   -2.8429   -2.6040   -0.0013 C   0  0  0  0  0  0  0  0  0  0  0  0
   -2.8370   -4.0484   -0.2684 N   0  3  1  0  0  0  0  0  0  0  0  0
   -4.1704   -4.6003    0.0105 C   0  0  0  0  0  0  0  0  0  0  0  0
   -4.0754   -6.1262    0.0359 C   0  0  0  0  0  0  0  0  0  0  0  0
   -3.3929   -6.6134   -1.2170 C   0  0  0  0  0  0  0  0  0  0  0  0
   -3.5217   -7.9490   -1.5665 C   0  0  0  0  0  0  0  0  0  0  0  0
   -2.9093   -8.4346   -2.7082 C   0  0  0  0  0  0  0  0  0  0  0  0
   -2.1605   -7.5750   -3.5070 C   0  0  0  0  0  0  0  0  0  0  0  0
   -2.0356   -6.2438   -3.1533 C   0  0  0  0  0  0  0  0  0  0  0  0
   -2.6523   -5.7605   -2.0077 C   0  0  0  0  0  0  0  0  0  0  0  0
   -2.4889   -4.3030   -1.6674 C   0  0  2  0  0  0  0  0  0  0  0  0
   -3.1358   -3.7085   -2.3126 H   0  0  0  0  0  0  0  0  0  0  0  0
   -1.0336   -3.8867   -1.9173 C   0  0  0  0  0  0  0  0  0  0  0  0
   -0.8731   -2.4448   -1.4813 C   0  0  0  0  0  0  0  0  0  0  0  0
   -0.3330   -1.6326   -2.1934 O   0  0  0  0  0  0  0  0  0  0  0  0
   -1.5538   -8.0425   -4.6307 O   0  0  0  0  0  0  0  0  0  0  0  0
   -0.8021   -7.1024   -5.4010 C   0  0  0  0  0  0  0  0  0  0  0  0
   -3.0378   -9.7452   -3.0480 O   0  0  0  0  0  0  0  0  0  0  0  0
   -3.8210  -10.5667   -2.1798 C   0  0  0  0  0  0  0  0  0  0  0  0
    1.0039    1.9031    0.0027 H   0  0  0  0  0  0  0  0  0  0  0  0
   -0.5459    1.8868   -0.8726 H   0  0  0  0  0  0  0  0  0  0  0  0
   -0.5289    1.8773    0.9072 H   0  0  0  0  0  0  0  0  0  0  0  0
    0.5123   -0.3556   -0.8948 H   0  0  0  0  0  0  0  0  0  0  0  0
    0.7568   -1.6008    1.2356 H   0  0  0  0  0  0  0  0  0  0  0  0
    1.7647   -0.1336    1.2338 H   0  0  0  0  0  0  0  0  0  0  0  0
    0.2319   -0.1594    2.1383 H   0  0  0  0  0  0  0  0  0  0  0  0
   -1.9156   -0.2570    0.9504 H   0  0  0  0  0  0  0  0  0  0  0  0
   -1.9862   -0.1019   -0.8214 H   0  0  0  0  0  0  0  0  0  0  0  0
   -3.2183   -2.4222    1.0058 H   0  0  0  0  0  0  0  0  0  0  0  0
   -3.4859   -2.1031   -0.7250 H   0  0  0  0  0  0  0  0  0  0  0  0
   -4.5202   -4.2398    0.9778 H   0  0  0  0  0  0  0  0  0  0  0  0
   -4.8649   -4.2904   -0.7704 H   0  0  0  0  0  0  0  0  0  0  0  0
   -3.5003   -6.4392    0.9074 H   0  0  0  0  0  0  0  0  0  0  0  0
   -5.0776   -6.5511    0.0918 H   0  0  0  0  0  0  0  0  0  0  0  0
   -4.1033   -8.6134   -0.9447 H   0  0  0  0  0  0  0  0  0  0  0  0
   -1.4549   -5.5761   -3.7726 H   0  0  0  0  0  0  0  0  0  0  0  0
   -0.3644   -4.5224   -1.3375 H   0  0  0  0  0  0  0  0  0  0  0  0
   -0.8017   -3.9784   -2.9783 H   0  0  0  0  0  0  0  0  0  0  0  0
   -1.4586   -6.2991   -5.7353 H   0  0  0  0  0  0  0  0  0  0  0  0
   -0.0026   -6.6869   -4.7877 H   0  0  0  0  0  0  0  0  0  0  0  0
   -0.3718   -7.6044   -6.2677 H   0  0  0  0  0  0  0  0  0  0  0  0
   -3.3808  -10.5644   -1.1826 H   0  0  0  0  0  0  0  0  0  0  0  0
   -4.8374  -10.1762   -2.1291 H   0  0  0  0  0  0  0  0  0  0  0  0
   -3.8421  -11.5860   -2.5653 H   0  0  0  0  0  0  0  0  0  0  0  0
   -2.1614   -4.4973    0.3317 H   0  0  0  0  0  0  0  0  0  0  0  0
  1  2  1  0  0  0  0
  1 26  1  0  0  0  0
  1 27  1  0  0  0  0
  1 28  1  0  0  0  0
  2  3  1  0  0  0  0
  2  4  1  0  0  0  0
  2 29  1  0  0  0  0
  3 30  1  0  0  0  0
  3 31  1  0  0  0  0
  3 32  1  0  0  0  0
  4  5  1  0  0  0  0
  4 33  1  0  0  0  0
  4 34  1  0  0  0  0
  5  6  1  1  0  0  0
  5 20  1  0  0  0  0
  5  7  1  0  0  0  0
  7  8  1  0  0  0  0
  7 35  1  0  0  0  0
  7 36  1  0  0  0  0
  8 17  1  0  0  0  0
  8  9  1  0  0  0  0
  8 51  1  1  0  0  0
  9 10  1  0  0  0  0
  9 37  1  0  0  0  0
  9 38  1  0  0  0  0
 10 11  1  0  0  0  0
 10 39  1  0  0  0  0
 10 40  1  0  0  0  0
 11 16  2  0  0  0  0
 11 12  1  0  0  0  0
 12 13  2  0  0  0  0
 12 41  1  0  0  0  0
 13 14  1  0  0  0  0
 13 24  1  0  0  0  0
 14 15  2  0  0  0  0
 14 22  1  0  0  0  0
 15 16  1  0  0  0  0
 15 42  1  0  0  0  0
 16 17  1  0  0  0  0
 17 18  1  6  0  0  0
 17 19  1  0  0  0  0
 19 20  1  0  0  0  0
 19 43  1  0  0  0  0
 19 44  1  0  0  0  0
 20 21  2  0  0  0  0
 22 23  1  0  0  0  0
 23 45  1  0  0  0  0
 23 46  1  0  0  0  0
 23 47  1  0  0  0  0
 24 25  1  0  0  0  0
 25 48  1  0  0  0  0
 25 49  1  0  0  0  0
 25 50  1  0  0  0  0
M  CHG  1   8   1
M  END
$$$$
