ZINC03830261
 OpenBabel08292219463D

 54 57  0  0  1  0  0  0  0  0999 V2000
   -0.0193    1.5266    0.0134 C   0  0  0  0  0  0  0  0  0  0  0  0
    0.0011   -0.0032    0.0056 C   0  0  0  0  0  0  0  0  0  0  0  0
    0.9167   -0.5576   -1.1233 C   0  0  1  0  0  0  0  0  0  0  0  0
    1.7640    0.1146   -1.2587 H   0  0  0  0  0  0  0  0  0  0  0  0
    1.4135   -1.8970   -0.7930 N   0  0  0  0  0  0  0  0  0  0  0  0
    1.5627   -2.1953    0.6379 C   0  0  2  0  0  0  0  0  0  0  0  0
    1.1300   -3.1338    0.9844 H   0  0  0  0  0  0  0  0  0  0  0  0
    0.9220   -0.6788    1.4602 S   0  0  0  0  0  0  0  0  0  0  0  0
    3.0661   -2.2012    0.4242 C   0  0  1  0  0  0  0  0  0  0  0  0
    3.5560   -3.1218    0.7410 H   0  0  0  0  0  0  0  0  0  0  0  0
    2.7111   -2.1679   -1.0324 C   0  0  0  0  0  0  0  0  0  0  0  0
    3.3538   -2.3258   -2.0488 O   0  0  0  0  0  0  0  0  0  0  0  0
    3.7420   -0.9937    0.9052 N   0  0  0  0  0  0  0  0  0  0  0  0
    5.0439   -1.0423    1.2502 C   0  0  0  0  0  0  0  0  0  0  0  0
    5.6559   -2.0857    1.1626 O   0  0  0  0  0  0  0  0  0  0  0  0
    5.7392    0.1998    1.7449 C   0  0  1  0  0  0  0  0  0  0  0  0
    5.6996    0.9697    0.9744 H   0  0  0  0  0  0  0  0  0  0  0  0
    5.0512    0.6987    2.9894 C   0  0  0  0  0  0  0  0  0  0  0  0
    5.3198    0.1100    4.2109 C   0  0  0  0  0  0  0  0  0  0  0  0
    4.6886    0.5677    5.3525 C   0  0  0  0  0  0  0  0  0  0  0  0
    3.7893    1.6144    5.2725 C   0  0  0  0  0  0  0  0  0  0  0  0
    3.5213    2.2037    4.0511 C   0  0  0  0  0  0  0  0  0  0  0  0
    4.1557    1.7489    2.9103 C   0  0  0  0  0  0  0  0  0  0  0  0
    7.1373   -0.1125    2.0518 N   0  0  0  0  0  0  0  0  0  0  0  0
    8.0681    0.8617    2.0199 C   0  0  0  0  0  0  0  0  0  0  0  0
    7.7660    1.9789    1.6486 O   0  0  0  0  0  0  0  0  0  0  0  0
    9.3338    0.5970    2.3998 N   0  0  0  0  0  0  0  0  0  0  0  0
    9.8551   -0.7295    2.7617 C   0  0  0  0  0  0  0  0  0  0  0  0
   11.3329   -0.4636    3.1082 C   0  0  0  0  0  0  0  0  0  0  0  0
   11.4874    0.9846    2.9048 N   0  0  0  0  0  0  0  0  0  0  0  0
   10.3182    1.4996    2.5021 C   0  0  0  0  0  0  0  0  0  0  0  0
   10.1636    2.6797    2.2557 O   0  0  0  0  0  0  0  0  0  0  0  0
    0.1311   -0.6268   -2.4074 C   0  0  0  0  0  0  0  0  0  0  0  0
    0.1155    0.3285   -3.1648 O   0  0  0  0  0  0  0  0  0  0  0  0
   -0.4888   -1.6382   -2.6891 O   0  0  0  0  0  1  0  0  0  0  0  0
   -1.4137   -0.5791   -0.0817 C   0  0  0  0  0  0  0  0  0  0  0  0
    1.0033    1.9037    0.0051 H   0  0  0  0  0  0  0  0  0  0  0  0
   -0.5468    1.8875   -0.8696 H   0  0  0  0  0  0  0  0  0  0  0  0
   -0.5291    1.8786    0.9103 H   0  0  0  0  0  0  0  0  0  0  0  0
    3.2525   -0.1592    0.9753 H   0  0  0  0  0  0  0  0  0  0  0  0
    6.0225   -0.7078    4.2734 H   0  0  0  0  0  0  0  0  0  0  0  0
    4.8980    0.1073    6.3067 H   0  0  0  0  0  0  0  0  0  0  0  0
    3.2956    1.9715    6.1643 H   0  0  0  0  0  0  0  0  0  0  0  0
    2.8184    3.0213    3.9886 H   0  0  0  0  0  0  0  0  0  0  0  0
    3.9492    2.2117    1.9566 H   0  0  0  0  0  0  0  0  0  0  0  0
    7.3930   -1.0205    2.2779 H   0  0  0  0  0  0  0  0  0  0  0  0
    9.3245   -1.1260    3.6274 H   0  0  0  0  0  0  0  0  0  0  0  0
    9.7774   -1.4145    1.9174 H   0  0  0  0  0  0  0  0  0  0  0  0
   11.5362   -0.7279    4.1460 H   0  0  0  0  0  0  0  0  0  0  0  0
   11.9890   -1.0165    2.4360 H   0  0  0  0  0  0  0  0  0  0  0  0
   12.3068    1.4865    3.0371 H   0  0  0  0  0  0  0  0  0  0  0  0
   -1.8857   -0.2446   -1.0056 H   0  0  0  0  0  0  0  0  0  0  0  0
   -1.3640   -1.6679   -0.0726 H   0  0  0  0  0  0  0  0  0  0  0  0
   -1.9993   -0.2349    0.7707 H   0  0  0  0  0  0  0  0  0  0  0  0
  1  2  1  0  0  0  0
  1 37  1  0  0  0  0
  1 38  1  0  0  0  0
  1 39  1  0  0  0  0
  2  8  1  0  0  0  0
  2  3  1  0  0  0  0
  2 36  1  0  0  0  0
  3  4  1  6  0  0  0
  3  5  1  0  0  0  0
  3 33  1  0  0  0  0
  5 11  1  0  0  0  0
  5  6  1  0  0  0  0
  6  7  1  1  0  0  0
  6  8  1  0  0  0  0
  6  9  1  0  0  0  0
  9 10  1  1  0  0  0
  9 11  1  0  0  0  0
  9 13  1  0  0  0  0
 11 12  2  0  0  0  0
 13 14  1  0  0  0  0
 13 40  1  0  0  0  0
 14 15  2  0  0  0  0
 14 16  1  0  0  0  0
 16 17  1  6  0  0  0
 16 18  1  0  0  0  0
 16 24  1  0  0  0  0
 18 23  2  0  0  0  0
 18 19  1  0  0  0  0
 19 20  2  0  0  0  0
 19 41  1  0  0  0  0
 20 21  1  0  0  0  0
 20 42  1  0  0  0  0
 21 22  2  0  0  0  0
 21 43  1  0  0  0  0
 22 23  1  0  0  0  0
 22 44  1  0  0  0  0
 23 45  1  0  0  0  0
 24 25  1  0  0  0  0
 24 46  1  0  0  0  0
 25 26  2  0  0  0  0
 25 27  1  0  0  0  0
 27 31  1  0  0  0  0
 27 28  1  0  0  0  0
 28 29  1  0  0  0  0
 28 47  1  0  0  0  0
 28 48  1  0  0  0  0
 29 30  1  0  0  0  0
 29 49  1  0  0  0  0
 29 50  1  0  0  0  0
 30 31  1  0  0  0  0
 30 51  1  0  0  0  0
 31 32  2  0  0  0  0
 33 34  2  0  0  0  0
 33 35  1  0  0  0  0
 36 52  1  0  0  0  0
 36 53  1  0  0  0  0
 36 54  1  0  0  0  0
M  END
$$$$
