ZINC03817234
 OpenBabel08292219463D

 79 83  0  0  1  0  0  0  0  0999 V2000
    0.2988   -3.3187    1.4451 C   0  0  0  0  0  0  0  0  0  0  0  0
    0.1387   -2.0700    0.6168 C   0  0  0  0  0  0  0  0  0  0  0  0
    0.1712   -1.9964   -0.6859 N   0  0  0  0  0  0  0  0  0  0  0  0
   -0.0007   -0.7766   -1.0551 N   0  0  0  0  0  0  0  0  0  0  0  0
   -0.1508   -0.0166   -0.0046 C   0  0  0  0  0  0  0  0  0  0  0  0
   -0.0717   -0.8165    1.0862 N   0  0  0  0  0  0  0  0  0  0  0  0
   -0.1871   -0.4084    2.4885 C   0  0  2  0  0  0  0  0  0  0  0  0
   -1.5587    0.2314    2.7216 C   0  0  0  0  0  0  0  0  0  0  0  0
   -1.6116    0.7876    4.1535 C   0  0  1  0  0  0  0  0  0  0  0  0
   -2.6090    1.1352    4.4224 H   0  0  0  0  0  0  0  0  0  0  0  0
   -1.0997   -0.3154    5.1084 C   0  0  0  0  0  0  0  0  0  0  0  0
    0.4273   -0.1040    5.1739 C   0  0  0  0  0  0  0  0  0  0  0  0
    0.6992    1.1076    4.2527 C   0  0  1  0  0  0  0  0  0  0  0  0
    1.5318    1.7156    4.6066 H   0  0  0  0  0  0  0  0  0  0  0  0
    0.9167    0.6008    2.8177 C   0  0  0  0  0  0  0  0  0  0  0  0
   -0.5952    1.8695    4.2439 N   0  3  2  0  0  0  0  0  0  0  0  0
   -0.7568    2.6282    5.4914 C   0  0  0  0  0  0  0  0  0  0  0  0
    0.2170    3.8082    5.5005 C   0  0  0  0  0  0  0  0  0  0  0  0
    0.0487    4.5984    6.7998 C   0  0  1  0  0  0  0  0  0  0  0  0
    0.1698    3.9283    7.6509 H   0  0  0  0  0  0  0  0  0  0  0  0
    1.0897    5.6861    6.8646 C   0  0  0  0  0  0  0  0  0  0  0  0
    0.9009    6.8659    6.1694 C   0  0  0  0  0  0  0  0  0  0  0  0
    1.8557    7.8636    6.2289 C   0  0  0  0  0  0  0  0  0  0  0  0
    2.9993    7.6818    6.9840 C   0  0  0  0  0  0  0  0  0  0  0  0
    3.1877    6.5024    7.6800 C   0  0  0  0  0  0  0  0  0  0  0  0
    2.2308    5.5064    7.6239 C   0  0  0  0  0  0  0  0  0  0  0  0
   -1.2874    5.1983    6.8369 N   0  0  0  0  0  0  0  0  0  0  0  0
   -1.8594    5.4968    8.0201 C   0  0  0  0  0  0  0  0  0  0  0  0
   -1.2681    5.2688    9.0542 O   0  0  0  0  0  0  0  0  0  0  0  0
   -3.2337    6.1139    8.0583 C   0  0  0  0  0  0  0  0  0  0  0  0
   -3.2147    7.4482    7.3098 C   0  0  0  0  0  0  0  0  0  0  0  0
   -4.6100    8.0747    7.3486 C   0  0  0  0  0  0  0  0  0  0  0  0
   -5.0225    8.3114    8.8028 C   0  0  0  0  0  0  0  0  0  0  0  0
   -5.0416    6.9771    9.5512 C   0  0  0  0  0  0  0  0  0  0  0  0
   -3.6463    6.3506    9.5125 C   0  0  0  0  0  0  0  0  0  0  0  0
   -4.1064    9.1752    9.4127 F   0  0  0  0  0  0  0  0  0  0  0  0
   -6.2984    8.8843    8.8382 F   0  0  0  0  0  0  0  0  0  0  0  0
   -0.3760    1.4734   -0.0051 C   0  0  0  0  0  0  0  0  0  0  0  0
    0.8057    2.1676   -0.6853 C   0  0  0  0  0  0  0  0  0  0  0  0
   -1.6634    1.7944   -0.7670 C   0  0  0  0  0  0  0  0  0  0  0  0
   -0.6841   -3.7245    1.6844 H   0  0  0  0  0  0  0  0  0  0  0  0
    0.8697   -4.0573    0.8824 H   0  0  0  0  0  0  0  0  0  0  0  0
    0.8267   -3.0775    2.3678 H   0  0  0  0  0  0  0  0  0  0  0  0
   -0.0820   -1.2830    3.1304 H   0  0  0  0  0  0  0  0  0  0  0  0
   -1.7091    1.0425    2.0091 H   0  0  0  0  0  0  0  0  0  0  0  0
   -2.3384   -0.5193    2.5926 H   0  0  0  0  0  0  0  0  0  0  0  0
   -1.5419   -0.1961    6.0975 H   0  0  0  0  0  0  0  0  0  0  0  0
   -1.3291   -1.3020    4.7059 H   0  0  0  0  0  0  0  0  0  0  0  0
    0.7359    0.1192    6.1952 H   0  0  0  0  0  0  0  0  0  0  0  0
    0.9486   -0.9866    4.8035 H   0  0  0  0  0  0  0  0  0  0  0  0
    1.8888    0.1114    2.7568 H   0  0  0  0  0  0  0  0  0  0  0  0
    0.8776    1.4285    2.1096 H   0  0  0  0  0  0  0  0  0  0  0  0
   -1.7791    3.0002    5.5605 H   0  0  0  0  0  0  0  0  0  0  0  0
   -0.5484    1.9785    6.3414 H   0  0  0  0  0  0  0  0  0  0  0  0
    1.2393    3.4362    5.4313 H   0  0  0  0  0  0  0  0  0  0  0  0
    0.0086    4.4579    4.6505 H   0  0  0  0  0  0  0  0  0  0  0  0
    0.0075    7.0080    5.5794 H   0  0  0  0  0  0  0  0  0  0  0  0
    1.7085    8.7851    5.6852 H   0  0  0  0  0  0  0  0  0  0  0  0
    3.7456    8.4611    7.0300 H   0  0  0  0  0  0  0  0  0  0  0  0
    4.0812    6.3602    8.2697 H   0  0  0  0  0  0  0  0  0  0  0  0
    2.3762    4.5864    8.1707 H   0  0  0  0  0  0  0  0  0  0  0  0
   -1.7603    5.3806    6.0098 H   0  0  0  0  0  0  0  0  0  0  0  0
   -3.9475    5.4409    7.5831 H   0  0  0  0  0  0  0  0  0  0  0  0
   -2.5009    8.1211    7.7850 H   0  0  0  0  0  0  0  0  0  0  0  0
   -2.9207    7.2795    6.2739 H   0  0  0  0  0  0  0  0  0  0  0  0
   -4.5964    9.0253    6.8154 H   0  0  0  0  0  0  0  0  0  0  0  0
   -5.3237    7.4017    6.8734 H   0  0  0  0  0  0  0  0  0  0  0  0
   -5.3355    7.1458   10.5872 H   0  0  0  0  0  0  0  0  0  0  0  0
   -5.7554    6.3042    9.0760 H   0  0  0  0  0  0  0  0  0  0  0  0
   -3.6599    5.4000   10.0456 H   0  0  0  0  0  0  0  0  0  0  0  0
   -2.9325    7.0236    9.9876 H   0  0  0  0  0  0  0  0  0  0  0  0
   -0.4636    1.8280    1.0219 H   0  0  0  0  0  0  0  0  0  0  0  0
    0.8932    1.8131   -1.7123 H   0  0  0  0  0  0  0  0  0  0  0  0
    0.6428    3.2454   -0.6856 H   0  0  0  0  0  0  0  0  0  0  0  0
    1.7228    1.9389   -0.1425 H   0  0  0  0  0  0  0  0  0  0  0  0
   -1.5759    1.4398   -1.7940 H   0  0  0  0  0  0  0  0  0  0  0  0
   -2.5053    1.2998   -0.2824 H   0  0  0  0  0  0  0  0  0  0  0  0
   -1.8263    2.8721   -0.7673 H   0  0  0  0  0  0  0  0  0  0  0  0
   -0.6553    2.4812    3.4437 H   0  0  0  0  0  0  0  0  0  0  0  0
  1  2  1  0  0  0  0
  1 41  1  0  0  0  0
  1 42  1  0  0  0  0
  1 43  1  0  0  0  0
  2  6  1  0  0  0  0
  2  3  2  0  0  0  0
  3  4  1  0  0  0  0
  4  5  2  0  0  0  0
  5  6  1  0  0  0  0
  5 38  1  0  0  0  0
  6  7  1  0  0  0  0
  7 15  1  0  0  0  0
  7  8  1  0  0  0  0
  7 44  1  1  0  0  0
  8  9  1  0  0  0  0
  8 45  1  0  0  0  0
  8 46  1  0  0  0  0
  9 10  1  1  0  0  0
  9 16  1  0  0  0  0
  9 11  1  0  0  0  0
 11 12  1  0  0  0  0
 11 47  1  0  0  0  0
 11 48  1  0  0  0  0
 12 13  1  0  0  0  0
 12 49  1  0  0  0  0
 12 50  1  0  0  0  0
 13 14  1  1  0  0  0
 13 15  1  0  0  0  0
 13 16  1  0  0  0  0
 15 51  1  0  0  0  0
 15 52  1  0  0  0  0
 16 17  1  0  0  0  0
 16 79  1  6  0  0  0
 17 18  1  0  0  0  0
 17 53  1  0  0  0  0
 17 54  1  0  0  0  0
 18 19  1  0  0  0  0
 18 55  1  0  0  0  0
 18 56  1  0  0  0  0
 19 20  1  1  0  0  0
 19 21  1  0  0  0  0
 19 27  1  0  0  0  0
 21 26  2  0  0  0  0
 21 22  1  0  0  0  0
 22 23  2  0  0  0  0
 22 57  1  0  0  0  0
 23 24  1  0  0  0  0
 23 58  1  0  0  0  0
 24 25  2  0  0  0  0
 24 59  1  0  0  0  0
 25 26  1  0  0  0  0
 25 60  1  0  0  0  0
 26 61  1  0  0  0  0
 27 28  1  0  0  0  0
 27 62  1  0  0  0  0
 28 29  2  0  0  0  0
 28 30  1  0  0  0  0
 30 35  1  0  0  0  0
 30 31  1  0  0  0  0
 30 63  1  0  0  0  0
 31 32  1  0  0  0  0
 31 64  1  0  0  0  0
 31 65  1  0  0  0  0
 32 33  1  0  0  0  0
 32 66  1  0  0  0  0
 32 67  1  0  0  0  0
 33 34  1  0  0  0  0
 33 36  1  0  0  0  0
 33 37  1  0  0  0  0
 34 35  1  0  0  0  0
 34 68  1  0  0  0  0
 34 69  1  0  0  0  0
 35 70  1  0  0  0  0
 35 71  1  0  0  0  0
 38 39  1  0  0  0  0
 38 40  1  0  0  0  0
 38 72  1  0  0  0  0
 39 73  1  0  0  0  0
 39 74  1  0  0  0  0
 39 75  1  0  0  0  0
 40 76  1  0  0  0  0
 40 77  1  0  0  0  0
 40 78  1  0  0  0  0
M  CHG  1  16   1
M  END
$$$$
