ZINC05459685
 OpenBabel08292219463D

 61 64  0  0  1  0  0  0  0  0999 V2000
   -4.6741   -5.3401    4.3587 C   0  0  0  0  0  0  0  0  0  0  0  0
   -4.3834   -3.9573    3.7720 C   0  0  0  0  0  0  0  0  0  0  0  0
   -5.1645   -3.7789    2.4956 C   0  0  0  0  0  0  0  0  0  0  0  0
   -5.9074   -4.6517    2.1153 O   0  0  0  0  0  0  0  0  0  0  0  0
   -5.0178   -2.5063    1.6905 C   0  0  1  0  0  0  0  0  0  0  0  0
   -5.1765   -1.2922    2.6220 C   0  0  1  0  0  0  0  0  0  0  0  0
   -5.4347   -1.6289    3.6279 H   0  0  0  0  0  0  0  0  0  0  0  0
   -3.8120   -0.5717    2.6431 C   0  0  0  0  0  0  0  0  0  0  0  0
   -2.8126   -1.6567    2.1888 C   0  0  1  0  0  0  0  0  0  0  0  0
   -2.6181   -2.3234    3.0332 H   0  0  0  0  0  0  0  0  0  0  0  0
   -3.5796   -2.4341    1.1064 C   0  0  2  0  0  0  0  0  0  0  0  0
   -3.6208   -1.6572   -0.2010 C   0  0  0  0  0  0  0  0  0  0  0  0
   -2.2270   -1.2032   -0.6590 C   0  0  1  0  0  0  0  0  0  0  0  0
   -2.3971   -0.6179   -1.5795 H   0  0  0  0  0  0  0  0  0  0  0  0
   -1.6042   -0.3265    0.4074 C   0  0  1  0  0  0  0  0  0  0  0  0
   -2.3216    0.5113    0.5773 H   0  0  0  0  0  0  0  0  0  0  0  0
   -1.5101   -1.0527    1.7403 C   0  0  2  0  0  0  0  0  0  0  0  0
   -1.2425   -0.2896    2.4964 H   0  0  0  0  0  0  0  0  0  0  0  0
   -0.3696   -2.0663    1.7106 C   0  0  0  0  0  0  0  0  0  0  0  0
    0.9527   -1.3034    1.6995 C   0  0  0  0  0  0  0  0  0  0  0  0
    0.8923   -0.0862    0.8166 C   0  0  0  0  0  0  0  0  0  0  0  0
    2.0194    0.6511    0.7576 C   0  0  0  0  0  0  0  0  0  0  0  0
    1.9584    2.0009    0.1554 C   0  0  0  0  0  0  0  0  0  0  0  0
    2.9730    2.5931   -0.1936 O   0  0  0  0  0  0  0  0  0  0  0  0
    0.6217    2.6253    0.0219 C   0  0  0  0  0  0  0  0  0  0  0  0
   -0.4605    1.8400    0.0017 C   0  0  0  0  0  0  0  0  0  0  0  0
   -0.3060    0.3424    0.0459 C   0  0  2  0  0  0  0  0  0  0  0  0
    0.0218   -0.0229   -1.4012 C   0  0  0  0  0  0  0  0  0  0  0  0
   -1.4442   -2.3454   -0.9856 O   0  0  0  0  0  0  0  0  0  0  0  0
   -3.0231   -3.8547    0.9238 C   0  0  0  0  0  0  0  0  0  0  0  0
   -6.2647   -0.3559    2.0947 C   0  0  0  0  0  0  0  0  0  0  0  0
   -6.0788   -2.4795    0.5930 C   0  0  0  0  0  0  0  0  0  0  0  0
   -5.7398   -5.4287    4.5695 H   0  0  0  0  0  0  0  0  0  0  0  0
   -4.3803   -6.1076    3.6427 H   0  0  0  0  0  0  0  0  0  0  0  0
   -4.1092   -5.4691    5.2819 H   0  0  0  0  0  0  0  0  0  0  0  0
   -3.4056   -3.8761    3.5786 H   0  0  0  0  0  0  0  0  0  0  0  0
   -4.6772   -3.1897    4.4880 H   0  0  0  0  0  0  0  0  0  0  0  0
   -3.8077    0.2670    1.9472 H   0  0  0  0  0  0  0  0  0  0  0  0
   -3.5698   -0.2315    3.6507 H   0  0  0  0  0  0  0  0  0  0  0  0
   -4.2334   -0.7608   -0.0922 H   0  0  0  0  0  0  0  0  0  0  0  0
   -4.0310   -2.2848   -0.9969 H   0  0  0  0  0  0  0  0  0  0  0  0
   -0.4133   -2.6889    2.6142 H   0  0  0  0  0  0  0  0  0  0  0  0
   -0.4274   -2.7162    0.8433 H   0  0  0  0  0  0  0  0  0  0  0  0
    1.1934   -0.9865    2.7167 H   0  0  0  0  0  0  0  0  0  0  0  0
    1.7464   -1.9604    1.3406 H   0  0  0  0  0  0  0  0  0  0  0  0
    2.9374    0.2951    1.2291 H   0  0  0  0  0  0  0  0  0  0  0  0
    0.5227    3.7113   -0.0576 H   0  0  0  0  0  0  0  0  0  0  0  0
   -1.4584    2.2761   -0.0422 H   0  0  0  0  0  0  0  0  0  0  0  0
    0.9398    0.4808   -1.7040 H   0  0  0  0  0  0  0  0  0  0  0  0
    0.1555   -1.1016   -1.4822 H   0  0  0  0  0  0  0  0  0  0  0  0
   -0.7961    0.2916   -2.0495 H   0  0  0  0  0  0  0  0  0  0  0  0
   -1.8364   -2.9096   -1.6661 H   0  0  0  0  0  0  0  0  0  0  0  0
   -2.0548   -3.8044    0.4258 H   0  0  0  0  0  0  0  0  0  0  0  0
   -2.9060   -4.3272    1.8991 H   0  0  0  0  0  0  0  0  0  0  0  0
   -3.7137   -4.4402    0.3170 H   0  0  0  0  0  0  0  0  0  0  0  0
   -7.2124   -0.8920    2.0449 H   0  0  0  0  0  0  0  0  0  0  0  0
   -6.3651    0.4982    2.7644 H   0  0  0  0  0  0  0  0  0  0  0  0
   -5.9921   -0.0066    1.0988 H   0  0  0  0  0  0  0  0  0  0  0  0
   -5.9364   -3.3322   -0.0708 H   0  0  0  0  0  0  0  0  0  0  0  0
   -7.0697   -2.5318    1.0442 H   0  0  0  0  0  0  0  0  0  0  0  0
   -5.9879   -1.5555    0.0221 H   0  0  0  0  0  0  0  0  0  0  0  0
  1  2  1  0  0  0  0
  1 33  1  0  0  0  0
  1 34  1  0  0  0  0
  1 35  1  0  0  0  0
  2  3  1  0  0  0  0
  2 36  1  0  0  0  0
  2 37  1  0  0  0  0
  3  4  2  0  0  0  0
  5  3  1  1  0  0  0
  5 11  1  0  0  0  0
  5  6  1  0  0  0  0
  5 32  1  0  0  0  0
  6  7  1  1  0  0  0
  6  8  1  0  0  0  0
  6 31  1  0  0  0  0
  8  9  1  0  0  0  0
  8 38  1  0  0  0  0
  8 39  1  0  0  0  0
  9 10  1  1  0  0  0
  9 17  1  0  0  0  0
  9 11  1  0  0  0  0
 11 12  1  0  0  0  0
 11 30  1  6  0  0  0
 12 13  1  0  0  0  0
 12 40  1  0  0  0  0
 12 41  1  0  0  0  0
 13 14  1  6  0  0  0
 13 15  1  0  0  0  0
 13 29  1  0  0  0  0
 15 16  1  1  0  0  0
 15 27  1  0  0  0  0
 15 17  1  0  0  0  0
 17 18  1  1  0  0  0
 17 19  1  0  0  0  0
 19 20  1  0  0  0  0
 19 42  1  0  0  0  0
 19 43  1  0  0  0  0
 20 21  1  0  0  0  0
 20 44  1  0  0  0  0
 20 45  1  0  0  0  0
 21 27  1  0  0  0  0
 21 22  2  0  0  0  0
 22 23  1  0  0  0  0
 22 46  1  0  0  0  0
 23 24  2  0  0  0  0
 23 25  1  0  0  0  0
 25 26  2  0  0  0  0
 25 47  1  0  0  0  0
 26 27  1  0  0  0  0
 26 48  1  0  0  0  0
 27 28  1  6  0  0  0
 28 49  1  0  0  0  0
 28 50  1  0  0  0  0
 28 51  1  0  0  0  0
 29 52  1  0  0  0  0
 30 53  1  0  0  0  0
 30 54  1  0  0  0  0
 30 55  1  0  0  0  0
 31 56  1  0  0  0  0
 31 57  1  0  0  0  0
 31 58  1  0  0  0  0
 32 59  1  0  0  0  0
 32 60  1  0  0  0  0
 32 61  1  0  0  0  0
M  END
$$$$
