ZINC01530635
 OpenBabel08292219463D

 42 43  0  0  0  0  0  0  0  0999 V2000
    0.1314    1.5793   -0.4105 C   0  0  0  0  0  0  0  0  0  0  0  0
    0.0779    0.0833   -0.2370 C   0  0  0  0  0  0  0  0  0  0  0  0
    1.1020   -0.5555   -0.1816 O   0  0  0  0  0  0  0  0  0  0  0  0
   -1.1074   -0.5397   -0.1440 O   0  0  0  0  0  0  0  0  0  0  0  0
   -1.0833   -1.9591    0.0193 C   0  0  0  0  0  0  0  0  0  0  0  0
   -2.5168   -2.4869    0.1058 C   0  0  0  0  0  0  0  0  0  0  0  0
   -3.2279   -2.2528   -1.2285 C   0  0  0  0  0  0  0  0  0  0  0  0
   -4.7005   -2.6466   -1.0977 C   0  0  0  0  0  0  0  0  0  0  0  0
   -5.4089   -2.3056   -2.3339 N   0  0  0  0  0  0  0  0  0  0  0  0
   -6.1047   -1.1576   -2.5745 C   0  0  0  0  0  0  0  0  0  0  0  0
   -6.6080   -1.1835   -3.7738 N   0  0  0  0  0  0  0  0  0  0  0  0
   -6.2689   -2.3482   -4.3812 C   0  0  0  0  0  0  0  0  0  0  0  0
   -5.4888   -3.0803   -3.4636 C   0  0  0  0  0  0  0  0  0  0  0  0
   -5.0205   -4.2688   -3.8193 N   0  0  0  0  0  0  0  0  0  0  0  0
   -5.2802   -4.7585   -5.0211 C   0  0  0  0  0  0  0  0  0  0  0  0
   -6.0077   -4.0964   -5.9120 N   0  0  0  0  0  0  0  0  0  0  0  0
   -6.5191   -2.9095   -5.6342 C   0  0  0  0  0  0  0  0  0  0  0  0
   -4.7755   -6.0033   -5.3605 N   0  0  0  0  0  0  0  0  0  0  0  0
   -2.4908   -3.9854    0.4138 C   0  0  0  0  0  0  0  0  0  0  0  0
   -1.9317   -4.1952    1.7120 O   0  0  0  0  0  0  0  0  0  0  0  0
   -1.8372   -5.4650    2.1368 C   0  0  0  0  0  0  0  0  0  0  0  0
   -2.2166   -6.3684    1.4299 O   0  0  0  0  0  0  0  0  0  0  0  0
   -1.2579   -5.7638    3.4956 C   0  0  0  0  0  0  0  0  0  0  0  0
    1.1711    1.9017   -0.4662 H   0  0  0  0  0  0  0  0  0  0  0  0
   -0.3849    1.8572   -1.3293 H   0  0  0  0  0  0  0  0  0  0  0  0
   -0.3534    2.0611    0.4386 H   0  0  0  0  0  0  0  0  0  0  0  0
   -0.5793   -2.4144   -0.8332 H   0  0  0  0  0  0  0  0  0  0  0  0
   -0.5478   -2.2105    0.9348 H   0  0  0  0  0  0  0  0  0  0  0  0
   -3.0500   -1.9623    0.8986 H   0  0  0  0  0  0  0  0  0  0  0  0
   -3.1561   -1.1992   -1.4985 H   0  0  0  0  0  0  0  0  0  0  0  0
   -2.7570   -2.8590   -2.0024 H   0  0  0  0  0  0  0  0  0  0  0  0
   -4.7753   -3.7194   -0.9201 H   0  0  0  0  0  0  0  0  0  0  0  0
   -5.1478   -2.1080   -0.2622 H   0  0  0  0  0  0  0  0  0  0  0  0
   -6.2210   -0.3456   -1.8720 H   0  0  0  0  0  0  0  0  0  0  0  0
   -7.1089   -2.3791   -6.3671 H   0  0  0  0  0  0  0  0  0  0  0  0
   -4.2415   -6.5008   -4.7216 H   0  0  0  0  0  0  0  0  0  0  0  0
   -4.9561   -6.3773   -6.2371 H   0  0  0  0  0  0  0  0  0  0  0  0
   -3.5068   -4.3794    0.3877 H   0  0  0  0  0  0  0  0  0  0  0  0
   -1.8828   -4.4989   -0.3310 H   0  0  0  0  0  0  0  0  0  0  0  0
   -0.9737   -4.8310    3.9826 H   0  0  0  0  0  0  0  0  0  0  0  0
   -2.0025   -6.2785    4.1028 H   0  0  0  0  0  0  0  0  0  0  0  0
   -0.3785   -6.3981    3.3841 H   0  0  0  0  0  0  0  0  0  0  0  0
  1  2  1  0  0  0  0
  1 24  1  0  0  0  0
  1 25  1  0  0  0  0
  1 26  1  0  0  0  0
  2  3  2  0  0  0  0
  2  4  1  0  0  0  0
  4  5  1  0  0  0  0
  5  6  1  0  0  0  0
  5 27  1  0  0  0  0
  5 28  1  0  0  0  0
  6  7  1  0  0  0  0
  6 19  1  0  0  0  0
  6 29  1  0  0  0  0
  7  8  1  0  0  0  0
  7 30  1  0  0  0  0
  7 31  1  0  0  0  0
  8  9  1  0  0  0  0
  8 32  1  0  0  0  0
  8 33  1  0  0  0  0
  9 13  1  0  0  0  0
  9 10  1  0  0  0  0
 10 11  2  0  0  0  0
 10 34  1  0  0  0  0
 11 12  1  0  0  0  0
 12 17  2  0  0  0  0
 12 13  1  0  0  0  0
 13 14  2  0  0  0  0
 14 15  1  0  0  0  0
 15 16  2  0  0  0  0
 15 18  1  0  0  0  0
 16 17  1  0  0  0  0
 17 35  1  0  0  0  0
 18 36  1  0  0  0  0
 18 37  1  0  0  0  0
 19 20  1  0  0  0  0
 19 38  1  0  0  0  0
 19 39  1  0  0  0  0
 20 21  1  0  0  0  0
 21 22  2  0  0  0  0
 21 23  1  0  0  0  0
 23 40  1  0  0  0  0
 23 41  1  0  0  0  0
 23 42  1  0  0  0  0
M  END
$$$$
