ZINC01539579
 OpenBabel08292219463D

 53 55  0  0  0  0  0  0  0  0999 V2000
   -0.0184    1.5028    0.0103 C   0  0  0  0  0  0  0  0  0  0  0  0
    0.0021   -0.0041    0.0020 C   0  0  0  0  0  0  0  0  0  0  0  0
    0.0059   -0.6899   -1.1923 C   0  0  0  0  0  0  0  0  0  0  0  0
    0.0272   -2.0796   -1.2131 C   0  0  0  0  0  0  0  0  0  0  0  0
    0.0478   -2.7839   -0.0284 C   0  0  0  0  0  0  0  0  0  0  0  0
    0.0400   -2.1020    1.1788 C   0  0  0  0  0  0  0  0  0  0  0  0
    0.0231   -0.7112    1.2029 C   0  0  0  0  0  0  0  0  0  0  0  0
    0.0217    0.0137    2.4968 C   0  0  0  0  0  0  0  0  0  0  0  0
    1.1360    0.6210    2.9254 C   0  0  0  0  0  0  0  0  0  0  0  0
   -1.2120    0.0660    3.3151 C   0  0  0  0  0  0  0  0  0  0  0  0
   -1.7321   -1.1055    3.8683 C   0  0  0  0  0  0  0  0  0  0  0  0
   -2.8741   -1.0587    4.6256 C   0  0  0  0  0  0  0  0  0  0  0  0
   -3.5179    0.1638    4.8442 C   0  0  0  0  0  0  0  0  0  0  0  0
   -2.9954    1.3369    4.2896 C   0  0  0  0  0  0  0  0  0  0  0  0
   -1.8502    1.2876    3.5371 C   0  0  0  0  0  0  0  0  0  0  0  0
   -4.7457    0.2157    5.6574 C   0  0  0  0  0  0  0  0  0  0  0  0
   -5.2024   -0.8105    6.1417 O   0  0  0  0  0  0  0  0  0  0  0  0
   -5.3082    1.2850    5.8482 O   0  0  0  0  0  1  0  0  0  0  0  0
    0.0879   -4.2891    0.0190 C   0  0  0  0  0  0  0  0  0  0  0  0
   -0.3365   -4.8809   -1.3234 C   0  0  0  0  0  0  0  0  0  0  0  0
    0.4845   -4.2083   -2.4299 C   0  0  0  0  0  0  0  0  0  0  0  0
    0.0227   -2.7583   -2.5584 C   0  0  0  0  0  0  0  0  0  0  0  0
   -1.3949   -2.7293   -3.1333 C   0  0  0  0  0  0  0  0  0  0  0  0
    0.9650   -2.0106   -3.5039 C   0  0  0  0  0  0  0  0  0  0  0  0
    1.5115   -4.7458    0.3441 C   0  0  0  0  0  0  0  0  0  0  0  0
   -0.8617   -4.7848    1.1115 C   0  0  0  0  0  0  0  0  0  0  0  0
    1.0042    1.8801    0.0026 H   0  0  0  0  0  0  0  0  0  0  0  0
   -0.5455    1.8639   -0.8728 H   0  0  0  0  0  0  0  0  0  0  0  0
   -0.5286    1.8543    0.9071 H   0  0  0  0  0  0  0  0  0  0  0  0
   -0.0082   -0.1420   -2.1229 H   0  0  0  0  0  0  0  0  0  0  0  0
    0.0510   -2.6543    2.1068 H   0  0  0  0  0  0  0  0  0  0  0  0
    1.1350    1.1488    3.8676 H   0  0  0  0  0  0  0  0  0  0  0  0
    2.0354    0.5828    2.3288 H   0  0  0  0  0  0  0  0  0  0  0  0
   -1.2348   -2.0492    3.6994 H   0  0  0  0  0  0  0  0  0  0  0  0
   -3.2766   -1.9653    5.0528 H   0  0  0  0  0  0  0  0  0  0  0  0
   -3.4913    2.2814    4.4575 H   0  0  0  0  0  0  0  0  0  0  0  0
   -1.4443    2.1937    3.1122 H   0  0  0  0  0  0  0  0  0  0  0  0
   -0.1479   -5.9544   -1.3274 H   0  0  0  0  0  0  0  0  0  0  0  0
   -1.3975   -4.6935   -1.4882 H   0  0  0  0  0  0  0  0  0  0  0  0
    1.5426   -4.2350   -2.1697 H   0  0  0  0  0  0  0  0  0  0  0  0
    0.3248   -4.7295   -3.3738 H   0  0  0  0  0  0  0  0  0  0  0  0
   -1.7207   -1.6951   -3.2449 H   0  0  0  0  0  0  0  0  0  0  0  0
   -1.4023   -3.2196   -4.1068 H   0  0  0  0  0  0  0  0  0  0  0  0
   -2.0717   -3.2526   -2.4579 H   0  0  0  0  0  0  0  0  0  0  0  0
    1.9746   -2.0203   -3.0932 H   0  0  0  0  0  0  0  0  0  0  0  0
    0.9644   -2.4988   -4.4784 H   0  0  0  0  0  0  0  0  0  0  0  0
    0.6272   -0.9801   -3.6135 H   0  0  0  0  0  0  0  0  0  0  0  0
    1.8108   -4.3417    1.3112 H   0  0  0  0  0  0  0  0  0  0  0  0
    1.5446   -5.8348    0.3794 H   0  0  0  0  0  0  0  0  0  0  0  0
    2.1933   -4.3864   -0.4266 H   0  0  0  0  0  0  0  0  0  0  0  0
   -1.8760   -4.4531    0.8892 H   0  0  0  0  0  0  0  0  0  0  0  0
   -0.8356   -5.8738    1.1490 H   0  0  0  0  0  0  0  0  0  0  0  0
   -0.5501   -4.3805    2.0746 H   0  0  0  0  0  0  0  0  0  0  0  0
  1  2  1  0  0  0  0
  1 27  1  0  0  0  0
  1 28  1  0  0  0  0
  1 29  1  0  0  0  0
  2  7  2  0  0  0  0
  2  3  1  0  0  0  0
  3  4  2  0  0  0  0
  3 30  1  0  0  0  0
  4 22  1  0  0  0  0
  4  5  1  0  0  0  0
  5  6  2  0  0  0  0
  5 19  1  0  0  0  0
  6  7  1  0  0  0  0
  6 31  1  0  0  0  0
  7  8  1  0  0  0  0
  8  9  2  0  0  0  0
  8 10  1  0  0  0  0
  9 32  1  0  0  0  0
  9 33  1  0  0  0  0
 10 15  2  0  0  0  0
 10 11  1  0  0  0  0
 11 12  2  0  0  0  0
 11 34  1  0  0  0  0
 12 13  1  0  0  0  0
 12 35  1  0  0  0  0
 13 14  2  0  0  0  0
 13 16  1  0  0  0  0
 14 15  1  0  0  0  0
 14 36  1  0  0  0  0
 15 37  1  0  0  0  0
 16 17  2  0  0  0  0
 16 18  1  0  0  0  0
 19 20  1  0  0  0  0
 19 25  1  0  0  0  0
 19 26  1  0  0  0  0
 20 21  1  0  0  0  0
 20 38  1  0  0  0  0
 20 39  1  0  0  0  0
 21 22  1  0  0  0  0
 21 40  1  0  0  0  0
 21 41  1  0  0  0  0
 22 23  1  0  0  0  0
 22 24  1  0  0  0  0
 23 42  1  0  0  0  0
 23 43  1  0  0  0  0
 23 44  1  0  0  0  0
 24 45  1  0  0  0  0
 24 46  1  0  0  0  0
 24 47  1  0  0  0  0
 25 48  1  0  0  0  0
 25 49  1  0  0  0  0
 25 50  1  0  0  0  0
 26 51  1  0  0  0  0
 26 52  1  0  0  0  0
 26 53  1  0  0  0  0
M  END
$$$$
