ZINC22851765
 OpenBabel08292219463D

 67 67  0  0  1  0  0  0  0  0999 V2000
   -6.7633    2.1675    1.2044 C   0  0  0  0  0  0  0  0  0  0  0  0
   -5.6483    1.1735    0.8735 C   0  0  0  0  0  0  0  0  0  0  0  0
   -6.2153   -0.1165    0.6354 O   0  0  0  0  0  0  0  0  0  0  0  0
   -5.3542   -1.1214    0.3261 C   0  0  0  0  0  0  0  0  0  0  0  0
   -3.9911   -0.8723    0.2590 C   0  0  0  0  0  0  0  0  0  0  0  0
   -3.1178   -1.8956   -0.0551 C   0  0  0  0  0  0  0  0  0  0  0  0
   -3.6013   -3.1671   -0.3029 C   0  0  0  0  0  0  0  0  0  0  0  0
   -4.9595   -3.4177   -0.2370 C   0  0  0  0  0  0  0  0  0  0  0  0
   -5.8363   -2.3992    0.0827 C   0  0  0  0  0  0  0  0  0  0  0  0
   -2.6465   -4.2814   -0.6458 C   0  0  0  0  0  0  0  0  0  0  0  0
   -1.9700   -4.7843    0.6311 C   0  0  2  0  0  0  0  0  0  0  0  0
   -1.5111   -3.9452    1.1538 H   0  0  0  0  0  0  0  0  0  0  0  0
   -0.8936   -5.8093    0.2682 C   0  0  0  0  0  0  0  0  0  0  0  0
   -0.2867   -6.3380    1.4970 N   0  0  0  0  0  0  0  0  0  0  0  0
    0.6040   -7.4679    1.2004 C   0  0  0  0  0  0  0  0  0  0  0  0
    1.7883   -6.9779    0.3649 C   0  0  0  0  0  0  0  0  0  0  0  0
    2.6166   -8.1250   -0.0303 N   0  3  0  0  0  0  0  0  0  0  0  0
    1.8521   -8.9917   -0.9371 C   0  0  0  0  0  0  0  0  0  0  0  0
    2.6551  -10.2292   -1.2451 C   0  0  0  0  0  0  0  0  0  0  0  0
    3.7617  -10.3755   -0.7547 O   0  0  0  0  0  0  0  0  0  0  0  0
    2.1982  -11.0840   -1.9847 O   0  0  0  0  0  1  0  0  0  0  0  0
    3.8243   -7.6442   -0.7148 C   0  0  0  0  0  0  0  0  0  0  0  0
    4.6834   -6.8803    0.2595 C   0  0  0  0  0  0  0  0  0  0  0  0
    4.3760   -6.8356    1.4385 O   0  0  0  0  0  0  0  0  0  0  0  0
    5.6860   -6.3069   -0.1312 O   0  0  0  0  0  1  0  0  0  0  0  0
    0.4273   -5.2826    2.2278 C   0  0  0  0  0  0  0  0  0  0  0  0
    1.0305   -5.8601    3.4823 C   0  0  0  0  0  0  0  0  0  0  0  0
    0.7842   -7.0101    3.8036 O   0  0  0  0  0  0  0  0  0  0  0  0
    1.7648   -5.1773    4.1759 O   0  0  0  0  0  1  0  0  0  0  0  0
   -2.9724   -5.4140    1.5009 N   0  0  0  0  0  0  0  0  0  0  0  0
   -3.3865   -4.5005    2.5742 C   0  0  0  0  0  0  0  0  0  0  0  0
   -2.3671   -4.5342    3.6836 C   0  0  0  0  0  0  0  0  0  0  0  0
   -1.4717   -5.3614    3.6639 O   0  0  0  0  0  0  0  0  0  0  0  0
   -2.4379   -3.7342    4.6010 O   0  0  0  0  0  1  0  0  0  0  0  0
   -4.1313   -5.8719    0.7229 C   0  0  0  0  0  0  0  0  0  0  0  0
   -3.9446   -7.3195    0.3482 C   0  0  0  0  0  0  0  0  0  0  0  0
   -3.0435   -7.9588    0.8373 O   0  0  0  0  0  0  0  0  0  0  0  0
   -4.7794   -7.8988   -0.5289 O   0  0  0  0  0  0  0  0  0  0  0  0
   -6.3308    3.1514    1.3860 H   0  0  0  0  0  0  0  0  0  0  0  0
   -7.4588    2.2252    0.3671 H   0  0  0  0  0  0  0  0  0  0  0  0
   -7.2946    1.8340    2.0958 H   0  0  0  0  0  0  0  0  0  0  0  0
   -5.1170    1.5070   -0.0179 H   0  0  0  0  0  0  0  0  0  0  0  0
   -4.9528    1.1157    1.7107 H   0  0  0  0  0  0  0  0  0  0  0  0
   -3.6129    0.1208    0.4518 H   0  0  0  0  0  0  0  0  0  0  0  0
   -2.0565   -1.7023   -0.1075 H   0  0  0  0  0  0  0  0  0  0  0  0
   -5.3347   -4.4116   -0.4313 H   0  0  0  0  0  0  0  0  0  0  0  0
   -6.8967   -2.5965    0.1383 H   0  0  0  0  0  0  0  0  0  0  0  0
   -3.1953   -5.0994   -1.1126 H   0  0  0  0  0  0  0  0  0  0  0  0
   -1.8890   -3.9111   -1.3366 H   0  0  0  0  0  0  0  0  0  0  0  0
   -1.3449   -6.6263   -0.2948 H   0  0  0  0  0  0  0  0  0  0  0  0
   -0.1257   -5.3302   -0.3392 H   0  0  0  0  0  0  0  0  0  0  0  0
    0.9700   -7.8967    2.1333 H   0  0  0  0  0  0  0  0  0  0  0  0
    0.0550   -8.2266    0.6426 H   0  0  0  0  0  0  0  0  0  0  0  0
    1.4191   -6.4719   -0.5271 H   0  0  0  0  0  0  0  0  0  0  0  0
    2.3868   -6.2838    0.9549 H   0  0  0  0  0  0  0  0  0  0  0  0
    0.9134   -9.2767   -0.4619 H   0  0  0  0  0  0  0  0  0  0  0  0
    1.6427   -8.4549   -1.8623 H   0  0  0  0  0  0  0  0  0  0  0  0
    4.3843   -8.4946   -1.1038 H   0  0  0  0  0  0  0  0  0  0  0  0
    3.5389   -6.9897   -1.5383 H   0  0  0  0  0  0  0  0  0  0  0  0
    1.2186   -4.8761    1.5980 H   0  0  0  0  0  0  0  0  0  0  0  0
   -0.2704   -4.4881    2.4926 H   0  0  0  0  0  0  0  0  0  0  0  0
   -3.4611   -3.4870    2.1800 H   0  0  0  0  0  0  0  0  0  0  0  0
   -4.3563   -4.8118    2.9623 H   0  0  0  0  0  0  0  0  0  0  0  0
   -5.0359   -5.7653    1.3217 H   0  0  0  0  0  0  0  0  0  0  0  0
   -4.2218   -5.2710   -0.1820 H   0  0  0  0  0  0  0  0  0  0  0  0
   -4.6285   -8.8464   -0.6487 H   0  0  0  0  0  0  0  0  0  0  0  0
    2.8812   -8.6477    0.7911 H   0  0  0  0  0  0  0  0  0  0  0  0
  1  2  1  0  0  0  0
  1 39  1  0  0  0  0
  1 40  1  0  0  0  0
  1 41  1  0  0  0  0
  2  3  1  0  0  0  0
  2 42  1  0  0  0  0
  2 43  1  0  0  0  0
  3  4  1  0  0  0  0
  4  9  2  0  0  0  0
  4  5  1  0  0  0  0
  5  6  2  0  0  0  0
  5 44  1  0  0  0  0
  6  7  1  0  0  0  0
  6 45  1  0  0  0  0
  7  8  2  0  0  0  0
  7 10  1  0  0  0  0
  8  9  1  0  0  0  0
  8 46  1  0  0  0  0
  9 47  1  0  0  0  0
 10 11  1  0  0  0  0
 10 48  1  0  0  0  0
 10 49  1  0  0  0  0
 11 12  1  1  0  0  0
 11 13  1  0  0  0  0
 11 30  1  0  0  0  0
 13 14  1  0  0  0  0
 13 50  1  0  0  0  0
 13 51  1  0  0  0  0
 14 15  1  0  0  0  0
 14 26  1  0  0  0  0
 15 16  1  0  0  0  0
 15 52  1  0  0  0  0
 15 53  1  0  0  0  0
 16 17  1  0  0  0  0
 16 54  1  0  0  0  0
 16 55  1  0  0  0  0
 17 18  1  0  0  0  0
 17 22  1  0  0  0  0
 17 67  1  0  0  0  0
 18 19  1  0  0  0  0
 18 56  1  0  0  0  0
 18 57  1  0  0  0  0
 19 20  2  0  0  0  0
 19 21  1  0  0  0  0
 22 23  1  0  0  0  0
 22 58  1  0  0  0  0
 22 59  1  0  0  0  0
 23 24  2  0  0  0  0
 23 25  1  0  0  0  0
 26 27  1  0  0  0  0
 26 60  1  0  0  0  0
 26 61  1  0  0  0  0
 27 28  2  0  0  0  0
 27 29  1  0  0  0  0
 30 31  1  0  0  0  0
 30 35  1  0  0  0  0
 31 32  1  0  0  0  0
 31 62  1  0  0  0  0
 31 63  1  0  0  0  0
 32 33  2  0  0  0  0
 32 34  1  0  0  0  0
 35 36  1  0  0  0  0
 35 64  1  0  0  0  0
 35 65  1  0  0  0  0
 36 37  2  0  0  0  0
 36 38  1  0  0  0  0
 38 66  1  0  0  0  0
M  CHG  1  17   1
M  END
$$$$
