ZINC01530707
 OpenBabel08292219463D

 51 52  0  0  1  0  0  0  0  0999 V2000
    1.7718   -1.3439    5.7074 C   0  0  0  0  0  0  0  0  0  0  0  0
    0.6434   -0.6618    4.9313 C   0  0  0  0  0  0  0  0  0  0  0  0
    0.9068   -0.7821    3.4524 C   0  0  0  0  0  0  0  0  0  0  0  0
    1.8950   -1.3544    3.0597 O   0  0  0  0  0  0  0  0  0  0  0  0
   -0.0630   -0.1883    2.4635 C   0  0  0  0  0  0  0  0  0  0  0  0
    0.4358   -0.4485    1.0408 C   0  0  0  0  0  0  0  0  0  0  0  0
   -0.4720    0.2725    0.0422 C   0  0  2  0  0  0  0  0  0  0  0  0
   -1.5090   -0.0089    0.2252 H   0  0  0  0  0  0  0  0  0  0  0  0
   -0.0796   -0.1244   -1.3824 C   0  0  0  0  0  0  0  0  0  0  0  0
    1.0046    2.1705   -0.2400 C   0  0  0  0  0  0  0  0  0  0  0  0
   -1.3860    2.4462   -0.5071 C   0  0  0  0  0  0  0  0  0  0  0  0
   -0.1698    1.2971    2.6947 C   0  0  0  0  0  0  0  0  0  0  0  0
    0.9748    2.0681    2.7749 C   0  0  0  0  0  0  0  0  0  0  0  0
    0.8767    3.4314    2.9816 C   0  0  0  0  0  0  0  0  0  0  0  0
   -0.3656    4.0220    3.1190 C   0  0  0  0  0  0  0  0  0  0  0  0
   -1.5099    3.2501    3.0445 C   0  0  0  0  0  0  0  0  0  0  0  0
   -1.4120    1.8877    2.8321 C   0  0  0  0  0  0  0  0  0  0  0  0
   -1.4175   -0.8235    2.6450 C   0  0  0  0  0  0  0  0  0  0  0  0
   -1.9503   -1.6132    1.6433 C   0  0  0  0  0  0  0  0  0  0  0  0
   -3.1905   -2.2002    1.8119 C   0  0  0  0  0  0  0  0  0  0  0  0
   -3.9026   -1.9886    2.9777 C   0  0  0  0  0  0  0  0  0  0  0  0
   -3.3723   -1.1942    3.9770 C   0  0  0  0  0  0  0  0  0  0  0  0
   -2.1297   -0.6118    3.8107 C   0  0  0  0  0  0  0  0  0  0  0  0
    1.8177   -2.3973    5.4311 H   0  0  0  0  0  0  0  0  0  0  0  0
    2.7202   -0.8635    5.4670 H   0  0  0  0  0  0  0  0  0  0  0  0
    1.5813   -1.2569    6.7771 H   0  0  0  0  0  0  0  0  0  0  0  0
    0.6012    0.3046    5.1849 H   0  0  0  0  0  0  0  0  0  0  0  0
   -0.3050   -1.1422    5.1717 H   0  0  0  0  0  0  0  0  0  0  0  0
    0.4185   -1.5196    0.8399 H   0  0  0  0  0  0  0  0  0  0  0  0
    1.4553   -0.0762    0.9394 H   0  0  0  0  0  0  0  0  0  0  0  0
   -0.1904   -1.2020   -1.5030 H   0  0  0  0  0  0  0  0  0  0  0  0
   -0.7263    0.3892   -2.0938 H   0  0  0  0  0  0  0  0  0  0  0  0
    0.9575    0.1569   -1.5654 H   0  0  0  0  0  0  0  0  0  0  0  0
    1.1005    2.0113   -1.3140 H   0  0  0  0  0  0  0  0  0  0  0  0
    1.1252    3.2308   -0.0176 H   0  0  0  0  0  0  0  0  0  0  0  0
    1.7731    1.6002    0.2819 H   0  0  0  0  0  0  0  0  0  0  0  0
   -2.3562    2.1481   -0.1097 H   0  0  0  0  0  0  0  0  0  0  0  0
   -1.2515    3.5192   -0.3703 H   0  0  0  0  0  0  0  0  0  0  0  0
   -1.3393    2.2068   -1.5695 H   0  0  0  0  0  0  0  0  0  0  0  0
    1.9455    1.6060    2.6720 H   0  0  0  0  0  0  0  0  0  0  0  0
    1.7707    4.0345    3.0395 H   0  0  0  0  0  0  0  0  0  0  0  0
   -0.4421    5.0865    3.2843 H   0  0  0  0  0  0  0  0  0  0  0  0
   -2.4805    3.7115    3.1519 H   0  0  0  0  0  0  0  0  0  0  0  0
   -2.3061    1.2846    2.7738 H   0  0  0  0  0  0  0  0  0  0  0  0
   -1.3959   -1.7750    0.7307 H   0  0  0  0  0  0  0  0  0  0  0  0
   -3.6046   -2.8211    1.0313 H   0  0  0  0  0  0  0  0  0  0  0  0
   -4.8731   -2.4441    3.1079 H   0  0  0  0  0  0  0  0  0  0  0  0
   -3.9286   -1.0288    4.8878 H   0  0  0  0  0  0  0  0  0  0  0  0
   -1.7153    0.0088    4.5915 H   0  0  0  0  0  0  0  0  0  0  0  0
   -0.3250    1.7308    0.2326 N   0  3  0  0  0  0  0  0  0  0  0  0
   -0.4118    1.9470    1.2326 H   0  0  0  0  0  0  0  0  0  0  0  0
  1  2  1  0  0  0  0
  1 24  1  0  0  0  0
  1 25  1  0  0  0  0
  1 26  1  0  0  0  0
  2  3  1  0  0  0  0
  2 27  1  0  0  0  0
  2 28  1  0  0  0  0
  3  4  2  0  0  0  0
  3  5  1  0  0  0  0
  5  6  1  0  0  0  0
  5 12  1  0  0  0  0
  5 18  1  0  0  0  0
  6  7  1  0  0  0  0
  6 29  1  0  0  0  0
  6 30  1  0  0  0  0
  7  8  1  1  0  0  0
  7  9  1  0  0  0  0
  7 50  1  0  0  0  0
  9 31  1  0  0  0  0
  9 32  1  0  0  0  0
  9 33  1  0  0  0  0
 10 34  1  0  0  0  0
 10 35  1  0  0  0  0
 10 36  1  0  0  0  0
 10 50  1  0  0  0  0
 11 37  1  0  0  0  0
 11 38  1  0  0  0  0
 11 39  1  0  0  0  0
 11 50  1  0  0  0  0
 12 17  2  0  0  0  0
 12 13  1  0  0  0  0
 13 14  2  0  0  0  0
 13 40  1  0  0  0  0
 14 15  1  0  0  0  0
 14 41  1  0  0  0  0
 15 16  2  0  0  0  0
 15 42  1  0  0  0  0
 16 17  1  0  0  0  0
 16 43  1  0  0  0  0
 17 44  1  0  0  0  0
 18 23  2  0  0  0  0
 18 19  1  0  0  0  0
 19 20  2  0  0  0  0
 19 45  1  0  0  0  0
 20 21  1  0  0  0  0
 20 46  1  0  0  0  0
 21 22  2  0  0  0  0
 21 47  1  0  0  0  0
 22 23  1  0  0  0  0
 22 48  1  0  0  0  0
 23 49  1  0  0  0  0
 50 51  1  0  0  0  0
M  CHG  1  50   1
M  END
$$$$
