ZINC19594549
 OpenBabel08292219463D

 40 42  0  0  0  0  0  0  0  0999 V2000
    0.1516    1.8107   -0.1429 C   0  0  0  0  0  0  0  0  0  0  0  0
    0.0601    0.2844   -0.0912 C   0  0  0  0  0  0  0  0  0  0  0  0
    0.7263   -0.2848   -1.2653 N   0  0  0  0  0  0  0  0  0  0  0  0
    0.0046   -0.4877   -2.3746 C   0  0  0  0  0  0  0  0  0  0  0  0
    0.5550   -1.0198   -3.5243 C   0  0  0  0  0  0  0  0  0  0  0  0
    1.9854   -1.3751   -3.5265 C   0  0  0  0  0  0  0  0  0  0  0  0
    2.5216   -1.8473   -4.5139 O   0  0  0  0  0  0  0  0  0  0  0  0
    2.7382   -1.1347   -2.2857 C   0  0  0  0  0  0  0  0  0  0  0  0
    2.0674   -0.5821   -1.1805 C   0  0  0  0  0  0  0  0  0  0  0  0
    2.7336   -0.3547   -0.0551 N   0  0  0  0  0  0  0  0  0  0  0  0
    4.0225   -0.6311    0.0545 C   0  0  0  0  0  0  0  0  0  0  0  0
    4.7443   -1.1760   -1.0119 C   0  0  0  0  0  0  0  0  0  0  0  0
    4.1011   -1.4409   -2.1922 C   0  0  0  0  0  0  0  0  0  0  0  0
    6.0604   -1.4490   -0.8760 F   0  0  0  0  0  0  0  0  0  0  0  0
    4.6713   -0.3747    1.2515 N   0  0  0  0  0  0  0  0  0  0  0  0
    5.3059    0.9282    1.5039 C   0  0  0  0  0  0  0  0  0  0  0  0
    4.8234    1.4485    2.8620 C   0  0  0  0  0  0  0  0  0  0  0  0
    5.0850    0.4370    3.8936 N   0  3  0  0  0  0  0  0  0  0  0  0
    4.2887   -0.7674    3.6264 C   0  0  0  0  0  0  0  0  0  0  0  0
    4.7399   -1.3956    2.3085 C   0  0  0  0  0  0  0  0  0  0  0  0
   -0.2685   -1.2277   -4.7201 C   0  0  0  0  0  0  0  0  0  0  0  0
   -1.4554   -0.9289   -4.7053 O   0  0  0  0  0  0  0  0  0  0  0  0
    0.2312   -1.7000   -5.7328 O   0  0  0  0  0  1  0  0  0  0  0  0
    1.1992    2.1120   -0.1479 H   0  0  0  0  0  0  0  0  0  0  0  0
   -0.3350    2.1735   -1.0483 H   0  0  0  0  0  0  0  0  0  0  0  0
   -0.3440    2.2343    0.7306 H   0  0  0  0  0  0  0  0  0  0  0  0
    0.5468   -0.0783    0.8142 H   0  0  0  0  0  0  0  0  0  0  0  0
   -0.9874   -0.0168   -0.0863 H   0  0  0  0  0  0  0  0  0  0  0  0
   -1.0434   -0.2268   -2.3702 H   0  0  0  0  0  0  0  0  0  0  0  0
    4.6340   -1.8619   -3.0319 H   0  0  0  0  0  0  0  0  0  0  0  0
    6.3894    0.8108    1.5206 H   0  0  0  0  0  0  0  0  0  0  0  0
    5.0228    1.6314    0.7207 H   0  0  0  0  0  0  0  0  0  0  0  0
    5.3563    2.3665    3.1097 H   0  0  0  0  0  0  0  0  0  0  0  0
    3.7534    1.6508    2.8144 H   0  0  0  0  0  0  0  0  0  0  0  0
    6.0654    0.1985    3.8882 H   0  0  0  0  0  0  0  0  0  0  0  0
    4.4277   -1.4823    4.4374 H   0  0  0  0  0  0  0  0  0  0  0  0
    3.2349   -0.4981    3.5557 H   0  0  0  0  0  0  0  0  0  0  0  0
    4.0827   -2.2280    2.0569 H   0  0  0  0  0  0  0  0  0  0  0  0
    5.7653   -1.7517    2.4078 H   0  0  0  0  0  0  0  0  0  0  0  0
    4.8369    0.8089    4.7982 H   0  0  0  0  0  0  0  0  0  0  0  0
  1  2  1  0  0  0  0
  1 24  1  0  0  0  0
  1 25  1  0  0  0  0
  1 26  1  0  0  0  0
  2  3  1  0  0  0  0
  2 27  1  0  0  0  0
  2 28  1  0  0  0  0
  3  9  1  0  0  0  0
  3  4  1  0  0  0  0
  4  5  2  0  0  0  0
  4 29  1  0  0  0  0
  5  6  1  0  0  0  0
  5 21  1  0  0  0  0
  6  7  2  0  0  0  0
  6  8  1  0  0  0  0
  8 13  2  0  0  0  0
  8  9  1  0  0  0  0
  9 10  2  0  0  0  0
 10 11  1  0  0  0  0
 11 12  2  0  0  0  0
 11 15  1  0  0  0  0
 12 13  1  0  0  0  0
 12 14  1  0  0  0  0
 13 30  1  0  0  0  0
 15 20  1  0  0  0  0
 15 16  1  0  0  0  0
 16 17  1  0  0  0  0
 16 31  1  0  0  0  0
 16 32  1  0  0  0  0
 17 18  1  0  0  0  0
 17 33  1  0  0  0  0
 17 34  1  0  0  0  0
 18 19  1  0  0  0  0
 18 35  1  0  0  0  0
 18 40  1  0  0  0  0
 19 20  1  0  0  0  0
 19 36  1  0  0  0  0
 19 37  1  0  0  0  0
 20 38  1  0  0  0  0
 20 39  1  0  0  0  0
 21 22  2  0  0  0  0
 21 23  1  0  0  0  0
M  CHG  1  18   1
M  END
$$$$
