ZINC00001041
 OpenBabel08292219463D

 30 30  0  0  0  0  0  0  0  0999 V2000
    0.0690    1.5884   -0.0593 C   0  0  0  0  0  0  0  0  0  0  0  0
   -0.0401    0.0623   -0.0557 C   0  0  0  0  0  0  0  0  0  0  0  0
    0.6259   -0.4791   -1.2479 N   0  3  0  0  0  0  0  0  0  0  0  0
   -0.0198    0.0550   -2.4544 C   0  0  0  0  0  0  0  0  0  0  0  0
    2.0422   -0.0894   -1.2371 C   0  0  0  0  0  0  0  0  0  0  0  0
    0.5211   -1.9444   -1.2444 C   0  0  0  0  0  0  0  0  0  0  0  0
    1.2723   -2.5045   -2.4246 C   0  0  0  0  0  0  0  0  0  0  0  0
    0.6148   -2.7274   -3.6200 C   0  0  0  0  0  0  0  0  0  0  0  0
    1.3038   -3.2407   -4.7027 C   0  0  0  0  0  0  0  0  0  0  0  0
    2.6509   -3.5315   -4.5907 C   0  0  0  0  0  0  0  0  0  0  0  0
    3.3090   -3.3090   -3.3961 C   0  0  0  0  0  0  0  0  0  0  0  0
    2.6210   -2.7904   -2.3137 C   0  0  0  0  0  0  0  0  0  0  0  0
    3.5226   -2.4791   -0.6808 Br  0  0  0  0  0  0  0  0  0  0  0  0
    1.1199    1.8775   -0.0513 H   0  0  0  0  0  0  0  0  0  0  0  0
   -0.4101    1.9847   -0.9546 H   0  0  0  0  0  0  0  0  0  0  0  0
   -0.4251    1.9901    0.8253 H   0  0  0  0  0  0  0  0  0  0  0  0
    0.4390   -0.3341    0.8396 H   0  0  0  0  0  0  0  0  0  0  0  0
   -1.0910   -0.2269   -0.0637 H   0  0  0  0  0  0  0  0  0  0  0  0
    0.0579    1.1423   -2.4570 H   0  0  0  0  0  0  0  0  0  0  0  0
    0.4743   -0.3467   -3.3391 H   0  0  0  0  0  0  0  0  0  0  0  0
   -1.0707   -0.2341   -2.4624 H   0  0  0  0  0  0  0  0  0  0  0  0
    2.4935   -0.3861   -0.2903 H   0  0  0  0  0  0  0  0  0  0  0  0
    2.5614   -0.5842   -2.0579 H   0  0  0  0  0  0  0  0  0  0  0  0
    2.1226    0.9912   -1.3550 H   0  0  0  0  0  0  0  0  0  0  0  0
    0.9488   -2.3370   -0.3218 H   0  0  0  0  0  0  0  0  0  0  0  0
   -0.5276   -2.2338   -1.3106 H   0  0  0  0  0  0  0  0  0  0  0  0
   -0.4375   -2.5007   -3.7078 H   0  0  0  0  0  0  0  0  0  0  0  0
    0.7897   -3.4150   -5.6364 H   0  0  0  0  0  0  0  0  0  0  0  0
    3.1888   -3.9329   -5.4369 H   0  0  0  0  0  0  0  0  0  0  0  0
    4.3612   -3.5362   -3.3087 H   0  0  0  0  0  0  0  0  0  0  0  0
  1  2  1  0  0  0  0
  1 14  1  0  0  0  0
  1 15  1  0  0  0  0
  1 16  1  0  0  0  0
  2  3  1  0  0  0  0
  2 17  1  0  0  0  0
  2 18  1  0  0  0  0
  3  4  1  0  0  0  0
  3  5  1  0  0  0  0
  3  6  1  0  0  0  0
  4 19  1  0  0  0  0
  4 20  1  0  0  0  0
  4 21  1  0  0  0  0
  5 22  1  0  0  0  0
  5 23  1  0  0  0  0
  5 24  1  0  0  0  0
  6  7  1  0  0  0  0
  6 25  1  0  0  0  0
  6 26  1  0  0  0  0
  7 12  2  0  0  0  0
  7  8  1  0  0  0  0
  8  9  2  0  0  0  0
  8 27  1  0  0  0  0
  9 10  1  0  0  0  0
  9 28  1  0  0  0  0
 10 11  2  0  0  0  0
 10 29  1  0  0  0  0
 11 12  1  0  0  0  0
 11 30  1  0  0  0  0
 12 13  1  0  0  0  0
M  CHG  1   3   1
M  END
$$$$
