ZINC00601274
 OpenBabel08292219463D

 66 70  0  0  1  0  0  0  0  0999 V2000
   -0.0173    1.4248    0.0099 C   0  0  0  0  0  0  0  0  0  0  0  0
    0.0021   -0.0041    0.0020 O   0  0  0  0  0  0  0  0  0  0  0  0
    0.6058   -0.6071   -1.0557 C   0  0  0  0  0  0  0  0  0  0  0  0
    1.1730    0.1607   -2.0624 C   0  0  0  0  0  0  0  0  0  0  0  0
    1.7865   -0.4547   -3.1363 C   0  0  0  0  0  0  0  0  0  0  0  0
    1.8352   -1.8346   -3.2086 C   0  0  0  0  0  0  0  0  0  0  0  0
    1.2702   -2.6021   -2.2068 C   0  0  0  0  0  0  0  0  0  0  0  0
    0.6609   -1.9915   -1.1277 C   0  0  0  0  0  0  0  0  0  0  0  0
    2.5046   -2.5033   -4.3815 C   0  0  0  0  0  0  0  0  0  0  0  0
    3.9857   -2.7227   -4.0663 C   0  0  0  0  0  0  0  0  0  0  0  0
    4.6383   -3.3746   -5.2096 N   0  3  2  0  0  0  0  0  0  0  0  0
    4.0698   -4.7148   -5.3968 C   0  0  0  0  0  0  0  0  0  0  0  0
    4.6882   -5.3670   -6.6352 C   0  0  0  0  0  0  0  0  0  0  0  0
    6.2039   -5.4757   -6.4451 C   0  0  2  0  0  0  0  0  0  0  0  0
    6.7761   -4.0808   -6.1767 C   0  0  0  0  0  0  0  0  0  0  0  0
    6.0803   -3.4763   -4.9553 C   0  0  0  0  0  0  0  0  0  0  0  0
    6.8113   -6.0294   -7.6578 N   0  0  0  0  0  0  0  0  0  0  0  0
    8.0180   -6.6927   -7.5834 C   0  0  0  0  0  0  0  0  0  0  0  0
    8.7020   -6.8894   -6.4840 N   0  0  0  0  0  0  0  0  0  0  0  0
    9.8394   -7.5757   -6.7708 C   0  0  0  0  0  0  0  0  0  0  0  0
   10.9029   -8.0392   -5.9923 C   0  0  0  0  0  0  0  0  0  0  0  0
   11.9400   -8.7213   -6.5881 C   0  0  0  0  0  0  0  0  0  0  0  0
   11.9371   -8.9520   -7.9558 C   0  0  0  0  0  0  0  0  0  0  0  0
   10.8945   -8.5005   -8.7384 C   0  0  0  0  0  0  0  0  0  0  0  0
    9.8416   -7.8121   -8.1552 C   0  0  0  0  0  0  0  0  0  0  0  0
    8.6748   -7.2475   -8.6442 N   0  0  0  0  0  0  0  0  0  0  0  0
    8.2299   -7.2439  -10.0400 C   0  0  0  0  0  0  0  0  0  0  0  0
    8.7638   -6.0175  -10.7343 C   0  0  0  0  0  0  0  0  0  0  0  0
    8.0277   -4.8473  -10.7325 C   0  0  0  0  0  0  0  0  0  0  0  0
    8.5165   -3.7219  -11.3684 C   0  0  0  0  0  0  0  0  0  0  0  0
    9.7440   -3.7666  -12.0075 C   0  0  0  0  0  0  0  0  0  0  0  0
   10.4803   -4.9392  -12.0086 C   0  0  0  0  0  0  0  0  0  0  0  0
    9.9919   -6.0618  -11.3675 C   0  0  0  0  0  0  0  0  0  0  0  0
   10.2226   -2.6672  -12.6298 F   0  0  0  0  0  0  0  0  0  0  0  0
    1.0053    1.8021    0.0021 H   0  0  0  0  0  0  0  0  0  0  0  0
   -0.5445    1.7859   -0.8732 H   0  0  0  0  0  0  0  0  0  0  0  0
   -0.5275    1.7763    0.9067 H   0  0  0  0  0  0  0  0  0  0  0  0
    1.1347    1.2385   -2.0068 H   0  0  0  0  0  0  0  0  0  0  0  0
    2.2283    0.1425   -3.9203 H   0  0  0  0  0  0  0  0  0  0  0  0
    1.3092   -3.6798   -2.2657 H   0  0  0  0  0  0  0  0  0  0  0  0
    0.2237   -2.5913   -0.3432 H   0  0  0  0  0  0  0  0  0  0  0  0
    2.0276   -3.4646   -4.5726 H   0  0  0  0  0  0  0  0  0  0  0  0
    2.4108   -1.8695   -5.2632 H   0  0  0  0  0  0  0  0  0  0  0  0
    4.4627   -1.7615   -3.8752 H   0  0  0  0  0  0  0  0  0  0  0  0
    4.0795   -3.3566   -3.1846 H   0  0  0  0  0  0  0  0  0  0  0  0
    4.2840   -5.3256   -4.5198 H   0  0  0  0  0  0  0  0  0  0  0  0
    2.9906   -4.6361   -5.5288 H   0  0  0  0  0  0  0  0  0  0  0  0
    4.2661   -6.3627   -6.7714 H   0  0  0  0  0  0  0  0  0  0  0  0
    4.4743   -4.7571   -7.5129 H   0  0  0  0  0  0  0  0  0  0  0  0
    6.4192   -6.1271   -5.5981 H   0  0  0  0  0  0  0  0  0  0  0  0
    7.8464   -4.1571   -5.9852 H   0  0  0  0  0  0  0  0  0  0  0  0
    6.6055   -3.4442   -7.0449 H   0  0  0  0  0  0  0  0  0  0  0  0
    6.4855   -2.4832   -4.7614 H   0  0  0  0  0  0  0  0  0  0  0  0
    6.2517   -4.1135   -4.0877 H   0  0  0  0  0  0  0  0  0  0  0  0
    6.3646   -5.9295   -8.5130 H   0  0  0  0  0  0  0  0  0  0  0  0
   10.9118   -7.8627   -4.9269 H   0  0  0  0  0  0  0  0  0  0  0  0
   12.7621   -9.0790   -5.9860 H   0  0  0  0  0  0  0  0  0  0  0  0
   12.7565   -9.4883   -8.4111 H   0  0  0  0  0  0  0  0  0  0  0  0
   10.8985   -8.6827   -9.8029 H   0  0  0  0  0  0  0  0  0  0  0  0
    8.6021   -8.1367  -10.5423 H   0  0  0  0  0  0  0  0  0  0  0  0
    7.1405   -7.2353  -10.0741 H   0  0  0  0  0  0  0  0  0  0  0  0
    7.0701   -4.8127  -10.2343 H   0  0  0  0  0  0  0  0  0  0  0  0
    7.9411   -2.8079  -11.3672 H   0  0  0  0  0  0  0  0  0  0  0  0
   11.4378   -4.9753  -12.5070 H   0  0  0  0  0  0  0  0  0  0  0  0
   10.5681   -6.9753  -11.3644 H   0  0  0  0  0  0  0  0  0  0  0  0
    4.4825   -2.8261   -6.0421 H   0  0  0  0  0  0  0  0  0  0  0  0
  1  2  1  0  0  0  0
  1 35  1  0  0  0  0
  1 36  1  0  0  0  0
  1 37  1  0  0  0  0
  2  3  1  0  0  0  0
  3  8  2  0  0  0  0
  3  4  1  0  0  0  0
  4  5  2  0  0  0  0
  4 38  1  0  0  0  0
  5  6  1  0  0  0  0
  5 39  1  0  0  0  0
  6  7  2  0  0  0  0
  6  9  1  0  0  0  0
  7  8  1  0  0  0  0
  7 40  1  0  0  0  0
  8 41  1  0  0  0  0
  9 10  1  0  0  0  0
  9 42  1  0  0  0  0
  9 43  1  0  0  0  0
 10 11  1  0  0  0  0
 10 44  1  0  0  0  0
 10 45  1  0  0  0  0
 11 16  1  0  0  0  0
 11 12  1  0  0  0  0
 11 66  1  6  0  0  0
 12 13  1  0  0  0  0
 12 46  1  0  0  0  0
 12 47  1  0  0  0  0
 13 14  1  0  0  0  0
 13 48  1  0  0  0  0
 13 49  1  0  0  0  0
 14 15  1  0  0  0  0
 14 17  1  0  0  0  0
 14 50  1  1  0  0  0
 15 16  1  0  0  0  0
 15 51  1  0  0  0  0
 15 52  1  0  0  0  0
 16 53  1  0  0  0  0
 16 54  1  0  0  0  0
 17 18  1  0  0  0  0
 17 55  1  0  0  0  0
 18 26  1  0  0  0  0
 18 19  2  0  0  0  0
 19 20  1  0  0  0  0
 20 25  2  0  0  0  0
 20 21  1  0  0  0  0
 21 22  2  0  0  0  0
 21 56  1  0  0  0  0
 22 23  1  0  0  0  0
 22 57  1  0  0  0  0
 23 24  2  0  0  0  0
 23 58  1  0  0  0  0
 24 25  1  0  0  0  0
 24 59  1  0  0  0  0
 25 26  1  0  0  0  0
 26 27  1  0  0  0  0
 27 28  1  0  0  0  0
 27 60  1  0  0  0  0
 27 61  1  0  0  0  0
 28 33  2  0  0  0  0
 28 29  1  0  0  0  0
 29 30  2  0  0  0  0
 29 62  1  0  0  0  0
 30 31  1  0  0  0  0
 30 63  1  0  0  0  0
 31 32  2  0  0  0  0
 31 34  1  0  0  0  0
 32 33  1  0  0  0  0
 32 64  1  0  0  0  0
 33 65  1  0  0  0  0
M  CHG  1  11   1
M  END
$$$$
