ZINC03826253
 OpenBabel08292219463D

 53 57  0  0  1  0  0  0  0  0999 V2000
   -0.0415    1.5034   -0.0479 C   0  0  0  0  0  0  0  0  0  0  0  0
    0.0197    0.0758   -0.0333 O   0  0  0  0  0  0  0  0  0  0  0  0
    0.6244   -0.5275   -1.0928 C   0  0  0  0  0  0  0  0  0  0  0  0
   -0.1219   -0.8836   -2.2145 C   0  0  0  0  0  0  0  0  0  0  0  0
    0.5234   -1.5056   -3.2983 C   0  0  0  0  0  0  0  0  0  0  0  0
    1.8958   -1.7630   -3.2492 C   0  0  0  0  0  0  0  0  0  0  0  0
    2.6157   -1.4089   -2.1426 C   0  0  0  0  0  0  0  0  0  0  0  0
    1.9886   -0.7854   -1.0626 C   0  0  0  0  0  0  0  0  0  0  0  0
    2.7374   -0.4235    0.0587 N   0  0  0  0  0  0  0  0  0  0  0  0
    3.4083    0.8776    0.2632 C   0  0  0  0  0  0  0  0  0  0  0  0
    3.5478    0.9910    1.7920 C   0  0  2  0  0  0  0  0  0  0  0  0
    2.5892    1.2780    2.2243 H   0  0  0  0  0  0  0  0  0  0  0  0
    4.6067    1.9818    2.2111 C   0  0  0  0  0  0  0  0  0  0  0  0
    6.0060    1.4895    1.8373 C   0  0  0  0  0  0  0  0  0  0  0  0
    6.2033    0.1077    2.4729 C   0  0  0  0  0  0  0  0  0  0  0  0
    5.2439   -0.8195    1.8718 N   0  3  0  0  0  0  0  0  0  0  0  0
    3.8844   -0.4548    2.2027 C   0  0  2  0  0  0  0  0  0  0  0  0
    3.6589   -0.6473    3.2516 H   0  0  0  0  0  0  0  0  0  0  0  0
    2.9843   -1.2719    1.2355 C   0  0  0  0  0  0  0  0  0  0  0  0
    3.9427   -1.6583   -2.0964 F   0  0  0  0  0  0  0  0  0  0  0  0
   -0.2773   -1.8765   -4.4772 C   0  0  0  0  0  0  0  0  0  0  0  0
    0.2298   -2.4180   -5.4442 O   0  0  0  0  0  0  0  0  0  0  0  0
   -1.7168   -1.5663   -4.4387 C   0  0  0  0  0  0  0  0  0  0  0  0
   -2.2380   -0.9518   -3.3158 C   0  0  0  0  0  0  0  0  0  0  0  0
   -1.4782   -0.6301   -2.2629 N   0  0  0  0  0  0  0  0  0  0  0  0
   -2.1119    0.0192   -1.1127 C   0  0  0  0  0  0  0  0  0  0  0  0
   -3.6220    0.2565   -1.1789 C   0  0  0  0  0  0  0  0  0  0  0  0
   -2.6557    1.4353   -1.3119 C   0  0  0  0  0  0  0  0  0  0  0  0
   -2.5823   -1.9034   -5.5732 C   0  0  0  0  0  0  0  0  0  0  0  0
   -3.7773   -1.6411   -5.5306 O   0  0  0  0  0  0  0  0  0  0  0  0
   -2.1100   -2.4473   -6.5630 O   0  0  0  0  0  1  0  0  0  0  0  0
    0.9693    1.9102   -0.0787 H   0  0  0  0  0  0  0  0  0  0  0  0
   -0.5934    1.8345   -0.9276 H   0  0  0  0  0  0  0  0  0  0  0  0
   -0.5472    1.8546    0.8517 H   0  0  0  0  0  0  0  0  0  0  0  0
    2.3867   -2.2412   -4.0838 H   0  0  0  0  0  0  0  0  0  0  0  0
    4.3898    0.8798   -0.2109 H   0  0  0  0  0  0  0  0  0  0  0  0
    2.7936    1.6894   -0.1254 H   0  0  0  0  0  0  0  0  0  0  0  0
    4.4196    2.9350    1.7166 H   0  0  0  0  0  0  0  0  0  0  0  0
    4.5549    2.1245    3.2905 H   0  0  0  0  0  0  0  0  0  0  0  0
    6.0929    1.4129    0.7534 H   0  0  0  0  0  0  0  0  0  0  0  0
    6.7554    2.1822    2.2202 H   0  0  0  0  0  0  0  0  0  0  0  0
    7.2183   -0.2414    2.2831 H   0  0  0  0  0  0  0  0  0  0  0  0
    6.0288    0.1702    3.5470 H   0  0  0  0  0  0  0  0  0  0  0  0
    5.3554   -0.8045    0.8691 H   0  0  0  0  0  0  0  0  0  0  0  0
    2.0401   -1.5182    1.7212 H   0  0  0  0  0  0  0  0  0  0  0  0
    3.4978   -2.1851    0.9348 H   0  0  0  0  0  0  0  0  0  0  0  0
   -3.2934   -0.7242   -3.2873 H   0  0  0  0  0  0  0  0  0  0  0  0
   -1.6823   -0.2229   -0.1406 H   0  0  0  0  0  0  0  0  0  0  0  0
   -4.1439   -0.0704   -2.0782 H   0  0  0  0  0  0  0  0  0  0  0  0
   -4.1861    0.1705   -0.2502 H   0  0  0  0  0  0  0  0  0  0  0  0
   -2.5842    2.1249   -0.4707 H   0  0  0  0  0  0  0  0  0  0  0  0
   -2.5419    1.8840   -2.2987 H   0  0  0  0  0  0  0  0  0  0  0  0
    5.4317   -1.7518    2.2088 H   0  0  0  0  0  0  0  0  0  0  0  0
  1  2  1  0  0  0  0
  1 32  1  0  0  0  0
  1 33  1  0  0  0  0
  1 34  1  0  0  0  0
  2  3  1  0  0  0  0
  3  8  2  0  0  0  0
  3  4  1  0  0  0  0
  4 25  1  0  0  0  0
  4  5  2  0  0  0  0
  5  6  1  0  0  0  0
  5 21  1  0  0  0  0
  6  7  2  0  0  0  0
  6 35  1  0  0  0  0
  7  8  1  0  0  0  0
  7 20  1  0  0  0  0
  8  9  1  0  0  0  0
  9 19  1  0  0  0  0
  9 10  1  0  0  0  0
 10 11  1  0  0  0  0
 10 36  1  0  0  0  0
 10 37  1  0  0  0  0
 11 12  1  1  0  0  0
 11 17  1  0  0  0  0
 11 13  1  0  0  0  0
 13 14  1  0  0  0  0
 13 38  1  0  0  0  0
 13 39  1  0  0  0  0
 14 15  1  0  0  0  0
 14 40  1  0  0  0  0
 14 41  1  0  0  0  0
 15 16  1  0  0  0  0
 15 42  1  0  0  0  0
 15 43  1  0  0  0  0
 16 17  1  0  0  0  0
 16 44  1  0  0  0  0
 16 53  1  0  0  0  0
 17 18  1  1  0  0  0
 17 19  1  0  0  0  0
 19 45  1  0  0  0  0
 19 46  1  0  0  0  0
 21 22  2  0  0  0  0
 21 23  1  0  0  0  0
 23 24  2  0  0  0  0
 23 29  1  0  0  0  0
 24 25  1  0  0  0  0
 24 47  1  0  0  0  0
 25 26  1  0  0  0  0
 26 28  1  0  0  0  0
 26 27  1  0  0  0  0
 26 48  1  0  0  0  0
 27 28  1  0  0  0  0
 27 49  1  0  0  0  0
 27 50  1  0  0  0  0
 28 51  1  0  0  0  0
 28 52  1  0  0  0  0
 29 30  2  0  0  0  0
 29 31  1  0  0  0  0
M  CHG  1  16   1
M  END
$$$$
