ZINC03872277
 OpenBabel08292219463D

 21 22  0  0  0  0  0  0  0  0999 V2000
   -0.0184    1.5028    0.0103 C   0  0  0  0  0  0  0  0  0  0  0  0
    0.0021   -0.0041    0.0020 C   0  0  0  0  0  0  0  0  0  0  0  0
    0.0042   -0.5816   -1.1437 N   0  0  0  0  0  0  0  0  0  0  0  0
    0.0195   -2.2355   -1.2654 S   0  0  0  0  0  0  0  0  0  0  0  0
    1.3655   -2.6170   -1.5143 O   0  0  0  0  0  0  0  0  0  0  0  0
   -1.0504   -2.5942   -2.1289 O   0  0  0  0  0  0  0  0  0  0  0  0
   -0.3939   -2.8396    0.3395 C   0  0  0  0  0  0  0  0  0  0  0  0
   -0.7497   -4.1557    0.5304 C   0  0  0  0  0  0  0  0  0  0  0  0
   -1.0722   -4.6035    1.8011 C   0  0  0  0  0  0  0  0  0  0  0  0
   -1.0364   -3.7286    2.8729 C   0  0  0  0  0  0  0  0  0  0  0  0
   -0.6789   -2.4084    2.6835 C   0  0  0  0  0  0  0  0  0  0  0  0
   -0.3530   -1.9544    1.4113 C   0  0  0  0  0  0  0  0  0  0  0  0
    0.0220   -0.6274    1.2057 N   0  0  0  0  0  0  0  0  0  0  0  0
   -1.5217   -6.2619    2.0490 Cl  0  0  0  0  0  0  0  0  0  0  0  0
    1.0042    1.8801    0.0026 H   0  0  0  0  0  0  0  0  0  0  0  0
   -0.5455    1.8639   -0.8728 H   0  0  0  0  0  0  0  0  0  0  0  0
   -0.5286    1.8543    0.9071 H   0  0  0  0  0  0  0  0  0  0  0  0
   -0.7777   -4.8365   -0.3075 H   0  0  0  0  0  0  0  0  0  0  0  0
   -1.2898   -4.0800    3.8622 H   0  0  0  0  0  0  0  0  0  0  0  0
   -0.6530   -1.7294    3.5230 H   0  0  0  0  0  0  0  0  0  0  0  0
    0.3129   -0.1138    1.9755 H   0  0  0  0  0  0  0  0  0  0  0  0
  1  2  1  0  0  0  0
  1 15  1  0  0  0  0
  1 16  1  0  0  0  0
  1 17  1  0  0  0  0
  2 13  1  0  0  0  0
  2  3  2  0  0  0  0
  3  4  1  0  0  0  0
  4  5  2  0  0  0  0
  4  6  2  0  0  0  0
  4  7  1  0  0  0  0
  7 12  2  0  0  0  0
  7  8  1  0  0  0  0
  8  9  2  0  0  0  0
  8 18  1  0  0  0  0
  9 10  1  0  0  0  0
  9 14  1  0  0  0  0
 10 11  2  0  0  0  0
 10 19  1  0  0  0  0
 11 12  1  0  0  0  0
 11 20  1  0  0  0  0
 12 13  1  0  0  0  0
 13 21  1  0  0  0  0
M  END
$$$$
