ZINC00537805
 OpenBabel08292219463D

 60 62  0  0  0  0  0  0  0  0999 V2000
   -0.0173    1.4248    0.0099 C   0  0  0  0  0  0  0  0  0  0  0  0
    0.0021   -0.0041    0.0020 O   0  0  0  0  0  0  0  0  0  0  0  0
    0.6248   -0.6173    1.0397 C   0  0  0  0  0  0  0  0  0  0  0  0
    1.2017    0.1376    2.0502 C   0  0  0  0  0  0  0  0  0  0  0  0
    1.8351   -0.4872    3.1057 C   0  0  0  0  0  0  0  0  0  0  0  0
    1.9003   -1.8709    3.1645 C   0  0  0  0  0  0  0  0  0  0  0  0
    1.3321   -2.6365    2.1684 C   0  0  0  0  0  0  0  0  0  0  0  0
    0.6827   -2.0162    1.0981 C   0  0  0  0  0  0  0  0  0  0  0  0
    0.0667   -2.8292    0.0322 C   0  0  0  0  0  0  0  0  0  0  0  0
   -0.4933   -2.2858   -0.9002 O   0  0  0  0  0  0  0  0  0  0  0  0
    0.1246   -4.1744    0.0921 N   0  0  0  0  0  0  0  0  0  0  0  0
   -0.4871   -4.9818   -0.9663 C   0  0  0  0  0  0  0  0  0  0  0  0
   -0.2807   -6.4663   -0.6591 C   0  0  0  0  0  0  0  0  0  0  0  0
   -0.9099   -7.2969   -1.7479 C   0  0  0  0  0  0  0  0  0  0  0  0
   -2.2308   -7.6903   -1.6410 C   0  0  0  0  0  0  0  0  0  0  0  0
   -2.8080   -8.4521   -2.6397 C   0  0  0  0  0  0  0  0  0  0  0  0
   -2.0644   -8.8201   -3.7454 C   0  0  0  0  0  0  0  0  0  0  0  0
   -0.7438   -8.4259   -3.8527 C   0  0  0  0  0  0  0  0  0  0  0  0
   -0.1679   -7.6605   -2.8560 C   0  0  0  0  0  0  0  0  0  0  0  0
   -2.7998   -9.7921   -5.0179 S   0  0  0  0  0  0  0  0  0  0  0  0
   -1.7374  -10.4617   -5.6828 O   0  0  0  0  0  0  0  0  0  0  0  0
   -3.8845  -10.4894   -4.4207 O   0  0  0  0  0  0  0  0  0  0  0  0
   -3.4590   -8.7429   -6.1164 N   0  0  0  0  0  0  0  0  0  0  0  0
   -4.0714   -9.2023   -7.1683 C   0  0  0  0  0  0  0  0  0  0  0  0
   -4.1695  -10.5353   -7.3644 O   0  5  0  0  0  0  0  0  0  0  0  0
   -4.6181   -8.3321   -8.0794 N   0  0  0  0  0  0  0  0  0  0  0  0
   -5.3077   -8.8494   -9.2639 C   0  0  0  0  0  0  0  0  0  0  0  0
   -4.2854   -9.1312  -10.3668 C   0  0  0  0  0  0  0  0  0  0  0  0
   -5.0055   -9.6715  -11.6039 C   0  0  0  0  0  0  0  0  0  0  0  0
   -6.0168   -8.6353  -12.0985 C   0  0  0  0  0  0  0  0  0  0  0  0
   -7.0391   -8.3536  -10.9956 C   0  0  0  0  0  0  0  0  0  0  0  0
   -6.3189   -7.8133   -9.7585 C   0  0  0  0  0  0  0  0  0  0  0  0
    2.7012   -2.6426    4.4974 Cl  0  0  0  0  0  0  0  0  0  0  0  0
    1.0053    1.8021    0.0021 H   0  0  0  0  0  0  0  0  0  0  0  0
   -0.5445    1.7859   -0.8732 H   0  0  0  0  0  0  0  0  0  0  0  0
   -0.5275    1.7763    0.9067 H   0  0  0  0  0  0  0  0  0  0  0  0
    1.1556    1.2159    2.0109 H   0  0  0  0  0  0  0  0  0  0  0  0
    2.2828    0.1052    3.8899 H   0  0  0  0  0  0  0  0  0  0  0  0
    1.3849   -3.7141    2.2178 H   0  0  0  0  0  0  0  0  0  0  0  0
    0.5714   -4.6080    0.8360 H   0  0  0  0  0  0  0  0  0  0  0  0
   -1.5543   -4.7662   -1.0169 H   0  0  0  0  0  0  0  0  0  0  0  0
   -0.0220   -4.7405   -1.9221 H   0  0  0  0  0  0  0  0  0  0  0  0
    0.7866   -6.6820   -0.6085 H   0  0  0  0  0  0  0  0  0  0  0  0
   -0.7458   -6.7077    0.2967 H   0  0  0  0  0  0  0  0  0  0  0  0
   -2.8117   -7.4028   -0.7772 H   0  0  0  0  0  0  0  0  0  0  0  0
   -3.8397   -8.7601   -2.5559 H   0  0  0  0  0  0  0  0  0  0  0  0
   -0.1628   -8.7137   -4.7164 H   0  0  0  0  0  0  0  0  0  0  0  0
    0.8628   -7.3493   -2.9416 H   0  0  0  0  0  0  0  0  0  0  0  0
   -4.5477   -7.3750   -7.9386 H   0  0  0  0  0  0  0  0  0  0  0  0
   -5.8287   -9.7718   -9.0072 H   0  0  0  0  0  0  0  0  0  0  0  0
   -3.7644   -8.2088  -10.6236 H   0  0  0  0  0  0  0  0  0  0  0  0
   -3.5649   -9.8694  -10.0144 H   0  0  0  0  0  0  0  0  0  0  0  0
   -4.2772   -9.8722  -12.3896 H   0  0  0  0  0  0  0  0  0  0  0  0
   -5.5265  -10.5939  -11.3471 H   0  0  0  0  0  0  0  0  0  0  0  0
   -5.4958   -7.7129  -12.3552 H   0  0  0  0  0  0  0  0  0  0  0  0
   -6.5298   -9.0202  -12.9798 H   0  0  0  0  0  0  0  0  0  0  0  0
   -7.7595   -7.6154  -11.3480 H   0  0  0  0  0  0  0  0  0  0  0  0
   -7.5601   -9.2759  -10.7388 H   0  0  0  0  0  0  0  0  0  0  0  0
   -7.0473   -7.6126   -8.9728 H   0  0  0  0  0  0  0  0  0  0  0  0
   -5.7980   -6.8909  -10.0153 H   0  0  0  0  0  0  0  0  0  0  0  0
  1  2  1  0  0  0  0
  1 34  1  0  0  0  0
  1 35  1  0  0  0  0
  1 36  1  0  0  0  0
  2  3  1  0  0  0  0
  3  8  2  0  0  0  0
  3  4  1  0  0  0  0
  4  5  2  0  0  0  0
  4 37  1  0  0  0  0
  5  6  1  0  0  0  0
  5 38  1  0  0  0  0
  6  7  2  0  0  0  0
  6 33  1  0  0  0  0
  7  8  1  0  0  0  0
  7 39  1  0  0  0  0
  8  9  1  0  0  0  0
  9 10  2  0  0  0  0
  9 11  1  0  0  0  0
 11 12  1  0  0  0  0
 11 40  1  0  0  0  0
 12 13  1  0  0  0  0
 12 41  1  0  0  0  0
 12 42  1  0  0  0  0
 13 14  1  0  0  0  0
 13 43  1  0  0  0  0
 13 44  1  0  0  0  0
 14 19  2  0  0  0  0
 14 15  1  0  0  0  0
 15 16  2  0  0  0  0
 15 45  1  0  0  0  0
 16 17  1  0  0  0  0
 16 46  1  0  0  0  0
 17 18  2  0  0  0  0
 17 20  1  0  0  0  0
 18 19  1  0  0  0  0
 18 47  1  0  0  0  0
 19 48  1  0  0  0  0
 20 21  2  0  0  0  0
 20 22  2  0  0  0  0
 20 23  1  0  0  0  0
 23 24  2  0  0  0  0
 24 25  1  0  0  0  0
 24 26  1  0  0  0  0
 26 27  1  0  0  0  0
 26 49  1  0  0  0  0
 27 32  1  0  0  0  0
 27 28  1  0  0  0  0
 27 50  1  0  0  0  0
 28 29  1  0  0  0  0
 28 51  1  0  0  0  0
 28 52  1  0  0  0  0
 29 30  1  0  0  0  0
 29 53  1  0  0  0  0
 29 54  1  0  0  0  0
 30 31  1  0  0  0  0
 30 55  1  0  0  0  0
 30 56  1  0  0  0  0
 31 32  1  0  0  0  0
 31 57  1  0  0  0  0
 31 58  1  0  0  0  0
 32 59  1  0  0  0  0
 32 60  1  0  0  0  0
M  CHG  1  25  -1
M  END
$$$$
