ZINC19796155
 OpenBabel08292219463D

 42 45  0  0  0  0  0  0  0  0999 V2000
   -0.0670    1.4396   -0.3852 C   0  0  0  0  0  0  0  0  0  0  0  0
   -0.0229   -0.0169   -0.1987 N   0  0  0  0  0  0  0  0  0  0  0  0
    0.3808   -0.6943   -1.4380 C   0  0  0  0  0  0  0  0  0  0  0  0
    0.2401   -2.2095   -1.2572 C   0  0  0  0  0  0  0  0  0  0  0  0
    0.9912   -2.6085   -0.0572 N   0  0  0  0  0  0  0  0  0  0  0  0
    0.7394   -1.8803    1.1955 C   0  0  0  0  0  0  0  0  0  0  0  0
    0.8604   -0.3781    0.9181 C   0  0  0  0  0  0  0  0  0  0  0  0
    1.9051   -3.6365   -0.1053 C   0  0  0  0  0  0  0  0  0  0  0  0
    2.1670   -4.1290   -1.2643 N   0  0  0  0  0  0  0  0  0  0  0  0
    3.0130   -5.1503   -1.5719 C   0  0  0  0  0  0  0  0  0  0  0  0
    2.6280   -6.0848   -2.5372 C   0  0  0  0  0  0  0  0  0  0  0  0
    3.4872   -7.1047   -2.8991 C   0  0  0  0  0  0  0  0  0  0  0  0
    4.7348   -7.2069   -2.3106 C   0  0  0  0  0  0  0  0  0  0  0  0
    5.1212   -6.2977   -1.3402 C   0  0  0  0  0  0  0  0  0  0  0  0
    4.2618   -5.2835   -0.9546 C   0  0  0  0  0  0  0  0  0  0  0  0
    4.6314   -4.4326    0.1003 N   0  0  0  0  0  0  0  0  0  0  0  0
    3.8434   -4.4184    1.2519 C   0  0  0  0  0  0  0  0  0  0  0  0
    2.4943   -4.0640    1.1729 C   0  0  0  0  0  0  0  0  0  0  0  0
    1.7072   -4.1133    2.3240 C   0  0  0  0  0  0  0  0  0  0  0  0
    2.2727   -4.4729    3.5311 C   0  0  0  0  0  0  0  0  0  0  0  0
    3.6189   -4.7825    3.6069 C   0  0  0  0  0  0  0  0  0  0  0  0
    4.3974   -4.7629    2.4751 C   0  0  0  0  0  0  0  0  0  0  0  0
    2.9987   -8.2627   -4.0966 Cl  0  0  0  0  0  0  0  0  0  0  0  0
    0.9359    1.8090   -0.5992 H   0  0  0  0  0  0  0  0  0  0  0  0
   -0.7279    1.6794   -1.2181 H   0  0  0  0  0  0  0  0  0  0  0  0
   -0.4416    1.9111    0.5233 H   0  0  0  0  0  0  0  0  0  0  0  0
   -0.2581   -0.3649   -2.2574 H   0  0  0  0  0  0  0  0  0  0  0  0
    1.4186   -0.4499   -1.6647 H   0  0  0  0  0  0  0  0  0  0  0  0
   -0.8117   -2.4673   -1.1334 H   0  0  0  0  0  0  0  0  0  0  0  0
    0.6453   -2.7216   -2.1299 H   0  0  0  0  0  0  0  0  0  0  0  0
   -0.2645   -2.1065    1.5551 H   0  0  0  0  0  0  0  0  0  0  0  0
    1.4746   -2.1748    1.9444 H   0  0  0  0  0  0  0  0  0  0  0  0
    1.8915   -0.1381    0.6586 H   0  0  0  0  0  0  0  0  0  0  0  0
    0.5693    0.1807    1.8075 H   0  0  0  0  0  0  0  0  0  0  0  0
    1.6558   -6.0097   -3.0016 H   0  0  0  0  0  0  0  0  0  0  0  0
    5.4083   -7.9971   -2.6081 H   0  0  0  0  0  0  0  0  0  0  0  0
    6.0961   -6.3802   -0.8829 H   0  0  0  0  0  0  0  0  0  0  0  0
    5.4169   -3.8679    0.0299 H   0  0  0  0  0  0  0  0  0  0  0  0
    0.6563   -3.8699    2.2709 H   0  0  0  0  0  0  0  0  0  0  0  0
    1.6613   -4.5124    4.4205 H   0  0  0  0  0  0  0  0  0  0  0  0
    4.0571   -5.0467    4.5580 H   0  0  0  0  0  0  0  0  0  0  0  0
    5.4473   -5.0071    2.5424 H   0  0  0  0  0  0  0  0  0  0  0  0
  1  2  1  0  0  0  0
  1 24  1  0  0  0  0
  1 25  1  0  0  0  0
  1 26  1  0  0  0  0
  2  7  1  0  0  0  0
  2  3  1  0  0  0  0
  3  4  1  0  0  0  0
  3 27  1  0  0  0  0
  3 28  1  0  0  0  0
  4  5  1  0  0  0  0
  4 29  1  0  0  0  0
  4 30  1  0  0  0  0
  5  6  1  0  0  0  0
  5  8  1  0  0  0  0
  6  7  1  0  0  0  0
  6 31  1  0  0  0  0
  6 32  1  0  0  0  0
  7 33  1  0  0  0  0
  7 34  1  0  0  0  0
  8 18  1  0  0  0  0
  8  9  2  0  0  0  0
  9 10  1  0  0  0  0
 10 15  2  0  0  0  0
 10 11  1  0  0  0  0
 11 12  2  0  0  0  0
 11 35  1  0  0  0  0
 12 13  1  0  0  0  0
 12 23  1  0  0  0  0
 13 14  2  0  0  0  0
 13 36  1  0  0  0  0
 14 15  1  0  0  0  0
 14 37  1  0  0  0  0
 15 16  1  0  0  0  0
 16 17  1  0  0  0  0
 16 38  1  0  0  0  0
 17 22  2  0  0  0  0
 17 18  1  0  0  0  0
 18 19  2  0  0  0  0
 19 20  1  0  0  0  0
 19 39  1  0  0  0  0
 20 21  2  0  0  0  0
 20 40  1  0  0  0  0
 21 22  1  0  0  0  0
 21 41  1  0  0  0  0
 22 42  1  0  0  0  0
M  END
$$$$
