ZINC00010402
 OpenBabel08292219463D

 41 43  0  0  0  0  0  0  0  0999 V2000
   -0.0178    1.4648    0.0101 C   0  0  0  0  0  0  0  0  0  0  0  0
    0.0021   -0.0041    0.0020 N   0  3  0  0  0  0  0  0  0  0  0  0
    0.6897   -0.4778   -1.2066 C   0  0  0  0  0  0  0  0  0  0  0  0
    0.7126   -0.4907    1.1921 C   0  0  0  0  0  0  0  0  0  0  0  0
   -0.0711   -0.1034    2.4478 C   0  0  0  0  0  0  0  0  0  0  0  0
    0.6689   -0.6103    3.6874 C   0  0  0  0  0  0  0  0  0  0  0  0
   -0.0815   -0.2395    4.8897 N   0  0  0  0  0  0  0  0  0  0  0  0
    0.1850    0.9881    5.5056 C   0  0  0  0  0  0  0  0  0  0  0  0
    1.4828    1.4707    5.5711 C   0  0  0  0  0  0  0  0  0  0  0  0
    1.7388    2.6851    6.1835 C   0  0  0  0  0  0  0  0  0  0  0  0
    0.7081    3.4235    6.7325 C   0  0  0  0  0  0  0  0  0  0  0  0
   -0.5929    2.9509    6.6726 C   0  0  0  0  0  0  0  0  0  0  0  0
   -0.8536    1.7391    6.0620 C   0  0  0  0  0  0  0  0  0  0  0  0
   -2.5010    1.1099    5.9702 S   0  0  0  0  0  0  0  0  0  0  0  0
   -2.2363   -0.6355    5.9314 C   0  0  0  0  0  0  0  0  0  0  0  0
   -1.0482   -1.1205    5.3863 C   0  0  0  0  0  0  0  0  0  0  0  0
   -0.8334   -2.4893    5.3466 C   0  0  0  0  0  0  0  0  0  0  0  0
   -1.7935   -3.3545    5.8417 C   0  0  0  0  0  0  0  0  0  0  0  0
   -2.9689   -2.8637    6.3773 C   0  0  0  0  0  0  0  0  0  0  0  0
   -3.1879   -1.5059    6.4275 C   0  0  0  0  0  0  0  0  0  0  0  0
    1.0047    1.8421    0.0024 H   0  0  0  0  0  0  0  0  0  0  0  0
   -0.5450    1.8259   -0.8730 H   0  0  0  0  0  0  0  0  0  0  0  0
   -0.5280    1.8163    0.9069 H   0  0  0  0  0  0  0  0  0  0  0  0
    1.7123   -0.1005   -1.2143 H   0  0  0  0  0  0  0  0  0  0  0  0
    0.7044   -1.5677   -1.2126 H   0  0  0  0  0  0  0  0  0  0  0  0
    0.1625   -0.1167   -2.0897 H   0  0  0  0  0  0  0  0  0  0  0  0
    0.8051   -1.5756    1.1418 H   0  0  0  0  0  0  0  0  0  0  0  0
    1.7055   -0.0428    1.2310 H   0  0  0  0  0  0  0  0  0  0  0  0
   -0.1636    0.9815    2.4982 H   0  0  0  0  0  0  0  0  0  0  0  0
   -1.0640   -0.5514    2.4090 H   0  0  0  0  0  0  0  0  0  0  0  0
    0.7614   -1.6952    3.6370 H   0  0  0  0  0  0  0  0  0  0  0  0
    1.6619   -0.1623    3.7262 H   0  0  0  0  0  0  0  0  0  0  0  0
    2.2939    0.8990    5.1448 H   0  0  0  0  0  0  0  0  0  0  0  0
    2.7512    3.0580    6.2329 H   0  0  0  0  0  0  0  0  0  0  0  0
    0.9168    4.3699    7.2092 H   0  0  0  0  0  0  0  0  0  0  0  0
   -1.3995    3.5269    7.1014 H   0  0  0  0  0  0  0  0  0  0  0  0
    0.0826   -2.8805    4.9292 H   0  0  0  0  0  0  0  0  0  0  0  0
   -1.6230   -4.4205    5.8089 H   0  0  0  0  0  0  0  0  0  0  0  0
   -3.7127   -3.5459    6.7618 H   0  0  0  0  0  0  0  0  0  0  0  0
   -4.1071   -1.1234    6.8461 H   0  0  0  0  0  0  0  0  0  0  0  0
   -0.9445   -0.3533    0.0092 H   0  0  0  0  0  0  0  0  0  0  0  0
  1  2  1  0  0  0  0
  1 21  1  0  0  0  0
  1 22  1  0  0  0  0
  1 23  1  0  0  0  0
  2  3  1  0  0  0  0
  2  4  1  0  0  0  0
  2 41  1  0  0  0  0
  3 24  1  0  0  0  0
  3 25  1  0  0  0  0
  3 26  1  0  0  0  0
  4  5  1  0  0  0  0
  4 27  1  0  0  0  0
  4 28  1  0  0  0  0
  5  6  1  0  0  0  0
  5 29  1  0  0  0  0
  5 30  1  0  0  0  0
  6  7  1  0  0  0  0
  6 31  1  0  0  0  0
  6 32  1  0  0  0  0
  7 16  1  0  0  0  0
  7  8  1  0  0  0  0
  8 13  2  0  0  0  0
  8  9  1  0  0  0  0
  9 10  2  0  0  0  0
  9 33  1  0  0  0  0
 10 11  1  0  0  0  0
 10 34  1  0  0  0  0
 11 12  2  0  0  0  0
 11 35  1  0  0  0  0
 12 13  1  0  0  0  0
 12 36  1  0  0  0  0
 13 14  1  0  0  0  0
 14 15  1  0  0  0  0
 15 20  2  0  0  0  0
 15 16  1  0  0  0  0
 16 17  2  0  0  0  0
 17 18  1  0  0  0  0
 17 37  1  0  0  0  0
 18 19  2  0  0  0  0
 18 38  1  0  0  0  0
 19 20  1  0  0  0  0
 19 39  1  0  0  0  0
 20 40  1  0  0  0  0
M  CHG  1   2   1
M  END
$$$$
