ZINC00005608
 OpenBabel08292219463D

 35 36  0  0  0  0  0  0  0  0999 V2000
   -2.9574    6.9806    6.3042 C   0  0  0  0  0  0  0  0  0  0  0  0
   -3.5914    6.1077    5.2520 C   0  0  0  0  0  0  0  0  0  0  0  0
   -4.0873    6.6099    4.2657 O   0  0  0  0  0  0  0  0  0  0  0  0
   -3.6074    4.7690    5.4071 N   0  0  0  0  0  0  0  0  0  0  0  0
   -4.2238    3.9205    4.3842 C   0  0  0  0  0  0  0  0  0  0  0  0
   -4.1077    2.4530    4.8012 C   0  0  0  0  0  0  0  0  0  0  0  0
   -4.7418    1.5801    3.7490 C   0  0  0  0  0  0  0  0  0  0  0  0
   -6.0350    1.1769    3.8829 C   0  0  0  0  0  0  0  0  0  0  0  0
   -6.6377    0.3691    2.9208 C   0  0  0  0  0  0  0  0  0  0  0  0
   -5.9511   -0.0396    1.8186 C   0  0  0  0  0  0  0  0  0  0  0  0
   -4.6144    0.3562    1.6455 C   0  0  0  0  0  0  0  0  0  0  0  0
   -4.0008    1.1778    2.6246 C   0  0  0  0  0  0  0  0  0  0  0  0
   -2.6623    1.5691    2.4561 C   0  0  0  0  0  0  0  0  0  0  0  0
   -1.9747    1.1631    1.3482 C   0  0  0  0  0  0  0  0  0  0  0  0
   -2.5823    0.3530    0.3835 C   0  0  0  0  0  0  0  0  0  0  0  0
   -3.8745   -0.0476    0.5202 C   0  0  0  0  0  0  0  0  0  0  0  0
   -0.6816    1.5467    1.1837 O   0  0  0  0  0  0  0  0  0  0  0  0
   -0.0127    1.0858    0.0080 C   0  0  0  0  0  0  0  0  0  0  0  0
   -2.5689    6.3560    7.1087 H   0  0  0  0  0  0  0  0  0  0  0  0
   -2.1411    7.5503    5.8601 H   0  0  0  0  0  0  0  0  0  0  0  0
   -3.7034    7.6668    6.7049 H   0  0  0  0  0  0  0  0  0  0  0  0
   -3.2108    4.3673    6.1959 H   0  0  0  0  0  0  0  0  0  0  0  0
   -3.7132    4.0693    3.4327 H   0  0  0  0  0  0  0  0  0  0  0  0
   -5.2756    4.1858    4.2775 H   0  0  0  0  0  0  0  0  0  0  0  0
   -4.6183    2.3041    5.7526 H   0  0  0  0  0  0  0  0  0  0  0  0
   -3.0559    2.1876    4.9078 H   0  0  0  0  0  0  0  0  0  0  0  0
   -6.6022    1.4874    4.7479 H   0  0  0  0  0  0  0  0  0  0  0  0
   -7.6651    0.0628    3.0513 H   0  0  0  0  0  0  0  0  0  0  0  0
   -6.4316   -0.6653    1.0811 H   0  0  0  0  0  0  0  0  0  0  0  0
   -2.1809    2.1906    3.1965 H   0  0  0  0  0  0  0  0  0  0  0  0
   -2.0170    0.0409   -0.4822 H   0  0  0  0  0  0  0  0  0  0  0  0
   -4.3306   -0.6737   -0.2324 H   0  0  0  0  0  0  0  0  0  0  0  0
    0.0021   -0.0041    0.0020 H   0  0  0  0  0  0  0  0  0  0  0  0
    1.0099    1.4631    0.0003 H   0  0  0  0  0  0  0  0  0  0  0  0
   -0.5399    1.4469   -0.8751 H   0  0  0  0  0  0  0  0  0  0  0  0
  1  2  1  0  0  0  0
  1 19  1  0  0  0  0
  1 20  1  0  0  0  0
  1 21  1  0  0  0  0
  2  3  2  0  0  0  0
  2  4  1  0  0  0  0
  4  5  1  0  0  0  0
  4 22  1  0  0  0  0
  5  6  1  0  0  0  0
  5 23  1  0  0  0  0
  5 24  1  0  0  0  0
  6  7  1  0  0  0  0
  6 25  1  0  0  0  0
  6 26  1  0  0  0  0
  7 12  2  0  0  0  0
  7  8  1  0  0  0  0
  8  9  2  0  0  0  0
  8 27  1  0  0  0  0
  9 10  1  0  0  0  0
  9 28  1  0  0  0  0
 10 11  2  0  0  0  0
 10 29  1  0  0  0  0
 11 16  1  0  0  0  0
 11 12  1  0  0  0  0
 12 13  1  0  0  0  0
 13 14  2  0  0  0  0
 13 30  1  0  0  0  0
 14 15  1  0  0  0  0
 14 17  1  0  0  0  0
 15 16  2  0  0  0  0
 15 31  1  0  0  0  0
 16 32  1  0  0  0  0
 17 18  1  0  0  0  0
 18 33  1  0  0  0  0
 18 34  1  0  0  0  0
 18 35  1  0  0  0  0
M  END
$$$$
