ZINC02011568
 OpenBabel08292219463D

 46 50  0  0  1  0  0  0  0  0999 V2000
   -0.0167    1.3795    0.0096 C   0  0  0  0  0  0  0  0  0  0  0  0
    1.1652    2.0958    0.0022 C   0  0  0  0  0  0  0  0  0  0  0  0
    2.3799    1.4302   -0.0132 C   0  0  0  0  0  0  0  0  0  0  0  0
    2.4038    0.0485   -0.0206 C   0  0  0  0  0  0  0  0  0  0  0  0
    1.2121   -0.6805   -0.0125 C   0  0  0  0  0  0  0  0  0  0  0  0
    0.0021   -0.0041    0.0020 C   0  0  0  0  0  0  0  0  0  0  0  0
    1.2386   -2.0792   -0.0168 N   0  0  0  0  0  0  0  0  0  0  0  0
    2.2017   -2.8020    0.6953 C   0  0  0  0  0  0  0  0  0  0  0  0
    1.8596   -3.9859    1.3302 C   0  0  0  0  0  0  0  0  0  0  0  0
    2.8171   -4.6952    2.0337 C   0  0  0  0  0  0  0  0  0  0  0  0
    4.1169   -4.2316    2.1091 C   0  0  0  0  0  0  0  0  0  0  0  0
    4.4699   -3.0499    1.4783 C   0  0  0  0  0  0  0  0  0  0  0  0
    3.5171   -2.3380    0.7747 C   0  0  0  0  0  0  0  0  0  0  0  0
    3.9364   -0.8283   -0.0398 S   0  0  0  0  0  0  0  0  0  0  0  0
    0.2287   -2.8078   -0.7884 C   0  0  0  0  0  0  0  0  0  0  0  0
    0.7437   -3.0415   -2.2101 C   0  0  1  0  0  0  0  0  0  0  0  0
    1.0270   -2.0886   -2.6572 H   0  0  0  0  0  0  0  0  0  0  0  0
    1.9594   -3.9702   -2.1689 C   0  0  0  0  0  0  0  0  0  0  0  0
    1.6891   -5.1847   -2.9419 N   0  3  1  0  0  0  0  0  0  0  0  0
    0.5572   -5.9182   -2.3708 C   0  0  0  0  0  0  0  0  0  0  0  0
   -0.7050   -5.0543   -2.4186 C   0  0  0  0  0  0  0  0  0  0  0  0
   -0.3564   -3.6986   -3.0539 C   0  0  2  0  0  0  0  0  0  0  0  0
    0.2006   -3.9542   -4.4607 C   0  0  0  0  0  0  0  0  0  0  0  0
    1.4351   -4.8560   -4.3466 C   0  0  0  0  0  0  0  0  0  0  0  0
   -0.9611    1.9031    0.0260 H   0  0  0  0  0  0  0  0  0  0  0  0
    1.1417    3.1755    0.0080 H   0  0  0  0  0  0  0  0  0  0  0  0
    3.3043    1.9887   -0.0197 H   0  0  0  0  0  0  0  0  0  0  0  0
   -0.9257   -0.5569    0.0074 H   0  0  0  0  0  0  0  0  0  0  0  0
    0.8459   -4.3544    1.2761 H   0  0  0  0  0  0  0  0  0  0  0  0
    2.5469   -5.6169    2.5275 H   0  0  0  0  0  0  0  0  0  0  0  0
    4.8581   -4.7910    2.6605 H   0  0  0  0  0  0  0  0  0  0  0  0
    5.4852   -2.6864    1.5365 H   0  0  0  0  0  0  0  0  0  0  0  0
    0.0297   -3.7676   -0.3117 H   0  0  0  0  0  0  0  0  0  0  0  0
   -0.6908   -2.2235   -0.8266 H   0  0  0  0  0  0  0  0  0  0  0  0
    2.8219   -3.4559   -2.5929 H   0  0  0  0  0  0  0  0  0  0  0  0
    2.1736   -4.2399   -1.1347 H   0  0  0  0  0  0  0  0  0  0  0  0
    0.3923   -6.8313   -2.9427 H   0  0  0  0  0  0  0  0  0  0  0  0
    0.7793   -6.1771   -1.3355 H   0  0  0  0  0  0  0  0  0  0  0  0
   -1.4666   -5.5529   -3.0181 H   0  0  0  0  0  0  0  0  0  0  0  0
   -1.0788   -4.8973   -1.4067 H   0  0  0  0  0  0  0  0  0  0  0  0
   -1.2372   -3.0577   -3.0914 H   0  0  0  0  0  0  0  0  0  0  0  0
   -0.5577   -4.4460   -5.0700 H   0  0  0  0  0  0  0  0  0  0  0  0
    0.4825   -3.0066   -4.9196 H   0  0  0  0  0  0  0  0  0  0  0  0
    2.3002   -4.3365   -4.7587 H   0  0  0  0  0  0  0  0  0  0  0  0
    1.2657   -5.7748   -4.9081 H   0  0  0  0  0  0  0  0  0  0  0  0
    2.5023   -5.7803   -2.8955 H   0  0  0  0  0  0  0  0  0  0  0  0
  1  6  2  0  0  0  0
  1  2  1  0  0  0  0
  1 25  1  0  0  0  0
  2  3  2  0  0  0  0
  2 26  1  0  0  0  0
  3  4  1  0  0  0  0
  3 27  1  0  0  0  0
  4 14  1  0  0  0  0
  4  5  2  0  0  0  0
  5  6  1  0  0  0  0
  5  7  1  0  0  0  0
  6 28  1  0  0  0  0
  7  8  1  0  0  0  0
  7 15  1  0  0  0  0
  8 13  2  0  0  0  0
  8  9  1  0  0  0  0
  9 10  2  0  0  0  0
  9 29  1  0  0  0  0
 10 11  1  0  0  0  0
 10 30  1  0  0  0  0
 11 12  2  0  0  0  0
 11 31  1  0  0  0  0
 12 13  1  0  0  0  0
 12 32  1  0  0  0  0
 13 14  1  0  0  0  0
 15 16  1  0  0  0  0
 15 33  1  0  0  0  0
 15 34  1  0  0  0  0
 16 17  1  6  0  0  0
 16 22  1  0  0  0  0
 16 18  1  0  0  0  0
 18 19  1  0  0  0  0
 18 35  1  0  0  0  0
 18 36  1  0  0  0  0
 19 24  1  0  0  0  0
 19 20  1  0  0  0  0
 19 46  1  1  0  0  0
 20 21  1  0  0  0  0
 20 37  1  0  0  0  0
 20 38  1  0  0  0  0
 21 22  1  0  0  0  0
 21 39  1  0  0  0  0
 21 40  1  0  0  0  0
 22 23  1  0  0  0  0
 22 41  1  6  0  0  0
 23 24  1  0  0  0  0
 23 42  1  0  0  0  0
 23 43  1  0  0  0  0
 24 44  1  0  0  0  0
 24 45  1  0  0  0  0
M  CHG  1  19   1
M  END
$$$$
