ZINC00007782
 OpenBabel08292219463D

 25 26  0  0  0  0  0  0  0  0999 V2000
   -0.0167    1.3779    0.0096 C   0  0  0  0  0  0  0  0  0  0  0  0
    1.1701    2.0862    0.0021 C   0  0  0  0  0  0  0  0  0  0  0  0
    2.3794    1.4118   -0.0135 C   0  0  0  0  0  0  0  0  0  0  0  0
    2.3994    0.0278   -0.0211 C   0  0  0  0  0  0  0  0  0  0  0  0
    1.2102   -0.6806   -0.0131 C   0  0  0  0  0  0  0  0  0  0  0  0
    0.0021   -0.0041    0.0020 C   0  0  0  0  0  0  0  0  0  0  0  0
    1.2282   -2.0314   -0.0204 F   0  0  0  0  0  0  0  0  0  0  0  0
    3.7149   -0.7073   -0.0385 C   0  0  0  0  0  0  0  0  0  0  0  0
    4.1553   -0.9528    1.3369 N   0  0  0  0  0  0  0  0  0  0  0  0
    4.4785   -2.1452    1.8766 C   0  0  0  0  0  0  0  0  0  0  0  0
    4.8307   -1.9095    3.1751 C   0  0  0  0  0  0  0  0  0  0  0  0
    4.7207   -0.5914    3.4133 N   0  0  0  0  0  0  0  0  0  0  0  0
    4.3278    0.0079    2.3435 N   0  0  0  0  0  0  0  0  0  0  0  0
    5.2590   -2.9294    4.1512 C   0  0  0  0  0  0  0  0  0  0  0  0
    5.3211   -4.0982    3.8216 O   0  0  0  0  0  0  0  0  0  0  0  0
    5.5815   -2.5656    5.4083 N   0  0  0  0  0  0  0  0  0  0  0  0
    3.5393    2.1044   -0.0217 F   0  0  0  0  0  0  0  0  0  0  0  0
   -0.9594    1.9046    0.0259 H   0  0  0  0  0  0  0  0  0  0  0  0
    1.1543    3.1660    0.0080 H   0  0  0  0  0  0  0  0  0  0  0  0
   -0.9259   -0.5565    0.0082 H   0  0  0  0  0  0  0  0  0  0  0  0
    3.5926   -1.6587   -0.5562 H   0  0  0  0  0  0  0  0  0  0  0  0
    4.4609   -0.1049   -0.5569 H   0  0  0  0  0  0  0  0  0  0  0  0
    4.4620   -3.1031    1.3779 H   0  0  0  0  0  0  0  0  0  0  0  0
    5.5320   -1.6333    5.6712 H   0  0  0  0  0  0  0  0  0  0  0  0
    5.8631   -3.2362    6.0501 H   0  0  0  0  0  0  0  0  0  0  0  0
  1  6  2  0  0  0  0
  1  2  1  0  0  0  0
  1 18  1  0  0  0  0
  2  3  2  0  0  0  0
  2 19  1  0  0  0  0
  3  4  1  0  0  0  0
  3 17  1  0  0  0  0
  4  5  2  0  0  0  0
  4  8  1  0  0  0  0
  5  6  1  0  0  0  0
  5  7  1  0  0  0  0
  6 20  1  0  0  0  0
  8  9  1  0  0  0  0
  8 21  1  0  0  0  0
  8 22  1  0  0  0  0
  9 13  1  0  0  0  0
  9 10  1  0  0  0  0
 10 11  2  0  0  0  0
 10 23  1  0  0  0  0
 11 12  1  0  0  0  0
 11 14  1  0  0  0  0
 12 13  2  0  0  0  0
 14 15  2  0  0  0  0
 14 16  1  0  0  0  0
 16 24  1  0  0  0  0
 16 25  1  0  0  0  0
M  END
$$$$
