ZINC22002214
 OpenBabel08292219463D

 44 46  0  0  1  0  0  0  0  0999 V2000
   -0.0187    1.5258    0.0104 C   0  0  0  0  0  0  0  0  0  0  0  0
    0.0021   -0.0041    0.0020 C   0  0  0  0  0  0  0  0  0  0  0  0
   -1.4117   -0.5257    0.0127 C   0  0  0  0  0  0  0  0  0  0  0  0
   -2.1658   -0.8072    1.0953 C   0  0  0  0  0  0  0  0  0  0  0  0
   -3.3922   -1.2580    0.6864 N   0  0  0  0  0  0  0  0  0  0  0  0
   -4.1101   -1.5253    1.2814 H   0  0  0  0  0  0  0  0  0  0  0  0
   -3.4610   -1.2774   -0.6485 C   0  0  0  0  0  0  0  0  0  0  0  0
   -2.2434   -0.8222   -1.1401 C   0  0  0  0  0  0  0  0  0  0  0  0
   -1.9770   -0.7161   -2.5784 C   0  0  0  0  0  0  0  0  0  0  0  0
   -1.0037   -0.1415   -3.0200 O   0  0  0  0  0  0  0  0  0  0  0  0
   -3.0115   -1.3795   -3.4764 C   0  0  1  0  0  0  0  0  0  0  0  0
   -2.8592   -2.4588   -3.4769 H   0  0  0  0  0  0  0  0  0  0  0  0
   -4.4052   -1.0552   -2.9291 C   0  0  0  0  0  0  0  0  0  0  0  0
   -4.6004   -1.6887   -1.5453 C   0  0  0  0  0  0  0  0  0  0  0  0
   -2.8784   -0.8398   -4.9019 C   0  0  0  0  0  0  0  0  0  0  0  0
   -1.5763   -1.2349   -5.4555 N   0  0  0  0  0  0  0  0  0  0  0  0
   -1.4991   -2.6924   -5.6318 C   0  0  0  0  0  0  0  0  0  0  0  0
   -0.1086   -3.0650   -6.1529 C   0  0  0  0  0  0  0  0  0  0  0  0
    0.1439   -2.3583   -7.3703 O   0  0  0  0  0  0  0  0  0  0  0  0
    0.0774   -0.9361   -7.2348 C   0  0  0  0  0  0  0  0  0  0  0  0
   -1.3112   -0.5419   -6.7246 C   0  0  0  0  0  0  0  0  0  0  0  0
   -1.7274   -0.6507    2.5286 C   0  0  0  0  0  0  0  0  0  0  0  0
    1.0039    1.9031    0.0027 H   0  0  0  0  0  0  0  0  0  0  0  0
   -0.5459    1.8868   -0.8726 H   0  0  0  0  0  0  0  0  0  0  0  0
   -0.5289    1.8773    0.9072 H   0  0  0  0  0  0  0  0  0  0  0  0
    0.5123   -0.3556   -0.8948 H   0  0  0  0  0  0  0  0  0  0  0  0
    0.5293   -0.3651    0.8851 H   0  0  0  0  0  0  0  0  0  0  0  0
   -4.5185    0.0263   -2.8538 H   0  0  0  0  0  0  0  0  0  0  0  0
   -5.1590   -1.4477   -3.6116 H   0  0  0  0  0  0  0  0  0  0  0  0
   -4.6224   -2.7751   -1.6308 H   0  0  0  0  0  0  0  0  0  0  0  0
   -5.5415   -1.3370   -1.1226 H   0  0  0  0  0  0  0  0  0  0  0  0
   -3.6761   -1.2495   -5.5215 H   0  0  0  0  0  0  0  0  0  0  0  0
   -2.9520    0.2476   -4.8870 H   0  0  0  0  0  0  0  0  0  0  0  0
   -1.6731   -3.1844   -4.6749 H   0  0  0  0  0  0  0  0  0  0  0  0
   -2.2546   -3.0127   -6.3492 H   0  0  0  0  0  0  0  0  0  0  0  0
    0.6428   -2.7931   -5.4116 H   0  0  0  0  0  0  0  0  0  0  0  0
   -0.0654   -4.1381   -6.3393 H   0  0  0  0  0  0  0  0  0  0  0  0
    0.8342   -0.6023   -6.5250 H   0  0  0  0  0  0  0  0  0  0  0  0
    0.2552   -0.4695   -8.2037 H   0  0  0  0  0  0  0  0  0  0  0  0
   -2.0637   -0.8278   -7.4596 H   0  0  0  0  0  0  0  0  0  0  0  0
   -1.3481    0.5358   -6.5655 H   0  0  0  0  0  0  0  0  0  0  0  0
   -1.9768    0.3514    2.8775 H   0  0  0  0  0  0  0  0  0  0  0  0
   -2.2380   -1.3885    3.1474 H   0  0  0  0  0  0  0  0  0  0  0  0
   -0.6501   -0.8017    2.5975 H   0  0  0  0  0  0  0  0  0  0  0  0
  1  2  1  0  0  0  0
  1 23  1  0  0  0  0
  1 24  1  0  0  0  0
  1 25  1  0  0  0  0
  2  3  1  0  0  0  0
  2 26  1  0  0  0  0
  2 27  1  0  0  0  0
  3  8  1  0  0  0  0
  3  4  2  0  0  0  0
  4  5  1  0  0  0  0
  4 22  1  0  0  0  0
  5  6  1  0  0  0  0
  5  7  1  0  0  0  0
  7 14  1  0  0  0  0
  7  8  2  0  0  0  0
  8  9  1  0  0  0  0
  9 10  2  0  0  0  0
  9 11  1  0  0  0  0
 11 12  1  6  0  0  0
 11 13  1  0  0  0  0
 11 15  1  0  0  0  0
 13 14  1  0  0  0  0
 13 28  1  0  0  0  0
 13 29  1  0  0  0  0
 14 30  1  0  0  0  0
 14 31  1  0  0  0  0
 15 16  1  0  0  0  0
 15 32  1  0  0  0  0
 15 33  1  0  0  0  0
 16 21  1  0  0  0  0
 16 17  1  0  0  0  0
 17 18  1  0  0  0  0
 17 34  1  0  0  0  0
 17 35  1  0  0  0  0
 18 19  1  0  0  0  0
 18 36  1  0  0  0  0
 18 37  1  0  0  0  0
 19 20  1  0  0  0  0
 20 21  1  0  0  0  0
 20 38  1  0  0  0  0
 20 39  1  0  0  0  0
 21 40  1  0  0  0  0
 21 41  1  0  0  0  0
 22 42  1  0  0  0  0
 22 43  1  0  0  0  0
 22 44  1  0  0  0  0
M  END
$$$$
