ZINC13763987
 OpenBabel08292219463D

 58 60  0  0  0  0  0  0  0  0999 V2000
    0.1578    1.5374   -0.0550 C   0  0  0  0  0  0  0  0  0  0  0  0
    0.1405    0.0725   -0.0490 N   0  0  0  0  0  0  0  0  0  0  0  0
    0.1526   -0.6549    1.2226 C   0  0  0  0  0  0  0  0  0  0  0  0
    0.1130   -0.6173   -1.2329 C   0  0  0  0  0  0  0  0  0  0  0  0
    0.0907   -2.0163   -1.2253 C   0  0  0  0  0  0  0  0  0  0  0  0
    0.0634   -2.7049   -2.4005 C   0  0  0  0  0  0  0  0  0  0  0  0
    0.0571   -2.0088   -3.6208 C   0  0  0  0  0  0  0  0  0  0  0  0
    0.0791   -0.6041   -3.6251 C   0  0  0  0  0  0  0  0  0  0  0  0
    0.1015    0.0789   -2.4465 C   0  0  0  0  0  0  0  0  0  0  0  0
    0.0283   -2.7459   -4.8858 C   0  0  0  0  0  0  0  0  0  0  0  0
   -1.1318   -2.6338   -5.7722 C   0  0  0  0  0  0  0  0  0  0  0  0
   -2.2155   -1.8149   -5.4131 C   0  0  0  0  0  0  0  0  0  0  0  0
   -3.2932   -1.7123   -6.2402 C   0  0  0  0  0  0  0  0  0  0  0  0
   -3.3218   -2.4218   -7.4458 C   0  0  0  0  0  0  0  0  0  0  0  0
   -4.4076   -2.3168   -8.2754 N   0  0  0  0  0  4  0  0  0  0  0  0
   -5.5932   -1.5745   -7.8399 C   0  0  0  0  0  0  0  0  0  0  0  0
   -4.3827   -2.9470   -9.5977 C   0  0  0  0  0  0  0  0  0  0  0  0
   -2.2440   -3.2378   -7.8064 C   0  0  0  0  0  0  0  0  0  0  0  0
   -1.1610   -3.3404   -6.9861 C   0  0  0  0  0  0  0  0  0  0  0  0
    1.1595   -3.5951   -5.2643 C   0  0  0  0  0  0  0  0  0  0  0  0
    1.4688   -4.7356   -4.5044 C   0  0  0  0  0  0  0  0  0  0  0  0
    2.5217   -5.5239   -4.8594 C   0  0  0  0  0  0  0  0  0  0  0  0
    3.2949   -5.1986   -5.9792 C   0  0  0  0  0  0  0  0  0  0  0  0
    2.9897   -4.0632   -6.7377 C   0  0  0  0  0  0  0  0  0  0  0  0
    1.9343   -3.2743   -6.3915 C   0  0  0  0  0  0  0  0  0  0  0  0
    4.3537   -5.9934   -6.3335 N   0  0  0  0  0  0  0  0  0  0  0  0
    4.6068   -7.2418   -5.6099 C   0  0  0  0  0  0  0  0  0  0  0  0
    5.2324   -5.5946   -7.4358 C   0  0  0  0  0  0  0  0  0  0  0  0
    1.1895    1.8885   -0.0733 H   0  0  0  0  0  0  0  0  0  0  0  0
   -0.3662    1.9033   -0.9380 H   0  0  0  0  0  0  0  0  0  0  0  0
   -0.3371    1.9103    0.8417 H   0  0  0  0  0  0  0  0  0  0  0  0
    0.1745    0.0566    2.0480 H   0  0  0  0  0  0  0  0  0  0  0  0
   -0.7436   -1.2708    1.2974 H   0  0  0  0  0  0  0  0  0  0  0  0
    1.0360   -1.2919    1.2684 H   0  0  0  0  0  0  0  0  0  0  0  0
    0.0955   -2.5508   -0.2869 H   0  0  0  0  0  0  0  0  0  0  0  0
    0.0469   -3.7848   -2.3941 H   0  0  0  0  0  0  0  0  0  0  0  0
    0.0744   -0.0662   -4.5616 H   0  0  0  0  0  0  0  0  0  0  0  0
    0.1143    1.1588   -2.4490 H   0  0  0  0  0  0  0  0  0  0  0  0
   -2.1943   -1.2676   -4.4823 H   0  0  0  0  0  0  0  0  0  0  0  0
   -4.1266   -1.0830   -5.9647 H   0  0  0  0  0  0  0  0  0  0  0  0
   -5.4962   -0.5296   -8.1347 H   0  0  0  0  0  0  0  0  0  0  0  0
   -6.4811   -2.0025   -8.3053 H   0  0  0  0  0  0  0  0  0  0  0  0
   -5.6843   -1.6391   -6.7557 H   0  0  0  0  0  0  0  0  0  0  0  0
   -3.4649   -3.5244   -9.7078 H   0  0  0  0  0  0  0  0  0  0  0  0
   -5.2428   -3.6085   -9.7012 H   0  0  0  0  0  0  0  0  0  0  0  0
   -4.4221   -2.1768  -10.3680 H   0  0  0  0  0  0  0  0  0  0  0  0
   -2.2688   -3.7839   -8.7378 H   0  0  0  0  0  0  0  0  0  0  0  0
   -0.3276   -3.9672   -7.2670 H   0  0  0  0  0  0  0  0  0  0  0  0
    0.8728   -4.9869   -3.6395 H   0  0  0  0  0  0  0  0  0  0  0  0
    2.7599   -6.4008   -4.2756 H   0  0  0  0  0  0  0  0  0  0  0  0
    3.5887   -3.8144   -7.6013 H   0  0  0  0  0  0  0  0  0  0  0  0
    1.6963   -2.4007   -6.9802 H   0  0  0  0  0  0  0  0  0  0  0  0
    4.0682   -8.0572   -6.0927 H   0  0  0  0  0  0  0  0  0  0  0  0
    5.6754   -7.4566   -5.6187 H   0  0  0  0  0  0  0  0  0  0  0  0
    4.2651   -7.1404   -4.5798 H   0  0  0  0  0  0  0  0  0  0  0  0
    4.8381   -4.6943   -7.9072 H   0  0  0  0  0  0  0  0  0  0  0  0
    6.2318   -5.3946   -7.0496 H   0  0  0  0  0  0  0  0  0  0  0  0
    5.2809   -6.3981   -8.1707 H   0  0  0  0  0  0  0  0  0  0  0  0
  1  2  1  0  0  0  0
  1 29  1  0  0  0  0
  1 30  1  0  0  0  0
  1 31  1  0  0  0  0
  2  3  1  0  0  0  0
  2  4  1  0  0  0  0
  3 32  1  0  0  0  0
  3 33  1  0  0  0  0
  3 34  1  0  0  0  0
  4  9  2  0  0  0  0
  4  5  1  0  0  0  0
  5  6  2  0  0  0  0
  5 35  1  0  0  0  0
  6  7  1  0  0  0  0
  6 36  1  0  0  0  0
  7  8  2  0  0  0  0
  7 10  1  0  0  0  0
  8  9  1  0  0  0  0
  8 37  1  0  0  0  0
  9 38  1  0  0  0  0
 10 11  2  0  0  0  0
 10 20  1  0  0  0  0
 11 19  1  0  0  0  0
 11 12  1  0  0  0  0
 12 13  2  0  0  0  0
 12 39  1  0  0  0  0
 13 14  1  0  0  0  0
 13 40  1  0  0  0  0
 14 15  2  0  0  0  0
 14 18  1  0  0  0  0
 15 16  1  0  0  0  0
 15 17  1  0  0  0  0
 16 41  1  0  0  0  0
 16 42  1  0  0  0  0
 16 43  1  0  0  0  0
 17 44  1  0  0  0  0
 17 45  1  0  0  0  0
 17 46  1  0  0  0  0
 18 19  2  0  0  0  0
 18 47  1  0  0  0  0
 19 48  1  0  0  0  0
 20 25  2  0  0  0  0
 20 21  1  0  0  0  0
 21 22  2  0  0  0  0
 21 49  1  0  0  0  0
 22 23  1  0  0  0  0
 22 50  1  0  0  0  0
 23 24  2  0  0  0  0
 23 26  1  0  0  0  0
 24 25  1  0  0  0  0
 24 51  1  0  0  0  0
 25 52  1  0  0  0  0
 26 27  1  0  0  0  0
 26 28  1  0  0  0  0
 27 53  1  0  0  0  0
 27 54  1  0  0  0  0
 27 55  1  0  0  0  0
 28 56  1  0  0  0  0
 28 57  1  0  0  0  0
 28 58  1  0  0  0  0
M  END
$$$$
