ZINC01842633
 OpenBabel08292219463D

 41 42  0  0  1  0  0  0  0  0999 V2000
    0.0943    1.4874    0.0010 C   0  0  0  0  0  0  0  0  0  0  0  0
    0.2588   -0.0106    0.0133 C   0  0  0  0  0  0  0  0  0  0  0  0
    0.4584   -0.6940   -1.1708 C   0  0  0  0  0  0  0  0  0  0  0  0
    0.6089   -2.0681   -1.1602 C   0  0  0  0  0  0  0  0  0  0  0  0
    0.5606   -2.7622    0.0349 C   0  0  0  0  0  0  0  0  0  0  0  0
    0.3617   -2.0836    1.2214 C   0  0  0  0  0  0  0  0  0  0  0  0
    0.2157   -0.7038    1.2140 C   0  0  0  0  0  0  0  0  0  0  0  0
    0.0255   -0.0332    2.3806 O   0  0  0  0  0  0  0  0  0  0  0  0
   -0.0636   -0.8168    3.5723 C   0  0  2  0  0  0  0  0  0  0  0  0
    0.4733   -1.7549    3.4312 H   0  0  0  0  0  0  0  0  0  0  0  0
   -1.5330   -1.1114    3.8803 C   0  0  0  0  0  0  0  0  0  0  0  0
   -2.1199   -1.9897    2.7735 C   0  0  0  0  0  0  0  0  0  0  0  0
   -3.5308   -2.2726    3.0692 N   0  3  0  0  0  0  0  0  0  0  0  0
   -4.0943   -3.1158    2.0066 C   0  0  0  0  0  0  0  0  0  0  0  0
    0.5477   -0.0561    4.7206 C   0  0  0  0  0  0  0  0  0  0  0  0
    0.3309    1.3037    4.8422 C   0  0  0  0  0  0  0  0  0  0  0  0
    0.8915    2.0015    5.8956 C   0  0  0  0  0  0  0  0  0  0  0  0
    1.6687    1.3395    6.8276 C   0  0  0  0  0  0  0  0  0  0  0  0
    1.8848   -0.0205    6.7065 C   0  0  0  0  0  0  0  0  0  0  0  0
    1.3206   -0.7191    5.6555 C   0  0  0  0  0  0  0  0  0  0  0  0
    1.0711    1.9610    0.0995 H   0  0  0  0  0  0  0  0  0  0  0  0
   -0.3654    1.7947   -0.9383 H   0  0  0  0  0  0  0  0  0  0  0  0
   -0.5417    1.7899    0.8329 H   0  0  0  0  0  0  0  0  0  0  0  0
    0.4965   -0.1542   -2.1055 H   0  0  0  0  0  0  0  0  0  0  0  0
    0.7641   -2.6006   -2.0870 H   0  0  0  0  0  0  0  0  0  0  0  0
    0.6780   -3.8358    0.0405 H   0  0  0  0  0  0  0  0  0  0  0  0
    0.3240   -2.6261    2.1545 H   0  0  0  0  0  0  0  0  0  0  0  0
   -1.6067   -1.6323    4.8350 H   0  0  0  0  0  0  0  0  0  0  0  0
   -2.0879   -0.1748    3.9336 H   0  0  0  0  0  0  0  0  0  0  0  0
   -2.0462   -1.4689    1.8188 H   0  0  0  0  0  0  0  0  0  0  0  0
   -1.5650   -2.9264    2.7202 H   0  0  0  0  0  0  0  0  0  0  0  0
   -3.5991   -2.7547    3.9530 H   0  0  0  0  0  0  0  0  0  0  0  0
   -5.1412   -3.3257    2.2260 H   0  0  0  0  0  0  0  0  0  0  0  0
   -4.0206   -2.5950    1.0519 H   0  0  0  0  0  0  0  0  0  0  0  0
   -3.5394   -4.0525    1.9533 H   0  0  0  0  0  0  0  0  0  0  0  0
   -0.2763    1.8210    4.1141 H   0  0  0  0  0  0  0  0  0  0  0  0
    0.7227    3.0641    5.9902 H   0  0  0  0  0  0  0  0  0  0  0  0
    2.1073    1.8848    7.6502 H   0  0  0  0  0  0  0  0  0  0  0  0
    2.4922   -0.5377    7.4344 H   0  0  0  0  0  0  0  0  0  0  0  0
    1.4863   -1.7823    5.5629 H   0  0  0  0  0  0  0  0  0  0  0  0
   -4.0445   -1.4055    3.1186 H   0  0  0  0  0  0  0  0  0  0  0  0
  1  2  1  0  0  0  0
  1 21  1  0  0  0  0
  1 22  1  0  0  0  0
  1 23  1  0  0  0  0
  2  7  2  0  0  0  0
  2  3  1  0  0  0  0
  3  4  2  0  0  0  0
  3 24  1  0  0  0  0
  4  5  1  0  0  0  0
  4 25  1  0  0  0  0
  5  6  2  0  0  0  0
  5 26  1  0  0  0  0
  6  7  1  0  0  0  0
  6 27  1  0  0  0  0
  7  8  1  0  0  0  0
  8  9  1  0  0  0  0
  9 10  1  6  0  0  0
  9 11  1  0  0  0  0
  9 15  1  0  0  0  0
 11 12  1  0  0  0  0
 11 28  1  0  0  0  0
 11 29  1  0  0  0  0
 12 13  1  0  0  0  0
 12 30  1  0  0  0  0
 12 31  1  0  0  0  0
 13 14  1  0  0  0  0
 13 32  1  0  0  0  0
 13 41  1  0  0  0  0
 14 33  1  0  0  0  0
 14 34  1  0  0  0  0
 14 35  1  0  0  0  0
 15 20  2  0  0  0  0
 15 16  1  0  0  0  0
 16 17  2  0  0  0  0
 16 36  1  0  0  0  0
 17 18  1  0  0  0  0
 17 37  1  0  0  0  0
 18 19  2  0  0  0  0
 18 38  1  0  0  0  0
 19 20  1  0  0  0  0
 19 39  1  0  0  0  0
 20 40  1  0  0  0  0
M  CHG  1  13   1
M  END
$$$$
