ZINC01550499
 OpenBabel08292219463D

 49 51  0  0  1  0  0  0  0  0999 V2000
   -0.0187    1.5258    0.0104 C   0  0  0  0  0  0  0  0  0  0  0  0
    0.0021   -0.0041    0.0020 C   0  0  2  0  0  0  0  0  0  0  0  0
   -1.0205   -0.3814    0.0098 H   0  0  0  0  0  0  0  0  0  0  0  0
    0.7309   -0.5033    1.2229 C   0  0  0  0  0  0  0  0  0  0  0  0
    2.0566   -0.8044    1.1529 C   0  0  0  0  0  0  0  0  0  0  0  0
    2.7472   -1.2672    2.2710 C   0  0  0  0  0  0  0  0  0  0  0  0
    2.1162   -1.4321    3.4658 C   0  0  0  0  0  0  0  0  0  0  0  0
    0.7482   -1.1316    3.5768 C   0  0  0  0  0  0  0  0  0  0  0  0
    0.0471   -0.6549    2.4409 C   0  0  0  0  0  0  0  0  0  0  0  0
   -1.3200   -0.3487    2.5535 C   0  0  0  0  0  0  0  0  0  0  0  0
   -1.9494   -0.5080    3.7496 C   0  0  0  0  0  0  0  0  0  0  0  0
   -1.2584   -0.9706    4.8682 C   0  0  0  0  0  0  0  0  0  0  0  0
    0.0625   -1.2896    4.7934 C   0  0  0  0  0  0  0  0  0  0  0  0
    0.6897   -0.4778   -1.2066 N   0  3  0  0  0  0  0  0  0  0  0  0
   -0.0856   -0.0931   -2.3936 C   0  0  0  0  0  0  0  0  0  0  0  0
    0.6305   -0.5866   -3.6524 C   0  0  0  0  0  0  0  0  0  0  0  0
   -0.1769   -0.1859   -4.8887 C   0  0  0  0  0  0  0  0  0  0  0  0
    0.5285   -0.6719   -6.1286 C   0  0  0  0  0  0  0  0  0  0  0  0
    1.4607    0.1346   -6.7546 C   0  0  0  0  0  0  0  0  0  0  0  0
    2.1076   -0.3111   -7.8917 C   0  0  0  0  0  0  0  0  0  0  0  0
    1.8228   -1.5637   -8.4029 C   0  0  0  0  0  0  0  0  0  0  0  0
    0.8916   -2.3704   -7.7766 C   0  0  0  0  0  0  0  0  0  0  0  0
    0.2476   -1.9262   -6.6367 C   0  0  0  0  0  0  0  0  0  0  0  0
    0.5808   -3.7355   -8.3342 C   0  0  0  0  0  0  0  0  0  0  0  0
    1.3539   -3.9589   -9.4786 F   0  0  0  0  0  0  0  0  0  0  0  0
    0.8763   -4.7095   -7.3744 F   0  0  0  0  0  0  0  0  0  0  0  0
   -0.7762   -3.8054   -8.6671 F   0  0  0  0  0  0  0  0  0  0  0  0
    1.0039    1.9031    0.0027 H   0  0  0  0  0  0  0  0  0  0  0  0
   -0.5459    1.8868   -0.8726 H   0  0  0  0  0  0  0  0  0  0  0  0
   -0.5289    1.8773    0.9072 H   0  0  0  0  0  0  0  0  0  0  0  0
    2.5809   -0.6831    0.2165 H   0  0  0  0  0  0  0  0  0  0  0  0
    3.7988   -1.4990    2.1884 H   0  0  0  0  0  0  0  0  0  0  0  0
    2.6642   -1.7924    4.3240 H   0  0  0  0  0  0  0  0  0  0  0  0
   -1.8682    0.0113    1.6954 H   0  0  0  0  0  0  0  0  0  0  0  0
   -2.9999   -0.2720    3.8334 H   0  0  0  0  0  0  0  0  0  0  0  0
   -1.7816   -1.0876    5.8057 H   0  0  0  0  0  0  0  0  0  0  0  0
    0.5848   -1.6478    5.6683 H   0  0  0  0  0  0  0  0  0  0  0  0
    1.6080   -0.0627   -1.2556 H   0  0  0  0  0  0  0  0  0  0  0  0
   -1.0777   -0.5415   -2.3406 H   0  0  0  0  0  0  0  0  0  0  0  0
   -0.1790    0.9922   -2.4305 H   0  0  0  0  0  0  0  0  0  0  0  0
    1.6226   -0.1381   -3.7054 H   0  0  0  0  0  0  0  0  0  0  0  0
    0.7239   -1.6719   -3.6155 H   0  0  0  0  0  0  0  0  0  0  0  0
   -1.1690   -0.6343   -4.8357 H   0  0  0  0  0  0  0  0  0  0  0  0
   -0.2703    0.8995   -4.9256 H   0  0  0  0  0  0  0  0  0  0  0  0
    1.6832    1.1131   -6.3552 H   0  0  0  0  0  0  0  0  0  0  0  0
    2.8353    0.3193   -8.3811 H   0  0  0  0  0  0  0  0  0  0  0  0
    2.3278   -1.9117   -9.2919 H   0  0  0  0  0  0  0  0  0  0  0  0
   -0.4774   -2.5580   -6.1451 H   0  0  0  0  0  0  0  0  0  0  0  0
    0.7761   -1.4825   -1.1724 H   0  0  0  0  0  0  0  0  0  0  0  0
  1  2  1  0  0  0  0
  1 28  1  0  0  0  0
  1 29  1  0  0  0  0
  1 30  1  0  0  0  0
  2  3  1  1  0  0  0
  2  4  1  0  0  0  0
  2 14  1  0  0  0  0
  4  9  2  0  0  0  0
  4  5  1  0  0  0  0
  5  6  2  0  0  0  0
  5 31  1  0  0  0  0
  6  7  1  0  0  0  0
  6 32  1  0  0  0  0
  7  8  2  0  0  0  0
  7 33  1  0  0  0  0
  8 13  1  0  0  0  0
  8  9  1  0  0  0  0
  9 10  1  0  0  0  0
 10 11  2  0  0  0  0
 10 34  1  0  0  0  0
 11 12  1  0  0  0  0
 11 35  1  0  0  0  0
 12 13  2  0  0  0  0
 12 36  1  0  0  0  0
 13 37  1  0  0  0  0
 14 15  1  0  0  0  0
 14 38  1  0  0  0  0
 14 49  1  0  0  0  0
 15 16  1  0  0  0  0
 15 39  1  0  0  0  0
 15 40  1  0  0  0  0
 16 17  1  0  0  0  0
 16 41  1  0  0  0  0
 16 42  1  0  0  0  0
 17 18  1  0  0  0  0
 17 43  1  0  0  0  0
 17 44  1  0  0  0  0
 18 23  2  0  0  0  0
 18 19  1  0  0  0  0
 19 20  2  0  0  0  0
 19 45  1  0  0  0  0
 20 21  1  0  0  0  0
 20 46  1  0  0  0  0
 21 22  2  0  0  0  0
 21 47  1  0  0  0  0
 22 23  1  0  0  0  0
 22 24  1  0  0  0  0
 23 48  1  0  0  0  0
 24 25  1  0  0  0  0
 24 26  1  0  0  0  0
 24 27  1  0  0  0  0
M  CHG  1  14   1
M  END
$$$$
