ZINC00020220
 OpenBabel08292219463D

 42 45  0  0  0  0  0  0  0  0999 V2000
    0.0085    1.3942    0.4546 C   0  0  0  0  0  0  0  0  0  0  0  0
    1.1990    2.0892    0.2267 C   0  0  0  0  0  0  0  0  0  0  0  0
    2.4277    1.4047    0.2038 C   0  0  0  0  0  0  0  0  0  0  0  0
    2.4426    0.0303    0.4107 C   0  0  0  0  0  0  0  0  0  0  0  0
    1.2543   -0.6455    0.6358 C   0  0  0  0  0  0  0  0  0  0  0  0
    0.0386    0.0436    0.6558 C   0  0  0  0  0  0  0  0  0  0  0  0
   -1.1120   -0.6291    0.8766 F   0  0  0  0  0  0  0  0  0  0  0  0
    1.2713   -2.0225    0.8429 N   0  0  0  0  0  0  0  0  0  0  0  0
    1.1586   -2.9587   -0.2863 C   0  0  0  0  0  0  0  0  0  0  0  0
    2.2921   -3.9844   -0.1818 C   0  0  0  0  0  0  0  0  0  0  0  0
    2.2535   -4.6221    1.1403 N   0  3  0  0  0  0  0  0  0  0  0  0
    2.5249   -3.6257    2.1842 C   0  0  0  0  0  0  0  0  0  0  0  0
    1.4086   -2.5822    2.1964 C   0  0  0  0  0  0  0  0  0  0  0  0
    3.6029    2.0906   -0.0220 N   0  0  0  0  0  0  0  0  0  0  0  0
    3.6428    3.4125   -0.2271 C   0  0  0  0  0  0  0  0  0  0  0  0
    2.5016    4.1915   -0.2270 C   0  0  0  0  0  0  0  0  0  0  0  0
    1.1985    3.5450    0.0060 C   0  0  0  0  0  0  0  0  0  0  0  0
    0.1633    4.1882    0.0157 O   0  0  0  0  0  0  0  0  0  0  0  0
    2.5862    5.6377   -0.4546 C   0  0  0  0  0  0  0  0  0  0  0  0
    3.6743    6.1644   -0.6468 O   0  0  0  0  0  0  0  0  0  0  0  0
    1.5686    6.3181   -0.4524 O   0  0  0  0  0  1  0  0  0  0  0  0
    4.8610    1.3402   -0.0375 C   0  0  0  0  0  0  0  0  0  0  0  0
    6.1624    2.1413    0.0391 C   0  0  0  0  0  0  0  0  0  0  0  0
    5.7496    1.4764   -1.2756 C   0  0  0  0  0  0  0  0  0  0  0  0
   -0.9324    1.9241    0.4759 H   0  0  0  0  0  0  0  0  0  0  0  0
    3.3780   -0.5095    0.3956 H   0  0  0  0  0  0  0  0  0  0  0  0
    0.1969   -3.4699   -0.2436 H   0  0  0  0  0  0  0  0  0  0  0  0
    1.2448   -2.4120   -1.2253 H   0  0  0  0  0  0  0  0  0  0  0  0
    2.1684   -4.7428   -0.9548 H   0  0  0  0  0  0  0  0  0  0  0  0
    3.2502   -3.4821   -0.3152 H   0  0  0  0  0  0  0  0  0  0  0  0
    1.3411   -5.0256    1.2913 H   0  0  0  0  0  0  0  0  0  0  0  0
    2.5727   -4.1198    3.1546 H   0  0  0  0  0  0  0  0  0  0  0  0
    3.4760   -3.1343    1.9792 H   0  0  0  0  0  0  0  0  0  0  0  0
    1.6600   -1.7868    2.8979 H   0  0  0  0  0  0  0  0  0  0  0  0
    0.4726   -3.0548    2.4940 H   0  0  0  0  0  0  0  0  0  0  0  0
    4.5984    3.8860   -0.3979 H   0  0  0  0  0  0  0  0  0  0  0  0
    4.8364    0.3708    0.4601 H   0  0  0  0  0  0  0  0  0  0  0  0
    6.0824    3.2266    0.1010 H   0  0  0  0  0  0  0  0  0  0  0  0
    6.9941    1.6989    0.5873 H   0  0  0  0  0  0  0  0  0  0  0  0
    6.3098    0.5966   -1.5923 H   0  0  0  0  0  0  0  0  0  0  0  0
    5.3980    2.1242   -2.0786 H   0  0  0  0  0  0  0  0  0  0  0  0
    2.9514   -5.3496    1.1820 H   0  0  0  0  0  0  0  0  0  0  0  0
  1  6  2  0  0  0  0
  1  2  1  0  0  0  0
  1 25  1  0  0  0  0
  2 17  1  0  0  0  0
  2  3  2  0  0  0  0
  3  4  1  0  0  0  0
  3 14  1  0  0  0  0
  4  5  2  0  0  0  0
  4 26  1  0  0  0  0
  5  6  1  0  0  0  0
  5  8  1  0  0  0  0
  6  7  1  0  0  0  0
  8 13  1  0  0  0  0
  8  9  1  0  0  0  0
  9 10  1  0  0  0  0
  9 27  1  0  0  0  0
  9 28  1  0  0  0  0
 10 11  1  0  0  0  0
 10 29  1  0  0  0  0
 10 30  1  0  0  0  0
 11 12  1  0  0  0  0
 11 31  1  0  0  0  0
 11 42  1  0  0  0  0
 12 13  1  0  0  0  0
 12 32  1  0  0  0  0
 12 33  1  0  0  0  0
 13 34  1  0  0  0  0
 13 35  1  0  0  0  0
 14 15  1  0  0  0  0
 14 22  1  0  0  0  0
 15 16  2  0  0  0  0
 15 36  1  0  0  0  0
 16 17  1  0  0  0  0
 16 19  1  0  0  0  0
 17 18  2  0  0  0  0
 19 20  2  0  0  0  0
 19 21  1  0  0  0  0
 22 24  1  0  0  0  0
 22 23  1  0  0  0  0
 22 37  1  0  0  0  0
 23 24  1  0  0  0  0
 23 38  1  0  0  0  0
 23 39  1  0  0  0  0
 24 40  1  0  0  0  0
 24 41  1  0  0  0  0
M  CHG  1  11   1
M  END
$$$$
