ZINC13545636
 OpenBabel08292219463D

 34 34  0  0  1  0  0  0  0  0999 V2000
   -0.0187    1.5258    0.0104 C   0  0  0  0  0  0  0  0  0  0  0  0
    0.0021   -0.0041    0.0020 C   0  0  0  0  0  0  0  0  0  0  0  0
    0.7182   -0.4975   -1.2568 C   0  0  0  0  0  0  0  0  0  0  0  0
    0.7390   -2.0273   -1.2652 C   0  0  2  0  0  0  0  0  0  0  0  0
   -0.2789   -2.4050   -1.1679 H   0  0  0  0  0  0  0  0  0  0  0  0
    1.5844   -2.5324   -0.0943 C   0  0  0  0  0  0  0  0  0  0  0  0
    1.3429   -2.5219   -2.5810 C   0  0  0  0  0  0  0  0  0  0  0  0
    2.7560   -1.9799   -2.6851 C   0  0  0  0  0  0  0  0  0  0  0  0
    3.0538   -1.2160   -3.7575 N   0  0  0  0  0  0  0  0  0  0  0  0
    2.1483   -0.9373   -4.7021 C   0  0  0  0  0  0  0  0  0  0  0  0
    2.5018   -0.2415   -5.6332 O   0  0  0  0  0  0  0  0  0  0  0  0
    0.8818   -1.3686   -4.6962 N   0  0  0  0  0  0  0  0  0  0  0  0
    0.3964   -2.1466   -3.7055 C   0  0  0  0  0  0  0  0  0  0  0  0
   -0.7535   -2.5306   -3.7139 O   0  0  0  0  0  0  0  0  0  0  0  0
    3.5868   -2.2234   -1.8364 O   0  0  0  0  0  0  0  0  0  0  0  0
    1.4220   -4.0487   -2.5206 C   0  0  0  0  0  0  0  0  0  0  0  0
    2.0229   -4.5803   -3.8234 C   0  0  0  0  0  0  0  0  0  0  0  0
    1.0039    1.9031    0.0027 H   0  0  0  0  0  0  0  0  0  0  0  0
   -0.5459    1.8868   -0.8726 H   0  0  0  0  0  0  0  0  0  0  0  0
   -0.5289    1.8773    0.9072 H   0  0  0  0  0  0  0  0  0  0  0  0
    0.5293   -0.3651    0.8851 H   0  0  0  0  0  0  0  0  0  0  0  0
   -1.0205   -0.3814    0.0098 H   0  0  0  0  0  0  0  0  0  0  0  0
    0.1910   -0.1364   -2.1398 H   0  0  0  0  0  0  0  0  0  0  0  0
    1.7408   -0.1202   -1.2645 H   0  0  0  0  0  0  0  0  0  0  0  0
    1.5992   -3.6222   -0.1003 H   0  0  0  0  0  0  0  0  0  0  0  0
    2.6023   -2.1546   -0.1915 H   0  0  0  0  0  0  0  0  0  0  0  0
    1.1541   -2.1800    0.8431 H   0  0  0  0  0  0  0  0  0  0  0  0
    3.9510   -0.8581   -3.8456 H   0  0  0  0  0  0  0  0  0  0  0  0
    0.2949   -1.1148   -5.4256 H   0  0  0  0  0  0  0  0  0  0  0  0
    2.0512   -4.3470   -1.6820 H   0  0  0  0  0  0  0  0  0  0  0  0
    0.4211   -4.4594   -2.3880 H   0  0  0  0  0  0  0  0  0  0  0  0
    1.3937   -4.2820   -4.6620 H   0  0  0  0  0  0  0  0  0  0  0  0
    3.0238   -4.1696   -3.9560 H   0  0  0  0  0  0  0  0  0  0  0  0
    2.0792   -5.6680   -3.7803 H   0  0  0  0  0  0  0  0  0  0  0  0
  1  2  1  0  0  0  0
  1 18  1  0  0  0  0
  1 19  1  0  0  0  0
  1 20  1  0  0  0  0
  2  3  1  0  0  0  0
  2 21  1  0  0  0  0
  2 22  1  0  0  0  0
  3  4  1  0  0  0  0
  3 23  1  0  0  0  0
  3 24  1  0  0  0  0
  4  5  1  1  0  0  0
  4  6  1  0  0  0  0
  4  7  1  0  0  0  0
  6 25  1  0  0  0  0
  6 26  1  0  0  0  0
  6 27  1  0  0  0  0
  7  8  1  0  0  0  0
  7 16  1  0  0  0  0
  7 13  1  0  0  0  0
  8 15  2  0  0  0  0
  8  9  1  0  0  0  0
  9 10  1  0  0  0  0
  9 28  1  0  0  0  0
 10 12  1  0  0  0  0
 10 11  2  0  0  0  0
 12 13  1  0  0  0  0
 12 29  1  0  0  0  0
 13 14  2  0  0  0  0
 16 17  1  0  0  0  0
 16 30  1  0  0  0  0
 16 31  1  0  0  0  0
 17 32  1  0  0  0  0
 17 33  1  0  0  0  0
 17 34  1  0  0  0  0
M  END
$$$$
