ZINC03876068
 OpenBabel08292219463D

 37 37  0  0  1  0  0  0  0  0999 V2000
   -3.0995    8.1003   -0.0789 C   0  0  0  0  0  0  0  0  0  0  0  0
   -2.3135    7.6949    1.1696 C   0  0  0  0  0  0  0  0  0  0  0  0
   -2.1754    6.2299    1.2083 C   0  0  0  0  0  0  0  0  0  0  0  0
   -2.0653    5.0615    1.2391 C   0  0  0  0  0  0  0  0  0  0  0  0
   -1.9272    3.5965    1.2778 C   0  0  2  0  0  0  0  0  0  0  0  0
   -2.9413    3.1712    1.3060 H   0  0  0  0  0  0  0  0  0  0  0  0
   -1.1412    3.1911    2.5263 C   0  0  0  0  0  0  0  0  0  0  0  0
   -1.1815    3.1214    0.0292 C   0  0  2  0  0  0  0  0  0  0  0  0
   -1.2003    1.6045    0.0166 C   0  0  0  0  0  0  0  0  0  0  0  0
   -2.2446    0.9887    0.0183 O   0  0  0  0  0  0  0  0  0  0  0  0
   -0.0111    0.9658    0.0074 N   0  0  0  0  0  0  0  0  0  0  0  0
    1.1499    1.6306   -0.0002 C   0  0  0  0  0  0  0  0  0  0  0  0
    2.1734    0.9762   -0.0135 O   0  0  0  0  0  0  0  0  0  0  0  0
    1.2662    2.9635    0.0055 N   0  0  0  0  0  0  0  0  0  0  0  0
    0.1875    3.7749    0.0196 C   0  0  0  0  0  0  0  0  0  0  0  0
    0.3083    4.9812    0.0250 O   0  0  0  0  0  0  0  0  0  0  0  0
    2.6042    3.5601   -0.0036 C   0  0  0  0  0  0  0  0  0  0  0  0
   -1.9523    3.6131   -1.1976 C   0  0  0  0  0  0  0  0  0  0  0  0
   -1.2034    3.2304   -2.4481 C   0  0  0  0  0  0  0  0  0  0  0  0
   -1.8035    2.5395   -3.3854 C   0  0  0  0  0  0  0  0  0  0  0  0
   -3.2027    9.1951   -0.1078 H   0  0  0  0  0  0  0  0  0  0  0  0
   -4.0975    7.6386   -0.0499 H   0  0  0  0  0  0  0  0  0  0  0  0
   -2.5634    7.7587   -0.9766 H   0  0  0  0  0  0  0  0  0  0  0  0
   -1.3155    8.1566    1.1406 H   0  0  0  0  0  0  0  0  0  0  0  0
   -2.8495    8.0365    2.0674 H   0  0  0  0  0  0  0  0  0  0  0  0
   -1.0380    2.0963    2.5552 H   0  0  0  0  0  0  0  0  0  0  0  0
   -1.6773    3.5327    3.4240 H   0  0  0  0  0  0  0  0  0  0  0  0
   -0.1432    3.6528    2.4973 H   0  0  0  0  0  0  0  0  0  0  0  0
    0.0227   -0.1337    0.0060 H   0  0  0  0  0  0  0  0  0  0  0  0
    2.5168    4.6566    0.0027 H   0  0  0  0  0  0  0  0  0  0  0  0
    3.1421    3.2404   -0.9083 H   0  0  0  0  0  0  0  0  0  0  0  0
    3.1583    3.2313    0.8879 H   0  0  0  0  0  0  0  0  0  0  0  0
   -2.9507    3.1517   -1.2125 H   0  0  0  0  0  0  0  0  0  0  0  0
   -2.0547    4.7074   -1.1520 H   0  0  0  0  0  0  0  0  0  0  0  0
   -0.1528    3.5312   -2.5738 H   0  0  0  0  0  0  0  0  0  0  0  0
   -1.2568    2.2602   -4.2982 H   0  0  0  0  0  0  0  0  0  0  0  0
   -2.8541    2.2387   -3.2597 H   0  0  0  0  0  0  0  0  0  0  0  0
  1  2  1  0  0  0  0
  1 21  1  0  0  0  0
  1 22  1  0  0  0  0
  1 23  1  0  0  0  0
  2  3  1  0  0  0  0
  2 24  1  0  0  0  0
  2 25  1  0  0  0  0
  3  4  3  0  0  0  0
  4  5  1  0  0  0  0
  5  6  1  1  0  0  0
  5  7  1  0  0  0  0
  5  8  1  0  0  0  0
  7 26  1  0  0  0  0
  7 27  1  0  0  0  0
  7 28  1  0  0  0  0
  8 15  1  0  0  0  0
  8  9  1  0  0  0  0
  8 18  1  6  0  0  0
  9 10  2  0  0  0  0
  9 11  1  0  0  0  0
 11 12  1  0  0  0  0
 11 29  1  0  0  0  0
 12 13  2  0  0  0  0
 12 14  1  0  0  0  0
 14 15  1  0  0  0  0
 14 17  1  0  0  0  0
 15 16  2  0  0  0  0
 17 30  1  0  0  0  0
 17 31  1  0  0  0  0
 17 32  1  0  0  0  0
 18 19  1  0  0  0  0
 18 33  1  0  0  0  0
 18 34  1  0  0  0  0
 19 20  2  0  0  0  0
 19 35  1  0  0  0  0
 20 36  1  0  0  0  0
 20 37  1  0  0  0  0
M  END
$$$$
