ZINC08214496
 OpenBabel08292219463D

 42 44  0  0  1  0  0  0  0  0999 V2000
    1.1837    5.7887   -0.4164 C   0  0  0  0  0  0  0  0  0  0  0  0
    1.7509    4.4583    0.0829 C   0  0  0  0  0  0  0  0  0  0  0  0
    0.8681    3.8464    1.2055 C   0  0  1  0  0  0  0  0  0  0  0  0
   -0.1747    4.1008    1.0160 H   0  0  0  0  0  0  0  0  0  0  0  0
    1.0006    2.3878    1.2672 N   0  0  0  0  0  0  0  0  0  0  0  0
    1.3792    1.7208   -0.0019 C   0  0  2  0  0  0  0  0  0  0  0  0
    2.2202    1.0287    0.0411 H   0  0  0  0  0  0  0  0  0  0  0  0
    1.5579    3.1208   -1.1791 S   0  0  0  0  0  0  0  0  0  0  0  0
   -0.0127    1.0858    0.0080 C   0  0  1  0  0  0  0  0  0  0  0  0
    0.0021   -0.0041    0.0020 H   0  0  0  0  0  0  0  0  0  0  0  0
   -0.1687    1.6859    1.3897 C   0  0  0  0  0  0  0  0  0  0  0  0
   -1.0036    1.5845    2.2636 O   0  0  0  0  0  0  0  0  0  0  0  0
   -0.9256    1.6501   -0.9892 N   0  0  0  0  0  0  0  0  0  0  0  0
   -1.9785    0.9294   -1.4232 C   0  0  0  0  0  0  0  0  0  0  0  0
   -2.1703   -0.1864   -0.9881 O   0  0  0  0  0  0  0  0  0  0  0  0
   -2.9176    1.5098   -2.4490 C   0  0  1  0  0  0  0  0  0  0  0  0
   -3.0893    2.5636   -2.2293 H   0  0  0  0  0  0  0  0  0  0  0  0
   -2.3083    1.3755   -3.8207 C   0  0  0  0  0  0  0  0  0  0  0  0
   -2.3711    0.1674   -4.4896 C   0  0  0  0  0  0  0  0  0  0  0  0
   -1.8160    0.0454   -5.7498 C   0  0  0  0  0  0  0  0  0  0  0  0
   -1.1897    1.1288   -6.3370 C   0  0  0  0  0  0  0  0  0  0  0  0
   -1.1227    2.3356   -5.6661 C   0  0  0  0  0  0  0  0  0  0  0  0
   -1.6816    2.4588   -4.4078 C   0  0  0  0  0  0  0  0  0  0  0  0
   -4.1920    0.7885   -2.4079 N   0  0  0  0  0  0  0  0  0  0  0  0
   -4.8391    0.8425   -1.4904 N   0  0  0  0  0  4  0  0  0  0  0  0
   -5.4861    0.8965   -0.5730 N   0  0  0  0  0  2  0  0  0  0  0  0
    1.2810    4.4338    2.5304 C   0  0  0  0  0  0  0  0  0  0  0  0
    1.9489    3.7824    3.2982 O   0  0  0  0  0  0  0  0  0  0  0  0
    3.2067    4.6060    0.5297 C   0  0  0  0  0  0  0  0  0  0  0  0
    1.1381    6.4974    0.4105 H   0  0  0  0  0  0  0  0  0  0  0  0
    1.8275    6.1866   -1.2008 H   0  0  0  0  0  0  0  0  0  0  0  0
    0.1816    5.6300   -0.8145 H   0  0  0  0  0  0  0  0  0  0  0  0
   -0.7722    2.5425   -1.3372 H   0  0  0  0  0  0  0  0  0  0  0  0
   -2.8568   -0.6802   -4.0291 H   0  0  0  0  0  0  0  0  0  0  0  0
   -1.8686   -0.8974   -6.2740 H   0  0  0  0  0  0  0  0  0  0  0  0
   -0.7531    1.0325   -7.3201 H   0  0  0  0  0  0  0  0  0  0  0  0
   -0.6334    3.1820   -6.1249 H   0  0  0  0  0  0  0  0  0  0  0  0
   -1.6289    3.4015   -3.8835 H   0  0  0  0  0  0  0  0  0  0  0  0
    3.6086    3.6263    0.7882 H   0  0  0  0  0  0  0  0  0  0  0  0
    3.7937    5.0371   -0.2812 H   0  0  0  0  0  0  0  0  0  0  0  0
    3.2549    5.2598    1.4005 H   0  0  0  0  0  0  0  0  0  0  0  0
    0.9068    5.6807    2.8576 O   0  0  0  0  0  1  0  0  0  0  0  0
  1  2  1  0  0  0  0
  1 30  1  0  0  0  0
  1 31  1  0  0  0  0
  1 32  1  0  0  0  0
  2  8  1  0  0  0  0
  2  3  1  0  0  0  0
  2 29  1  0  0  0  0
  3  4  1  6  0  0  0
  3  5  1  0  0  0  0
  3 27  1  0  0  0  0
  5 11  1  0  0  0  0
  5  6  1  0  0  0  0
  6  7  1  1  0  0  0
  6  8  1  0  0  0  0
  6  9  1  0  0  0  0
  9 10  1  1  0  0  0
  9 11  1  0  0  0  0
  9 13  1  0  0  0  0
 11 12  2  0  0  0  0
 13 14  1  0  0  0  0
 13 33  1  0  0  0  0
 14 15  2  0  0  0  0
 14 16  1  0  0  0  0
 16 17  1  1  0  0  0
 16 18  1  0  0  0  0
 16 24  1  0  0  0  0
 18 23  2  0  0  0  0
 18 19  1  0  0  0  0
 19 20  2  0  0  0  0
 19 34  1  0  0  0  0
 20 21  1  0  0  0  0
 20 35  1  0  0  0  0
 21 22  2  0  0  0  0
 21 36  1  0  0  0  0
 22 23  1  0  0  0  0
 22 37  1  0  0  0  0
 23 38  1  0  0  0  0
 24 25  2  0  0  0  0
 25 26  2  0  0  0  0
 27 28  2  0  0  0  0
 27 42  1  0  0  0  0
 29 39  1  0  0  0  0
 29 40  1  0  0  0  0
 29 41  1  0  0  0  0
M  END
$$$$
