ZINC19364228
 OpenBabel08292219463D

 65 68  0  0  1  0  0  0  0  0999 V2000
   -1.1934    2.6512   -0.4137 C   0  0  0  0  0  0  0  0  0  0  0  0
   -1.1215    1.1351   -0.2203 C   0  0  0  0  0  0  0  0  0  0  0  0
   -0.5204    0.8240    1.1519 C   0  0  0  0  0  0  0  0  0  0  0  0
   -2.5294    0.5426   -0.3065 C   0  0  0  0  0  0  0  0  0  0  0  0
   -0.2559    0.5320   -1.2964 C   0  0  0  0  0  0  0  0  0  0  0  0
   -0.7858   -0.4016   -2.1672 C   0  0  0  0  0  0  0  0  0  0  0  0
    0.0082   -0.9549   -3.1543 C   0  0  0  0  0  0  0  0  0  0  0  0
    1.3320   -0.5743   -3.2708 C   0  0  0  0  0  0  0  0  0  0  0  0
    1.8617    0.3600   -2.4005 C   0  0  0  0  0  0  0  0  0  0  0  0
    1.0665    0.9164   -1.4161 C   0  0  0  0  0  0  0  0  0  0  0  0
    2.1979   -1.1782   -4.3463 C   0  0  0  0  0  0  0  0  0  0  0  0
    2.1109   -0.3589   -5.5625 N   0  3  2  0  0  0  0  0  0  0  0  0
    0.7410   -0.4099   -6.0899 C   0  0  0  0  0  0  0  0  0  0  0  0
    0.6453    0.4585   -7.3463 C   0  0  0  0  0  0  0  0  0  0  0  0
    1.5951   -0.0354   -8.3533 N   0  0  0  0  0  0  0  0  0  0  0  0
    2.9685   -0.0137   -7.8304 C   0  0  0  0  0  0  0  0  0  0  0  0
    3.0451   -0.8782   -6.5701 C   0  0  0  0  0  0  0  0  0  0  0  0
    1.4932    0.7388   -9.5975 C   0  0  2  0  0  0  0  0  0  0  0  0
    1.7421    1.7811   -9.3983 H   0  0  0  0  0  0  0  0  0  0  0  0
    0.0860    0.6512  -10.1298 C   0  0  0  0  0  0  0  0  0  0  0  0
   -0.5675   -0.5665  -10.1586 C   0  0  0  0  0  0  0  0  0  0  0  0
   -1.8583   -0.6468  -10.6468 C   0  0  0  0  0  0  0  0  0  0  0  0
   -2.4957    0.4907  -11.1058 C   0  0  0  0  0  0  0  0  0  0  0  0
   -1.8424    1.7086  -11.0762 C   0  0  0  0  0  0  0  0  0  0  0  0
   -0.5532    1.7896  -10.5840 C   0  0  0  0  0  0  0  0  0  0  0  0
    2.4516    0.1794  -10.6171 C   0  0  0  0  0  0  0  0  0  0  0  0
    2.5596   -1.1883  -10.7865 C   0  0  0  0  0  0  0  0  0  0  0  0
    3.4385   -1.7019  -11.7215 C   0  0  0  0  0  0  0  0  0  0  0  0
    4.2102   -0.8468  -12.4880 C   0  0  0  0  0  0  0  0  0  0  0  0
    4.1017    0.5219  -12.3180 C   0  0  0  0  0  0  0  0  0  0  0  0
    3.2184    1.0345  -11.3866 C   0  0  0  0  0  0  0  0  0  0  0  0
    5.3147   -1.4912  -13.6621 Cl  0  0  0  0  0  0  0  0  0  0  0  0
   -0.1903    3.0733   -0.3523 H   0  0  0  0  0  0  0  0  0  0  0  0
   -1.6216    2.8728   -1.3912 H   0  0  0  0  0  0  0  0  0  0  0  0
   -1.8195    3.0874    0.3646 H   0  0  0  0  0  0  0  0  0  0  0  0
   -1.1464    1.2603    1.9302 H   0  0  0  0  0  0  0  0  0  0  0  0
   -0.4691   -0.2560    1.2897 H   0  0  0  0  0  0  0  0  0  0  0  0
    0.4827    1.2461    1.2133 H   0  0  0  0  0  0  0  0  0  0  0  0
   -2.9577    0.7643   -1.2840 H   0  0  0  0  0  0  0  0  0  0  0  0
   -2.4782   -0.5374   -0.1687 H   0  0  0  0  0  0  0  0  0  0  0  0
   -3.1555    0.9789    0.4718 H   0  0  0  0  0  0  0  0  0  0  0  0
   -1.8200   -0.6990   -2.0763 H   0  0  0  0  0  0  0  0  0  0  0  0
   -0.4056   -1.6849   -3.8343 H   0  0  0  0  0  0  0  0  0  0  0  0
    2.8960    0.6571   -2.4913 H   0  0  0  0  0  0  0  0  0  0  0  0
    1.4794    1.6491   -0.7385 H   0  0  0  0  0  0  0  0  0  0  0  0
    3.2321   -1.2117   -4.0039 H   0  0  0  0  0  0  0  0  0  0  0  0
    1.8543   -2.1895   -4.5641 H   0  0  0  0  0  0  0  0  0  0  0  0
    0.4860   -1.4398   -6.3398 H   0  0  0  0  0  0  0  0  0  0  0  0
    0.0475   -0.0365   -5.3365 H   0  0  0  0  0  0  0  0  0  0  0  0
   -0.3674    0.4090   -7.7464 H   0  0  0  0  0  0  0  0  0  0  0  0
    0.8870    1.4910   -7.0940 H   0  0  0  0  0  0  0  0  0  0  0  0
    3.6507   -0.4077   -8.5837 H   0  0  0  0  0  0  0  0  0  0  0  0
    3.2485    1.0110   -7.5861 H   0  0  0  0  0  0  0  0  0  0  0  0
    4.0597   -0.8520   -6.1726 H   0  0  0  0  0  0  0  0  0  0  0  0
    2.7783   -1.9057   -6.8175 H   0  0  0  0  0  0  0  0  0  0  0  0
   -0.0696   -1.4552   -9.8000 H   0  0  0  0  0  0  0  0  0  0  0  0
   -2.3687   -1.5983  -10.6700 H   0  0  0  0  0  0  0  0  0  0  0  0
   -3.5039    0.4278  -11.4879 H   0  0  0  0  0  0  0  0  0  0  0  0
   -2.3403    2.5973  -11.4351 H   0  0  0  0  0  0  0  0  0  0  0  0
   -0.0442    2.7418  -10.5574 H   0  0  0  0  0  0  0  0  0  0  0  0
    1.9574   -1.8557  -10.1879 H   0  0  0  0  0  0  0  0  0  0  0  0
    3.5230   -2.7704  -11.8535 H   0  0  0  0  0  0  0  0  0  0  0  0
    4.7041    1.1898  -12.9158 H   0  0  0  0  0  0  0  0  0  0  0  0
    3.1301    2.1030  -11.2572 H   0  0  0  0  0  0  0  0  0  0  0  0
    2.3508    0.5961   -5.3423 H   0  0  0  0  0  0  0  0  0  0  0  0
  1  2  1  0  0  0  0
  1 33  1  0  0  0  0
  1 34  1  0  0  0  0
  1 35  1  0  0  0  0
  2  3  1  0  0  0  0
  2  4  1  0  0  0  0
  2  5  1  0  0  0  0
  3 36  1  0  0  0  0
  3 37  1  0  0  0  0
  3 38  1  0  0  0  0
  4 39  1  0  0  0  0
  4 40  1  0  0  0  0
  4 41  1  0  0  0  0
  5 10  2  0  0  0  0
  5  6  1  0  0  0  0
  6  7  2  0  0  0  0
  6 42  1  0  0  0  0
  7  8  1  0  0  0  0
  7 43  1  0  0  0  0
  8  9  2  0  0  0  0
  8 11  1  0  0  0  0
  9 10  1  0  0  0  0
  9 44  1  0  0  0  0
 10 45  1  0  0  0  0
 11 12  1  0  0  0  0
 11 46  1  0  0  0  0
 11 47  1  0  0  0  0
 12 17  1  0  0  0  0
 12 13  1  0  0  0  0
 12 65  1  1  0  0  0
 13 14  1  0  0  0  0
 13 48  1  0  0  0  0
 13 49  1  0  0  0  0
 14 15  1  0  0  0  0
 14 50  1  0  0  0  0
 14 51  1  0  0  0  0
 15 16  1  0  0  0  0
 15 18  1  0  0  0  0
 16 17  1  0  0  0  0
 16 52  1  0  0  0  0
 16 53  1  0  0  0  0
 17 54  1  0  0  0  0
 17 55  1  0  0  0  0
 18 19  1  1  0  0  0
 18 20  1  0  0  0  0
 18 26  1  0  0  0  0
 20 25  2  0  0  0  0
 20 21  1  0  0  0  0
 21 22  2  0  0  0  0
 21 56  1  0  0  0  0
 22 23  1  0  0  0  0
 22 57  1  0  0  0  0
 23 24  2  0  0  0  0
 23 58  1  0  0  0  0
 24 25  1  0  0  0  0
 24 59  1  0  0  0  0
 25 60  1  0  0  0  0
 26 31  2  0  0  0  0
 26 27  1  0  0  0  0
 27 28  2  0  0  0  0
 27 61  1  0  0  0  0
 28 29  1  0  0  0  0
 28 62  1  0  0  0  0
 29 30  2  0  0  0  0
 29 32  1  0  0  0  0
 30 31  1  0  0  0  0
 30 63  1  0  0  0  0
 31 64  1  0  0  0  0
M  CHG  1  12   1
M  END
$$$$
