ZINC12484909
 OpenBabel08292219463D

 48 47  0  0  1  0  0  0  0  0999 V2000
    1.9994    6.8848    2.9789 C   0  0  0  0  0  0  0  0  0  0  0  0
    1.8432    5.3670    2.8660 C   0  0  0  0  0  0  0  0  0  0  0  0
    0.5650    5.0421    2.0904 C   0  0  0  0  0  0  0  0  0  0  0  0
    0.4112    3.5471    1.9792 C   0  0  0  0  0  0  0  0  0  0  0  0
    1.2390    2.8165    2.4699 O   0  0  0  0  0  0  0  0  0  0  0  0
   -0.6454    3.0272    1.3350 O   0  0  0  0  0  0  0  0  0  0  0  0
   -0.7288    1.5792    1.2668 C   0  0  2  0  0  0  0  0  0  0  0  0
   -0.2550    1.1461    2.1477 H   0  0  0  0  0  0  0  0  0  0  0  0
   -0.0127    1.0858    0.0080 C   0  0  0  0  0  0  0  0  0  0  0  0
   -0.7150    1.5668   -1.1683 O   0  0  0  0  0  0  0  0  0  0  0  0
   -0.2114    1.2195   -2.3631 C   0  0  0  0  0  0  0  0  0  0  0  0
    0.7832    0.5362   -2.4240 O   0  0  0  0  0  0  0  0  0  0  0  0
   -0.8867    1.6818   -3.6286 C   0  0  0  0  0  0  0  0  0  0  0  0
   -0.1172    1.1518   -4.8402 C   0  0  0  0  0  0  0  0  0  0  0  0
   -2.1980    1.1548    1.2173 C   0  0  0  0  0  0  0  0  0  0  0  0
   -2.7890    1.6250    0.0042 O   0  0  0  0  0  0  0  0  0  0  0  0
   -4.3294    1.3591   -0.3813 P   0  0  2  0  0  0  0  0  0  0  0  0
   -4.6055   -0.0942   -0.3359 O   0  0  0  0  0  0  0  0  0  0  0  0
   -4.6145    1.9135   -1.8657 O   0  0  0  0  0  0  0  0  0  0  0  0
   -5.8631    1.7340   -2.5371 C   0  0  0  0  0  0  0  0  0  0  0  0
   -5.7948    2.3798   -3.9224 C   0  0  1  0  0  0  0  0  0  0  0  0
   -4.9444    1.9745   -4.4707 H   0  0  0  0  0  0  0  0  0  0  0  0
   -7.0655    2.0853   -4.6771 C   0  0  0  0  0  0  0  0  0  0  0  0
   -7.9366    2.9201   -4.7425 O   0  0  0  0  0  0  0  0  0  0  0  0
    2.0596    7.3191    1.9810 H   0  0  0  0  0  0  0  0  0  0  0  0
    1.1398    7.3004    3.5047 H   0  0  0  0  0  0  0  0  0  0  0  0
    2.9100    7.1163    3.5315 H   0  0  0  0  0  0  0  0  0  0  0  0
    1.7830    4.9327    3.8639 H   0  0  0  0  0  0  0  0  0  0  0  0
    2.7028    4.9514    2.3402 H   0  0  0  0  0  0  0  0  0  0  0  0
    0.6252    5.4764    1.0925 H   0  0  0  0  0  0  0  0  0  0  0  0
   -0.2946    5.4577    2.6162 H   0  0  0  0  0  0  0  0  0  0  0  0
    0.0021   -0.0041    0.0020 H   0  0  0  0  0  0  0  0  0  0  0  0
    1.0099    1.4631    0.0003 H   0  0  0  0  0  0  0  0  0  0  0  0
   -1.9089    1.3042   -3.6538 H   0  0  0  0  0  0  0  0  0  0  0  0
   -0.9010    2.7714   -3.6555 H   0  0  0  0  0  0  0  0  0  0  0  0
   -0.1028    0.0622   -4.8132 H   0  0  0  0  0  0  0  0  0  0  0  0
   -0.6056    1.4862   -5.7555 H   0  0  0  0  0  0  0  0  0  0  0  0
    0.9050    1.5294   -4.8150 H   0  0  0  0  0  0  0  0  0  0  0  0
   -2.2635    0.0674    1.2557 H   0  0  0  0  0  0  0  0  0  0  0  0
   -2.7282    1.5811    2.0689 H   0  0  0  0  0  0  0  0  0  0  0  0
   -6.0691    0.6688   -2.6425 H   0  0  0  0  0  0  0  0  0  0  0  0
   -6.6582    2.2021   -1.9568 H   0  0  0  0  0  0  0  0  0  0  0  0
   -5.5244    4.2758   -4.6776 H   0  0  0  0  0  0  0  0  0  0  0  0
   -6.4131    4.2328   -3.2726 H   0  0  0  0  0  0  0  0  0  0  0  0
   -5.2843    2.1199    0.6682 O   0  0  0  0  0  1  0  0  0  0  0  0
   -7.2297    0.8956   -5.2767 O   0  0  0  0  0  1  0  0  0  0  0  0
   -5.6153    3.8338   -3.7644 N   0  3  0  0  0  0  0  0  0  0  0  0
   -4.7631    4.0115   -3.2199 H   0  0  0  0  0  0  0  0  0  0  0  0
  1  2  1  0  0  0  0
  1 25  1  0  0  0  0
  1 26  1  0  0  0  0
  1 27  1  0  0  0  0
  2  3  1  0  0  0  0
  2 28  1  0  0  0  0
  2 29  1  0  0  0  0
  3  4  1  0  0  0  0
  3 30  1  0  0  0  0
  3 31  1  0  0  0  0
  4  5  2  0  0  0  0
  4  6  1  0  0  0  0
  6  7  1  0  0  0  0
  7  8  1  1  0  0  0
  7  9  1  0  0  0  0
  7 15  1  0  0  0  0
  9 10  1  0  0  0  0
  9 32  1  0  0  0  0
  9 33  1  0  0  0  0
 10 11  1  0  0  0  0
 11 12  2  0  0  0  0
 11 13  1  0  0  0  0
 13 14  1  0  0  0  0
 13 34  1  0  0  0  0
 13 35  1  0  0  0  0
 14 36  1  0  0  0  0
 14 37  1  0  0  0  0
 14 38  1  0  0  0  0
 15 16  1  0  0  0  0
 15 39  1  0  0  0  0
 15 40  1  0  0  0  0
 16 17  1  0  0  0  0
 17 18  2  1  0  0  0
 17 19  1  0  0  0  0
 17 45  1  0  0  0  0
 19 20  1  0  0  0  0
 20 21  1  0  0  0  0
 20 41  1  0  0  0  0
 20 42  1  0  0  0  0
 21 22  1  6  0  0  0
 21 23  1  0  0  0  0
 21 47  1  0  0  0  0
 23 24  2  0  0  0  0
 23 46  1  0  0  0  0
 43 47  1  0  0  0  0
 44 47  1  0  0  0  0
 47 48  1  0  0  0  0
M  CHG  1  47   1
M  END
$$$$
