ZINC22056030
 OpenBabel08292219463D

 31 31  0  0  1  0  0  0  0  0999 V2000
   -0.5244    1.3577    0.0333 C   0  0  0  0  0  0  0  0  0  0  0  0
   -0.2349   -0.1423    0.1188 C   0  0  1  0  0  0  0  0  0  0  0  0
   -1.1484   -0.6740    0.3850 H   0  0  0  0  0  0  0  0  0  0  0  0
    0.2698   -0.6423   -1.2362 C   0  0  0  0  0  0  0  0  0  0  0  0
   -0.8118   -0.4672   -2.2709 C   0  0  0  0  0  0  0  0  0  0  0  0
   -1.7997   -1.4246   -2.4069 C   0  0  0  0  0  0  0  0  0  0  0  0
   -2.7918   -1.2640   -3.3560 C   0  0  0  0  0  0  0  0  0  0  0  0
   -2.7963   -0.1459   -4.1688 C   0  0  0  0  0  0  0  0  0  0  0  0
   -1.8089    0.8119   -4.0322 C   0  0  0  0  0  0  0  0  0  0  0  0
   -0.8192    0.6534   -3.0802 C   0  0  0  0  0  0  0  0  0  0  0  0
    0.7896   -0.3856    1.1431 N   0  0  0  0  0  0  0  0  0  0  0  0
    1.2055   -1.7945    1.1474 C   0  0  0  0  0  0  0  0  0  0  0  0
    0.3152    0.0273    2.4706 C   0  0  0  0  0  0  0  0  0  0  0  0
    1.4364   -0.0039    3.4239 C   0  0  0  0  0  0  0  0  0  0  0  0
    2.3306   -0.0288    4.1842 C   0  0  0  0  0  0  0  0  0  0  0  0
    0.3890    1.8894   -0.2330 H   0  0  0  0  0  0  0  0  0  0  0  0
   -1.2846    1.5382   -0.7267 H   0  0  0  0  0  0  0  0  0  0  0  0
   -0.8840    1.7139    0.9986 H   0  0  0  0  0  0  0  0  0  0  0  0
    1.1497   -0.0699   -1.5300 H   0  0  0  0  0  0  0  0  0  0  0  0
    0.5318   -1.6976   -1.1595 H   0  0  0  0  0  0  0  0  0  0  0  0
   -1.7962   -2.2982   -1.7719 H   0  0  0  0  0  0  0  0  0  0  0  0
   -3.5632   -2.0123   -3.4627 H   0  0  0  0  0  0  0  0  0  0  0  0
   -3.5710   -0.0207   -4.9108 H   0  0  0  0  0  0  0  0  0  0  0  0
   -1.8123    1.6853   -4.6674 H   0  0  0  0  0  0  0  0  0  0  0  0
   -0.0499    1.4035   -2.9709 H   0  0  0  0  0  0  0  0  0  0  0  0
    1.7295   -2.0215    0.2190 H   0  0  0  0  0  0  0  0  0  0  0  0
    1.8695   -1.9747    1.9928 H   0  0  0  0  0  0  0  0  0  0  0  0
    0.3260   -2.4327    1.2337 H   0  0  0  0  0  0  0  0  0  0  0  0
   -0.0859    1.0393    2.4146 H   0  0  0  0  0  0  0  0  0  0  0  0
   -0.4659   -0.6551    2.8059 H   0  0  0  0  0  0  0  0  0  0  0  0
    3.1304   -0.0511    4.8642 H   0  0  0  0  0  0  0  0  0  0  0  0
  1  2  1  0  0  0  0
  1 16  1  0  0  0  0
  1 17  1  0  0  0  0
  1 18  1  0  0  0  0
  2  3  1  1  0  0  0
  2  4  1  0  0  0  0
  2 11  1  0  0  0  0
  4  5  1  0  0  0  0
  4 19  1  0  0  0  0
  4 20  1  0  0  0  0
  5 10  2  0  0  0  0
  5  6  1  0  0  0  0
  6  7  2  0  0  0  0
  6 21  1  0  0  0  0
  7  8  1  0  0  0  0
  7 22  1  0  0  0  0
  8  9  2  0  0  0  0
  8 23  1  0  0  0  0
  9 10  1  0  0  0  0
  9 24  1  0  0  0  0
 10 25  1  0  0  0  0
 11 12  1  0  0  0  0
 11 13  1  0  0  0  0
 12 26  1  0  0  0  0
 12 27  1  0  0  0  0
 12 28  1  0  0  0  0
 13 14  1  0  0  0  0
 13 29  1  0  0  0  0
 13 30  1  0  0  0  0
 14 15  3  0  0  0  0
 15 31  1  0  0  0  0
M  END
$$$$
