ZINC00020255
 OpenBabel08292219463D

 28 28  0  0  1  0  0  0  0  0999 V2000
   -0.0187    1.5258    0.0104 C   0  0  0  0  0  0  0  0  0  0  0  0
    0.0021   -0.0041    0.0020 C   0  0  2  0  0  0  0  0  0  0  0  0
    0.7421   -0.5109    1.2415 C   0  0  0  0  0  0  0  0  0  0  0  0
   -0.0298   -0.1295    2.4784 C   0  0  0  0  0  0  0  0  0  0  0  0
    0.2190    1.0795    3.1012 C   0  0  0  0  0  0  0  0  0  0  0  0
   -0.4863    1.4340    4.2360 C   0  0  0  0  0  0  0  0  0  0  0  0
   -1.4456    0.5771    4.7514 C   0  0  0  0  0  0  0  0  0  0  0  0
   -1.6964   -0.6395    4.1243 C   0  0  0  0  0  0  0  0  0  0  0  0
   -0.9891   -0.9866    2.9844 C   0  0  0  0  0  0  0  0  0  0  0  0
   -2.6368   -1.4839    4.6263 O   0  0  0  0  0  0  0  0  0  0  0  0
   -2.1401    0.9241    5.8680 O   0  0  0  0  0  0  0  0  0  0  0  0
    0.7074   -0.4901   -1.2379 C   0  0  0  0  0  0  0  0  0  0  0  0
    1.8687   -0.1786   -1.4402 O   0  0  0  0  0  0  0  0  0  0  0  0
    0.1168   -1.1947   -2.0386 O   0  0  0  0  0  1  0  0  0  0  0  0
   -1.3761   -0.5125    0.0124 N   0  3  0  0  0  0  0  0  0  0  0  0
    1.0039    1.9031    0.0027 H   0  0  0  0  0  0  0  0  0  0  0  0
   -0.5459    1.8868   -0.8726 H   0  0  0  0  0  0  0  0  0  0  0  0
   -0.5289    1.8773    0.9072 H   0  0  0  0  0  0  0  0  0  0  0  0
    0.8346   -1.5958    1.1912 H   0  0  0  0  0  0  0  0  0  0  0  0
    1.7350   -0.0630    1.2804 H   0  0  0  0  0  0  0  0  0  0  0  0
    0.9664    1.7483    2.7005 H   0  0  0  0  0  0  0  0  0  0  0  0
   -0.2895    2.3787    4.7211 H   0  0  0  0  0  0  0  0  0  0  0  0
   -1.1845   -1.9286    2.4936 H   0  0  0  0  0  0  0  0  0  0  0  0
   -3.5239   -1.3421    4.2685 H   0  0  0  0  0  0  0  0  0  0  0  0
   -2.9561    1.4108    5.6882 H   0  0  0  0  0  0  0  0  0  0  0  0
   -1.8641   -0.1783   -0.8050 H   0  0  0  0  0  0  0  0  0  0  0  0
   -1.3624   -1.5214    0.0069 H   0  0  0  0  0  0  0  0  0  0  0  0
   -1.8484   -0.1871    0.8426 H   0  0  0  0  0  0  0  0  0  0  0  0
  1  2  1  0  0  0  0
  1 16  1  0  0  0  0
  1 17  1  0  0  0  0
  1 18  1  0  0  0  0
  2  3  1  0  0  0  0
  2 12  1  6  0  0  0
  2 15  1  0  0  0  0
  3  4  1  0  0  0  0
  3 19  1  0  0  0  0
  3 20  1  0  0  0  0
  4  9  2  0  0  0  0
  4  5  1  0  0  0  0
  5  6  2  0  0  0  0
  5 21  1  0  0  0  0
  6  7  1  0  0  0  0
  6 22  1  0  0  0  0
  7  8  2  0  0  0  0
  7 11  1  0  0  0  0
  8  9  1  0  0  0  0
  8 10  1  0  0  0  0
  9 23  1  0  0  0  0
 10 24  1  0  0  0  0
 11 25  1  0  0  0  0
 12 13  2  0  0  0  0
 12 14  1  0  0  0  0
 15 26  1  0  0  0  0
 15 27  1  0  0  0  0
 15 28  1  0  0  0  0
M  CHG  1  15   1
M  END
$$$$
