ZINC29338422
 OpenBabel08292219463D

 47 49  0  0  1  0  0  0  0  0999 V2000
    0.3498    0.0052    0.0998 C   0  0  0  0  0  0  0  0  0  0  0  0
    0.2298    1.4510    0.1604 O   0  0  0  0  0  0  0  0  0  0  0  0
    1.3521    2.1639   -0.0234 C   0  0  0  0  0  0  0  0  0  0  0  0
    2.4002    1.5986   -0.2281 O   0  0  0  0  0  0  0  0  0  0  0  0
    1.3050    3.6694    0.0256 C   0  0  2  0  0  0  0  0  0  0  0  0
    0.8735    4.0311   -0.9194 H   0  0  0  0  0  0  0  0  0  0  0  0
    2.7268    4.2231    0.2117 C   0  0  2  0  0  0  0  0  0  0  0  0
    3.4078    3.8253   -0.5551 H   0  0  0  0  0  0  0  0  0  0  0  0
    3.1646    3.9236    1.6639 C   0  0  0  0  0  0  0  0  0  0  0  0
    2.6680    5.1479    2.4970 C   0  0  0  0  0  0  0  0  0  0  0  0
    1.9858    6.0599    1.4514 C   0  0  1  0  0  0  0  0  0  0  0  0
    2.0789    7.1337    1.6713 H   0  0  0  0  0  0  0  0  0  0  0  0
    2.6326    5.7062    0.1598 N   0  3  1  0  0  0  0  0  0  0  0  0
    3.9656    6.3145    0.0546 C   0  0  0  0  0  0  0  0  0  0  0  0
    3.8237    7.8292   -0.1081 C   0  0  0  0  0  0  0  0  0  0  0  0
    5.2120    8.4627   -0.2177 C   0  0  0  0  0  0  0  0  0  0  0  0
    5.0822    9.8477   -0.3665 F   0  0  0  0  0  0  0  0  0  0  0  0
    0.5106    5.6398    1.3522 C   0  0  0  0  0  0  0  0  0  0  0  0
    0.4375    4.1172    1.2054 C   0  0  2  0  0  0  0  0  0  0  0  0
   -0.6052    3.8096    1.0377 H   0  0  0  0  0  0  0  0  0  0  0  0
    0.9370    3.4672    2.4700 C   0  0  0  0  0  0  0  0  0  0  0  0
    1.5431    2.2260    2.4162 C   0  0  0  0  0  0  0  0  0  0  0  0
    2.0063    1.6320    3.5752 C   0  0  0  0  0  0  0  0  0  0  0  0
    1.8528    2.2745    4.7902 C   0  0  0  0  0  0  0  0  0  0  0  0
    1.2414    3.5137    4.8444 C   0  0  0  0  0  0  0  0  0  0  0  0
    0.7838    4.1098    3.6844 C   0  0  0  0  0  0  0  0  0  0  0  0
    2.5459    1.3702    6.5483 I   0  0  0  0  0  0  0  0  0  0  0  0
   -0.6368   -0.4519    0.2659 H   0  0  0  0  0  0  0  0  0  0  0  0
    1.0484   -0.3376    0.8773 H   0  0  0  0  0  0  0  0  0  0  0  0
    0.7288   -0.2901   -0.8897 H   0  0  0  0  0  0  0  0  0  0  0  0
    2.6978    2.9866    2.0017 H   0  0  0  0  0  0  0  0  0  0  0  0
    4.2593    3.8229    1.7035 H   0  0  0  0  0  0  0  0  0  0  0  0
    1.9642    4.8045    3.2695 H   0  0  0  0  0  0  0  0  0  0  0  0
    3.5280    5.6383    2.9764 H   0  0  0  0  0  0  0  0  0  0  0  0
    4.5413    6.0960    0.9661 H   0  0  0  0  0  0  0  0  0  0  0  0
    4.4902    5.8995   -0.8187 H   0  0  0  0  0  0  0  0  0  0  0  0
    3.2480    8.0477   -1.0196 H   0  0  0  0  0  0  0  0  0  0  0  0
    3.2992    8.2443    0.7652 H   0  0  0  0  0  0  0  0  0  0  0  0
    5.7877    8.2442    0.6938 H   0  0  0  0  0  0  0  0  0  0  0  0
    5.7365    8.0477   -1.0910 H   0  0  0  0  0  0  0  0  0  0  0  0
   -0.0215    5.9516    2.2631 H   0  0  0  0  0  0  0  0  0  0  0  0
    0.0506    6.1204    0.4762 H   0  0  0  0  0  0  0  0  0  0  0  0
    1.6586    1.7222    1.4679 H   0  0  0  0  0  0  0  0  0  0  0  0
    2.4835    0.6641    3.5325 H   0  0  0  0  0  0  0  0  0  0  0  0
    1.1211    4.0155    5.7932 H   0  0  0  0  0  0  0  0  0  0  0  0
    0.3063    5.0776    3.7267 H   0  0  0  0  0  0  0  0  0  0  0  0
    2.0801    6.0751   -0.7169 H   0  0  0  0  0  0  0  0  0  0  0  0
  1  2  1  0  0  0  0
  1 28  1  0  0  0  0
  1 29  1  0  0  0  0
  1 30  1  0  0  0  0
  2  3  1  0  0  0  0
  3  4  2  0  0  0  0
  3  5  1  0  0  0  0
  5  6  1  6  0  0  0
  5 19  1  0  0  0  0
  5  7  1  0  0  0  0
  7  8  1  6  0  0  0
  7 13  1  0  0  0  0
  7  9  1  0  0  0  0
  9 10  1  0  0  0  0
  9 31  1  0  0  0  0
  9 32  1  0  0  0  0
 10 11  1  0  0  0  0
 10 33  1  0  0  0  0
 10 34  1  0  0  0  0
 11 12  1  1  0  0  0
 11 13  1  0  0  0  0
 11 18  1  0  0  0  0
 13 14  1  0  0  0  0
 13 47  1  6  0  0  0
 14 15  1  0  0  0  0
 14 35  1  0  0  0  0
 14 36  1  0  0  0  0
 15 16  1  0  0  0  0
 15 37  1  0  0  0  0
 15 38  1  0  0  0  0
 16 17  1  0  0  0  0
 16 39  1  0  0  0  0
 16 40  1  0  0  0  0
 18 19  1  0  0  0  0
 18 41  1  0  0  0  0
 18 42  1  0  0  0  0
 19 20  1  6  0  0  0
 19 21  1  0  0  0  0
 21 26  2  0  0  0  0
 21 22  1  0  0  0  0
 22 23  2  0  0  0  0
 22 43  1  0  0  0  0
 23 24  1  0  0  0  0
 23 44  1  0  0  0  0
 24 25  2  0  0  0  0
 24 27  1  0  0  0  0
 25 26  1  0  0  0  0
 25 45  1  0  0  0  0
 26 46  1  0  0  0  0
M  CHG  1  13   1
M  END
$$$$
