ZINC03830428
 OpenBabel08292219463D

 51 54  0  0  1  0  0  0  0  0999 V2000
   -1.5576   12.4747    4.3391 C   0  0  0  0  0  0  0  0  0  0  0  0
   -2.2597   11.3976    3.8314 C   0  0  0  0  0  0  0  0  0  0  0  0
   -2.5259   11.3224    2.4771 C   0  0  0  0  0  0  0  0  0  0  0  0
   -2.0900   12.3244    1.6303 C   0  0  0  0  0  0  0  0  0  0  0  0
   -1.3833   13.3989    2.1372 C   0  0  0  0  0  0  0  0  0  0  0  0
   -1.1217   13.4767    3.4924 C   0  0  0  0  0  0  0  0  0  0  0  0
   -2.3798   12.2422    0.1537 C   0  0  2  0  0  0  0  0  0  0  0  0
   -3.2652   11.6276   -0.0091 H   0  0  0  0  0  0  0  0  0  0  0  0
   -1.2023   11.6248   -0.5557 C   0  0  0  0  0  0  0  0  0  0  0  0
   -0.5623   12.2794   -1.3512 O   0  0  0  0  0  0  0  0  0  0  0  0
   -0.8604   10.3453   -0.3062 N   0  0  0  0  0  0  0  0  0  0  0  0
    0.2843    9.7451   -0.9959 C   0  0  1  0  0  0  0  0  0  0  0  0
    1.0045   10.4843   -1.3465 H   0  0  0  0  0  0  0  0  0  0  0  0
    0.9185    8.5860   -0.2345 C   0  0  2  0  0  0  0  0  0  0  0  0
    2.0083    8.5766   -0.2137 H   0  0  0  0  0  0  0  0  0  0  0  0
    0.2546    7.7089   -1.2508 N   0  0  0  0  0  0  0  0  0  0  0  0
   -0.1065    8.7257   -2.0525 C   0  0  0  0  0  0  0  0  0  0  0  0
   -0.5629    8.8000   -3.1738 O   0  0  0  0  0  0  0  0  0  0  0  0
    0.0280    6.3269   -1.1387 C   0  0  0  0  0  0  0  0  0  0  0  0
    0.0280    5.7454    0.0512 C   0  0  0  0  0  0  0  0  0  0  0  0
    0.3077    6.3583    1.3846 C   0  0  0  0  0  0  0  0  0  0  0  0
    0.1259    8.1687    1.3551 S   0  0  0  0  0  0  0  0  0  0  0  0
   -0.2898    4.2723    0.0607 C   0  0  0  0  0  0  0  0  0  0  0  0
    1.2419    3.3258    0.2454 S   0  0  0  0  0  0  0  0  0  0  0  0
    0.5935    1.6876    0.2256 C   0  0  0  0  0  0  0  0  0  0  0  0
   -0.6719    1.3492    0.1047 N   0  0  0  0  0  0  0  0  0  0  0  0
   -0.8001    0.0717    0.1282 N   0  0  0  0  0  0  0  0  0  0  0  0
    0.3514   -0.4918    0.2634 N   0  0  0  0  0  0  0  0  0  0  0  0
    1.3040    0.5399    0.3320 N   0  0  0  0  0  0  0  0  0  0  0  0
    2.7544    0.4026    0.4858 C   0  0  0  0  0  0  0  0  0  0  0  0
    3.5286    0.2962   -1.1513 S   0  0  0  0  0  0  0  0  0  0  0  0
    3.1643   -0.9214   -1.7868 O   0  0  0  0  0  0  0  0  0  0  0  0
    3.4019    1.5360   -1.8341 O   0  0  0  0  0  0  0  0  0  0  0  0
   -0.2157    5.5220   -2.3493 C   0  0  0  0  0  0  0  0  0  0  0  0
    0.7206    5.0534   -2.9659 O   0  0  0  0  0  0  0  0  0  0  0  0
   -2.6105   13.5555   -0.3602 O   0  0  0  0  0  0  0  0  0  0  0  0
   -1.3493   12.5333    5.3972 H   0  0  0  0  0  0  0  0  0  0  0  0
   -2.6000   10.6146    4.4929 H   0  0  0  0  0  0  0  0  0  0  0  0
   -3.0742   10.4807    2.0804 H   0  0  0  0  0  0  0  0  0  0  0  0
   -1.0389   14.1795    1.4751 H   0  0  0  0  0  0  0  0  0  0  0  0
   -0.5728   14.3180    3.8890 H   0  0  0  0  0  0  0  0  0  0  0  0
   -1.3723    9.8217    0.3300 H   0  0  0  0  0  0  0  0  0  0  0  0
   -0.3852    5.9445    2.1172 H   0  0  0  0  0  0  0  0  0  0  0  0
    1.3268    6.1105    1.6817 H   0  0  0  0  0  0  0  0  0  0  0  0
   -0.7749    3.9992   -0.8764 H   0  0  0  0  0  0  0  0  0  0  0  0
   -0.9570    4.0499    0.8935 H   0  0  0  0  0  0  0  0  0  0  0  0
    3.1470    1.2692    1.0178 H   0  0  0  0  0  0  0  0  0  0  0  0
    2.9757   -0.5022    1.0519 H   0  0  0  0  0  0  0  0  0  0  0  0
   -1.8625   14.1582   -0.2493 H   0  0  0  0  0  0  0  0  0  0  0  0
    5.0182    0.1576   -0.8712 O   0  0  0  0  0  1  0  0  0  0  0  0
   -1.4769    5.3057   -2.7722 O   0  0  0  0  0  1  0  0  0  0  0  0
  1  6  2  0  0  0  0
  1  2  1  0  0  0  0
  1 37  1  0  0  0  0
  2  3  2  0  0  0  0
  2 38  1  0  0  0  0
  3  4  1  0  0  0  0
  3 39  1  0  0  0  0
  4  5  2  0  0  0  0
  4  7  1  0  0  0  0
  5  6  1  0  0  0  0
  5 40  1  0  0  0  0
  6 41  1  0  0  0  0
  7  8  1  6  0  0  0
  7  9  1  0  0  0  0
  7 36  1  0  0  0  0
  9 10  2  0  0  0  0
  9 11  1  0  0  0  0
 11 12  1  0  0  0  0
 11 42  1  0  0  0  0
 12 13  1  6  0  0  0
 12 17  1  0  0  0  0
 12 14  1  0  0  0  0
 14 15  1  6  0  0  0
 14 22  1  0  0  0  0
 14 16  1  0  0  0  0
 16 17  1  0  0  0  0
 16 19  1  0  0  0  0
 17 18  2  0  0  0  0
 19 20  2  0  0  0  0
 19 34  1  0  0  0  0
 20 21  1  0  0  0  0
 20 23  1  0  0  0  0
 21 22  1  0  0  0  0
 21 43  1  0  0  0  0
 21 44  1  0  0  0  0
 23 24  1  0  0  0  0
 23 45  1  0  0  0  0
 23 46  1  0  0  0  0
 24 25  1  0  0  0  0
 25 29  1  0  0  0  0
 25 26  2  0  0  0  0
 26 27  1  0  0  0  0
 27 28  2  0  0  0  0
 28 29  1  0  0  0  0
 29 30  1  0  0  0  0
 30 31  1  0  0  0  0
 30 47  1  0  0  0  0
 30 48  1  0  0  0  0
 31 32  2  0  0  0  0
 31 33  2  0  0  0  0
 31 50  1  0  0  0  0
 34 35  2  0  0  0  0
 34 51  1  0  0  0  0
 36 49  1  0  0  0  0
M  END
$$$$
