ZINC08214483
 OpenBabel08292219463D

 87 89  0  0  1  0  0  0  0  0999 V2000
    0.5001    1.6887    0.3312 C   0  0  0  0  0  0  0  0  0  0  0  0
    1.9927    1.9719    0.1498 C   0  0  1  0  0  0  0  0  0  0  0  0
    2.5324    1.6640    1.0453 H   0  0  0  0  0  0  0  0  0  0  0  0
    2.5173    1.1897   -1.0560 C   0  0  2  0  0  0  0  0  0  0  0  0
    1.9775    1.4976   -1.9516 H   0  0  0  0  0  0  0  0  0  0  0  0
    2.3069   -0.3077   -0.8233 C   0  0  1  0  0  0  0  0  0  0  0  0
    2.8466   -0.6156    0.0722 H   0  0  0  0  0  0  0  0  0  0  0  0
    0.8143   -0.5909   -0.6419 C   0  0  2  0  0  0  0  0  0  0  0  0
    0.2746   -0.2830   -1.5374 H   0  0  0  0  0  0  0  0  0  0  0  0
    0.2897    0.1912    0.5639 C   0  0  2  0  0  0  0  0  0  0  0  0
    0.8294   -0.1166    1.4595 H   0  0  0  0  0  0  0  0  0  0  0  0
   -1.1395   -0.0799    0.7377 N   0  0  0  0  0  0  0  0  0  0  0  0
   -1.6575   -0.1968    1.9764 C   0  0  0  0  0  0  0  0  0  0  0  0
   -0.9405   -0.0775    2.9473 O   0  0  0  0  0  0  0  0  0  0  0  0
   -3.1276   -0.4757    2.1551 C   0  0  2  0  0  0  0  0  0  0  0  0
   -3.3971   -1.3742    1.5999 H   0  0  0  0  0  0  0  0  0  0  0  0
   -3.9392    0.7105    1.6307 C   0  0  0  0  0  0  0  0  0  0  0  0
   -5.4310    0.3770    1.6968 C   0  0  0  0  0  0  0  0  0  0  0  0
   -6.2102    1.5159    1.1933 N   0  3  0  0  0  0  0  0  0  0  0  0
   -3.4104   -0.6702    3.5423 O   0  0  0  0  0  0  0  0  0  0  0  0
    0.6178   -1.9896   -0.4245 O   0  0  0  0  0  0  0  0  0  0  0  0
   -0.6245   -2.4868   -0.9260 C   0  0  2  0  0  0  0  0  0  0  0  0
   -1.4361   -1.8403   -0.5921 H   0  0  0  0  0  0  0  0  0  0  0  0
   -0.8547   -3.9069   -0.4025 C   0  0  1  0  0  0  0  0  0  0  0  0
   -1.8207   -4.2717   -0.7515 H   0  0  0  0  0  0  0  0  0  0  0  0
    0.2571   -4.8218   -0.9251 C   0  0  2  0  0  0  0  0  0  0  0  0
    1.2184   -4.4864   -0.5358 H   0  0  0  0  0  0  0  0  0  0  0  0
    0.2751   -4.7622   -2.4556 C   0  0  1  0  0  0  0  0  0  0  0  0
   -0.6681   -5.1443   -2.8461 H   0  0  0  0  0  0  0  0  0  0  0  0
    0.4616   -3.3091   -2.8998 C   0  0  2  0  0  0  0  0  0  0  0  0
    1.4234   -2.9406   -2.5431 H   0  0  0  0  0  0  0  0  0  0  0  0
   -0.5881   -2.5069   -2.3544 O   0  0  0  0  0  0  0  0  0  0  0  0
    0.4208   -3.2332   -4.4274 C   0  0  0  0  0  0  0  0  0  0  0  0
    0.6946   -1.8944   -4.8453 O   0  0  0  0  0  0  0  0  0  0  0  0
    1.3542   -5.5568   -2.9518 O   0  0  0  0  0  0  0  0  0  0  0  0
    0.0043   -6.2014   -0.4882 N   0  3  0  0  0  0  0  0  0  0  0  0
   -0.8354   -3.8981    1.0264 O   0  0  0  0  0  0  0  0  0  0  0  0
    2.7968   -1.0383   -1.9495 O   0  0  0  0  0  0  0  0  0  0  0  0
    3.9113    1.4542   -1.2255 O   0  0  0  0  0  0  0  0  0  0  0  0
    4.3566    1.3789   -2.5813 C   0  0  2  0  0  0  0  0  0  0  0  0
    4.0128    0.4448   -3.0254 H   0  0  0  0  0  0  0  0  0  0  0  0
    5.8861    1.4301   -2.6199 C   0  0  1  0  0  0  0  0  0  0  0  0
    6.2280    1.3320   -3.6502 H   0  0  0  0  0  0  0  0  0  0  0  0
    6.3589    2.7707   -2.0491 C   0  0  2  0  0  0  0  0  0  0  0  0
    6.0599    2.8477   -1.0038 H   0  0  0  0  0  0  0  0  0  0  0  0
    5.7188    3.9085   -2.8504 C   0  0  1  0  0  0  0  0  0  0  0  0
    6.0572    3.8604   -3.8854 H   0  0  0  0  0  0  0  0  0  0  0  0
    4.1957    3.7615   -2.8028 C   0  0  2  0  0  0  0  0  0  0  0  0
    3.8539    3.8501   -1.7716 H   0  0  0  0  0  0  0  0  0  0  0  0
    3.8254    2.4813   -3.3193 O   0  0  0  0  0  0  0  0  0  0  0  0
    3.5504    4.8599   -3.6503 C   0  0  0  0  0  0  0  0  0  0  0  0
    2.0898    4.7928   -3.5092 N   0  3  0  0  0  0  0  0  0  0  0  0
    6.0966    5.1640   -2.2822 O   0  0  0  0  0  0  0  0  0  0  0  0
    7.7820    2.8566   -2.1469 O   0  0  0  0  0  0  0  0  0  0  0  0
    6.4197    0.3611   -1.8359 O   0  0  0  0  0  0  0  0  0  0  0  0
    2.1947    3.4097   -0.0737 N   0  3  0  0  0  0  0  0  0  0  0  0
    0.1263    2.2460    1.1902 H   0  0  0  0  0  0  0  0  0  0  0  0
   -0.0396    1.9966   -0.5643 H   0  0  0  0  0  0  0  0  0  0  0  0
   -1.7129   -0.1753   -0.0388 H   0  0  0  0  0  0  0  0  0  0  0  0
   -3.7359    1.5890    2.2431 H   0  0  0  0  0  0  0  0  0  0  0  0
   -3.6581    0.9148    0.5976 H   0  0  0  0  0  0  0  0  0  0  0  0
   -5.6343   -0.5015    1.0845 H   0  0  0  0  0  0  0  0  0  0  0  0
   -5.7121    0.1727    2.7299 H   0  0  0  0  0  0  0  0  0  0  0  0
   -7.1940    1.2959    1.2369 H   0  0  0  0  0  0  0  0  0  0  0  0
   -6.0219    2.3291    1.7602 H   0  0  0  0  0  0  0  0  0  0  0  0
   -3.1947    0.0911    4.0982 H   0  0  0  0  0  0  0  0  0  0  0  0
    1.1712   -3.9047   -4.8447 H   0  0  0  0  0  0  0  0  0  0  0  0
   -0.5675   -3.5289   -4.7795 H   0  0  0  0  0  0  0  0  0  0  0  0
    0.6851   -1.7721   -5.8045 H   0  0  0  0  0  0  0  0  0  0  0  0
    1.4257   -5.5649   -3.9161 H   0  0  0  0  0  0  0  0  0  0  0  0
   -0.8844   -6.5117   -0.8515 H   0  0  0  0  0  0  0  0  0  0  0  0
    0.7372   -6.8030   -0.8330 H   0  0  0  0  0  0  0  0  0  0  0  0
   -1.5121   -3.3342    1.4254 H   0  0  0  0  0  0  0  0  0  0  0  0
    2.7623   -1.9985   -1.8407 H   0  0  0  0  0  0  0  0  0  0  0  0
    3.9037    5.8341   -3.3126 H   0  0  0  0  0  0  0  0  0  0  0  0
    3.8212    4.7178   -4.6966 H   0  0  0  0  0  0  0  0  0  0  0  0
    1.7627    3.8909   -3.8218 H   0  0  0  0  0  0  0  0  0  0  0  0
    1.8391    4.9243   -2.5407 H   0  0  0  0  0  0  0  0  0  0  0  0
    7.0506    5.3217   -2.2758 H   0  0  0  0  0  0  0  0  0  0  0  0
    8.2519    2.1611   -1.6667 H   0  0  0  0  0  0  0  0  0  0  0  0
    6.1563   -0.5185   -2.1392 H   0  0  0  0  0  0  0  0  0  0  0  0
    1.8487    3.9255    0.7215 H   0  0  0  0  0  0  0  0  0  0  0  0
    3.1790    3.5964   -0.1934 H   0  0  0  0  0  0  0  0  0  0  0  0
   -5.9499    1.7050    0.2370 H   0  0  0  0  0  0  0  0  0  0  0  0
    1.6642    5.5171   -4.0681 H   0  0  0  0  0  0  0  0  0  0  0  0
    1.6950    3.6947   -0.9027 H   0  0  0  0  0  0  0  0  0  0  0  0
   -0.0136   -6.2369    0.5200 H   0  0  0  0  0  0  0  0  0  0  0  0
  1 10  1  0  0  0  0
  1  2  1  0  0  0  0
  1 57  1  0  0  0  0
  1 58  1  0  0  0  0
  2  3  1  1  0  0  0
  2  4  1  0  0  0  0
  2 56  1  0  0  0  0
  4  5  1  6  0  0  0
  4  6  1  0  0  0  0
  4 39  1  0  0  0  0
  6  7  1  1  0  0  0
  6  8  1  0  0  0  0
  6 38  1  0  0  0  0
  8  9  1  6  0  0  0
  8 10  1  0  0  0  0
  8 21  1  0  0  0  0
 10 11  1  1  0  0  0
 10 12  1  0  0  0  0
 12 13  1  0  0  0  0
 12 59  1  0  0  0  0
 13 14  2  0  0  0  0
 13 15  1  0  0  0  0
 15 16  1  6  0  0  0
 15 17  1  0  0  0  0
 15 20  1  0  0  0  0
 17 18  1  0  0  0  0
 17 60  1  0  0  0  0
 17 61  1  0  0  0  0
 18 19  1  0  0  0  0
 18 62  1  0  0  0  0
 18 63  1  0  0  0  0
 19 64  1  0  0  0  0
 19 65  1  0  0  0  0
 19 84  1  0  0  0  0
 20 66  1  0  0  0  0
 21 22  1  0  0  0  0
 22 23  1  1  0  0  0
 22 32  1  0  0  0  0
 22 24  1  0  0  0  0
 24 25  1  6  0  0  0
 24 26  1  0  0  0  0
 24 37  1  0  0  0  0
 26 27  1  1  0  0  0
 26 28  1  0  0  0  0
 26 36  1  0  0  0  0
 28 29  1  6  0  0  0
 28 30  1  0  0  0  0
 28 35  1  0  0  0  0
 30 31  1  1  0  0  0
 30 32  1  0  0  0  0
 30 33  1  0  0  0  0
 33 34  1  0  0  0  0
 33 67  1  0  0  0  0
 33 68  1  0  0  0  0
 34 69  1  0  0  0  0
 35 70  1  0  0  0  0
 36 71  1  0  0  0  0
 36 72  1  0  0  0  0
 36 87  1  0  0  0  0
 37 73  1  0  0  0  0
 38 74  1  0  0  0  0
 39 40  1  0  0  0  0
 40 41  1  6  0  0  0
 40 50  1  0  0  0  0
 40 42  1  0  0  0  0
 42 43  1  6  0  0  0
 42 44  1  0  0  0  0
 42 55  1  0  0  0  0
 44 45  1  1  0  0  0
 44 46  1  0  0  0  0
 44 54  1  0  0  0  0
 46 47  1  6  0  0  0
 46 48  1  0  0  0  0
 46 53  1  0  0  0  0
 48 49  1  1  0  0  0
 48 50  1  0  0  0  0
 48 51  1  0  0  0  0
 51 52  1  0  0  0  0
 51 75  1  0  0  0  0
 51 76  1  0  0  0  0
 52 77  1  0  0  0  0
 52 78  1  0  0  0  0
 52 85  1  0  0  0  0
 53 79  1  0  0  0  0
 54 80  1  0  0  0  0
 55 81  1  0  0  0  0
 56 82  1  0  0  0  0
 56 83  1  0  0  0  0
 56 86  1  0  0  0  0
M  CHG  4  19   1  36   1  52   1  56   1
M  END
$$$$
