ZINC01530974
 OpenBabel08292219463D

 42 44  0  0  1  0  0  0  0  0999 V2000
    6.7052    2.5492   -0.4260 C   0  0  0  0  0  0  0  0  0  0  0  0
    6.4452    1.5262   -1.3195 C   0  0  0  0  0  0  0  0  0  0  0  0
    5.5089    0.5578   -1.0105 C   0  0  0  0  0  0  0  0  0  0  0  0
    4.8281    0.6130    0.2003 C   0  0  0  0  0  0  0  0  0  0  0  0
    5.0923    1.6430    1.0958 C   0  0  0  0  0  0  0  0  0  0  0  0
    6.0300    2.6076    0.7795 C   0  0  0  0  0  0  0  0  0  0  0  0
    4.2450    1.7176    2.6091 Cl  0  0  0  0  0  0  0  0  0  0  0  0
    3.6330   -0.6190    0.5986 S   0  0  0  0  0  0  0  0  0  0  0  0
    4.2497   -1.3458    2.1420 C   0  0  2  0  0  0  0  0  0  0  0  0
    4.5233   -0.5498    2.8346 H   0  0  0  0  0  0  0  0  0  0  0  0
    5.4783   -2.2078    1.8446 C   0  0  0  0  0  0  0  0  0  0  0  0
    6.6377   -1.3099    1.4082 C   0  0  0  0  0  0  0  0  0  0  0  0
    7.8974   -2.1306    1.3050 C   0  0  0  0  0  0  0  0  0  0  0  0
    8.6444   -2.3951    2.4378 C   0  0  0  0  0  0  0  0  0  0  0  0
    9.7998   -3.1477    2.3438 C   0  0  0  0  0  0  0  0  0  0  0  0
   10.2087   -3.6365    1.1158 C   0  0  0  0  0  0  0  0  0  0  0  0
    9.4607   -3.3715   -0.0175 C   0  0  0  0  0  0  0  0  0  0  0  0
    8.3024   -2.6234    0.0786 C   0  0  0  0  0  0  0  0  0  0  0  0
   11.6602   -4.5814    0.9969 Cl  0  0  0  0  0  0  0  0  0  0  0  0
    3.1572   -2.2142    2.7690 C   0  0  0  0  0  0  0  0  0  0  0  0
    2.0420   -1.3646    3.1942 N   0  0  0  0  0  0  0  0  0  0  0  0
    1.9459   -0.6820    4.3768 C   0  0  0  0  0  0  0  0  0  0  0  0
    0.7666   -0.0321    4.3569 C   0  0  0  0  0  0  0  0  0  0  0  0
    0.1591   -0.3103    3.1939 N   0  0  0  0  0  0  0  0  0  0  0  0
    0.9195   -1.1038    2.4902 C   0  0  0  0  0  0  0  0  0  0  0  0
    5.1830   -0.7257   -2.1332 Cl  0  0  0  0  0  0  0  0  0  0  0  0
    7.4407    3.3021   -0.6684 H   0  0  0  0  0  0  0  0  0  0  0  0
    6.9743    1.4842   -2.2601 H   0  0  0  0  0  0  0  0  0  0  0  0
    6.2357    3.4082    1.4746 H   0  0  0  0  0  0  0  0  0  0  0  0
    5.7624   -2.7574    2.7420 H   0  0  0  0  0  0  0  0  0  0  0  0
    5.2436   -2.9119    1.0463 H   0  0  0  0  0  0  0  0  0  0  0  0
    6.4106   -0.8693    0.4374 H   0  0  0  0  0  0  0  0  0  0  0  0
    6.7797   -0.5171    2.1427 H   0  0  0  0  0  0  0  0  0  0  0  0
    8.3253   -2.0132    3.3963 H   0  0  0  0  0  0  0  0  0  0  0  0
   10.3836   -3.3540    3.2288 H   0  0  0  0  0  0  0  0  0  0  0  0
    9.7796   -3.7525   -0.9764 H   0  0  0  0  0  0  0  0  0  0  0  0
    7.7159   -2.4205   -0.8052 H   0  0  0  0  0  0  0  0  0  0  0  0
    2.8030   -2.9384    2.0355 H   0  0  0  0  0  0  0  0  0  0  0  0
    3.5627   -2.7408    3.6330 H   0  0  0  0  0  0  0  0  0  0  0  0
    2.6755   -0.6677    5.1730 H   0  0  0  0  0  0  0  0  0  0  0  0
    0.3780    0.6019    5.1401 H   0  0  0  0  0  0  0  0  0  0  0  0
    0.6882   -1.4901    1.5085 H   0  0  0  0  0  0  0  0  0  0  0  0
  1  6  2  0  0  0  0
  1  2  1  0  0  0  0
  1 27  1  0  0  0  0
  2  3  2  0  0  0  0
  2 28  1  0  0  0  0
  3  4  1  0  0  0  0
  3 26  1  0  0  0  0
  4  5  2  0  0  0  0
  4  8  1  0  0  0  0
  5  6  1  0  0  0  0
  5  7  1  0  0  0  0
  6 29  1  0  0  0  0
  8  9  1  0  0  0  0
  9 10  1  1  0  0  0
  9 11  1  0  0  0  0
  9 20  1  0  0  0  0
 11 12  1  0  0  0  0
 11 30  1  0  0  0  0
 11 31  1  0  0  0  0
 12 13  1  0  0  0  0
 12 32  1  0  0  0  0
 12 33  1  0  0  0  0
 13 18  2  0  0  0  0
 13 14  1  0  0  0  0
 14 15  2  0  0  0  0
 14 34  1  0  0  0  0
 15 16  1  0  0  0  0
 15 35  1  0  0  0  0
 16 17  2  0  0  0  0
 16 19  1  0  0  0  0
 17 18  1  0  0  0  0
 17 36  1  0  0  0  0
 18 37  1  0  0  0  0
 20 21  1  0  0  0  0
 20 38  1  0  0  0  0
 20 39  1  0  0  0  0
 21 25  1  0  0  0  0
 21 22  1  0  0  0  0
 22 23  2  0  0  0  0
 22 40  1  0  0  0  0
 23 24  1  0  0  0  0
 23 41  1  0  0  0  0
 24 25  2  0  0  0  0
 25 42  1  0  0  0  0
M  END
$$$$
