ZINC13907155
 OpenBabel08292219463D

 54 56  0  0  1  0  0  0  0  0999 V2000
   -1.3926   -0.8549    0.0222 C   0  0  0  0  0  0  0  0  0  0  0  0
   -0.0587   -0.1062   -0.0074 C   0  0  0  0  0  0  0  0  0  0  0  0
   -0.3201    1.3971   -0.1202 C   0  0  0  0  0  0  0  0  0  0  0  0
    0.6854   -0.3824    1.2288 N   0  3  2  0  0  0  0  0  0  0  0  0
    2.0307    0.2499    1.1825 C   0  0  2  0  0  0  0  0  0  0  0  0
    1.9927    1.2737    0.8104 H   0  0  0  0  0  0  0  0  0  0  0  0
    2.8547   -0.6774    0.2598 C   0  0  0  0  0  0  0  0  0  0  0  0
    2.1665   -2.0541    0.3664 C   0  0  0  0  0  0  0  0  0  0  0  0
    0.9891   -1.8336    1.3439 C   0  0  1  0  0  0  0  0  0  0  0  0
    0.1283   -2.4559    1.0993 H   0  0  0  0  0  0  0  0  0  0  0  0
    1.5095   -2.0784    2.7694 C   0  0  0  0  0  0  0  0  0  0  0  0
    2.8264   -1.3190    2.9537 C   0  0  1  0  0  0  0  0  0  0  0  0
    2.6202    0.1706    2.5999 C   0  0  0  0  0  0  0  0  0  0  0  0
    3.2501   -1.4254    4.3143 O   0  0  0  0  0  0  0  0  0  0  0  0
    4.5721   -1.3955    4.5449 C   0  0  0  0  0  0  0  0  0  0  0  0
    5.3440   -1.2828    3.6222 O   0  0  0  0  0  0  0  0  0  0  0  0
    5.0936   -1.5026    5.9548 C   0  0  2  0  0  0  0  0  0  0  0  0
    4.7716   -2.4485    6.3904 H   0  0  0  0  0  0  0  0  0  0  0  0
    4.5463   -0.3437    6.7904 C   0  0  0  0  0  0  0  0  0  0  0  0
    3.1269   -0.4657    6.9021 O   0  0  0  0  0  0  0  0  0  0  0  0
    6.5994   -1.4435    5.9393 C   0  0  0  0  0  0  0  0  0  0  0  0
    7.2422   -0.3288    5.4342 C   0  0  0  0  0  0  0  0  0  0  0  0
    8.6234   -0.2746    5.4200 C   0  0  0  0  0  0  0  0  0  0  0  0
    9.3618   -1.3349    5.9112 C   0  0  0  0  0  0  0  0  0  0  0  0
    8.7190   -2.4493    6.4171 C   0  0  0  0  0  0  0  0  0  0  0  0
    7.3378   -2.5017    6.4353 C   0  0  0  0  0  0  0  0  0  0  0  0
   -0.0683    0.0829    2.4007 C   0  0  0  0  0  0  0  0  0  0  0  0
   -1.9770   -0.5224    0.8801 H   0  0  0  0  0  0  0  0  0  0  0  0
   -1.9448   -0.6500   -0.8950 H   0  0  0  0  0  0  0  0  0  0  0  0
   -1.2064   -1.9259    0.1026 H   0  0  0  0  0  0  0  0  0  0  0  0
    0.5257   -0.4387   -0.8652 H   0  0  0  0  0  0  0  0  0  0  0  0
   -0.9583    1.7177    0.7032 H   0  0  0  0  0  0  0  0  0  0  0  0
    0.6270    1.9349   -0.0764 H   0  0  0  0  0  0  0  0  0  0  0  0
   -0.8152    1.6097   -1.0677 H   0  0  0  0  0  0  0  0  0  0  0  0
    2.8225   -0.3157   -0.7680 H   0  0  0  0  0  0  0  0  0  0  0  0
    3.8855   -0.7406    0.6084 H   0  0  0  0  0  0  0  0  0  0  0  0
    1.7958   -2.3694   -0.6089 H   0  0  0  0  0  0  0  0  0  0  0  0
    2.8589   -2.7943    0.7674 H   0  0  0  0  0  0  0  0  0  0  0  0
    0.7768   -1.7193    3.4922 H   0  0  0  0  0  0  0  0  0  0  0  0
    1.6791   -3.1448    2.9181 H   0  0  0  0  0  0  0  0  0  0  0  0
    3.5875   -1.7498    2.3030 H   0  0  0  0  0  0  0  0  0  0  0  0
    3.5801    0.6864    2.6253 H   0  0  0  0  0  0  0  0  0  0  0  0
    1.9344    0.6369    3.3072 H   0  0  0  0  0  0  0  0  0  0  0  0
    4.9926   -0.3701    7.7845 H   0  0  0  0  0  0  0  0  0  0  0  0
    4.7928    0.6013    6.3064 H   0  0  0  0  0  0  0  0  0  0  0  0
    2.7113    0.2371    7.4201 H   0  0  0  0  0  0  0  0  0  0  0  0
    6.6652    0.4996    5.0504 H   0  0  0  0  0  0  0  0  0  0  0  0
    9.1256    0.5960    5.0247 H   0  0  0  0  0  0  0  0  0  0  0  0
   10.4409   -1.2929    5.8994 H   0  0  0  0  0  0  0  0  0  0  0  0
    9.2959   -3.2778    6.8006 H   0  0  0  0  0  0  0  0  0  0  0  0
    6.8355   -3.3707    6.8339 H   0  0  0  0  0  0  0  0  0  0  0  0
   -1.0271   -0.4337    2.4446 H   0  0  0  0  0  0  0  0  0  0  0  0
    0.5004   -0.1290    3.3060 H   0  0  0  0  0  0  0  0  0  0  0  0
   -0.2375    1.1568    2.3209 H   0  0  0  0  0  0  0  0  0  0  0  0
  1  2  1  0  0  0  0
  1 28  1  0  0  0  0
  1 29  1  0  0  0  0
  1 30  1  0  0  0  0
  2  3  1  0  0  0  0
  2 31  1  0  0  0  0
  3 32  1  0  0  0  0
  3 33  1  0  0  0  0
  3 34  1  0  0  0  0
  4  2  1  6  0  0  0
  4  9  1  0  0  0  0
  4  5  1  0  0  0  0
  4 27  1  0  0  0  0
  5  6  1  6  0  0  0
  5 13  1  0  0  0  0
  5  7  1  0  0  0  0
  7  8  1  0  0  0  0
  7 35  1  0  0  0  0
  7 36  1  0  0  0  0
  8  9  1  0  0  0  0
  8 37  1  0  0  0  0
  8 38  1  0  0  0  0
  9 10  1  6  0  0  0
  9 11  1  0  0  0  0
 11 12  1  0  0  0  0
 11 39  1  0  0  0  0
 11 40  1  0  0  0  0
 12 13  1  0  0  0  0
 12 14  1  0  0  0  0
 12 41  1  6  0  0  0
 13 42  1  0  0  0  0
 13 43  1  0  0  0  0
 14 15  1  0  0  0  0
 15 16  2  0  0  0  0
 15 17  1  0  0  0  0
 17 18  1  1  0  0  0
 17 19  1  0  0  0  0
 17 21  1  0  0  0  0
 19 20  1  0  0  0  0
 19 44  1  0  0  0  0
 19 45  1  0  0  0  0
 20 46  1  0  0  0  0
 21 26  2  0  0  0  0
 21 22  1  0  0  0  0
 22 23  2  0  0  0  0
 22 47  1  0  0  0  0
 23 24  1  0  0  0  0
 23 48  1  0  0  0  0
 24 25  2  0  0  0  0
 24 49  1  0  0  0  0
 25 26  1  0  0  0  0
 25 50  1  0  0  0  0
 26 51  1  0  0  0  0
 27 52  1  0  0  0  0
 27 53  1  0  0  0  0
 27 54  1  0  0  0  0
M  CHG  1   4   1
M  END
$$$$
