ZINC03809191
 OpenBabel08292219463D

 62 66  0  0  1  0  0  0  0  0999 V2000
   -2.2199   13.6085    8.9631 C   0  0  0  0  0  0  0  0  0  0  0  0
   -1.5965   12.7970    7.8568 C   0  0  0  0  0  0  0  0  0  0  0  0
   -0.5810   13.1795    7.3255 O   0  0  0  0  0  0  0  0  0  0  0  0
   -2.1694   11.6492    7.4617 O   0  0  0  0  0  0  0  0  0  0  0  0
   -1.5140   10.9198    6.3908 C   0  0  1  0  0  0  0  0  0  0  0  0
   -0.4406   11.1055    6.4287 H   0  0  0  0  0  0  0  0  0  0  0  0
   -1.7787    9.4225    6.5573 C   0  0  0  0  0  0  0  0  0  0  0  0
   -1.0136    8.6420    5.4866 C   0  0  0  0  0  0  0  0  0  0  0  0
   -1.5306    9.0393    4.1011 C   0  0  2  0  0  0  0  0  0  0  0  0
   -0.7687    8.2833    3.0253 C   0  0  1  0  0  0  0  0  0  0  0  0
    0.2849    8.2638    3.3039 H   0  0  0  0  0  0  0  0  0  0  0  0
   -1.2596    6.8405    2.9628 C   0  0  0  0  0  0  0  0  0  0  0  0
   -0.5950    6.0531    1.8206 C   0  0  0  0  0  0  0  0  0  0  0  0
   -0.8819    6.8134    0.5429 C   0  0  1  0  0  0  0  0  0  0  0  0
   -0.1316    8.1764    0.6538 C   0  0  2  0  0  0  0  0  0  0  0  0
    0.9126    8.0589    0.9438 H   0  0  0  0  0  0  0  0  0  0  0  0
   -0.8957    9.0002    1.6732 C   0  0  2  0  0  0  0  0  0  0  0  0
   -1.9396    9.0978    1.3751 H   0  0  0  0  0  0  0  0  0  0  0  0
   -0.2482   10.3834    1.8038 C   0  0  0  0  0  0  0  0  0  0  0  0
   -0.8934   11.1262    2.9372 C   0  0  0  0  0  0  0  0  0  0  0  0
   -1.4536   10.5292    3.9480 C   0  0  0  0  0  0  0  0  0  0  0  0
   -2.0659   11.3887    5.0413 C   0  0  0  0  0  0  0  0  0  0  0  0
   -0.2590    8.6101   -0.8135 C   0  0  0  0  0  0  0  0  0  0  0  0
   -0.0433    7.2873   -1.5490 C   0  0  0  0  0  0  0  0  0  0  0  0
   -0.3843    6.2642   -0.7518 C   0  0  0  0  0  0  0  0  0  0  0  0
   -0.2890    4.8309   -1.1004 C   0  0  0  0  0  0  0  0  0  0  0  0
    0.9569    4.2355   -1.3289 C   0  0  0  0  0  0  0  0  0  0  0  0
    0.9917    2.8905   -1.6518 C   0  0  0  0  0  0  0  0  0  0  0  0
   -0.1945    2.1838   -1.7375 C   0  0  0  0  0  0  0  0  0  0  0  0
   -1.3548    2.7727   -1.5217 N   0  0  0  0  0  0  0  0  0  0  0  0
   -1.4392    4.0488   -1.2066 C   0  0  0  0  0  0  0  0  0  0  0  0
   -2.3861    7.0720    0.4363 C   0  0  0  0  0  0  0  0  0  0  0  0
   -3.0004    8.6252    4.0053 C   0  0  0  0  0  0  0  0  0  0  0  0
   -3.1221   13.1089    9.3161 H   0  0  0  0  0  0  0  0  0  0  0  0
   -1.5120   13.7045    9.7865 H   0  0  0  0  0  0  0  0  0  0  0  0
   -2.4764   14.5988    8.5871 H   0  0  0  0  0  0  0  0  0  0  0  0
   -2.8464    9.2291    6.4536 H   0  0  0  0  0  0  0  0  0  0  0  0
   -1.4466    9.1037    7.5453 H   0  0  0  0  0  0  0  0  0  0  0  0
   -1.1644    7.5732    5.6383 H   0  0  0  0  0  0  0  0  0  0  0  0
    0.0493    8.8729    5.5580 H   0  0  0  0  0  0  0  0  0  0  0  0
   -1.0354    6.3486    3.9093 H   0  0  0  0  0  0  0  0  0  0  0  0
   -2.3392    6.8398    2.8121 H   0  0  0  0  0  0  0  0  0  0  0  0
    0.4803    5.9903    1.9878 H   0  0  0  0  0  0  0  0  0  0  0  0
   -1.0215    5.0518    1.7608 H   0  0  0  0  0  0  0  0  0  0  0  0
    0.8173   10.2692    2.0031 H   0  0  0  0  0  0  0  0  0  0  0  0
   -0.3876   10.9396    0.8768 H   0  0  0  0  0  0  0  0  0  0  0  0
   -0.8921   12.2059    2.9125 H   0  0  0  0  0  0  0  0  0  0  0  0
   -1.8003   12.4333    4.8790 H   0  0  0  0  0  0  0  0  0  0  0  0
   -3.1504   11.2792    5.0302 H   0  0  0  0  0  0  0  0  0  0  0  0
    0.5141    9.3326   -1.0753 H   0  0  0  0  0  0  0  0  0  0  0  0
   -1.2513    9.0125   -1.0173 H   0  0  0  0  0  0  0  0  0  0  0  0
    0.3282    7.1912   -2.5586 H   0  0  0  0  0  0  0  0  0  0  0  0
    1.8677    4.8112   -1.2555 H   0  0  0  0  0  0  0  0  0  0  0  0
    1.9350    2.3976   -1.8352 H   0  0  0  0  0  0  0  0  0  0  0  0
   -0.1703    1.1339   -1.9897 H   0  0  0  0  0  0  0  0  0  0  0  0
   -2.4075    4.4945   -1.0331 H   0  0  0  0  0  0  0  0  0  0  0  0
   -2.9105    6.1234    0.3206 H   0  0  0  0  0  0  0  0  0  0  0  0
   -2.7339    7.5714    1.3406 H   0  0  0  0  0  0  0  0  0  0  0  0
   -2.5856    7.7053   -0.4282 H   0  0  0  0  0  0  0  0  0  0  0  0
   -3.3617    8.7996    2.9919 H   0  0  0  0  0  0  0  0  0  0  0  0
   -3.0963    7.5670    4.2482 H   0  0  0  0  0  0  0  0  0  0  0  0
   -3.5902    9.2141    4.7077 H   0  0  0  0  0  0  0  0  0  0  0  0
  1  2  1  0  0  0  0
  1 34  1  0  0  0  0
  1 35  1  0  0  0  0
  1 36  1  0  0  0  0
  2  3  2  0  0  0  0
  2  4  1  0  0  0  0
  4  5  1  0  0  0  0
  5  6  1  1  0  0  0
  5 22  1  0  0  0  0
  5  7  1  0  0  0  0
  7  8  1  0  0  0  0
  7 37  1  0  0  0  0
  7 38  1  0  0  0  0
  8  9  1  0  0  0  0
  8 39  1  0  0  0  0
  8 40  1  0  0  0  0
  9 21  1  0  0  0  0
  9 10  1  0  0  0  0
  9 33  1  6  0  0  0
 10 11  1  1  0  0  0
 10 17  1  0  0  0  0
 10 12  1  0  0  0  0
 12 13  1  0  0  0  0
 12 41  1  0  0  0  0
 12 42  1  0  0  0  0
 13 14  1  0  0  0  0
 13 43  1  0  0  0  0
 13 44  1  0  0  0  0
 14 25  1  0  0  0  0
 14 15  1  0  0  0  0
 14 32  1  6  0  0  0
 15 16  1  1  0  0  0
 15 17  1  0  0  0  0
 15 23  1  0  0  0  0
 17 18  1  6  0  0  0
 17 19  1  0  0  0  0
 19 20  1  0  0  0  0
 19 45  1  0  0  0  0
 19 46  1  0  0  0  0
 20 21  2  0  0  0  0
 20 47  1  0  0  0  0
 21 22  1  0  0  0  0
 22 48  1  0  0  0  0
 22 49  1  0  0  0  0
 23 24  1  0  0  0  0
 23 50  1  0  0  0  0
 23 51  1  0  0  0  0
 24 25  2  0  0  0  0
 24 52  1  0  0  0  0
 25 26  1  0  0  0  0
 26 31  2  0  0  0  0
 26 27  1  0  0  0  0
 27 28  2  0  0  0  0
 27 53  1  0  0  0  0
 28 29  1  0  0  0  0
 28 54  1  0  0  0  0
 29 30  2  0  0  0  0
 29 55  1  0  0  0  0
 30 31  1  0  0  0  0
 31 56  1  0  0  0  0
 32 57  1  0  0  0  0
 32 58  1  0  0  0  0
 32 59  1  0  0  0  0
 33 60  1  0  0  0  0
 33 61  1  0  0  0  0
 33 62  1  0  0  0  0
M  END
$$$$
