ZINC01530639
 OpenBabel08292219463D

 55 57  0  0  1  0  0  0  0  0999 V2000
   -0.0018    1.5062    0.0218 C   0  0  0  0  0  0  0  0  0  0  0  0
    0.0058   -0.0171   -0.1215 C   0  0  0  0  0  0  0  0  0  0  0  0
    0.8392   -0.6311    1.0052 C   0  0  0  0  0  0  0  0  0  0  0  0
   -1.3673   -0.5217   -0.0440 N   0  0  0  0  0  0  0  0  0  0  0  0
   -2.2114   -0.3515    1.0326 C   0  0  0  0  0  0  0  0  0  0  0  0
   -2.0612    0.2825    2.2627 C   0  0  0  0  0  0  0  0  0  0  0  0
   -3.1054    0.2913    3.1615 C   0  0  0  0  0  0  0  0  0  0  0  0
   -4.3095   -0.3267    2.8537 C   0  0  0  0  0  0  0  0  0  0  0  0
   -4.4787   -0.9549    1.6519 C   0  0  0  0  0  0  0  0  0  0  0  0
   -3.4336   -0.9758    0.7267 C   0  0  0  0  0  0  0  0  0  0  0  0
   -3.2826   -1.5449   -0.6197 C   0  0  0  0  0  0  0  0  0  0  0  0
   -2.0039   -1.2293   -1.0374 C   0  0  0  0  0  0  0  0  0  0  0  0
   -1.4166   -1.5945   -2.3333 C   0  0  0  0  0  0  0  0  0  0  0  0
   -2.0181   -1.2290   -3.4633 C   0  0  0  0  0  0  0  0  0  0  0  0
   -1.4798   -1.6998   -4.7898 C   0  0  1  0  0  0  0  0  0  0  0  0
   -0.6019   -2.3244   -4.6246 H   0  0  0  0  0  0  0  0  0  0  0  0
   -2.5537   -2.5114   -5.5169 C   0  0  0  0  0  0  0  0  0  0  0  0
   -1.9682   -3.0937   -6.8050 C   0  0  1  0  0  0  0  0  0  0  0  0
   -1.0732   -3.6696   -6.5694 H   0  0  0  0  0  0  0  0  0  0  0  0
   -3.0018   -4.0060   -7.4683 C   0  0  0  0  0  0  0  0  0  0  0  0
   -2.3843   -4.6750   -8.6692 C   0  0  0  0  0  0  0  0  0  0  0  0
   -1.2249   -4.4434   -8.9670 O   0  0  0  0  0  0  0  0  0  0  0  0
   -3.0441   -5.4477   -9.3431 O   0  0  0  0  0  1  0  0  0  0  0  0
   -1.6291   -2.0303   -7.6973 O   0  0  0  0  0  0  0  0  0  0  0  0
   -1.1171   -0.5692   -5.5850 O   0  0  0  0  0  0  0  0  0  0  0  0
   -4.3010   -2.3021   -1.3803 C   0  0  0  0  0  0  0  0  0  0  0  0
   -4.1016   -3.6540   -1.6637 C   0  0  0  0  0  0  0  0  0  0  0  0
   -5.0545   -4.3553   -2.3727 C   0  0  0  0  0  0  0  0  0  0  0  0
   -6.2081   -3.7198   -2.8035 C   0  0  0  0  0  0  0  0  0  0  0  0
   -6.4109   -2.3776   -2.5252 C   0  0  0  0  0  0  0  0  0  0  0  0
   -5.4671   -1.6683   -1.8119 C   0  0  0  0  0  0  0  0  0  0  0  0
   -7.1383   -4.4113   -3.4976 F   0  0  0  0  0  0  0  0  0  0  0  0
    1.0199    1.8817   -0.0359 H   0  0  0  0  0  0  0  0  0  0  0  0
   -0.5955    1.9436   -0.7809 H   0  0  0  0  0  0  0  0  0  0  0  0
   -0.4352    1.7785    0.9841 H   0  0  0  0  0  0  0  0  0  0  0  0
    0.4392   -0.2894   -1.0838 H   0  0  0  0  0  0  0  0  0  0  0  0
    0.4058   -0.3588    1.9676 H   0  0  0  0  0  0  0  0  0  0  0  0
    0.8446   -1.7163    0.9032 H   0  0  0  0  0  0  0  0  0  0  0  0
    1.8608   -0.2556    0.9476 H   0  0  0  0  0  0  0  0  0  0  0  0
   -1.1282    0.7661    2.5121 H   0  0  0  0  0  0  0  0  0  0  0  0
   -2.9857    0.7837    4.1152 H   0  0  0  0  0  0  0  0  0  0  0  0
   -5.1184   -0.3113    3.5692 H   0  0  0  0  0  0  0  0  0  0  0  0
   -5.4180   -1.4342    1.4188 H   0  0  0  0  0  0  0  0  0  0  0  0
   -0.4969   -2.1594   -2.3694 H   0  0  0  0  0  0  0  0  0  0  0  0
   -2.8918   -0.5951   -3.4294 H   0  0  0  0  0  0  0  0  0  0  0  0
   -2.8940   -3.3227   -4.8734 H   0  0  0  0  0  0  0  0  0  0  0  0
   -3.3957   -1.8637   -5.7610 H   0  0  0  0  0  0  0  0  0  0  0  0
   -3.3265   -4.7650   -6.7565 H   0  0  0  0  0  0  0  0  0  0  0  0
   -3.8603   -3.4132   -7.7840 H   0  0  0  0  0  0  0  0  0  0  0  0
   -2.3791   -1.4749   -7.9504 H   0  0  0  0  0  0  0  0  0  0  0  0
   -1.8512    0.0318   -5.7721 H   0  0  0  0  0  0  0  0  0  0  0  0
   -3.2026   -4.1501   -1.3288 H   0  0  0  0  0  0  0  0  0  0  0  0
   -4.9010   -5.4014   -2.5929 H   0  0  0  0  0  0  0  0  0  0  0  0
   -7.3117   -1.8870   -2.8635 H   0  0  0  0  0  0  0  0  0  0  0  0
   -5.6284   -0.6234   -1.5914 H   0  0  0  0  0  0  0  0  0  0  0  0
  1  2  1  0  0  0  0
  1 33  1  0  0  0  0
  1 34  1  0  0  0  0
  1 35  1  0  0  0  0
  2  3  1  0  0  0  0
  2  4  1  0  0  0  0
  2 36  1  0  0  0  0
  3 37  1  0  0  0  0
  3 38  1  0  0  0  0
  3 39  1  0  0  0  0
  4 12  1  0  0  0  0
  4  5  1  0  0  0  0
  5 10  2  0  0  0  0
  5  6  1  0  0  0  0
  6  7  2  0  0  0  0
  6 40  1  0  0  0  0
  7  8  1  0  0  0  0
  7 41  1  0  0  0  0
  8  9  2  0  0  0  0
  8 42  1  0  0  0  0
  9 10  1  0  0  0  0
  9 43  1  0  0  0  0
 10 11  1  0  0  0  0
 11 12  2  0  0  0  0
 11 26  1  0  0  0  0
 12 13  1  0  0  0  0
 13 14  2  0  0  0  0
 13 44  1  0  0  0  0
 14 15  1  0  0  0  0
 14 45  1  0  0  0  0
 15 16  1  1  0  0  0
 15 17  1  0  0  0  0
 15 25  1  0  0  0  0
 17 18  1  0  0  0  0
 17 46  1  0  0  0  0
 17 47  1  0  0  0  0
 18 19  1  1  0  0  0
 18 20  1  0  0  0  0
 18 24  1  0  0  0  0
 20 21  1  0  0  0  0
 20 48  1  0  0  0  0
 20 49  1  0  0  0  0
 21 22  2  0  0  0  0
 21 23  1  0  0  0  0
 24 50  1  0  0  0  0
 25 51  1  0  0  0  0
 26 31  2  0  0  0  0
 26 27  1  0  0  0  0
 27 28  2  0  0  0  0
 27 52  1  0  0  0  0
 28 29  1  0  0  0  0
 28 53  1  0  0  0  0
 29 30  2  0  0  0  0
 29 32  1  0  0  0  0
 30 31  1  0  0  0  0
 30 54  1  0  0  0  0
 31 55  1  0  0  0  0
M  END
$$$$
