ZINC04214799
 OpenBabel08292219463D

 64 66  0  0  1  0  0  0  0  0999 V2000
   -0.0187    1.5258    0.0104 C   0  0  0  0  0  0  0  0  0  0  0  0
    0.0021   -0.0041    0.0020 C   0  0  0  0  0  0  0  0  0  0  0  0
    0.9183   -0.5578   -1.1267 C   0  0  1  0  0  0  0  0  0  0  0  0
    1.7655    0.1146   -1.2616 H   0  0  0  0  0  0  0  0  0  0  0  0
    1.4152   -1.8973   -0.7968 N   0  0  0  0  0  0  0  0  0  0  0  0
    1.5639   -2.1961    0.6340 C   0  0  2  0  0  0  0  0  0  0  0  0
    1.1313   -3.1348    0.9800 H   0  0  0  0  0  0  0  0  0  0  0  0
    0.9226   -0.6800    1.4567 S   0  0  0  0  0  0  0  0  0  0  0  0
    3.0673   -2.2015    0.4210 C   0  0  1  0  0  0  0  0  0  0  0  0
    3.5574   -3.1223    0.7376 H   0  0  0  0  0  0  0  0  0  0  0  0
    2.7129   -2.1678   -1.0358 C   0  0  0  0  0  0  0  0  0  0  0  0
    3.3561   -2.3252   -2.0520 O   0  0  0  0  0  0  0  0  0  0  0  0
    3.7428   -0.9941    0.9027 N   0  0  0  0  0  4  0  0  0  0  0  0
    4.9920   -1.0407    1.2342 C   0  0  0  0  0  0  0  0  0  0  0  0
    5.6237    0.0885    1.6847 N   0  0  0  0  0  0  0  0  0  0  0  0
    4.8643    1.3148    1.7833 C   0  0  0  0  0  0  0  0  0  0  0  0
    4.9465    2.0860    0.4429 C   0  0  0  0  0  0  0  0  0  0  0  0
    6.2942    2.6455    0.2573 C   0  0  0  0  0  0  0  0  0  0  0  0
    7.4008    1.5998    0.1598 C   0  0  0  0  0  0  0  0  0  0  0  0
    7.8522    1.2183    1.5481 C   0  0  0  0  0  0  0  0  0  0  0  0
    7.0499    0.0014    2.0550 C   0  0  0  0  0  0  0  0  0  0  0  0
    0.1332   -0.6267   -2.4112 C   0  0  0  0  0  0  0  0  0  0  0  0
   -0.3301   -1.6798   -2.7803 O   0  0  0  0  0  0  0  0  0  0  0  0
   -0.0513    0.4818   -3.1453 O   0  0  0  0  0  0  0  0  0  0  0  0
   -0.8053    0.3433   -4.3513 C   0  0  0  0  0  0  0  0  0  0  0  0
   -2.1920    0.2087   -4.0333 O   0  0  0  0  0  0  0  0  0  0  0  0
   -2.8400    1.3202   -3.6506 C   0  0  0  0  0  0  0  0  0  0  0  0
   -2.2496    2.3724   -3.5877 O   0  0  0  0  0  0  0  0  0  0  0  0
   -4.3041    1.2555   -3.2994 C   0  0  0  0  0  0  0  0  0  0  0  0
   -4.7947    2.6486   -2.8998 C   0  0  0  0  0  0  0  0  0  0  0  0
   -5.0980    0.7634   -4.5112 C   0  0  0  0  0  0  0  0  0  0  0  0
   -4.5060    0.2890   -2.1307 C   0  0  0  0  0  0  0  0  0  0  0  0
   -1.4126   -0.5802   -0.0861 C   0  0  0  0  0  0  0  0  0  0  0  0
    1.0039    1.9031    0.0027 H   0  0  0  0  0  0  0  0  0  0  0  0
   -0.5459    1.8868   -0.8726 H   0  0  0  0  0  0  0  0  0  0  0  0
   -0.5289    1.8773    0.9072 H   0  0  0  0  0  0  0  0  0  0  0  0
    5.5372   -1.9697    1.1560 H   0  0  0  0  0  0  0  0  0  0  0  0
    3.8229    1.0802    2.0038 H   0  0  0  0  0  0  0  0  0  0  0  0
    5.2739    1.9321    2.5829 H   0  0  0  0  0  0  0  0  0  0  0  0
    4.7218    1.4061   -0.3789 H   0  0  0  0  0  0  0  0  0  0  0  0
    4.2171    2.8960    0.4473 H   0  0  0  0  0  0  0  0  0  0  0  0
    6.2991    3.2407   -0.6559 H   0  0  0  0  0  0  0  0  0  0  0  0
    6.5140    3.3047    1.0970 H   0  0  0  0  0  0  0  0  0  0  0  0
    7.0224    0.7167   -0.3551 H   0  0  0  0  0  0  0  0  0  0  0  0
    8.2430    2.0122   -0.3959 H   0  0  0  0  0  0  0  0  0  0  0  0
    8.9130    0.9687    1.5274 H   0  0  0  0  0  0  0  0  0  0  0  0
    7.6937    2.0590    2.2234 H   0  0  0  0  0  0  0  0  0  0  0  0
    7.1310   -0.0534    3.1405 H   0  0  0  0  0  0  0  0  0  0  0  0
    7.4726   -0.9061    1.6238 H   0  0  0  0  0  0  0  0  0  0  0  0
   -0.6594    1.2256   -4.9744 H   0  0  0  0  0  0  0  0  0  0  0  0
   -0.4686   -0.5421   -4.8906 H   0  0  0  0  0  0  0  0  0  0  0  0
   -4.6509    3.3371   -3.7324 H   0  0  0  0  0  0  0  0  0  0  0  0
   -5.8537    2.6018   -2.6458 H   0  0  0  0  0  0  0  0  0  0  0  0
   -4.2291    2.9992   -2.0365 H   0  0  0  0  0  0  0  0  0  0  0  0
   -4.7485   -0.2290   -4.7959 H   0  0  0  0  0  0  0  0  0  0  0  0
   -6.1570    0.7166   -4.2572 H   0  0  0  0  0  0  0  0  0  0  0  0
   -4.9542    1.4520   -5.3438 H   0  0  0  0  0  0  0  0  0  0  0  0
   -3.9405    0.6396   -1.2674 H   0  0  0  0  0  0  0  0  0  0  0  0
   -5.5650    0.2423   -1.8766 H   0  0  0  0  0  0  0  0  0  0  0  0
   -4.1565   -0.7034   -2.4153 H   0  0  0  0  0  0  0  0  0  0  0  0
   -1.8843   -0.2455   -1.0100 H   0  0  0  0  0  0  0  0  0  0  0  0
   -1.3627   -1.6690   -0.0774 H   0  0  0  0  0  0  0  0  0  0  0  0
   -1.9986   -0.2365    0.7662 H   0  0  0  0  0  0  0  0  0  0  0  0
    3.2531   -0.1597    0.9729 H   0  0  0  0  0  0  0  0  0  0  0  0
  1  2  1  0  0  0  0
  1 34  1  0  0  0  0
  1 35  1  0  0  0  0
  1 36  1  0  0  0  0
  2  8  1  0  0  0  0
  2  3  1  0  0  0  0
  2 33  1  0  0  0  0
  3  4  1  6  0  0  0
  3  5  1  0  0  0  0
  3 22  1  0  0  0  0
  5 11  1  0  0  0  0
  5  6  1  0  0  0  0
  6  7  1  1  0  0  0
  6  8  1  0  0  0  0
  6  9  1  0  0  0  0
  9 10  1  1  0  0  0
  9 11  1  0  0  0  0
  9 13  1  0  0  0  0
 11 12  2  0  0  0  0
 13 14  2  0  0  0  0
 13 64  1  0  0  0  0
 14 15  1  0  0  0  0
 14 37  1  0  0  0  0
 15 21  1  0  0  0  0
 15 16  1  0  0  0  0
 16 17  1  0  0  0  0
 16 38  1  0  0  0  0
 16 39  1  0  0  0  0
 17 18  1  0  0  0  0
 17 40  1  0  0  0  0
 17 41  1  0  0  0  0
 18 19  1  0  0  0  0
 18 42  1  0  0  0  0
 18 43  1  0  0  0  0
 19 20  1  0  0  0  0
 19 44  1  0  0  0  0
 19 45  1  0  0  0  0
 20 21  1  0  0  0  0
 20 46  1  0  0  0  0
 20 47  1  0  0  0  0
 21 48  1  0  0  0  0
 21 49  1  0  0  0  0
 22 23  2  0  0  0  0
 22 24  1  0  0  0  0
 24 25  1  0  0  0  0
 25 26  1  0  0  0  0
 25 50  1  0  0  0  0
 25 51  1  0  0  0  0
 26 27  1  0  0  0  0
 27 28  2  0  0  0  0
 27 29  1  0  0  0  0
 29 30  1  0  0  0  0
 29 31  1  0  0  0  0
 29 32  1  0  0  0  0
 30 52  1  0  0  0  0
 30 53  1  0  0  0  0
 30 54  1  0  0  0  0
 31 55  1  0  0  0  0
 31 56  1  0  0  0  0
 31 57  1  0  0  0  0
 32 58  1  0  0  0  0
 32 59  1  0  0  0  0
 32 60  1  0  0  0  0
 33 61  1  0  0  0  0
 33 62  1  0  0  0  0
 33 63  1  0  0  0  0
M  END
$$$$
