ZINC01552174
 OpenBabel08292219463D

 54 57  0  0  0  0  0  0  0  0999 V2000
   -0.0167    1.3828    0.0096 C   0  0  0  0  0  0  0  0  0  0  0  0
    1.1695    2.0903    0.0021 C   0  0  0  0  0  0  0  0  0  0  0  0
    2.3808    1.4126   -0.0129 C   0  0  0  0  0  0  0  0  0  0  0  0
    2.3987    0.0239   -0.0203 C   0  0  0  0  0  0  0  0  0  0  0  0
    1.2126   -0.6821   -0.0133 C   0  0  0  0  0  0  0  0  0  0  0  0
    0.0021   -0.0041    0.0020 C   0  0  0  0  0  0  0  0  0  0  0  0
   -1.1663   -0.6996    0.0097 O   0  0  0  0  0  0  0  0  0  0  0  0
   -2.3749    0.0626    0.0256 C   0  0  0  0  0  0  0  0  0  0  0  0
   -3.5757   -0.8855    0.0323 C   0  0  0  0  0  0  0  0  0  0  0  0
   -4.8698   -0.0694    0.0494 C   0  0  0  0  0  0  0  0  0  0  0  0
   -6.0706   -1.0175    0.0560 C   0  0  0  0  0  0  0  0  0  0  0  0
   -7.3452   -0.2137    0.0728 C   0  0  0  0  0  0  0  0  0  0  0  0
   -7.9937    0.2030    1.1329 N   0  0  0  0  0  0  0  0  0  0  0  0
   -9.0311    0.8547    0.7341 N   0  0  0  0  0  0  0  0  0  0  0  0
   -9.0612    0.8646   -0.5529 N   0  0  0  0  0  0  0  0  0  0  0  0
   -8.0355    0.2208   -0.9979 N   0  0  0  0  0  0  0  0  0  0  0  0
   -7.6892    0.0007   -2.4043 C   0  0  0  0  0  0  0  0  0  0  0  0
   -7.4877    1.3500   -3.0970 C   0  0  0  0  0  0  0  0  0  0  0  0
   -7.1260    1.1202   -4.5657 C   0  0  0  0  0  0  0  0  0  0  0  0
   -8.2578    0.3565   -5.2562 C   0  0  0  0  0  0  0  0  0  0  0  0
   -8.4593   -0.9928   -4.5635 C   0  0  0  0  0  0  0  0  0  0  0  0
   -8.8210   -0.7630   -3.0947 C   0  0  0  0  0  0  0  0  0  0  0  0
    3.7151   -0.7087   -0.0354 C   0  0  0  0  0  0  0  0  0  0  0  0
    4.7361    0.0909   -0.8454 C   0  0  0  0  0  0  0  0  0  0  0  0
    4.7294    1.5290   -0.4019 C   0  0  0  0  0  0  0  0  0  0  0  0
    5.7670    2.1570   -0.3887 O   0  0  0  0  0  0  0  0  0  0  0  0
    3.5856    2.1263   -0.0202 N   0  0  0  0  0  0  0  0  0  0  0  0
   -0.9593    1.9097    0.0260 H   0  0  0  0  0  0  0  0  0  0  0  0
    1.1545    3.1701    0.0076 H   0  0  0  0  0  0  0  0  0  0  0  0
    1.2269   -1.7620   -0.0193 H   0  0  0  0  0  0  0  0  0  0  0  0
   -2.3994    0.6863    0.9193 H   0  0  0  0  0  0  0  0  0  0  0  0
   -2.4168    0.6958   -0.8606 H   0  0  0  0  0  0  0  0  0  0  0  0
   -3.5512   -1.5091   -0.8613 H   0  0  0  0  0  0  0  0  0  0  0  0
   -3.5338   -1.5187    0.9185 H   0  0  0  0  0  0  0  0  0  0  0  0
   -4.8943    0.5543    0.9430 H   0  0  0  0  0  0  0  0  0  0  0  0
   -4.9117    0.5638   -0.8369 H   0  0  0  0  0  0  0  0  0  0  0  0
   -6.0461   -1.6412   -0.8376 H   0  0  0  0  0  0  0  0  0  0  0  0
   -6.0287   -1.6507    0.9423 H   0  0  0  0  0  0  0  0  0  0  0  0
   -6.7689   -0.5801   -2.4653 H   0  0  0  0  0  0  0  0  0  0  0  0
   -8.4080    1.9308   -3.0360 H   0  0  0  0  0  0  0  0  0  0  0  0
   -6.6814    1.8941   -2.6051 H   0  0  0  0  0  0  0  0  0  0  0  0
   -6.9824    2.0814   -5.0592 H   0  0  0  0  0  0  0  0  0  0  0  0
   -6.2057    0.5394   -4.6267 H   0  0  0  0  0  0  0  0  0  0  0  0
   -9.1781    0.9373   -5.1952 H   0  0  0  0  0  0  0  0  0  0  0  0
   -8.0001    0.1928   -6.3026 H   0  0  0  0  0  0  0  0  0  0  0  0
   -9.2656   -1.5369   -5.0554 H   0  0  0  0  0  0  0  0  0  0  0  0
   -7.5390   -1.5736   -4.6245 H   0  0  0  0  0  0  0  0  0  0  0  0
   -8.9646   -1.7242   -2.6012 H   0  0  0  0  0  0  0  0  0  0  0  0
   -9.7413   -0.1822   -3.0337 H   0  0  0  0  0  0  0  0  0  0  0  0
    4.0757   -0.8287    0.9862 H   0  0  0  0  0  0  0  0  0  0  0  0
    3.5793   -1.6901   -0.4899 H   0  0  0  0  0  0  0  0  0  0  0  0
    5.7296   -0.3305   -0.6925 H   0  0  0  0  0  0  0  0  0  0  0  0
    4.4806    0.0373   -1.9037 H   0  0  0  0  0  0  0  0  0  0  0  0
    3.5957    3.0574    0.2513 H   0  0  0  0  0  0  0  0  0  0  0  0
  1  6  2  0  0  0  0
  1  2  1  0  0  0  0
  1 28  1  0  0  0  0
  2  3  2  0  0  0  0
  2 29  1  0  0  0  0
  3 27  1  0  0  0  0
  3  4  1  0  0  0  0
  4  5  2  0  0  0  0
  4 23  1  0  0  0  0
  5  6  1  0  0  0  0
  5 30  1  0  0  0  0
  6  7  1  0  0  0  0
  7  8  1  0  0  0  0
  8  9  1  0  0  0  0
  8 31  1  0  0  0  0
  8 32  1  0  0  0  0
  9 10  1  0  0  0  0
  9 33  1  0  0  0  0
  9 34  1  0  0  0  0
 10 11  1  0  0  0  0
 10 35  1  0  0  0  0
 10 36  1  0  0  0  0
 11 12  1  0  0  0  0
 11 37  1  0  0  0  0
 11 38  1  0  0  0  0
 12 16  1  0  0  0  0
 12 13  2  0  0  0  0
 13 14  1  0  0  0  0
 14 15  2  0  0  0  0
 15 16  1  0  0  0  0
 16 17  1  0  0  0  0
 17 22  1  0  0  0  0
 17 18  1  0  0  0  0
 17 39  1  0  0  0  0
 18 19  1  0  0  0  0
 18 40  1  0  0  0  0
 18 41  1  0  0  0  0
 19 20  1  0  0  0  0
 19 42  1  0  0  0  0
 19 43  1  0  0  0  0
 20 21  1  0  0  0  0
 20 44  1  0  0  0  0
 20 45  1  0  0  0  0
 21 22  1  0  0  0  0
 21 46  1  0  0  0  0
 21 47  1  0  0  0  0
 22 48  1  0  0  0  0
 22 49  1  0  0  0  0
 23 24  1  0  0  0  0
 23 50  1  0  0  0  0
 23 51  1  0  0  0  0
 24 25  1  0  0  0  0
 24 52  1  0  0  0  0
 24 53  1  0  0  0  0
 25 26  2  0  0  0  0
 25 27  1  0  0  0  0
 27 54  1  0  0  0  0
M  END
$$$$
