ZINC03982483
 OpenBabel08292219463D

 62 63  0  0  1  0  0  0  0  0999 V2000
   -1.4527    1.1553   -0.4603 C   0  0  0  0  0  0  0  0  0  0  0  0
   -1.1210   -0.3331   -0.3362 C   0  0  0  0  0  0  0  0  0  0  0  0
   -2.4105   -1.1262   -0.1146 C   0  0  0  0  0  0  0  0  0  0  0  0
   -2.0788   -2.6147    0.0095 C   0  0  2  0  0  0  0  0  0  0  0  0
   -1.3310   -2.7827    0.7845 H   0  0  0  0  0  0  0  0  0  0  0  0
   -1.6094   -3.1947   -1.3507 C   0  0  0  0  0  0  0  0  0  0  0  0
   -1.9769   -4.6892   -1.2367 C   0  0  2  0  0  0  0  0  0  0  0  0
   -2.3429   -5.0552   -2.1959 H   0  0  0  0  0  0  0  0  0  0  0  0
   -3.0378   -4.8018   -0.2189 N   0  3  1  0  0  0  0  0  0  0  0  0
   -3.3566   -3.4471    0.2815 C   0  0  0  0  0  0  0  0  0  0  0  0
   -4.2366   -5.4024   -0.8189 C   0  0  0  0  0  0  0  0  0  0  0  0
   -0.7684   -5.4833   -0.8124 C   0  0  0  0  0  0  0  0  0  0  0  0
   -0.7842   -6.1002    0.2317 O   0  0  0  0  0  0  0  0  0  0  0  0
    0.3298   -5.5080   -1.5932 N   0  0  0  0  0  0  0  0  0  0  0  0
    1.5046   -6.2801   -1.1808 C   0  0  1  0  0  0  0  0  0  0  0  0
    1.1823   -7.1822   -0.6608 H   0  0  0  0  0  0  0  0  0  0  0  0
    2.3199   -6.6673   -2.4162 C   0  0  2  0  0  0  0  0  0  0  0  0
    2.7339   -5.7692   -2.8747 H   0  0  0  0  0  0  0  0  0  0  0  0
    1.4142   -7.3827   -3.4220 C   0  0  1  0  0  0  0  0  0  0  0  0
    1.9845   -7.6230   -4.3192 H   0  0  0  0  0  0  0  0  0  0  0  0
    0.8841   -8.6741   -2.7913 C   0  0  1  0  0  0  0  0  0  0  0  0
    0.2835   -9.2167   -3.5214 H   0  0  0  0  0  0  0  0  0  0  0  0
    2.0698   -9.5414   -2.3572 C   0  0  2  0  0  0  0  0  0  0  0  0
    1.7020  -10.4375   -1.8574 H   0  0  0  0  0  0  0  0  0  0  0  0
    2.9502   -8.7425   -1.3926 C   0  0  2  0  0  0  0  0  0  0  0  0
    2.3776   -8.4938   -0.4991 H   0  0  0  0  0  0  0  0  0  0  0  0
    3.3841   -7.5395   -2.0307 O   0  0  0  0  0  0  0  0  0  0  0  0
    4.3950   -9.7362   -0.9282 S   0  0  0  0  0  0  0  0  0  0  0  0
    5.1583   -8.7963    0.4225 C   0  0  0  0  0  0  0  0  0  0  0  0
    2.8341   -9.9147   -3.5055 O   0  0  0  0  0  0  0  0  0  0  0  0
    0.0806   -8.3557   -1.6533 O   0  0  0  0  0  0  0  0  0  0  0  0
    0.3180   -6.5331   -3.7662 O   0  0  0  0  0  0  0  0  0  0  0  0
    2.3686   -5.4329   -0.2445 C   0  0  1  0  0  0  0  0  0  0  0  0
    2.6979   -4.5348   -0.7673 H   0  0  0  0  0  0  0  0  0  0  0  0
    1.5497   -5.0358    0.9853 C   0  0  0  0  0  0  0  0  0  0  0  0
    3.5089   -6.1898    0.1665 O   0  0  0  0  0  0  0  0  0  0  0  0
   -0.5341    1.7204   -0.6182 H   0  0  0  0  0  0  0  0  0  0  0  0
   -2.1236    1.3089   -1.3056 H   0  0  0  0  0  0  0  0  0  0  0  0
   -1.9368    1.4972    0.4545 H   0  0  0  0  0  0  0  0  0  0  0  0
   -0.6369   -0.6750   -1.2510 H   0  0  0  0  0  0  0  0  0  0  0  0
   -0.4502   -0.4866    0.5090 H   0  0  0  0  0  0  0  0  0  0  0  0
   -2.8946   -0.7844    0.8002 H   0  0  0  0  0  0  0  0  0  0  0  0
   -3.0814   -0.9727   -0.9598 H   0  0  0  0  0  0  0  0  0  0  0  0
   -2.1476   -2.7273   -2.1753 H   0  0  0  0  0  0  0  0  0  0  0  0
   -0.5333   -3.0706   -1.4718 H   0  0  0  0  0  0  0  0  0  0  0  0
   -3.5697   -3.4770    1.3501 H   0  0  0  0  0  0  0  0  0  0  0  0
   -4.2037   -3.0311   -0.2638 H   0  0  0  0  0  0  0  0  0  0  0  0
   -3.9942   -6.3945   -1.1997 H   0  0  0  0  0  0  0  0  0  0  0  0
   -5.0186   -5.4842   -0.0640 H   0  0  0  0  0  0  0  0  0  0  0  0
   -4.5866   -4.7743   -1.6380 H   0  0  0  0  0  0  0  0  0  0  0  0
    0.3424   -5.0146   -2.4283 H   0  0  0  0  0  0  0  0  0  0  0  0
    5.4391   -7.8064    0.0629 H   0  0  0  0  0  0  0  0  0  0  0  0
    4.4475   -8.6967    1.2429 H   0  0  0  0  0  0  0  0  0  0  0  0
    6.0469   -9.3210    0.7735 H   0  0  0  0  0  0  0  0  0  0  0  0
    3.6024  -10.4663   -3.3042 H   0  0  0  0  0  0  0  0  0  0  0  0
   -0.2885   -9.1282   -1.2039 H   0  0  0  0  0  0  0  0  0  0  0  0
   -0.2980   -6.9235   -4.4012 H   0  0  0  0  0  0  0  0  0  0  0  0
    1.2204   -5.9338    1.5080 H   0  0  0  0  0  0  0  0  0  0  0  0
    2.1653   -4.4322    1.6523 H   0  0  0  0  0  0  0  0  0  0  0  0
    0.6800   -4.4584    0.6718 H   0  0  0  0  0  0  0  0  0  0  0  0
    4.1306   -6.3839   -0.5482 H   0  0  0  0  0  0  0  0  0  0  0  0
   -2.7163   -5.3781    0.5443 H   0  0  0  0  0  0  0  0  0  0  0  0
  1  2  1  0  0  0  0
  1 37  1  0  0  0  0
  1 38  1  0  0  0  0
  1 39  1  0  0  0  0
  2  3  1  0  0  0  0
  2 40  1  0  0  0  0
  2 41  1  0  0  0  0
  3  4  1  0  0  0  0
  3 42  1  0  0  0  0
  3 43  1  0  0  0  0
  4  5  1  1  0  0  0
  4 10  1  0  0  0  0
  4  6  1  0  0  0  0
  6  7  1  0  0  0  0
  6 44  1  0  0  0  0
  6 45  1  0  0  0  0
  7  8  1  6  0  0  0
  7  9  1  0  0  0  0
  7 12  1  0  0  0  0
  9 10  1  0  0  0  0
  9 11  1  0  0  0  0
  9 62  1  1  0  0  0
 10 46  1  0  0  0  0
 10 47  1  0  0  0  0
 11 48  1  0  0  0  0
 11 49  1  0  0  0  0
 11 50  1  0  0  0  0
 12 13  2  0  0  0  0
 12 14  1  0  0  0  0
 14 15  1  0  0  0  0
 14 51  1  0  0  0  0
 15 16  1  1  0  0  0
 15 17  1  0  0  0  0
 15 33  1  0  0  0  0
 17 18  1  6  0  0  0
 17 27  1  0  0  0  0
 17 19  1  0  0  0  0
 19 20  1  6  0  0  0
 19 21  1  0  0  0  0
 19 32  1  0  0  0  0
 21 22  1  6  0  0  0
 21 23  1  0  0  0  0
 21 31  1  0  0  0  0
 23 24  1  1  0  0  0
 23 25  1  0  0  0  0
 23 30  1  0  0  0  0
 25 26  1  1  0  0  0
 25 27  1  0  0  0  0
 25 28  1  0  0  0  0
 28 29  1  0  0  0  0
 29 52  1  0  0  0  0
 29 53  1  0  0  0  0
 29 54  1  0  0  0  0
 30 55  1  0  0  0  0
 31 56  1  0  0  0  0
 32 57  1  0  0  0  0
 33 34  1  6  0  0  0
 33 35  1  0  0  0  0
 33 36  1  0  0  0  0
 35 58  1  0  0  0  0
 35 59  1  0  0  0  0
 35 60  1  0  0  0  0
 36 61  1  0  0  0  0
M  CHG  1   9   1
M  END
$$$$
