ZINC00897236
 OpenBabel08292219463D

 28 29  0  0  1  0  0  0  0  0999 V2000
   -0.0880    1.4298    0.0212 C   0  0  0  0  0  0  0  0  0  0  0  0
    1.1239    2.1185    0.0097 C   0  0  0  0  0  0  0  0  0  0  0  0
    2.3095    1.3960    0.0037 C   0  0  0  0  0  0  0  0  0  0  0  0
    2.2916    0.0168   -0.0104 C   0  0  0  0  0  0  0  0  0  0  0  0
    1.0857   -0.6601   -0.0027 C   0  0  0  0  0  0  0  0  0  0  0  0
   -0.1025    0.0498    0.0172 C   0  0  0  0  0  0  0  0  0  0  0  0
   -1.6167   -0.7991    0.0372 Cl  0  0  0  0  0  0  0  0  0  0  0  0
    1.0618   -2.4219   -0.0180 S   0  0  0  0  0  0  0  0  0  0  0  0
    0.1489   -2.8068   -1.0366 O   0  0  0  0  0  0  0  0  0  0  0  0
    2.4179   -2.8465   -0.0101 O   0  0  0  0  0  0  0  0  0  0  0  0
    0.4031   -2.9152    1.4190 N   0  0  0  0  0  0  0  0  0  0  0  0
    3.8536    2.2557    0.0330 S   0  0  0  0  0  0  0  0  0  0  0  0
    4.5960    1.8145   -1.0954 O   0  0  0  0  0  0  0  0  0  0  0  0
    4.3507    2.1711    1.3615 O   0  0  0  0  0  0  0  0  0  0  0  0
    3.4557    3.8528   -0.2394 N   0  0  0  0  0  0  0  0  0  0  0  0
    2.2292    4.3347    0.4274 C   0  0  1  0  0  0  0  0  0  0  0  0
    2.0485    5.3742    0.1535 H   0  0  0  0  0  0  0  0  0  0  0  0
    1.1045    3.5105   -0.0082 N   0  0  0  0  0  0  0  0  0  0  0  0
    2.3930    4.2248    1.9447 C   0  0  0  0  0  0  0  0  0  0  0  0
    3.8576    5.1418    2.4591 Cl  0  0  0  0  0  0  0  0  0  0  0  0
    0.9376    4.9117    2.7575 Cl  0  0  0  0  0  0  0  0  0  0  0  0
   -1.0184    1.9779    0.0378 H   0  0  0  0  0  0  0  0  0  0  0  0
    3.2200   -0.5347   -0.0279 H   0  0  0  0  0  0  0  0  0  0  0  0
   -0.0932   -3.7473    1.4648 H   0  0  0  0  0  0  0  0  0  0  0  0
    0.5135   -2.3719    2.2150 H   0  0  0  0  0  0  0  0  0  0  0  0
    3.9969    4.4295   -0.8011 H   0  0  0  0  0  0  0  0  0  0  0  0
    0.3036    3.9557   -0.3264 H   0  0  0  0  0  0  0  0  0  0  0  0
    2.5040    3.1769    2.2231 H   0  0  0  0  0  0  0  0  0  0  0  0
  1  6  2  0  0  0  0
  1  2  1  0  0  0  0
  1 22  1  0  0  0  0
  2 18  1  0  0  0  0
  2  3  2  0  0  0  0
  3  4  1  0  0  0  0
  3 12  1  0  0  0  0
  4  5  2  0  0  0  0
  4 23  1  0  0  0  0
  5  6  1  0  0  0  0
  5  8  1  0  0  0  0
  6  7  1  0  0  0  0
  8  9  2  0  0  0  0
  8 10  2  0  0  0  0
  8 11  1  0  0  0  0
 11 24  1  0  0  0  0
 11 25  1  0  0  0  0
 12 13  2  0  0  0  0
 12 14  2  0  0  0  0
 12 15  1  0  0  0  0
 15 16  1  0  0  0  0
 15 26  1  0  0  0  0
 16 17  1  6  0  0  0
 16 18  1  0  0  0  0
 16 19  1  0  0  0  0
 18 27  1  0  0  0  0
 19 20  1  0  0  0  0
 19 21  1  0  0  0  0
 19 28  1  0  0  0  0
M  END
$$$$
