ZINC30691763
 OpenBabel08292219463D

 53 54  0  0  1  0  0  0  0  0999 V2000
    1.4550    1.9839    0.0238 C   0  0  0  0  0  0  0  0  0  0  0  0
    0.0131    1.4723    0.0286 C   0  0  0  0  0  0  0  0  0  0  0  0
    0.0148   -0.0577    0.0202 C   0  0  0  0  0  0  0  0  0  0  0  0
   -1.4055   -0.5616    0.0248 C   0  0  0  0  0  0  0  0  0  0  0  0
   -2.3247    0.2225    0.0340 O   0  0  0  0  0  0  0  0  0  0  0  0
   -1.6493   -1.8816    0.0189 O   0  0  0  0  0  0  0  0  0  0  0  0
   -3.0412   -2.2948    0.0239 C   0  0  0  0  0  0  0  0  0  0  0  0
   -3.6039   -2.0890   -1.2734 O   0  0  0  0  0  0  0  0  0  0  0  0
   -3.2544   -2.9648   -2.2388 C   0  0  0  0  0  0  0  0  0  0  0  0
   -2.4920   -3.8784   -1.9845 O   0  0  0  0  0  0  0  0  0  0  0  0
   -3.7741   -2.8207   -3.5461 C   0  0  0  0  0  0  0  0  0  0  0  0
   -3.3262   -3.6265   -4.5243 C   0  0  0  0  0  0  0  0  0  0  0  0
   -3.8020   -3.5092   -5.8018 N   0  0  0  0  0  0  0  0  0  0  0  0
   -4.4522   -2.3711   -6.1944 C   0  0  0  0  0  0  0  0  0  0  0  0
   -4.9472   -1.5128   -5.2859 C   0  0  0  0  0  0  0  0  0  0  0  0
   -4.8194   -1.7744   -3.8102 C   0  0  1  0  0  0  0  0  0  0  0  0
   -4.5176   -0.8407   -3.3131 H   0  0  0  0  0  0  0  0  0  0  0  0
   -6.1436   -2.2481   -3.2686 C   0  0  0  0  0  0  0  0  0  0  0  0
   -6.7074   -3.4167   -3.7458 C   0  0  0  0  0  0  0  0  0  0  0  0
   -7.9216   -3.8521   -3.2493 C   0  0  0  0  0  0  0  0  0  0  0  0
   -8.5742   -3.1191   -2.2757 C   0  0  0  0  0  0  0  0  0  0  0  0
   -8.0120   -1.9493   -1.7978 C   0  0  0  0  0  0  0  0  0  0  0  0
   -6.7920   -1.5167   -2.2902 C   0  0  0  0  0  0  0  0  0  0  0  0
   -6.0808   -0.0532   -1.6851 Cl  0  0  0  0  0  0  0  0  0  0  0  0
   -8.8310   -1.0283   -0.5752 Cl  0  0  0  0  0  0  0  0  0  0  0  0
   -5.6062   -0.3421   -5.7275 C   0  0  0  0  0  0  0  0  0  0  0  0
   -5.7202   -0.1206   -6.9185 O   0  0  0  0  0  0  0  0  0  0  0  0
   -6.1086    0.5294   -4.8279 O   0  0  0  0  0  0  0  0  0  0  0  0
   -6.7616    1.6907   -5.3445 C   0  0  0  0  0  0  0  0  0  0  0  0
   -4.6157   -2.0765   -7.6632 C   0  0  0  0  0  0  0  0  0  0  0  0
   -2.2875   -4.6721   -4.2101 C   0  0  0  0  0  0  0  0  0  0  0  0
    1.4538    3.0839    0.0298 H   0  0  0  0  0  0  0  0  0  0  0  0
    1.9692    1.6227   -0.8791 H   0  0  0  0  0  0  0  0  0  0  0  0
    1.9787    1.6129    0.9172 H   0  0  0  0  0  0  0  0  0  0  0  0
   -0.5011    1.8335    0.9315 H   0  0  0  0  0  0  0  0  0  0  0  0
   -0.5106    1.8433   -0.8648 H   0  0  0  0  0  0  0  0  0  0  0  0
    0.5291   -0.4188   -0.8826 H   0  0  0  0  0  0  0  0  0  0  0  0
    0.5384   -0.4287    0.9136 H   0  0  0  0  0  0  0  0  0  0  0  0
   -3.1062   -3.3609    0.2868 H   0  0  0  0  0  0  0  0  0  0  0  0
   -3.5976   -1.7002    0.7634 H   0  0  0  0  0  0  0  0  0  0  0  0
   -3.6625   -4.3320   -6.5184 H   0  0  0  0  0  0  0  0  0  0  0  0
   -6.1986   -3.9899   -4.5067 H   0  0  0  0  0  0  0  0  0  0  0  0
   -8.3611   -4.7654   -3.6225 H   0  0  0  0  0  0  0  0  0  0  0  0
   -9.5231   -3.4597   -1.8884 H   0  0  0  0  0  0  0  0  0  0  0  0
   -7.1210    2.3109   -4.5101 H   0  0  0  0  0  0  0  0  0  0  0  0
   -7.6146    1.3848   -5.9680 H   0  0  0  0  0  0  0  0  0  0  0  0
   -6.0518    2.2703   -5.9530 H   0  0  0  0  0  0  0  0  0  0  0  0
   -5.1583   -1.1279   -7.7887 H   0  0  0  0  0  0  0  0  0  0  0  0
   -5.1835   -2.8895   -8.1392 H   0  0  0  0  0  0  0  0  0  0  0  0
   -3.6246   -1.9970   -8.1338 H   0  0  0  0  0  0  0  0  0  0  0  0
   -2.0434   -5.2328   -5.1245 H   0  0  0  0  0  0  0  0  0  0  0  0
   -2.6812   -5.3632   -3.4503 H   0  0  0  0  0  0  0  0  0  0  0  0
   -1.3798   -4.1835   -3.8262 H   0  0  0  0  0  0  0  0  0  0  0  0
  1  2  1  0  0  0  0
  1 32  1  0  0  0  0
  1 33  1  0  0  0  0
  1 34  1  0  0  0  0
  2  3  1  0  0  0  0
  2 35  1  0  0  0  0
  2 36  1  0  0  0  0
  3  4  1  0  0  0  0
  3 37  1  0  0  0  0
  3 38  1  0  0  0  0
  4  5  2  0  0  0  0
  4  6  1  0  0  0  0
  6  7  1  0  0  0  0
  7  8  1  0  0  0  0
  7 39  1  0  0  0  0
  7 40  1  0  0  0  0
  8  9  1  0  0  0  0
  9 10  2  0  0  0  0
  9 11  1  0  0  0  0
 11 16  1  0  0  0  0
 11 12  2  0  0  0  0
 12 13  1  0  0  0  0
 12 31  1  0  0  0  0
 13 14  1  0  0  0  0
 13 41  1  0  0  0  0
 14 15  2  0  0  0  0
 14 30  1  0  0  0  0
 15 16  1  0  0  0  0
 15 26  1  0  0  0  0
 16 17  1  1  0  0  0
 16 18  1  0  0  0  0
 18 23  2  0  0  0  0
 18 19  1  0  0  0  0
 19 20  2  0  0  0  0
 19 42  1  0  0  0  0
 20 21  1  0  0  0  0
 20 43  1  0  0  0  0
 21 22  2  0  0  0  0
 21 44  1  0  0  0  0
 22 23  1  0  0  0  0
 22 25  1  0  0  0  0
 23 24  1  0  0  0  0
 26 27  2  0  0  0  0
 26 28  1  0  0  0  0
 28 29  1  0  0  0  0
 29 45  1  0  0  0  0
 29 46  1  0  0  0  0
 29 47  1  0  0  0  0
 30 48  1  0  0  0  0
 30 49  1  0  0  0  0
 30 50  1  0  0  0  0
 31 51  1  0  0  0  0
 31 52  1  0  0  0  0
 31 53  1  0  0  0  0
M  END
$$$$
