ZINC00895360
 OpenBabel08292219463D

 17 17  0  0  1  0  0  0  0  0999 V2000
   -0.0189    1.5389    0.0105 C   0  0  0  0  0  0  0  0  0  0  0  0
    1.4877    1.9090   -0.0019 C   0  0  0  0  0  0  0  0  0  0  0  0
    2.0771    0.7912   -0.8979 C   0  0  2  0  0  0  0  0  0  0  0  0
    1.9393    1.0367   -1.9509 H   0  0  0  0  0  0  0  0  0  0  0  0
    1.3058   -0.4202   -0.5467 N   0  3  0  0  0  0  0  0  0  0  0  0
    0.0021   -0.0041    0.0020 C   0  0  0  0  0  0  0  0  0  0  0  0
    3.5395    0.5914   -0.5937 C   0  0  0  0  0  0  0  0  0  0  0  0
    3.9122   -0.4250   -0.0329 O   0  0  0  0  0  0  0  0  0  0  0  0
    4.3499    1.4461   -0.9086 O   0  0  0  0  0  1  0  0  0  0  0  0
   -0.5001    1.9129    0.9142 H   0  0  0  0  0  0  0  0  0  0  0  0
   -0.5172    1.9225   -0.8798 H   0  0  0  0  0  0  0  0  0  0  0  0
    1.6450    2.8909   -0.4483 H   0  0  0  0  0  0  0  0  0  0  0  0
    1.9085    1.8666    1.0027 H   0  0  0  0  0  0  0  0  0  0  0  0
    1.1629   -0.9829   -1.3720 H   0  0  0  0  0  0  0  0  0  0  0  0
   -0.1103   -0.3820    1.0182 H   0  0  0  0  0  0  0  0  0  0  0  0
   -0.8031   -0.3824   -0.6278 H   0  0  0  0  0  0  0  0  0  0  0  0
    1.8099   -0.9552    0.1445 H   0  0  0  0  0  0  0  0  0  0  0  0
  1  6  1  0  0  0  0
  1  2  1  0  0  0  0
  1 10  1  0  0  0  0
  1 11  1  0  0  0  0
  2  3  1  0  0  0  0
  2 12  1  0  0  0  0
  2 13  1  0  0  0  0
  3  4  1  6  0  0  0
  3  5  1  0  0  0  0
  3  7  1  0  0  0  0
  5  6  1  0  0  0  0
  5 14  1  0  0  0  0
  5 17  1  0  0  0  0
  6 15  1  0  0  0  0
  6 16  1  0  0  0  0
  7  8  2  0  0  0  0
  7  9  1  0  0  0  0
M  CHG  1   5   1
M  END
$$$$
