ZINC00002097
 OpenBabel08292219463D

 30 31  0  0  0  0  0  0  0  0999 V2000
   -0.0173    1.4248    0.0099 C   0  0  0  0  0  0  0  0  0  0  0  0
    0.0021   -0.0041    0.0020 O   0  0  0  0  0  0  0  0  0  0  0  0
    0.6251   -0.6177    1.0403 C   0  0  0  0  0  0  0  0  0  0  0  0
    0.6878   -2.0153    1.0953 C   0  0  0  0  0  0  0  0  0  0  0  0
    1.2979   -2.6061    2.1115 N   0  0  0  0  0  0  0  0  0  0  0  0
    1.8455   -1.8749    3.0702 C   0  0  0  0  0  0  0  0  0  0  0  0
    1.7832   -0.4983    3.0152 C   0  0  0  0  0  0  0  0  0  0  0  0
    1.1797    0.1025    2.0007 N   0  0  0  0  0  0  0  0  0  0  0  0
    0.1109   -2.7807    0.0862 N   0  0  0  0  0  2  0  0  0  0  0  0
    0.1870   -4.4335    0.1544 S   0  0  0  0  0  0  0  0  0  0  0  0
    1.5571   -4.7832    0.0141 O   0  0  0  0  0  0  0  0  0  0  0  0
   -0.5893   -4.8298    1.2767 O   0  0  0  0  0  0  0  0  0  0  0  0
   -0.6395   -5.0524   -1.2734 C   0  0  0  0  0  0  0  0  0  0  0  0
   -1.9969   -5.3119   -1.2266 C   0  0  0  0  0  0  0  0  0  0  0  0
   -2.6478   -5.7970   -2.3438 C   0  0  0  0  0  0  0  0  0  0  0  0
   -1.9373   -6.0244   -3.5156 C   0  0  0  0  0  0  0  0  0  0  0  0
   -0.5737   -5.7627   -3.5592 C   0  0  0  0  0  0  0  0  0  0  0  0
    0.0698   -5.2723   -2.4400 C   0  0  0  0  0  0  0  0  0  0  0  0
   -2.5923   -6.5154   -4.6473 N   0  0  0  0  0  0  0  0  0  0  0  0
    1.0053    1.8021    0.0021 H   0  0  0  0  0  0  0  0  0  0  0  0
   -0.5445    1.7859   -0.8732 H   0  0  0  0  0  0  0  0  0  0  0  0
   -0.5275    1.7763    0.9067 H   0  0  0  0  0  0  0  0  0  0  0  0
    2.3423   -2.3584    3.8983 H   0  0  0  0  0  0  0  0  0  0  0  0
    2.2318    0.0922    3.8003 H   0  0  0  0  0  0  0  0  0  0  0  0
   -2.5487   -5.1352   -0.3151 H   0  0  0  0  0  0  0  0  0  0  0  0
   -3.7079   -5.9998   -2.3065 H   0  0  0  0  0  0  0  0  0  0  0  0
   -0.0183   -5.9387   -4.4686 H   0  0  0  0  0  0  0  0  0  0  0  0
    1.1291   -5.0645   -2.4745 H   0  0  0  0  0  0  0  0  0  0  0  0
   -3.5444   -6.6981   -4.6155 H   0  0  0  0  0  0  0  0  0  0  0  0
   -2.0951   -6.6738   -5.4650 H   0  0  0  0  0  0  0  0  0  0  0  0
  1  2  1  0  0  0  0
  1 20  1  0  0  0  0
  1 21  1  0  0  0  0
  1 22  1  0  0  0  0
  2  3  1  0  0  0  0
  3  8  2  0  0  0  0
  3  4  1  0  0  0  0
  4  5  2  0  0  0  0
  4  9  1  0  0  0  0
  5  6  1  0  0  0  0
  6  7  2  0  0  0  0
  6 23  1  0  0  0  0
  7  8  1  0  0  0  0
  7 24  1  0  0  0  0
  9 10  1  0  0  0  0
 10 11  2  0  0  0  0
 10 12  2  0  0  0  0
 10 13  1  0  0  0  0
 13 18  2  0  0  0  0
 13 14  1  0  0  0  0
 14 15  2  0  0  0  0
 14 25  1  0  0  0  0
 15 16  1  0  0  0  0
 15 26  1  0  0  0  0
 16 17  2  0  0  0  0
 16 19  1  0  0  0  0
 17 18  1  0  0  0  0
 17 27  1  0  0  0  0
 18 28  1  0  0  0  0
 19 29  1  0  0  0  0
 19 30  1  0  0  0  0
M  END
$$$$
