ZINC03831531
 OpenBabel08292219463D

 50 52  0  0  1  0  0  0  0  0999 V2000
    2.7141   -2.0171    1.0973 C   0  0  0  0  0  0  0  0  0  0  0  0
    1.3593   -1.9564    0.4401 C   0  0  0  0  0  0  0  0  0  0  0  0
    1.1444   -2.5551   -0.7816 C   0  0  0  0  0  0  0  0  0  0  0  0
   -0.0885   -2.4823   -1.3464 C   0  0  0  0  0  0  0  0  0  0  0  0
   -1.0004   -1.5412   -0.1341 S   0  0  0  0  0  0  0  0  0  0  0  0
    0.3166   -1.3097    1.0489 C   0  0  0  0  0  0  0  0  0  0  0  0
    0.2892   -0.6031    2.3465 C   0  0  0  0  0  0  0  0  0  0  0  0
    0.3824    0.7377    2.3840 C   0  0  0  0  0  0  0  0  0  0  0  0
    0.3918    1.5285    1.1012 C   0  0  0  0  0  0  0  0  0  0  0  0
   -0.7567    2.5393    1.1168 C   0  0  0  0  0  0  0  0  0  0  0  0
   -0.7759    3.2784   -0.1526 N   0  3  1  0  0  0  0  0  0  0  0  0
   -1.1324    2.3641   -1.2441 C   0  0  0  0  0  0  0  0  0  0  0  0
   -1.0748    3.1101   -2.5788 C   0  0  0  0  0  0  0  0  0  0  0  0
   -2.0632    4.2794   -2.5469 C   0  0  0  0  0  0  0  0  0  0  0  0
   -1.7272    5.1867   -1.3599 C   0  0  2  0  0  0  0  0  0  0  0  0
   -0.7321    5.6102   -1.4957 H   0  0  0  0  0  0  0  0  0  0  0  0
   -1.7606    4.3637   -0.0703 C   0  0  0  0  0  0  0  0  0  0  0  0
   -2.7401    6.2993   -1.2743 C   0  0  0  0  0  0  0  0  0  0  0  0
   -3.6471    6.3617   -2.0867 O   0  0  0  0  0  0  0  0  0  0  0  0
   -2.6527    7.1369   -0.3926 O   0  0  0  0  0  1  0  0  0  0  0  0
    0.1594   -1.3702    3.6029 C   0  0  0  0  0  0  0  0  0  0  0  0
   -0.0698   -2.7093    3.7768 C   0  0  0  0  0  0  0  0  0  0  0  0
   -0.1525   -3.2058    5.0590 C   0  0  0  0  0  0  0  0  0  0  0  0
   -0.0050   -2.3564    6.1082 C   0  0  0  0  0  0  0  0  0  0  0  0
    0.2683   -0.7939    5.2892 S   0  0  0  0  0  0  0  0  0  0  0  0
   -0.2290   -3.6219    2.5881 C   0  0  0  0  0  0  0  0  0  0  0  0
    2.7419   -2.8533    1.7959 H   0  0  0  0  0  0  0  0  0  0  0  0
    3.4816   -2.1543    0.3356 H   0  0  0  0  0  0  0  0  0  0  0  0
    2.8987   -1.0875    1.6358 H   0  0  0  0  0  0  0  0  0  0  0  0
    1.9462   -3.0755   -1.2842 H   0  0  0  0  0  0  0  0  0  0  0  0
   -0.4294   -2.8888   -2.2871 H   0  0  0  0  0  0  0  0  0  0  0  0
    0.4506    1.2479    3.3334 H   0  0  0  0  0  0  0  0  0  0  0  0
    1.3401    2.0576    1.0074 H   0  0  0  0  0  0  0  0  0  0  0  0
    0.2683    0.8514    0.2560 H   0  0  0  0  0  0  0  0  0  0  0  0
   -1.7025    2.0127    1.2449 H   0  0  0  0  0  0  0  0  0  0  0  0
   -0.6150    3.2375    1.9417 H   0  0  0  0  0  0  0  0  0  0  0  0
   -0.4300    1.5308   -1.2635 H   0  0  0  0  0  0  0  0  0  0  0  0
   -2.1414    1.9839   -1.0841 H   0  0  0  0  0  0  0  0  0  0  0  0
   -0.0661    3.4905   -2.7400 H   0  0  0  0  0  0  0  0  0  0  0  0
   -1.3416    2.4300   -3.3878 H   0  0  0  0  0  0  0  0  0  0  0  0
   -1.9855    4.8478   -3.4737 H   0  0  0  0  0  0  0  0  0  0  0  0
   -3.0777    3.8962   -2.4370 H   0  0  0  0  0  0  0  0  0  0  0  0
   -2.7562    3.9410    0.0647 H   0  0  0  0  0  0  0  0  0  0  0  0
   -1.5220    5.0068    0.7769 H   0  0  0  0  0  0  0  0  0  0  0  0
   -0.3328   -4.2572    5.2277 H   0  0  0  0  0  0  0  0  0  0  0  0
   -0.0401   -2.5715    7.1660 H   0  0  0  0  0  0  0  0  0  0  0  0
    0.7545   -3.9162    2.2218 H   0  0  0  0  0  0  0  0  0  0  0  0
   -0.7872   -4.5100    2.8841 H   0  0  0  0  0  0  0  0  0  0  0  0
   -0.7694   -3.0994    1.7987 H   0  0  0  0  0  0  0  0  0  0  0  0
    0.1384    3.6677   -0.3277 H   0  0  0  0  0  0  0  0  0  0  0  0
  1  2  1  0  0  0  0
  1 27  1  0  0  0  0
  1 28  1  0  0  0  0
  1 29  1  0  0  0  0
  2  6  2  0  0  0  0
  2  3  1  0  0  0  0
  3  4  2  0  0  0  0
  3 30  1  0  0  0  0
  4  5  1  0  0  0  0
  4 31  1  0  0  0  0
  5  6  1  0  0  0  0
  6  7  1  0  0  0  0
  7  8  2  0  0  0  0
  7 21  1  0  0  0  0
  8  9  1  0  0  0  0
  8 32  1  0  0  0  0
  9 10  1  0  0  0  0
  9 33  1  0  0  0  0
  9 34  1  0  0  0  0
 10 11  1  0  0  0  0
 10 35  1  0  0  0  0
 10 36  1  0  0  0  0
 11 17  1  0  0  0  0
 11 12  1  0  0  0  0
 11 50  1  6  0  0  0
 12 13  1  0  0  0  0
 12 37  1  0  0  0  0
 12 38  1  0  0  0  0
 13 14  1  0  0  0  0
 13 39  1  0  0  0  0
 13 40  1  0  0  0  0
 14 15  1  0  0  0  0
 14 41  1  0  0  0  0
 14 42  1  0  0  0  0
 15 16  1  6  0  0  0
 15 17  1  0  0  0  0
 15 18  1  0  0  0  0
 17 43  1  0  0  0  0
 17 44  1  0  0  0  0
 18 19  2  0  0  0  0
 18 20  1  0  0  0  0
 21 25  1  0  0  0  0
 21 22  2  0  0  0  0
 22 23  1  0  0  0  0
 22 26  1  0  0  0  0
 23 24  2  0  0  0  0
 23 45  1  0  0  0  0
 24 25  1  0  0  0  0
 24 46  1  0  0  0  0
 26 47  1  0  0  0  0
 26 48  1  0  0  0  0
 26 49  1  0  0  0  0
M  CHG  1  11   1
M  END
$$$$
