ZINC30690629
 OpenBabel08292219463D

 41 42  0  0  0  0  0  0  0  0999 V2000
   -0.0167    1.3768    0.0096 C   0  0  0  0  0  0  0  0  0  0  0  0
    0.0021   -0.0041    0.0020 C   0  0  0  0  0  0  0  0  0  0  0  0
    1.2080   -0.6807   -0.0136 C   0  0  0  0  0  0  0  0  0  0  0  0
    2.3988    0.0223   -0.0212 C   0  0  0  0  0  0  0  0  0  0  0  0
    2.3873    1.4033   -0.0127 C   0  0  0  0  0  0  0  0  0  0  0  0
    1.1777    2.0861    0.0020 C   0  0  0  0  0  0  0  0  0  0  0  0
    1.1624    3.4828    0.0092 N   0  0  0  0  0  0  0  0  0  0  0  0
    2.4230    4.2292    0.0012 C   0  0  0  0  0  0  0  0  0  0  0  0
    2.8514    4.6741   -1.7044 S   0  0  2  0  0  0  0  0  0  0  0  0
    3.2068    3.5018   -2.4247 O   0  0  0  0  0  0  0  0  0  0  0  0
    4.1628    5.4344   -1.5683 O   0  0  0  0  0  0  0  0  0  0  0  0
    1.2273   -2.4426   -0.0232 S   0  0  0  0  0  0  0  0  0  0  0  0
    2.4824   -2.8379    0.5130 O   0  0  0  0  0  0  0  0  0  0  0  0
   -0.0080   -2.8653    0.5376 O   0  0  0  0  0  0  0  0  0  0  0  0
    1.2163   -2.9545   -1.7092 C   0  0  0  0  0  0  0  0  0  0  0  0
    0.0137   -3.1736   -2.3558 C   0  0  0  0  0  0  0  0  0  0  0  0
    0.0014   -3.5702   -3.6786 C   0  0  0  0  0  0  0  0  0  0  0  0
    1.1990   -3.7592   -4.3565 C   0  0  0  0  0  0  0  0  0  0  0  0
    2.4053   -3.5433   -3.7025 C   0  0  0  0  0  0  0  0  0  0  0  0
    2.4103   -3.1417   -2.3811 C   0  0  0  0  0  0  0  0  0  0  0  0
    1.1903   -4.1650   -5.6930 N   0  0  0  0  0  0  0  0  0  0  0  0
   -0.0829   -4.3922   -6.3812 C   0  0  0  0  0  0  0  0  0  0  0  0
   -0.5582   -2.8925   -7.2844 S   0  0  2  0  0  0  0  0  0  0  0  0
   -0.9097   -1.8735   -6.3585 O   0  0  0  0  0  0  0  0  0  0  0  0
   -1.8791   -3.2627   -7.9436 O   0  0  0  0  0  0  0  0  0  0  0  0
   -0.9588    1.9047    0.0170 H   0  0  0  0  0  0  0  0  0  0  0  0
   -0.9261   -0.5561    0.0079 H   0  0  0  0  0  0  0  0  0  0  0  0
    3.3389   -0.5092   -0.0334 H   0  0  0  0  0  0  0  0  0  0  0  0
    3.3177    1.9517   -0.0180 H   0  0  0  0  0  0  0  0  0  0  0  0
    0.2039    4.0223    0.0209 H   0  0  0  0  0  0  0  0  0  0  0  0
    2.3113    5.1440    0.6018 H   0  0  0  0  0  0  0  0  0  0  0  0
    3.2214    3.6050    0.4289 H   0  0  0  0  0  0  0  0  0  0  0  0
    4.6639    5.8313   -2.4635 H   0  0  0  0  0  0  0  0  0  0  0  0
   -0.9170   -3.0307   -1.8268 H   0  0  0  0  0  0  0  0  0  0  0  0
   -0.9383   -3.7368   -4.1843 H   0  0  0  0  0  0  0  0  0  0  0  0
    3.3382   -3.6897   -4.2265 H   0  0  0  0  0  0  0  0  0  0  0  0
    3.3478   -2.9733   -1.8721 H   0  0  0  0  0  0  0  0  0  0  0  0
    2.1394   -4.3140   -6.2288 H   0  0  0  0  0  0  0  0  0  0  0  0
    0.0267   -5.2272   -7.0889 H   0  0  0  0  0  0  0  0  0  0  0  0
   -0.8603   -4.6373   -5.6426 H   0  0  0  0  0  0  0  0  0  0  0  0
   -2.4075   -2.5270   -8.5678 H   0  0  0  0  0  0  0  0  0  0  0  0
  1  6  2  0  0  0  0
  1  2  1  0  0  0  0
  1 26  1  0  0  0  0
  2  3  2  0  0  0  0
  2 27  1  0  0  0  0
  3  4  1  0  0  0  0
  3 12  1  0  0  0  0
  4  5  2  0  0  0  0
  4 28  1  0  0  0  0
  5  6  1  0  0  0  0
  5 29  1  0  0  0  0
  6  7  1  0  0  0  0
  7  8  1  0  0  0  0
  7 30  1  0  0  0  0
  8  9  1  0  0  0  0
  8 31  1  0  0  0  0
  8 32  1  0  0  0  0
  9 10  2  6  0  0  0
  9 11  1  0  0  0  0
 11 33  1  0  0  0  0
 12 13  2  0  0  0  0
 12 14  2  0  0  0  0
 12 15  1  0  0  0  0
 15 20  2  0  0  0  0
 15 16  1  0  0  0  0
 16 17  2  0  0  0  0
 16 34  1  0  0  0  0
 17 18  1  0  0  0  0
 17 35  1  0  0  0  0
 18 19  2  0  0  0  0
 18 21  1  0  0  0  0
 19 20  1  0  0  0  0
 19 36  1  0  0  0  0
 20 37  1  0  0  0  0
 21 22  1  0  0  0  0
 21 38  1  0  0  0  0
 22 23  1  0  0  0  0
 22 39  1  0  0  0  0
 22 40  1  0  0  0  0
 23 24  2  1  0  0  0
 23 25  1  0  0  0  0
 25 41  1  0  0  0  0
M  END
$$$$
