ZINC01035331
 OpenBabel08292219463D

 29 30  0  0  1  0  0  0  0  0999 V2000
   -0.0162    1.3416    0.0094 C   0  0  0  0  0  0  0  0  0  0  0  0
    1.2255    1.7548   -0.0002 N   0  0  0  0  0  0  0  0  0  0  0  0
    2.0101    0.6618   -0.0136 C   0  0  0  0  0  0  0  0  0  0  0  0
    1.2293   -0.3963   -0.0118 N   0  0  0  0  0  0  0  0  0  0  0  0
    0.0021   -0.0041    0.0020 N   0  0  0  0  0  0  0  0  0  0  0  0
   -1.1751   -0.8761    0.0086 C   0  0  1  0  0  0  0  0  0  0  0  0
   -2.0868   -0.2821   -0.0562 H   0  0  0  0  0  0  0  0  0  0  0  0
   -1.1051   -1.8829   -1.1609 C   0  0  1  0  0  0  0  0  0  0  0  0
   -0.0715   -2.0370   -1.4709 H   0  0  0  0  0  0  0  0  0  0  0  0
   -1.6933   -3.1844   -0.5716 C   0  0  1  0  0  0  0  0  0  0  0  0
   -0.9506   -3.9819   -0.5902 H   0  0  0  0  0  0  0  0  0  0  0  0
   -2.0492   -2.8100    0.8843 C   0  0  2  0  0  0  0  0  0  0  0  0
   -3.0958   -2.5139    0.9549 H   0  0  0  0  0  0  0  0  0  0  0  0
   -1.1900   -1.6917    1.2004 O   0  0  0  0  0  0  0  0  0  0  0  0
   -1.7648   -3.9855    1.8213 C   0  0  0  0  0  0  0  0  0  0  0  0
   -2.2080   -3.6612    3.1405 O   0  0  0  0  0  0  0  0  0  0  0  0
   -2.8642   -3.5755   -1.2914 O   0  0  0  0  0  0  0  0  0  0  0  0
   -1.8940   -1.4272   -2.2619 O   0  0  0  0  0  0  0  0  0  0  0  0
    3.4887    0.6522   -0.0277 C   0  0  0  0  0  0  0  0  0  0  0  0
    4.0895   -0.4044   -0.0396 O   0  0  0  0  0  0  0  0  0  0  0  0
    4.1702    1.8150   -0.0275 N   0  0  0  0  0  0  0  0  0  0  0  0
   -0.8963    1.9673    0.0252 H   0  0  0  0  0  0  0  0  0  0  0  0
   -2.2953   -4.8693    1.4668 H   0  0  0  0  0  0  0  0  0  0  0  0
   -0.6936   -4.1867    1.8370 H   0  0  0  0  0  0  0  0  0  0  0  0
   -2.0589   -4.3627    3.7891 H   0  0  0  0  0  0  0  0  0  0  0  0
   -2.7063   -3.7646   -2.2265 H   0  0  0  0  0  0  0  0  0  0  0  0
   -1.8859   -2.0219   -3.0243 H   0  0  0  0  0  0  0  0  0  0  0  0
    3.6908    2.6581   -0.0180 H   0  0  0  0  0  0  0  0  0  0  0  0
    5.1402    1.8086   -0.0368 H   0  0  0  0  0  0  0  0  0  0  0  0
  1  5  1  0  0  0  0
  1  2  2  0  0  0  0
  1 22  1  0  0  0  0
  2  3  1  0  0  0  0
  3  4  2  0  0  0  0
  3 19  1  0  0  0  0
  4  5  1  0  0  0  0
  5  6  1  0  0  0  0
  6  7  1  6  0  0  0
  6 14  1  0  0  0  0
  6  8  1  0  0  0  0
  8  9  1  6  0  0  0
  8 10  1  0  0  0  0
  8 18  1  0  0  0  0
 10 11  1  6  0  0  0
 10 12  1  0  0  0  0
 10 17  1  0  0  0  0
 12 13  1  1  0  0  0
 12 14  1  0  0  0  0
 12 15  1  0  0  0  0
 15 16  1  0  0  0  0
 15 23  1  0  0  0  0
 15 24  1  0  0  0  0
 16 25  1  0  0  0  0
 17 26  1  0  0  0  0
 18 27  1  0  0  0  0
 19 20  2  0  0  0  0
 19 21  1  0  0  0  0
 21 28  1  0  0  0  0
 21 29  1  0  0  0  0
M  END
$$$$
