ZINC00000786
 OpenBabel08292219463D

 31 31  0  0  1  0  0  0  0  0999 V2000
   -1.6710    0.8538    0.4807 C   0  0  0  0  0  0  0  0  0  0  0  0
   -0.7594   -0.3191    0.2273 C   0  0  0  0  0  0  0  0  0  0  0  0
   -0.8371   -1.0100   -0.9660 C   0  0  0  0  0  0  0  0  0  0  0  0
   -0.0012   -2.0867   -1.1991 C   0  0  0  0  0  0  0  0  0  0  0  0
    0.9151   -2.4749   -0.2390 C   0  0  0  0  0  0  0  0  0  0  0  0
    0.9982   -1.7879    0.9563 C   0  0  0  0  0  0  0  0  0  0  0  0
    0.1638   -0.7029    1.1913 C   0  0  0  0  0  0  0  0  0  0  0  0
    0.2493   -0.0012    2.3988 N   0  0  0  0  0  0  0  0  0  0  0  0
    0.4418    1.3327    2.3909 C   0  0  0  0  0  0  0  0  0  0  0  0
    0.6061    1.9155    1.3399 O   0  0  0  0  0  0  0  0  0  0  0  0
    0.4530    2.1002    3.6878 C   0  0  1  0  0  0  0  0  0  0  0  0
   -0.5052    1.9754    4.1921 H   0  0  0  0  0  0  0  0  0  0  0  0
    1.5739    1.5703    4.5843 C   0  0  0  0  0  0  0  0  0  0  0  0
    0.6792    3.5251    3.4116 N   0  3  0  0  0  0  0  0  0  0  0  0
    1.9967   -2.2119    2.0023 C   0  0  0  0  0  0  0  0  0  0  0  0
   -1.2511    1.7470    0.0182 H   0  0  0  0  0  0  0  0  0  0  0  0
   -2.6525    0.6502    0.0525 H   0  0  0  0  0  0  0  0  0  0  0  0
   -1.7690    1.0125    1.5546 H   0  0  0  0  0  0  0  0  0  0  0  0
   -1.5517   -0.7093   -1.7179 H   0  0  0  0  0  0  0  0  0  0  0  0
   -0.0645   -2.6257   -2.1328 H   0  0  0  0  0  0  0  0  0  0  0  0
    1.5663   -3.3164   -0.4238 H   0  0  0  0  0  0  0  0  0  0  0  0
    0.1701   -0.4748    3.2416 H   0  0  0  0  0  0  0  0  0  0  0  0
    1.4061    0.5129    4.7892 H   0  0  0  0  0  0  0  0  0  0  0  0
    2.5322    1.6950    4.0800 H   0  0  0  0  0  0  0  0  0  0  0  0
    1.5820    2.1253    5.5223 H   0  0  0  0  0  0  0  0  0  0  0  0
   -0.0600    3.8746    2.8204 H   0  0  0  0  0  0  0  0  0  0  0  0
    0.6867    4.0390    4.2800 H   0  0  0  0  0  0  0  0  0  0  0  0
    2.9027   -1.6140    1.9032 H   0  0  0  0  0  0  0  0  0  0  0  0
    1.5696   -2.0629    2.9940 H   0  0  0  0  0  0  0  0  0  0  0  0
    2.2402   -3.2656    1.8662 H   0  0  0  0  0  0  0  0  0  0  0  0
    1.5662    3.6406    2.9448 H   0  0  0  0  0  0  0  0  0  0  0  0
  1  2  1  0  0  0  0
  1 16  1  0  0  0  0
  1 17  1  0  0  0  0
  1 18  1  0  0  0  0
  2  7  2  0  0  0  0
  2  3  1  0  0  0  0
  3  4  2  0  0  0  0
  3 19  1  0  0  0  0
  4  5  1  0  0  0  0
  4 20  1  0  0  0  0
  5  6  2  0  0  0  0
  5 21  1  0  0  0  0
  6  7  1  0  0  0  0
  6 15  1  0  0  0  0
  7  8  1  0  0  0  0
  8  9  1  0  0  0  0
  8 22  1  0  0  0  0
  9 10  2  0  0  0  0
  9 11  1  0  0  0  0
 11 12  1  1  0  0  0
 11 13  1  0  0  0  0
 11 14  1  0  0  0  0
 13 23  1  0  0  0  0
 13 24  1  0  0  0  0
 13 25  1  0  0  0  0
 14 26  1  0  0  0  0
 14 27  1  0  0  0  0
 14 31  1  0  0  0  0
 15 28  1  0  0  0  0
 15 29  1  0  0  0  0
 15 30  1  0  0  0  0
M  CHG  1  14   1
M  END
$$$$
