ZINC03875357
 OpenBabel08292219463D

 52 55  0  0  1  0  0  0  0  0999 V2000
    0.3038    1.6058    0.0358 C   0  0  0  0  0  0  0  0  0  0  0  0
    0.1683    0.0819    0.0533 C   0  0  2  0  0  0  0  0  0  0  0  0
   -1.2682   -0.3060    0.3660 C   0  0  0  0  0  0  0  0  0  0  0  0
   -1.5793    0.2650    1.7422 C   0  0  0  0  0  0  0  0  0  0  0  0
   -2.5823    0.9134    1.9204 O   0  0  0  0  0  0  0  0  0  0  0  0
   -0.6236    0.0142    2.8801 C   0  0  1  0  0  0  0  0  0  0  0  0
   -0.7114   -1.0231    3.2033 H   0  0  0  0  0  0  0  0  0  0  0  0
    0.8227    0.2872    2.4302 C   0  0  2  0  0  0  0  0  0  0  0  0
    0.9428    1.3489    2.2144 H   0  0  0  0  0  0  0  0  0  0  0  0
    1.0678   -0.5164    1.1692 C   0  0  2  0  0  0  0  0  0  0  0  0
    0.8285   -1.5678    1.3290 H   0  0  0  0  0  0  0  0  0  0  0  0
    2.4679   -0.3565    0.5631 C   0  0  0  0  0  0  0  0  0  0  0  0
    2.2540   -0.7460   -0.9239 C   0  0  0  0  0  0  0  0  0  0  0  0
    0.7551   -0.5069   -1.2276 C   0  0  2  0  0  0  0  0  0  0  0  0
    0.6029    0.4678   -2.3668 C   0  0  0  0  0  0  0  0  0  0  0  0
    1.4891    1.2497   -2.6149 O   0  0  0  0  0  0  0  0  0  0  0  0
   -0.6552    0.4666   -3.1965 C   0  0  0  0  0  0  0  0  0  0  0  0
   -0.5606    1.4729   -4.2066 O   0  0  0  0  0  0  0  0  0  0  0  0
    0.1114   -1.7429   -1.5437 O   0  0  0  0  0  0  0  0  0  0  0  0
    1.7813   -0.1178    3.5481 C   0  0  0  0  0  0  0  0  0  0  0  0
    1.5411    0.7803    4.7680 C   0  0  0  0  0  0  0  0  0  0  0  0
    0.0720    0.7078    5.1392 C   0  0  0  0  0  0  0  0  0  0  0  0
   -0.2591    0.4517    6.3974 C   0  0  0  0  0  0  0  0  0  0  0  0
   -1.6714    0.3505    6.7954 C   0  0  0  0  0  0  0  0  0  0  0  0
   -1.9781    0.1583    7.9572 O   0  0  0  0  0  0  0  0  0  0  0  0
   -2.7061    0.4876    5.7563 C   0  0  0  0  0  0  0  0  0  0  0  0
   -2.3542    0.7507    4.5077 C   0  0  0  0  0  0  0  0  0  0  0  0
   -0.9373    0.9394    4.0562 C   0  0  2  0  0  0  0  0  0  0  0  0
   -0.7887    2.3825    3.5700 C   0  0  0  0  0  0  0  0  0  0  0  0
    1.3563    1.8760   -0.0503 H   0  0  0  0  0  0  0  0  0  0  0  0
   -0.2457    2.0096   -0.8145 H   0  0  0  0  0  0  0  0  0  0  0  0
   -0.1025    2.0174    0.9597 H   0  0  0  0  0  0  0  0  0  0  0  0
   -1.9411    0.1220   -0.3770 H   0  0  0  0  0  0  0  0  0  0  0  0
   -1.3675   -1.3914    0.3806 H   0  0  0  0  0  0  0  0  0  0  0  0
    2.8077    0.6758    0.6458 H   0  0  0  0  0  0  0  0  0  0  0  0
    3.1743   -1.0351    1.0412 H   0  0  0  0  0  0  0  0  0  0  0  0
    2.8707   -0.1184   -1.5673 H   0  0  0  0  0  0  0  0  0  0  0  0
    2.5033   -1.7963   -1.0750 H   0  0  0  0  0  0  0  0  0  0  0  0
   -0.7797   -0.5091   -3.6662 H   0  0  0  0  0  0  0  0  0  0  0  0
   -1.5127    0.6737   -2.5564 H   0  0  0  0  0  0  0  0  0  0  0  0
   -1.3374    1.5292   -4.7797 H   0  0  0  0  0  0  0  0  0  0  0  0
    0.4428   -2.1643   -2.3485 H   0  0  0  0  0  0  0  0  0  0  0  0
    1.6037   -1.1581    3.8210 H   0  0  0  0  0  0  0  0  0  0  0  0
    2.8097   -0.0006    3.2063 H   0  0  0  0  0  0  0  0  0  0  0  0
    2.1475    0.4319    5.6041 H   0  0  0  0  0  0  0  0  0  0  0  0
    1.8066    1.8087    4.5234 H   0  0  0  0  0  0  0  0  0  0  0  0
    0.5160    0.3157    7.1371 H   0  0  0  0  0  0  0  0  0  0  0  0
   -3.7491    0.3735    6.0124 H   0  0  0  0  0  0  0  0  0  0  0  0
   -3.1370    0.8373    3.7687 H   0  0  0  0  0  0  0  0  0  0  0  0
   -1.4848    2.5634    2.7509 H   0  0  0  0  0  0  0  0  0  0  0  0
   -1.0070    3.0665    4.3901 H   0  0  0  0  0  0  0  0  0  0  0  0
    0.2314    2.5456    3.2226 H   0  0  0  0  0  0  0  0  0  0  0  0
  1 30  1  0  0  0  0
  1 31  1  0  0  0  0
  1 32  1  0  0  0  0
  2  1  1  6  0  0  0
  2 10  1  0  0  0  0
  2 14  1  0  0  0  0
  2  3  1  0  0  0  0
  3  4  1  0  0  0  0
  3 33  1  0  0  0  0
  3 34  1  0  0  0  0
  4  5  2  0  0  0  0
  4  6  1  0  0  0  0
  6  7  1  1  0  0  0
  6 28  1  0  0  0  0
  6  8  1  0  0  0  0
  8  9  1  6  0  0  0
  8 10  1  0  0  0  0
  8 20  1  0  0  0  0
 10 11  1  1  0  0  0
 10 12  1  0  0  0  0
 12 13  1  0  0  0  0
 12 35  1  0  0  0  0
 12 36  1  0  0  0  0
 13 14  1  0  0  0  0
 13 37  1  0  0  0  0
 13 38  1  0  0  0  0
 14 15  1  6  0  0  0
 14 19  1  0  0  0  0
 15 16  2  0  0  0  0
 15 17  1  0  0  0  0
 17 18  1  0  0  0  0
 17 39  1  0  0  0  0
 17 40  1  0  0  0  0
 18 41  1  0  0  0  0
 19 42  1  0  0  0  0
 20 21  1  0  0  0  0
 20 43  1  0  0  0  0
 20 44  1  0  0  0  0
 21 22  1  0  0  0  0
 21 45  1  0  0  0  0
 21 46  1  0  0  0  0
 22 28  1  0  0  0  0
 22 23  2  0  0  0  0
 23 24  1  0  0  0  0
 23 47  1  0  0  0  0
 24 25  2  0  0  0  0
 24 26  1  0  0  0  0
 26 27  2  0  0  0  0
 26 48  1  0  0  0  0
 27 28  1  0  0  0  0
 27 49  1  0  0  0  0
 28 29  1  6  0  0  0
 29 50  1  0  0  0  0
 29 51  1  0  0  0  0
 29 52  1  0  0  0  0
M  END
$$$$
