ZINC03830283
 OpenBabel08292219463D

 62 64  0  0  1  0  0  0  0  0999 V2000
    0.2141    1.5244   -0.3937 C   0  0  0  0  0  0  0  0  0  0  0  0
    0.1828   -0.0046   -0.4414 C   0  0  0  0  0  0  0  0  0  0  0  0
    1.0078   -0.5679    0.7174 C   0  0  0  0  0  0  0  0  0  0  0  0
   -1.2634   -0.4891   -0.3208 C   0  0  0  0  0  0  0  0  0  0  0  0
   -2.0064   -0.0600   -1.4635 O   0  0  0  0  0  0  0  0  0  0  0  0
   -3.3774   -0.4626   -1.4501 C   0  0  0  0  0  0  0  0  0  0  0  0
   -4.0716    0.0488   -2.7140 C   0  0  2  0  0  0  0  0  0  0  0  0
   -3.9361    1.1276   -2.7917 H   0  0  0  0  0  0  0  0  0  0  0  0
   -5.5654   -0.2737   -2.6415 C   0  0  0  0  0  0  0  0  0  0  0  0
   -6.1702    0.4616   -1.5280 N   0  0  0  0  0  0  0  0  0  0  0  0
   -6.6124    1.8453   -1.7182 C   0  0  0  0  0  0  0  0  0  0  0  0
   -8.0199    1.8534   -2.2567 C   0  0  0  0  0  0  0  0  0  0  0  0
   -8.2378    1.8344   -3.6217 C   0  0  0  0  0  0  0  0  0  0  0  0
   -9.5288    1.8418   -4.1157 C   0  0  0  0  0  0  0  0  0  0  0  0
  -10.6020    1.8677   -3.2448 C   0  0  0  0  0  0  0  0  0  0  0  0
  -10.3841    1.8857   -1.8798 C   0  0  0  0  0  0  0  0  0  0  0  0
   -9.0931    1.8740   -1.3857 C   0  0  0  0  0  0  0  0  0  0  0  0
   -6.3253   -0.1565   -0.2851 C   0  0  0  0  0  0  0  0  0  0  0  0
   -5.9013   -1.4665   -0.1015 C   0  0  0  0  0  0  0  0  0  0  0  0
   -6.0557   -2.0746    1.1288 C   0  0  0  0  0  0  0  0  0  0  0  0
   -6.6320   -1.3810    2.1772 C   0  0  0  0  0  0  0  0  0  0  0  0
   -7.0551   -0.0767    1.9978 C   0  0  0  0  0  0  0  0  0  0  0  0
   -6.8986    0.5393    0.7717 C   0  0  0  0  0  0  0  0  0  0  0  0
   -3.4863   -0.6043   -3.8925 N   0  3  0  0  0  0  0  0  0  0  0  0
   -2.0641   -0.2208   -4.0189 C   0  0  0  0  0  0  0  0  0  0  0  0
   -1.8182   -0.1105   -5.5443 C   0  0  0  0  0  0  0  0  0  0  0  0
   -3.1600    0.4939   -6.0352 C   0  0  0  0  0  0  0  0  0  0  0  0
   -4.1998   -0.1684   -5.1069 C   0  0  0  0  0  0  0  0  0  0  0  0
    1.2444    1.8696   -0.4797 H   0  0  0  0  0  0  0  0  0  0  0  0
   -0.3736    1.9257   -1.2193 H   0  0  0  0  0  0  0  0  0  0  0  0
   -0.2063    1.8670    0.5518 H   0  0  0  0  0  0  0  0  0  0  0  0
    0.6032   -0.3472   -1.3869 H   0  0  0  0  0  0  0  0  0  0  0  0
    0.5874   -0.2253    1.6629 H   0  0  0  0  0  0  0  0  0  0  0  0
    0.9855   -1.6572    0.6834 H   0  0  0  0  0  0  0  0  0  0  0  0
    2.0381   -0.2227    0.6315 H   0  0  0  0  0  0  0  0  0  0  0  0
   -1.2784   -1.5776   -0.2654 H   0  0  0  0  0  0  0  0  0  0  0  0
   -1.7119   -0.0732    0.5814 H   0  0  0  0  0  0  0  0  0  0  0  0
   -3.4364   -1.5505   -1.4181 H   0  0  0  0  0  0  0  0  0  0  0  0
   -3.8698   -0.0461   -0.5713 H   0  0  0  0  0  0  0  0  0  0  0  0
   -6.0463    0.0199   -3.5746 H   0  0  0  0  0  0  0  0  0  0  0  0
   -5.6989   -1.3441   -2.4851 H   0  0  0  0  0  0  0  0  0  0  0  0
   -6.5859    2.3698   -0.7630 H   0  0  0  0  0  0  0  0  0  0  0  0
   -5.9500    2.3445   -2.4253 H   0  0  0  0  0  0  0  0  0  0  0  0
   -7.3993    1.8141   -4.3021 H   0  0  0  0  0  0  0  0  0  0  0  0
   -9.6990    1.8277   -5.1821 H   0  0  0  0  0  0  0  0  0  0  0  0
  -11.6106    1.8742   -3.6308 H   0  0  0  0  0  0  0  0  0  0  0  0
  -11.2226    1.9063   -1.1994 H   0  0  0  0  0  0  0  0  0  0  0  0
   -8.9230    1.8844   -0.3193 H   0  0  0  0  0  0  0  0  0  0  0  0
   -5.4518   -2.0090   -0.9201 H   0  0  0  0  0  0  0  0  0  0  0  0
   -5.7262   -3.0930    1.2723 H   0  0  0  0  0  0  0  0  0  0  0  0
   -6.7521   -1.8590    3.1381 H   0  0  0  0  0  0  0  0  0  0  0  0
   -7.5048    0.4622    2.8187 H   0  0  0  0  0  0  0  0  0  0  0  0
   -7.2252    1.5594    0.6335 H   0  0  0  0  0  0  0  0  0  0  0  0
   -1.8856    0.7396   -3.5353 H   0  0  0  0  0  0  0  0  0  0  0  0
   -1.4239   -0.9894   -3.5859 H   0  0  0  0  0  0  0  0  0  0  0  0
   -0.9863    0.5606   -5.7582 H   0  0  0  0  0  0  0  0  0  0  0  0
   -1.6483   -1.0931   -5.9845 H   0  0  0  0  0  0  0  0  0  0  0  0
   -3.1644    1.5765   -5.9083 H   0  0  0  0  0  0  0  0  0  0  0  0
   -3.3459    0.2260   -7.0752 H   0  0  0  0  0  0  0  0  0  0  0  0
   -4.6455   -1.0298   -5.6044 H   0  0  0  0  0  0  0  0  0  0  0  0
   -4.9741    0.5521   -4.8436 H   0  0  0  0  0  0  0  0  0  0  0  0
   -3.5586   -1.6062   -3.7973 H   0  0  0  0  0  0  0  0  0  0  0  0
  1  2  1  0  0  0  0
  1 29  1  0  0  0  0
  1 30  1  0  0  0  0
  1 31  1  0  0  0  0
  2  3  1  0  0  0  0
  2  4  1  0  0  0  0
  2 32  1  0  0  0  0
  3 33  1  0  0  0  0
  3 34  1  0  0  0  0
  3 35  1  0  0  0  0
  4  5  1  0  0  0  0
  4 36  1  0  0  0  0
  4 37  1  0  0  0  0
  5  6  1  0  0  0  0
  6  7  1  0  0  0  0
  6 38  1  0  0  0  0
  6 39  1  0  0  0  0
  7  8  1  6  0  0  0
  7  9  1  0  0  0  0
  7 24  1  0  0  0  0
  9 10  1  0  0  0  0
  9 40  1  0  0  0  0
  9 41  1  0  0  0  0
 10 11  1  0  0  0  0
 10 18  1  0  0  0  0
 11 12  1  0  0  0  0
 11 42  1  0  0  0  0
 11 43  1  0  0  0  0
 12 17  2  0  0  0  0
 12 13  1  0  0  0  0
 13 14  2  0  0  0  0
 13 44  1  0  0  0  0
 14 15  1  0  0  0  0
 14 45  1  0  0  0  0
 15 16  2  0  0  0  0
 15 46  1  0  0  0  0
 16 17  1  0  0  0  0
 16 47  1  0  0  0  0
 17 48  1  0  0  0  0
 18 23  2  0  0  0  0
 18 19  1  0  0  0  0
 19 20  2  0  0  0  0
 19 49  1  0  0  0  0
 20 21  1  0  0  0  0
 20 50  1  0  0  0  0
 21 22  2  0  0  0  0
 21 51  1  0  0  0  0
 22 23  1  0  0  0  0
 22 52  1  0  0  0  0
 23 53  1  0  0  0  0
 24 28  1  0  0  0  0
 24 25  1  0  0  0  0
 24 62  1  0  0  0  0
 25 26  1  0  0  0  0
 25 54  1  0  0  0  0
 25 55  1  0  0  0  0
 26 27  1  0  0  0  0
 26 56  1  0  0  0  0
 26 57  1  0  0  0  0
 27 28  1  0  0  0  0
 27 58  1  0  0  0  0
 27 59  1  0  0  0  0
 28 60  1  0  0  0  0
 28 61  1  0  0  0  0
M  CHG  1  24   1
M  END
$$$$
