ZINC00968275
 OpenBabel08292219463D

 49 51  0  0  1  0  0  0  0  0999 V2000
    1.2780   -2.4503    2.7816 C   0  0  0  0  0  0  0  0  0  0  0  0
    0.4801   -1.1532    2.6336 C   0  0  1  0  0  0  0  0  0  0  0  0
    0.7773   -0.4528    3.4141 H   0  0  0  0  0  0  0  0  0  0  0  0
    0.7594   -0.5364    1.2616 C   0  0  0  0  0  0  0  0  0  0  0  0
    2.1587   -0.1081    1.1943 N   0  0  0  0  0  0  0  0  0  0  0  0
    3.1630   -0.9875    0.7757 C   0  0  0  0  0  0  0  0  0  0  0  0
    3.0283   -1.5824   -0.4745 C   0  0  0  0  0  0  0  0  0  0  0  0
    4.0046   -2.4290   -0.9560 C   0  0  0  0  0  0  0  0  0  0  0  0
    5.1231   -2.6775   -0.1813 C   0  0  0  0  0  0  0  0  0  0  0  0
    5.2491   -2.1007    1.0615 C   0  0  0  0  0  0  0  0  0  0  0  0
    4.2633   -1.2559    1.5764 C   0  0  0  0  0  0  0  0  0  0  0  0
    4.5145   -0.7773    2.9880 C   0  0  0  0  0  0  0  0  0  0  0  0
    3.3862    0.0743    3.5431 C   0  0  0  0  0  0  0  0  0  0  0  0
    3.1991    1.3338    2.7354 C   0  0  0  0  0  0  0  0  0  0  0  0
    2.5318    1.1942    1.5410 C   0  0  0  0  0  0  0  0  0  0  0  0
    2.2648    2.2918    0.7404 C   0  0  0  0  0  0  0  0  0  0  0  0
    2.7075    3.5381    1.1534 C   0  0  0  0  0  0  0  0  0  0  0  0
    3.4020    3.6767    2.3413 C   0  0  0  0  0  0  0  0  0  0  0  0
    3.6548    2.5627    3.1522 C   0  0  0  0  0  0  0  0  0  0  0  0
   -1.0141   -1.4561    2.7621 C   0  0  0  0  0  0  0  0  0  0  0  0
   -1.2964   -1.9649    4.1109 N   0  3  0  0  0  0  0  0  0  0  0  0
   -1.0385   -0.9072    5.0972 C   0  0  0  0  0  0  0  0  0  0  0  0
   -2.7034   -2.3790    4.1935 C   0  0  0  0  0  0  0  0  0  0  0  0
    2.3373   -2.2449    2.6278 H   0  0  0  0  0  0  0  0  0  0  0  0
    1.1281   -2.8570    3.7817 H   0  0  0  0  0  0  0  0  0  0  0  0
    0.9368   -3.1733    2.0406 H   0  0  0  0  0  0  0  0  0  0  0  0
    0.5682   -1.2767    0.4847 H   0  0  0  0  0  0  0  0  0  0  0  0
    0.1082    0.3247    1.1110 H   0  0  0  0  0  0  0  0  0  0  0  0
    2.1521   -1.3800   -1.0726 H   0  0  0  0  0  0  0  0  0  0  0  0
    3.8971   -2.8923   -1.9256 H   0  0  0  0  0  0  0  0  0  0  0  0
    5.9011   -3.3276   -0.5534 H   0  0  0  0  0  0  0  0  0  0  0  0
    6.1299   -2.3056    1.6519 H   0  0  0  0  0  0  0  0  0  0  0  0
    4.6475   -1.6456    3.6333 H   0  0  0  0  0  0  0  0  0  0  0  0
    5.4336   -0.1914    3.0003 H   0  0  0  0  0  0  0  0  0  0  0  0
    2.4614   -0.5024    3.5237 H   0  0  0  0  0  0  0  0  0  0  0  0
    3.6162    0.3427    4.5742 H   0  0  0  0  0  0  0  0  0  0  0  0
    1.7230    2.1789   -0.1870 H   0  0  0  0  0  0  0  0  0  0  0  0
    2.5086    4.4071    0.5437 H   0  0  0  0  0  0  0  0  0  0  0  0
    3.7529    4.6513    2.6470 H   0  0  0  0  0  0  0  0  0  0  0  0
    4.1965    2.6630    4.0811 H   0  0  0  0  0  0  0  0  0  0  0  0
   -1.5857   -0.5439    2.5909 H   0  0  0  0  0  0  0  0  0  0  0  0
   -1.2975   -2.2064    2.0240 H   0  0  0  0  0  0  0  0  0  0  0  0
   -1.6817   -0.0521    4.8895 H   0  0  0  0  0  0  0  0  0  0  0  0
   -1.2480   -1.2848    6.0980 H   0  0  0  0  0  0  0  0  0  0  0  0
    0.0055   -0.6000    5.0359 H   0  0  0  0  0  0  0  0  0  0  0  0
   -2.8743   -3.2210    3.5227 H   0  0  0  0  0  0  0  0  0  0  0  0
   -2.9351   -2.6765    5.2162 H   0  0  0  0  0  0  0  0  0  0  0  0
   -3.3447   -1.5469    3.9030 H   0  0  0  0  0  0  0  0  0  0  0  0
   -0.7009   -2.7565    4.3032 H   0  0  0  0  0  0  0  0  0  0  0  0
  1  2  1  0  0  0  0
  1 24  1  0  0  0  0
  1 25  1  0  0  0  0
  1 26  1  0  0  0  0
  2  3  1  1  0  0  0
  2  4  1  0  0  0  0
  2 20  1  0  0  0  0
  4  5  1  0  0  0  0
  4 27  1  0  0  0  0
  4 28  1  0  0  0  0
  5 15  1  0  0  0  0
  5  6  1  0  0  0  0
  6 11  2  0  0  0  0
  6  7  1  0  0  0  0
  7  8  2  0  0  0  0
  7 29  1  0  0  0  0
  8  9  1  0  0  0  0
  8 30  1  0  0  0  0
  9 10  2  0  0  0  0
  9 31  1  0  0  0  0
 10 11  1  0  0  0  0
 10 32  1  0  0  0  0
 11 12  1  0  0  0  0
 12 13  1  0  0  0  0
 12 33  1  0  0  0  0
 12 34  1  0  0  0  0
 13 14  1  0  0  0  0
 13 35  1  0  0  0  0
 13 36  1  0  0  0  0
 14 19  2  0  0  0  0
 14 15  1  0  0  0  0
 15 16  2  0  0  0  0
 16 17  1  0  0  0  0
 16 37  1  0  0  0  0
 17 18  2  0  0  0  0
 17 38  1  0  0  0  0
 18 19  1  0  0  0  0
 18 39  1  0  0  0  0
 19 40  1  0  0  0  0
 20 21  1  0  0  0  0
 20 41  1  0  0  0  0
 20 42  1  0  0  0  0
 21 22  1  0  0  0  0
 21 23  1  0  0  0  0
 21 49  1  0  0  0  0
 22 43  1  0  0  0  0
 22 44  1  0  0  0  0
 22 45  1  0  0  0  0
 23 46  1  0  0  0  0
 23 47  1  0  0  0  0
 23 48  1  0  0  0  0
M  CHG  1  21   1
M  END
$$$$
