ZINC00057494
 OpenBabel08292219463D

 33 34  0  0  0  0  0  0  0  0999 V2000
   -0.0184    1.5028    0.0103 C   0  0  0  0  0  0  0  0  0  0  0  0
    0.0021   -0.0041    0.0020 C   0  0  0  0  0  0  0  0  0  0  0  0
    0.0060   -0.6989   -1.1973 C   0  0  0  0  0  0  0  0  0  0  0  0
    0.0255   -2.0843   -1.1603 C   0  0  0  0  0  0  0  0  0  0  0  0
    0.0397   -2.6984    0.0111 N   0  0  0  0  0  0  0  0  0  0  0  0
    0.0354   -2.0044    1.1397 C   0  0  0  0  0  0  0  0  0  0  0  0
    0.0220   -0.6795    1.1391 N   0  0  0  0  0  0  0  0  0  0  0  0
    0.0502   -2.6793    2.3480 N   0  0  0  0  0  0  0  0  0  0  0  0
    0.4168   -1.8688    3.7447 S   0  0  0  0  0  0  0  0  0  0  0  0
    0.3232   -2.8156    4.8002 O   0  0  0  0  0  0  0  0  0  0  0  0
    1.6032   -1.1307    3.4865 O   0  0  0  0  0  0  0  0  0  0  0  0
   -0.8629   -0.6877    4.0129 C   0  0  0  0  0  0  0  0  0  0  0  0
   -0.7506    0.5838    3.4810 C   0  0  0  0  0  0  0  0  0  0  0  0
   -1.7517    1.5121    3.6892 C   0  0  0  0  0  0  0  0  0  0  0  0
   -2.8724    1.1673    4.4340 C   0  0  0  0  0  0  0  0  0  0  0  0
   -2.9820   -0.1109    4.9669 C   0  0  0  0  0  0  0  0  0  0  0  0
   -1.9798   -1.0360    4.7500 C   0  0  0  0  0  0  0  0  0  0  0  0
   -3.8866    2.1037    4.6469 N   0  0  0  0  0  0  0  0  0  0  0  0
    0.0299   -2.8813   -2.4393 C   0  0  0  0  0  0  0  0  0  0  0  0
    1.0042    1.8801    0.0026 H   0  0  0  0  0  0  0  0  0  0  0  0
   -0.5455    1.8639   -0.8728 H   0  0  0  0  0  0  0  0  0  0  0  0
   -0.5286    1.8543    0.9071 H   0  0  0  0  0  0  0  0  0  0  0  0
   -0.0062   -0.1722   -2.1401 H   0  0  0  0  0  0  0  0  0  0  0  0
   -0.1542   -3.6271    2.3766 H   0  0  0  0  0  0  0  0  0  0  0  0
    0.1212    0.8514    2.9023 H   0  0  0  0  0  0  0  0  0  0  0  0
   -1.6632    2.5051    3.2738 H   0  0  0  0  0  0  0  0  0  0  0  0
   -3.8519   -0.3821    5.5467 H   0  0  0  0  0  0  0  0  0  0  0  0
   -2.0664   -2.0313    5.1603 H   0  0  0  0  0  0  0  0  0  0  0  0
   -3.8088    2.9960    4.2746 H   0  0  0  0  0  0  0  0  0  0  0  0
   -4.6687    1.8618    5.1671 H   0  0  0  0  0  0  0  0  0  0  0  0
    1.0585   -3.0592   -2.7530 H   0  0  0  0  0  0  0  0  0  0  0  0
   -0.4698   -3.8359   -2.2743 H   0  0  0  0  0  0  0  0  0  0  0  0
   -0.4957   -2.3254   -3.2157 H   0  0  0  0  0  0  0  0  0  0  0  0
  1  2  1  0  0  0  0
  1 20  1  0  0  0  0
  1 21  1  0  0  0  0
  1 22  1  0  0  0  0
  2  7  2  0  0  0  0
  2  3  1  0  0  0  0
  3  4  2  0  0  0  0
  3 23  1  0  0  0  0
  4  5  1  0  0  0  0
  4 19  1  0  0  0  0
  5  6  2  0  0  0  0
  6  7  1  0  0  0  0
  6  8  1  0  0  0  0
  8  9  1  0  0  0  0
  8 24  1  0  0  0  0
  9 10  2  0  0  0  0
  9 11  2  0  0  0  0
  9 12  1  0  0  0  0
 12 17  2  0  0  0  0
 12 13  1  0  0  0  0
 13 14  2  0  0  0  0
 13 25  1  0  0  0  0
 14 15  1  0  0  0  0
 14 26  1  0  0  0  0
 15 16  2  0  0  0  0
 15 18  1  0  0  0  0
 16 17  1  0  0  0  0
 16 27  1  0  0  0  0
 17 28  1  0  0  0  0
 18 29  1  0  0  0  0
 18 30  1  0  0  0  0
 19 31  1  0  0  0  0
 19 32  1  0  0  0  0
 19 33  1  0  0  0  0
M  END
$$$$
