ZINC03589203
 OpenBabel08292219463D

 18 17  0  0  1  0  0  0  0  0999 V2000
   -0.0184    1.5028    0.0103 C   0  0  0  0  0  0  0  0  0  0  0  0
    0.0021   -0.0041    0.0020 C   0  0  0  0  0  0  0  0  0  0  0  0
    0.0203   -0.6160    1.0489 O   0  0  0  0  0  0  0  0  0  0  0  0
    0.0001   -0.6716   -1.1688 N   0  0  0  0  0  0  0  0  0  0  0  0
    0.0199   -2.1365   -1.1769 C   0  0  1  0  0  0  0  0  0  0  0  0
   -0.5565   -2.5123   -0.3315 H   0  0  0  0  0  0  0  0  0  0  0  0
   -0.5952   -2.6477   -2.4812 C   0  0  0  0  0  0  0  0  0  0  0  0
   -2.3083   -2.0655   -2.6108 S   0  0  0  0  0  0  0  0  0  0  0  0
    1.4431   -2.6201   -1.0692 C   0  0  0  0  0  0  0  0  0  0  0  0
    2.3562   -1.8158   -0.9928 O   0  0  0  0  0  0  0  0  0  0  0  0
    1.6815   -3.8158   -1.0585 O   0  0  0  0  0  1  0  0  0  0  0  0
    1.0042    1.8801    0.0026 H   0  0  0  0  0  0  0  0  0  0  0  0
   -0.5455    1.8639   -0.8728 H   0  0  0  0  0  0  0  0  0  0  0  0
   -0.5286    1.8543    0.9071 H   0  0  0  0  0  0  0  0  0  0  0  0
   -0.0145   -0.1822   -2.0061 H   0  0  0  0  0  0  0  0  0  0  0  0
   -0.0188   -2.2718   -3.3265 H   0  0  0  0  0  0  0  0  0  0  0  0
   -0.5804   -3.7376   -2.4872 H   0  0  0  0  0  0  0  0  0  0  0  0
   -2.7363   -2.5716   -3.7811 H   0  0  0  0  0  0  0  0  0  0  0  0
  1  2  1  0  0  0  0
  1 12  1  0  0  0  0
  1 13  1  0  0  0  0
  1 14  1  0  0  0  0
  2  3  2  0  0  0  0
  2  4  1  0  0  0  0
  4  5  1  0  0  0  0
  4 15  1  0  0  0  0
  5  6  1  1  0  0  0
  5  7  1  0  0  0  0
  5  9  1  0  0  0  0
  7  8  1  0  0  0  0
  7 16  1  0  0  0  0
  7 17  1  0  0  0  0
  8 18  1  0  0  0  0
  9 10  2  0  0  0  0
  9 11  1  0  0  0  0
M  END
$$$$
