ZINC03875998
 OpenBabel08292219463D

 51 54  0  0  1  0  0  0  0  0999 V2000
   -1.2266    0.7491    0.4421 C   0  0  0  0  0  0  0  0  0  0  0  0
    0.0023   -0.0041    0.0019 C   0  0  0  0  0  0  0  0  0  0  0  0
    0.9889   -0.0094    0.6983 O   0  0  0  0  0  0  0  0  0  0  0  0
   -0.0000   -0.7495   -1.3054 C   0  0  1  0  0  0  0  0  0  0  0  0
   -0.5865   -0.2206   -2.0518 H   0  0  0  0  0  0  0  0  0  0  0  0
    1.4517   -0.9667   -1.8057 C   0  0  0  0  0  0  0  0  0  0  0  0
    1.6116   -2.4995   -2.0257 C   0  0  0  0  0  0  0  0  0  0  0  0
    0.1520   -2.9399   -2.2420 C   0  0  2  0  0  0  0  0  0  0  0  0
   -0.1775   -2.5710   -3.2176 H   0  0  0  0  0  0  0  0  0  0  0  0
   -0.5561   -2.1646   -1.1041 C   0  0  2  0  0  0  0  0  0  0  0  0
   -2.0487   -2.3281   -1.2681 C   0  0  0  0  0  0  0  0  0  0  0  0
   -2.4263   -3.8081   -1.2286 C   0  0  0  0  0  0  0  0  0  0  0  0
   -1.6066   -4.7143   -2.1343 C   0  0  2  0  0  0  0  0  0  0  0  0
   -1.7099   -5.7387   -1.6788 H   0  0  0  0  0  0  0  0  0  0  0  0
   -0.1163   -4.4143   -2.1009 C   0  0  1  0  0  0  0  0  0  0  0  0
    0.2702   -4.7471   -1.1147 H   0  0  0  0  0  0  0  0  0  0  0  0
    0.6572   -5.2054   -3.1146 C   0  0  0  0  0  0  0  0  0  0  0  0
    0.0965   -5.7898   -4.1623 C   0  0  0  0  0  0  0  0  0  0  0  0
   -1.3365   -5.6901   -4.4126 C   0  0  0  0  0  0  0  0  0  0  0  0
   -1.8724   -6.3601   -5.4623 C   0  0  0  0  0  0  0  0  0  0  0  0
   -3.2468   -6.3312   -5.7368 C   0  0  0  0  0  0  0  0  0  0  0  0
   -3.6630   -6.8360   -6.7631 O   0  0  0  0  0  0  0  0  0  0  0  0
   -4.2176   -5.6968   -4.7777 C   0  0  0  0  0  0  0  0  0  0  0  0
   -3.5750   -5.5415   -3.4005 C   0  0  0  0  0  0  0  0  0  0  0  0
   -2.2108   -4.8414   -3.5228 C   0  0  1  0  0  0  0  0  0  0  0  0
   -2.4140   -3.4805   -4.1875 C   0  0  0  0  0  0  0  0  0  0  0  0
   -0.1237   -2.6583    0.2768 C   0  0  0  0  0  0  0  0  0  0  0  0
   -1.1793    1.7718    0.0680 H   0  0  0  0  0  0  0  0  0  0  0  0
   -2.1152    0.2578    0.0457 H   0  0  0  0  0  0  0  0  0  0  0  0
   -1.2740    0.7623    1.5310 H   0  0  0  0  0  0  0  0  0  0  0  0
    1.6047   -0.4390   -2.7463 H   0  0  0  0  0  0  0  0  0  0  0  0
    2.1630   -0.6198   -1.0581 H   0  0  0  0  0  0  0  0  0  0  0  0
    2.1970   -2.6923   -2.9272 H   0  0  0  0  0  0  0  0  0  0  0  0
    2.0581   -2.9840   -1.1681 H   0  0  0  0  0  0  0  0  0  0  0  0
   -2.5517   -1.8118   -0.4328 H   0  0  0  0  0  0  0  0  0  0  0  0
   -2.3839   -1.8519   -2.1870 H   0  0  0  0  0  0  0  0  0  0  0  0
   -2.3375   -4.1757   -0.1972 H   0  0  0  0  0  0  0  0  0  0  0  0
   -3.4868   -3.9054   -1.4929 H   0  0  0  0  0  0  0  0  0  0  0  0
    1.7293   -5.3036   -2.9795 H   0  0  0  0  0  0  0  0  0  0  0  0
    0.7141   -6.3582   -4.8467 H   0  0  0  0  0  0  0  0  0  0  0  0
   -1.2189   -6.9307   -6.1061 H   0  0  0  0  0  0  0  0  0  0  0  0
   -4.5506   -4.7354   -5.1611 H   0  0  0  0  0  0  0  0  0  0  0  0
   -5.0961   -6.3491   -4.6869 H   0  0  0  0  0  0  0  0  0  0  0  0
   -4.2278   -4.9518   -2.7578 H   0  0  0  0  0  0  0  0  0  0  0  0
   -3.4250   -6.5268   -2.9537 H   0  0  0  0  0  0  0  0  0  0  0  0
   -1.4532   -2.9743   -4.2802 H   0  0  0  0  0  0  0  0  0  0  0  0
   -2.8479   -3.6208   -5.1775 H   0  0  0  0  0  0  0  0  0  0  0  0
   -3.0861   -2.8756   -3.5787 H   0  0  0  0  0  0  0  0  0  0  0  0
   -0.6108   -2.0589    1.0459 H   0  0  0  0  0  0  0  0  0  0  0  0
   -0.4100   -3.7034    0.3951 H   0  0  0  0  0  0  0  0  0  0  0  0
    0.9579   -2.5647    0.3739 H   0  0  0  0  0  0  0  0  0  0  0  0
  1  2  1  0  0  0  0
  1 28  1  0  0  0  0
  1 29  1  0  0  0  0
  1 30  1  0  0  0  0
  2  3  2  0  0  0  0
  2  4  1  0  0  0  0
  4  5  1  6  0  0  0
  4 10  1  0  0  0  0
  4  6  1  0  0  0  0
  6  7  1  0  0  0  0
  6 31  1  0  0  0  0
  6 32  1  0  0  0  0
  7  8  1  0  0  0  0
  7 33  1  0  0  0  0
  7 34  1  0  0  0  0
  8  9  1  6  0  0  0
  8 15  1  0  0  0  0
  8 10  1  0  0  0  0
 10 11  1  0  0  0  0
 10 27  1  1  0  0  0
 11 12  1  0  0  0  0
 11 35  1  0  0  0  0
 11 36  1  0  0  0  0
 12 13  1  0  0  0  0
 12 37  1  0  0  0  0
 12 38  1  0  0  0  0
 13 14  1  1  0  0  0
 13 25  1  0  0  0  0
 13 15  1  0  0  0  0
 15 16  1  1  0  0  0
 15 17  1  0  0  0  0
 17 18  2  0  0  0  0
 17 39  1  0  0  0  0
 18 19  1  0  0  0  0
 18 40  1  0  0  0  0
 19 25  1  0  0  0  0
 19 20  2  0  0  0  0
 20 21  1  0  0  0  0
 20 41  1  0  0  0  0
 21 22  2  0  0  0  0
 21 23  1  0  0  0  0
 23 24  1  0  0  0  0
 23 42  1  0  0  0  0
 23 43  1  0  0  0  0
 24 25  1  0  0  0  0
 24 44  1  0  0  0  0
 24 45  1  0  0  0  0
 25 26  1  6  0  0  0
 26 46  1  0  0  0  0
 26 47  1  0  0  0  0
 26 48  1  0  0  0  0
 27 49  1  0  0  0  0
 27 50  1  0  0  0  0
 27 51  1  0  0  0  0
M  END
$$$$
