ZINC03812897
 OpenBabel08292219463D

 46 49  0  0  1  0  0  0  0  0999 V2000
   -0.0187    1.5258    0.0104 C   0  0  0  0  0  0  0  0  0  0  0  0
    0.0021   -0.0041    0.0020 C   0  0  2  0  0  0  0  0  0  0  0  0
   -1.4064   -0.5323    0.1772 C   0  0  0  0  0  0  0  0  0  0  0  0
   -1.9756    0.0797    1.4714 C   0  0  0  0  0  0  0  0  0  0  0  0
   -1.0851   -0.2532    2.6598 C   0  0  2  0  0  0  0  0  0  0  0  0
   -1.0806   -1.3360    2.7843 H   0  0  0  0  0  0  0  0  0  0  0  0
   -1.6005    0.3571    3.9311 C   0  0  0  0  0  0  0  0  0  0  0  0
   -2.9742    0.4710    4.0964 C   0  0  0  0  0  0  0  0  0  0  0  0
   -3.5002    1.0150    5.2487 C   0  0  0  0  0  0  0  0  0  0  0  0
   -2.6480    1.4512    6.2530 C   0  0  0  0  0  0  0  0  0  0  0  0
   -1.2787    1.3413    6.0863 C   0  0  0  0  0  0  0  0  0  0  0  0
   -0.7495    0.7994    4.9225 C   0  0  0  0  0  0  0  0  0  0  0  0
    0.7502    0.7384    4.8002 C   0  0  0  0  0  0  0  0  0  0  0  0
    1.1786   -0.1827    3.6588 C   0  0  0  0  0  0  0  0  0  0  0  0
    0.3612    0.2021    2.4252 C   0  0  1  0  0  0  0  0  0  0  0  0
    0.3879    1.2814    2.2748 H   0  0  0  0  0  0  0  0  0  0  0  0
    0.8604   -0.5199    1.1907 C   0  0  2  0  0  0  0  0  0  0  0  0
    0.7388   -1.5961    1.3133 H   0  0  0  0  0  0  0  0  0  0  0  0
    2.2767   -0.1707    0.7204 C   0  0  0  0  0  0  0  0  0  0  0  0
    2.2489   -0.5546   -0.7844 C   0  0  0  0  0  0  0  0  0  0  0  0
    0.7638   -0.4984   -1.2221 C   0  0  1  0  0  0  0  0  0  0  0  0
    0.2945   -1.8392   -1.6079 C   0  0  0  0  0  0  0  0  0  0  0  0
   -0.0798   -2.9086   -1.9155 C   0  0  0  0  0  0  0  0  0  0  0  0
    0.6019    0.4156   -2.3086 O   0  0  0  0  0  0  0  0  0  0  0  0
   -3.1559    1.9844    7.3952 O   0  0  0  0  0  0  0  0  0  0  0  0
    1.0033    1.9032   -0.0250 H   0  0  0  0  0  0  0  0  0  0  0  0
   -0.5695    1.8864   -0.8582 H   0  0  0  0  0  0  0  0  0  0  0  0
   -0.5045    1.8775    0.9205 H   0  0  0  0  0  0  0  0  0  0  0  0
   -2.0207   -0.2365   -0.6732 H   0  0  0  0  0  0  0  0  0  0  0  0
   -1.3862   -1.6190    0.2597 H   0  0  0  0  0  0  0  0  0  0  0  0
   -2.0364    1.1623    1.3603 H   0  0  0  0  0  0  0  0  0  0  0  0
   -2.9745   -0.3191    1.6483 H   0  0  0  0  0  0  0  0  0  0  0  0
   -3.6371    0.1306    3.3147 H   0  0  0  0  0  0  0  0  0  0  0  0
   -4.5700    1.1016    5.3689 H   0  0  0  0  0  0  0  0  0  0  0  0
   -0.6155    1.6804    6.8684 H   0  0  0  0  0  0  0  0  0  0  0  0
    1.1338    1.7413    4.6125 H   0  0  0  0  0  0  0  0  0  0  0  0
    1.1695    0.3666    5.7351 H   0  0  0  0  0  0  0  0  0  0  0  0
    2.2408   -0.0469    3.4558 H   0  0  0  0  0  0  0  0  0  0  0  0
    0.9854   -1.2202    3.9313 H   0  0  0  0  0  0  0  0  0  0  0  0
    2.4720    0.8946    0.8429 H   0  0  0  0  0  0  0  0  0  0  0  0
    3.0180   -0.7638    1.2560 H   0  0  0  0  0  0  0  0  0  0  0  0
    2.8367    0.1577   -1.3632 H   0  0  0  0  0  0  0  0  0  0  0  0
    2.6412   -1.5624   -0.9207 H   0  0  0  0  0  0  0  0  0  0  0  0
   -0.4145   -3.8650   -2.1907 H   0  0  0  0  0  0  0  0  0  0  0  0
    1.0650    0.1529   -3.1159 H   0  0  0  0  0  0  0  0  0  0  0  0
   -3.3231    1.3350    8.0920 H   0  0  0  0  0  0  0  0  0  0  0  0
  1 26  1  0  0  0  0
  1 27  1  0  0  0  0
  1 28  1  0  0  0  0
  2  1  1  1  0  0  0
  2 17  1  0  0  0  0
  2 21  1  0  0  0  0
  2  3  1  0  0  0  0
  3  4  1  0  0  0  0
  3 29  1  0  0  0  0
  3 30  1  0  0  0  0
  4  5  1  0  0  0  0
  4 31  1  0  0  0  0
  4 32  1  0  0  0  0
  5  6  1  1  0  0  0
  5 15  1  0  0  0  0
  5  7  1  0  0  0  0
  7 12  2  0  0  0  0
  7  8  1  0  0  0  0
  8  9  2  0  0  0  0
  8 33  1  0  0  0  0
  9 10  1  0  0  0  0
  9 34  1  0  0  0  0
 10 11  2  0  0  0  0
 10 25  1  0  0  0  0
 11 12  1  0  0  0  0
 11 35  1  0  0  0  0
 12 13  1  0  0  0  0
 13 14  1  0  0  0  0
 13 36  1  0  0  0  0
 13 37  1  0  0  0  0
 14 15  1  0  0  0  0
 14 38  1  0  0  0  0
 14 39  1  0  0  0  0
 15 16  1  6  0  0  0
 15 17  1  0  0  0  0
 17 18  1  1  0  0  0
 17 19  1  0  0  0  0
 19 20  1  0  0  0  0
 19 40  1  0  0  0  0
 19 41  1  0  0  0  0
 20 21  1  0  0  0  0
 20 42  1  0  0  0  0
 20 43  1  0  0  0  0
 21 22  1  6  0  0  0
 21 24  1  0  0  0  0
 22 23  3  0  0  0  0
 23 44  1  0  0  0  0
 24 45  1  0  0  0  0
 25 46  1  0  0  0  0
M  END
$$$$
