ZINC00005823
 OpenBabel08292219463D

 44 45  0  0  0  0  0  0  0  0999 V2000
   -1.9566   -2.3480   -2.0731 C   0  0  0  0  0  0  0  0  0  0  0  0
   -0.9795   -1.8937   -1.0196 C   0  0  0  0  0  0  0  0  0  0  0  0
   -0.1468   -0.8176   -1.2678 C   0  0  0  0  0  0  0  0  0  0  0  0
    0.7512   -0.3975   -0.3040 C   0  0  0  0  0  0  0  0  0  0  0  0
    0.8195   -1.0517    0.9105 C   0  0  0  0  0  0  0  0  0  0  0  0
   -0.0156   -2.1325    1.1633 C   0  0  0  0  0  0  0  0  0  0  0  0
   -0.9204   -2.5487    0.1945 C   0  0  0  0  0  0  0  0  0  0  0  0
    0.0512   -2.7969    2.3908 N   0  0  0  0  0  0  0  0  0  0  0  0
   -0.0208   -4.1867    2.4349 C   0  0  0  0  0  0  0  0  0  0  0  0
   -0.0065   -4.9418    1.2619 C   0  0  0  0  0  0  0  0  0  0  0  0
   -0.0796   -6.3158    1.3488 C   0  0  0  0  0  3  0  0  0  0  0  0
   -0.1627   -6.9164    2.5215 N   0  0  0  0  0  0  0  0  0  0  0  0
   -0.1790   -6.2377    3.6533 C   0  0  0  0  0  0  0  0  0  0  0  0
   -0.1033   -4.8606    3.6532 C   0  0  0  0  0  0  0  0  0  0  0  0
   -0.1178   -3.9649    5.1705 S   0  0  0  0  0  0  0  0  0  0  0  0
   -1.0874   -2.9362    5.0255 O   0  0  0  0  0  0  0  0  0  0  0  0
   -0.1810   -4.9302    6.2114 O   0  0  0  0  0  0  0  0  0  0  0  0
    1.3516   -3.2140    5.3098 N   0  0  0  0  0  0  0  0  0  0  0  0
    1.6096   -2.4776    6.3508 C   0  0  0  0  0  0  0  0  0  0  0  0
    0.6789   -2.3255    7.3181 O   0  5  0  0  0  0  0  0  0  0  0  0
    2.8282   -1.8549    6.4664 N   0  0  0  0  0  0  0  0  0  0  0  0
    3.1188   -1.0256    7.6387 C   0  0  0  0  0  0  0  0  0  0  0  0
    4.6316   -0.9677    7.8601 C   0  0  0  0  0  0  0  0  0  0  0  0
    2.5826    0.3887    7.4085 C   0  0  0  0  0  0  0  0  0  0  0  0
   -2.8999   -1.8167   -1.9470 H   0  0  0  0  0  0  0  0  0  0  0  0
   -1.5495   -2.1360   -3.0618 H   0  0  0  0  0  0  0  0  0  0  0  0
   -2.1270   -3.4199   -1.9726 H   0  0  0  0  0  0  0  0  0  0  0  0
   -0.1979   -0.3045   -2.2168 H   0  0  0  0  0  0  0  0  0  0  0  0
    1.4002    0.4429   -0.5012 H   0  0  0  0  0  0  0  0  0  0  0  0
    1.5216   -0.7235    1.6626 H   0  0  0  0  0  0  0  0  0  0  0  0
   -1.5740   -3.3861    0.3894 H   0  0  0  0  0  0  0  0  0  0  0  0
    0.1476   -2.2900    3.2121 H   0  0  0  0  0  0  0  0  0  0  0  0
    0.0606   -4.4568    0.2993 H   0  0  0  0  0  0  0  0  0  0  0  0
   -0.0691   -6.9084    0.4460 H   0  0  0  0  0  0  0  0  0  0  0  0
   -0.2484   -6.7677    4.5918 H   0  0  0  0  0  0  0  0  0  0  0  0
    3.4965   -1.9641    5.7719 H   0  0  0  0  0  0  0  0  0  0  0  0
    2.6393   -1.4575    8.5171 H   0  0  0  0  0  0  0  0  0  0  0  0
    5.1111   -0.5359    6.9817 H   0  0  0  0  0  0  0  0  0  0  0  0
    4.8478   -0.3508    8.7323 H   0  0  0  0  0  0  0  0  0  0  0  0
    5.0136   -1.9754    8.0241 H   0  0  0  0  0  0  0  0  0  0  0  0
    2.7988    1.0057    8.2806 H   0  0  0  0  0  0  0  0  0  0  0  0
    3.0621    0.8206    6.5300 H   0  0  0  0  0  0  0  0  0  0  0  0
    1.5049    0.3475    7.2507 H   0  0  0  0  0  0  0  0  0  0  0  0
   -0.2135   -7.8846    2.5522 H   0  0  0  0  0  0  0  0  0  0  0  0
  1  2  1  0  0  0  0
  1 25  1  0  0  0  0
  1 26  1  0  0  0  0
  1 27  1  0  0  0  0
  2  7  2  0  0  0  0
  2  3  1  0  0  0  0
  3  4  2  0  0  0  0
  3 28  1  0  0  0  0
  4  5  1  0  0  0  0
  4 29  1  0  0  0  0
  5  6  2  0  0  0  0
  5 30  1  0  0  0  0
  6  7  1  0  0  0  0
  6  8  1  0  0  0  0
  7 31  1  0  0  0  0
  8  9  1  0  0  0  0
  8 32  1  0  0  0  0
  9 14  1  0  0  0  0
  9 10  2  0  0  0  0
 10 11  1  0  0  0  0
 10 33  1  0  0  0  0
 11 12  1  0  0  0  0
 11 34  1  0  0  0  0
 12 13  1  0  0  0  0
 12 44  1  0  0  0  0
 13 14  2  0  0  0  0
 13 35  1  0  0  0  0
 14 15  1  0  0  0  0
 15 16  2  0  0  0  0
 15 17  2  0  0  0  0
 15 18  1  0  0  0  0
 18 19  2  0  0  0  0
 19 20  1  0  0  0  0
 19 21  1  0  0  0  0
 21 22  1  0  0  0  0
 21 36  1  0  0  0  0
 22 23  1  0  0  0  0
 22 24  1  0  0  0  0
 22 37  1  0  0  0  0
 23 38  1  0  0  0  0
 23 39  1  0  0  0  0
 23 40  1  0  0  0  0
 24 41  1  0  0  0  0
 24 42  1  0  0  0  0
 24 43  1  0  0  0  0
M  CHG  1  20  -1
M  END
$$$$
