ZINC03830635
 OpenBabel08292219463D

 88 87  0  0  0  0  0  0  0  0999 V2000
   -0.0184    1.5028    0.0103 C   0  0  0  0  0  0  0  0  0  0  0  0
    0.0021   -0.0041    0.0020 C   0  0  0  0  0  0  0  0  0  0  0  0
    0.0203   -0.6160    1.0489 O   0  0  0  0  0  0  0  0  0  0  0  0
    0.0001   -0.6716   -1.1688 N   0  0  0  0  0  0  0  0  0  0  0  0
    0.0199   -2.1365   -1.1769 C   0  0  0  0  0  0  0  0  0  0  0  0
   -1.3627   -2.6674   -0.7932 C   0  0  0  0  0  0  0  0  0  0  0  0
   -1.3420   -4.1972   -0.8016 C   0  0  0  0  0  0  0  0  0  0  0  0
   -2.7247   -4.7281   -0.4178 C   0  0  0  0  0  0  0  0  0  0  0  0
   -2.7039   -6.2580   -0.4263 C   0  0  0  0  0  0  0  0  0  0  0  0
   -4.0278   -6.7663   -0.0588 N   0  0  0  0  0  0  0  0  0  0  0  0
   -4.2471   -8.0948   -0.0001 C   0  0  0  0  0  0  0  0  0  0  0  0
   -3.3484   -8.8695   -0.2515 O   0  0  0  0  0  0  0  0  0  0  0  0
   -5.6090   -8.6178    0.3778 C   0  0  0  0  0  0  0  0  0  0  0  0
   -5.5883  -10.1476    0.3694 C   0  0  0  0  0  0  0  0  0  0  0  0
   -6.9502  -10.6705    0.7473 C   0  0  0  0  0  0  0  0  0  0  0  0
   -7.8489   -9.8959    0.9987 O   0  0  0  0  0  0  0  0  0  0  0  0
   -7.1694  -11.9990    0.8061 N   0  0  0  0  0  0  0  0  0  0  0  0
   -8.4934  -12.5074    1.1735 C   0  0  0  0  0  0  0  0  0  0  0  0
   -9.4523  -12.3319   -0.0057 C   0  0  0  0  0  0  0  0  0  0  0  0
  -10.8350  -12.8628    0.3780 C   0  0  0  0  0  0  0  0  0  0  0  0
  -11.7940  -12.6873   -0.8012 C   0  0  0  0  0  0  0  0  0  0  0  0
  -13.1767  -13.2183   -0.4175 C   0  0  0  0  0  0  0  0  0  0  0  0
  -14.0949  -13.0502   -1.5465 N   0  0  0  0  0  0  0  0  0  0  0  0
  -15.3774  -13.4499   -1.4374 C   0  0  0  0  0  0  0  0  0  0  0  0
  -15.7713  -13.9486   -0.4044 O   0  0  0  0  0  0  0  0  0  0  0  0
  -16.3220  -13.2770   -2.5988 C   0  0  0  0  0  0  0  0  0  0  0  0
  -17.7046  -13.8079   -2.2151 C   0  0  0  0  0  0  0  0  0  0  0  0
  -18.6492  -13.6351   -3.3766 C   0  0  0  0  0  0  0  0  0  0  0  0
  -18.2553  -13.1363   -4.4095 O   0  0  0  0  0  0  0  0  0  0  0  0
  -19.9317  -14.0347   -3.2674 N   0  0  0  0  0  0  0  0  0  0  0  0
  -20.8499  -13.8667   -4.3965 C   0  0  0  0  0  0  0  0  0  0  0  0
  -20.5417  -14.9172   -5.4652 C   0  0  0  0  0  0  0  0  0  0  0  0
  -21.5007  -14.7418   -6.6444 C   0  0  0  0  0  0  0  0  0  0  0  0
  -21.1925  -15.7923   -7.7131 C   0  0  0  0  0  0  0  0  0  0  0  0
  -22.1515  -15.6169   -8.8923 C   0  0  0  0  0  0  0  0  0  0  0  0
  -21.8556  -16.6256   -9.9184 N   0  3  0  0  0  0  0  0  0  0  0  0
  -20.3916  -14.6170   -2.0614 O   0  0  0  0  0  0  0  0  0  0  0  0
   -6.1201  -12.9035    0.5126 O   0  0  0  0  0  0  0  0  0  0  0  0
   -0.0212    0.0429   -2.3911 O   0  0  0  0  0  0  0  0  0  0  0  0
    1.0042    1.8801    0.0026 H   0  0  0  0  0  0  0  0  0  0  0  0
   -0.5455    1.8639   -0.8728 H   0  0  0  0  0  0  0  0  0  0  0  0
   -0.5286    1.8543    0.9071 H   0  0  0  0  0  0  0  0  0  0  0  0
    0.2813   -2.4908   -2.1740 H   0  0  0  0  0  0  0  0  0  0  0  0
    0.7584   -2.4938   -0.4591 H   0  0  0  0  0  0  0  0  0  0  0  0
   -1.6241   -2.3130    0.2040 H   0  0  0  0  0  0  0  0  0  0  0  0
   -2.1012   -2.3101   -1.5109 H   0  0  0  0  0  0  0  0  0  0  0  0
   -1.0806   -4.5515   -1.7987 H   0  0  0  0  0  0  0  0  0  0  0  0
   -0.6036   -4.5545   -0.0838 H   0  0  0  0  0  0  0  0  0  0  0  0
   -2.9861   -4.3738    0.5793 H   0  0  0  0  0  0  0  0  0  0  0  0
   -3.4631   -4.3708   -1.1356 H   0  0  0  0  0  0  0  0  0  0  0  0
   -2.4425   -6.6123   -1.4234 H   0  0  0  0  0  0  0  0  0  0  0  0
   -1.9655   -6.6153    0.2915 H   0  0  0  0  0  0  0  0  0  0  0  0
   -4.7466   -6.1468    0.1422 H   0  0  0  0  0  0  0  0  0  0  0  0
   -5.8704   -8.2634    1.3749 H   0  0  0  0  0  0  0  0  0  0  0  0
   -6.3474   -8.2605   -0.3399 H   0  0  0  0  0  0  0  0  0  0  0  0
   -5.3269  -10.5019   -0.6277 H   0  0  0  0  0  0  0  0  0  0  0  0
   -4.8498  -10.5049    1.0871 H   0  0  0  0  0  0  0  0  0  0  0  0
   -8.4190  -13.5649    1.4270 H   0  0  0  0  0  0  0  0  0  0  0  0
   -8.8696  -11.9532    2.0333 H   0  0  0  0  0  0  0  0  0  0  0  0
   -9.5267  -11.2744   -0.2593 H   0  0  0  0  0  0  0  0  0  0  0  0
   -9.0761  -12.8861   -0.8656 H   0  0  0  0  0  0  0  0  0  0  0  0
  -10.7606  -13.9203    0.6316 H   0  0  0  0  0  0  0  0  0  0  0  0
  -11.2112  -12.3086    1.2379 H   0  0  0  0  0  0  0  0  0  0  0  0
  -11.8684  -11.6299   -1.0547 H   0  0  0  0  0  0  0  0  0  0  0  0
  -11.4178  -13.2416   -1.6611 H   0  0  0  0  0  0  0  0  0  0  0  0
  -13.1023  -14.2757   -0.1639 H   0  0  0  0  0  0  0  0  0  0  0  0
  -13.5529  -12.6640    0.4424 H   0  0  0  0  0  0  0  0  0  0  0  0
  -13.7798  -12.6513   -2.3727 H   0  0  0  0  0  0  0  0  0  0  0  0
  -16.3963  -12.2195   -2.8524 H   0  0  0  0  0  0  0  0  0  0  0  0
  -15.9457  -13.8312   -3.4587 H   0  0  0  0  0  0  0  0  0  0  0  0
  -17.6303  -14.8654   -1.9616 H   0  0  0  0  0  0  0  0  0  0  0  0
  -18.0809  -13.2537   -1.3552 H   0  0  0  0  0  0  0  0  0  0  0  0
  -21.8765  -13.9897   -4.0514 H   0  0  0  0  0  0  0  0  0  0  0  0
  -20.7261  -12.8701   -4.8203 H   0  0  0  0  0  0  0  0  0  0  0  0
  -19.5152  -14.7942   -5.8103 H   0  0  0  0  0  0  0  0  0  0  0  0
  -20.6656  -15.9138   -5.0414 H   0  0  0  0  0  0  0  0  0  0  0  0
  -22.5273  -14.8648   -6.2993 H   0  0  0  0  0  0  0  0  0  0  0  0
  -21.3769  -13.7452   -7.0682 H   0  0  0  0  0  0  0  0  0  0  0  0
  -20.1659  -15.6693   -8.0582 H   0  0  0  0  0  0  0  0  0  0  0  0
  -21.3163  -16.7889   -7.2893 H   0  0  0  0  0  0  0  0  0  0  0  0
  -23.1781  -15.7399   -8.5472 H   0  0  0  0  0  0  0  0  0  0  0  0
  -22.0277  -14.6203   -9.3161 H   0  0  0  0  0  0  0  0  0  0  0  0
  -20.9053  -16.5116  -10.2379 H   0  0  0  0  0  0  0  0  0  0  0  0
  -21.9702  -17.5481   -9.5261 H   0  0  0  0  0  0  0  0  0  0  0  0
  -21.3244  -14.8714   -2.0782 H   0  0  0  0  0  0  0  0  0  0  0  0
   -6.3726  -13.8344    0.5812 H   0  0  0  0  0  0  0  0  0  0  0  0
   -0.0210   -0.5212   -3.1765 H   0  0  0  0  0  0  0  0  0  0  0  0
  -22.4880  -16.5098  -10.6961 H   0  0  0  0  0  0  0  0  0  0  0  0
  1  2  1  0  0  0  0
  1 40  1  0  0  0  0
  1 41  1  0  0  0  0
  1 42  1  0  0  0  0
  2  3  2  0  0  0  0
  2  4  1  0  0  0  0
  4  5  1  0  0  0  0
  4 39  1  0  0  0  0
  5  6  1  0  0  0  0
  5 43  1  0  0  0  0
  5 44  1  0  0  0  0
  6  7  1  0  0  0  0
  6 45  1  0  0  0  0
  6 46  1  0  0  0  0
  7  8  1  0  0  0  0
  7 47  1  0  0  0  0
  7 48  1  0  0  0  0
  8  9  1  0  0  0  0
  8 49  1  0  0  0  0
  8 50  1  0  0  0  0
  9 10  1  0  0  0  0
  9 51  1  0  0  0  0
  9 52  1  0  0  0  0
 10 11  1  0  0  0  0
 10 53  1  0  0  0  0
 11 12  2  0  0  0  0
 11 13  1  0  0  0  0
 13 14  1  0  0  0  0
 13 54  1  0  0  0  0
 13 55  1  0  0  0  0
 14 15  1  0  0  0  0
 14 56  1  0  0  0  0
 14 57  1  0  0  0  0
 15 16  2  0  0  0  0
 15 17  1  0  0  0  0
 17 18  1  0  0  0  0
 17 38  1  0  0  0  0
 18 19  1  0  0  0  0
 18 58  1  0  0  0  0
 18 59  1  0  0  0  0
 19 20  1  0  0  0  0
 19 60  1  0  0  0  0
 19 61  1  0  0  0  0
 20 21  1  0  0  0  0
 20 62  1  0  0  0  0
 20 63  1  0  0  0  0
 21 22  1  0  0  0  0
 21 64  1  0  0  0  0
 21 65  1  0  0  0  0
 22 23  1  0  0  0  0
 22 66  1  0  0  0  0
 22 67  1  0  0  0  0
 23 24  1  0  0  0  0
 23 68  1  0  0  0  0
 24 25  2  0  0  0  0
 24 26  1  0  0  0  0
 26 27  1  0  0  0  0
 26 69  1  0  0  0  0
 26 70  1  0  0  0  0
 27 28  1  0  0  0  0
 27 71  1  0  0  0  0
 27 72  1  0  0  0  0
 28 29  2  0  0  0  0
 28 30  1  0  0  0  0
 30 31  1  0  0  0  0
 30 37  1  0  0  0  0
 31 32  1  0  0  0  0
 31 73  1  0  0  0  0
 31 74  1  0  0  0  0
 32 33  1  0  0  0  0
 32 75  1  0  0  0  0
 32 76  1  0  0  0  0
 33 34  1  0  0  0  0
 33 77  1  0  0  0  0
 33 78  1  0  0  0  0
 34 35  1  0  0  0  0
 34 79  1  0  0  0  0
 34 80  1  0  0  0  0
 35 36  1  0  0  0  0
 35 81  1  0  0  0  0
 35 82  1  0  0  0  0
 36 83  1  0  0  0  0
 36 84  1  0  0  0  0
 36 88  1  0  0  0  0
 37 85  1  0  0  0  0
 38 86  1  0  0  0  0
 39 87  1  0  0  0  0
M  CHG  1  36   1
M  END
$$$$
