ZINC00000494
 OpenBabel08292219463D

 50 50  0  0  1  0  0  0  0  0999 V2000
   -0.0184    1.5028    0.0103 C   0  0  0  0  0  0  0  0  0  0  0  0
    0.0021   -0.0041    0.0020 C   0  0  0  0  0  0  0  0  0  0  0  0
    0.0058   -0.6881   -1.1980 C   0  0  0  0  0  0  0  0  0  0  0  0
    0.0251   -2.0749   -1.2056 C   0  0  0  0  0  0  0  0  0  0  0  0
    0.0406   -2.7751   -0.0080 C   0  0  0  0  0  0  0  0  0  0  0  0
    0.0369   -2.0912    1.1917 C   0  0  0  0  0  0  0  0  0  0  0  0
    0.0229   -0.7039    1.1992 C   0  0  0  0  0  0  0  0  0  0  0  0
    0.0244   -0.0304    2.3806 O   0  0  0  0  0  0  0  0  0  0  0  0
   -1.1600    0.2652    2.9390 C   0  0  0  0  0  0  0  0  0  0  0  0
   -2.1852   -0.0663    2.3923 O   0  0  0  0  0  0  0  0  0  0  0  0
   -1.2109    1.0104    4.2479 C   0  0  0  0  0  0  0  0  0  0  0  0
    0.0532   -2.8517    2.4926 C   0  0  0  0  0  0  0  0  0  0  0  0
    0.0610   -4.2819   -0.0163 C   0  0  0  0  0  0  0  0  0  0  0  0
    0.0283   -2.7483   -2.3868 O   0  0  0  0  0  0  0  0  0  0  0  0
    0.0111   -1.9636   -3.5809 C   0  0  0  0  0  0  0  0  0  0  0  0
    0.0176   -2.8889   -4.7994 C   0  0  1  0  0  0  0  0  0  0  0  0
   -0.8142   -3.5897   -4.7279 H   0  0  0  0  0  0  0  0  0  0  0  0
   -0.1264   -2.0549   -6.0740 C   0  0  0  0  0  0  0  0  0  0  0  0
   -0.2404   -2.9490   -7.2340 N   0  3  0  0  0  0  0  0  0  0  0  0
   -0.3787   -2.1482   -8.4577 C   0  0  0  0  0  0  0  0  0  0  0  0
   -0.3722   -3.0735   -9.6762 C   0  0  0  0  0  0  0  0  0  0  0  0
   -1.6967   -1.3725   -8.4134 C   0  0  0  0  0  0  0  0  0  0  0  0
    1.2487   -3.6134   -4.8408 O   0  0  0  0  0  0  0  0  0  0  0  0
    1.0042    1.8801    0.0026 H   0  0  0  0  0  0  0  0  0  0  0  0
   -0.5455    1.8639   -0.8728 H   0  0  0  0  0  0  0  0  0  0  0  0
   -0.5286    1.8543    0.9071 H   0  0  0  0  0  0  0  0  0  0  0  0
   -0.0067   -0.1431   -2.1303 H   0  0  0  0  0  0  0  0  0  0  0  0
   -0.1963    1.2222    4.5851 H   0  0  0  0  0  0  0  0  0  0  0  0
   -1.7516    1.9470    4.1119 H   0  0  0  0  0  0  0  0  0  0  0  0
   -1.7218    0.4010    4.9934 H   0  0  0  0  0  0  0  0  0  0  0  0
    1.0847   -3.0211    2.8015 H   0  0  0  0  0  0  0  0  0  0  0  0
   -0.4649   -2.2738    3.2578 H   0  0  0  0  0  0  0  0  0  0  0  0
   -0.4483   -3.8102    2.3594 H   0  0  0  0  0  0  0  0  0  0  0  0
    1.0935   -4.6312   -0.0234 H   0  0  0  0  0  0  0  0  0  0  0  0
   -0.4433   -4.6570    0.8743 H   0  0  0  0  0  0  0  0  0  0  0  0
   -0.4524   -4.6473   -0.9056 H   0  0  0  0  0  0  0  0  0  0  0  0
   -0.8876   -1.3471   -3.5977 H   0  0  0  0  0  0  0  0  0  0  0  0
    0.8921   -1.3223   -3.6070 H   0  0  0  0  0  0  0  0  0  0  0  0
   -1.0203   -1.4352   -6.0036 H   0  0  0  0  0  0  0  0  0  0  0  0
    0.7496   -1.4169   -6.1917 H   0  0  0  0  0  0  0  0  0  0  0  0
    0.5871   -3.5226   -7.2991 H   0  0  0  0  0  0  0  0  0  0  0  0
    0.4531   -1.4474   -8.5292 H   0  0  0  0  0  0  0  0  0  0  0  0
   -1.2039   -3.7743   -9.6046 H   0  0  0  0  0  0  0  0  0  0  0  0
   -0.4747   -2.4793  -10.5842 H   0  0  0  0  0  0  0  0  0  0  0  0
    0.5669   -3.6261   -9.7077 H   0  0  0  0  0  0  0  0  0  0  0  0
   -1.7014   -0.7133   -7.5454 H   0  0  0  0  0  0  0  0  0  0  0  0
   -1.7993   -0.7783   -9.3215 H   0  0  0  0  0  0  0  0  0  0  0  0
   -2.5285   -2.0733   -8.3419 H   0  0  0  0  0  0  0  0  0  0  0  0
    2.0334   -3.0520   -4.9046 H   0  0  0  0  0  0  0  0  0  0  0  0
   -1.0513   -3.5395   -7.1250 H   0  0  0  0  0  0  0  0  0  0  0  0
  1  2  1  0  0  0  0
  1 24  1  0  0  0  0
  1 25  1  0  0  0  0
  1 26  1  0  0  0  0
  2  7  2  0  0  0  0
  2  3  1  0  0  0  0
  3  4  2  0  0  0  0
  3 27  1  0  0  0  0
  4  5  1  0  0  0  0
  4 14  1  0  0  0  0
  5  6  2  0  0  0  0
  5 13  1  0  0  0  0
  6  7  1  0  0  0  0
  6 12  1  0  0  0  0
  7  8  1  0  0  0  0
  8  9  1  0  0  0  0
  9 10  2  0  0  0  0
  9 11  1  0  0  0  0
 11 28  1  0  0  0  0
 11 29  1  0  0  0  0
 11 30  1  0  0  0  0
 12 31  1  0  0  0  0
 12 32  1  0  0  0  0
 12 33  1  0  0  0  0
 13 34  1  0  0  0  0
 13 35  1  0  0  0  0
 13 36  1  0  0  0  0
 14 15  1  0  0  0  0
 15 16  1  0  0  0  0
 15 37  1  0  0  0  0
 15 38  1  0  0  0  0
 16 17  1  1  0  0  0
 16 18  1  0  0  0  0
 16 23  1  0  0  0  0
 18 19  1  0  0  0  0
 18 39  1  0  0  0  0
 18 40  1  0  0  0  0
 19 20  1  0  0  0  0
 19 41  1  0  0  0  0
 19 50  1  0  0  0  0
 20 21  1  0  0  0  0
 20 22  1  0  0  0  0
 20 42  1  0  0  0  0
 21 43  1  0  0  0  0
 21 44  1  0  0  0  0
 21 45  1  0  0  0  0
 22 46  1  0  0  0  0
 22 47  1  0  0  0  0
 22 48  1  0  0  0  0
 23 49  1  0  0  0  0
M  CHG  1  19   1
M  END
$$$$
