ZINC03594299
 OpenBabel08292219463D

 27 28  0  0  0  0  0  0  0  0999 V2000
   -0.2847    1.0309   -0.1230 C   0  0  0  0  0  0  0  0  0  0  0  0
    0.8425    1.8286   -0.0532 C   0  0  0  0  0  0  0  0  0  0  0  0
    2.0925    1.2455   -0.0277 C   0  0  0  0  0  0  0  0  0  0  0  0
    2.2267   -0.1358   -0.0677 C   0  0  0  0  0  0  0  0  0  0  0  0
    1.1051   -0.9318   -0.1274 C   0  0  0  0  0  0  0  0  0  0  0  0
   -0.1526   -0.3413   -0.1608 C   0  0  0  0  0  0  0  0  0  0  0  0
    1.1708   -2.4363   -0.1429 C   0  0  0  0  0  0  0  0  0  0  0  0
    2.5529   -2.9160   -0.5833 C   0  0  0  0  0  0  0  0  0  0  0  0
    3.5596   -2.1556    0.1755 N   0  0  0  0  0  0  0  0  0  0  0  0
    3.6221   -0.7078   -0.0512 C   0  0  0  0  0  0  0  0  0  0  0  0
    4.4030   -2.7746    1.0568 C   0  0  0  0  0  0  0  0  0  0  0  0
    3.9690   -3.8030    1.7836 N   0  0  0  0  0  4  0  0  0  0  0  0
    5.6583   -2.3489    1.1882 N   0  0  0  0  0  0  0  0  0  0  0  0
   -1.2661    1.4811   -0.1433 H   0  0  0  0  0  0  0  0  0  0  0  0
    0.7448    2.9037   -0.0192 H   0  0  0  0  0  0  0  0  0  0  0  0
    2.9734    1.8682    0.0235 H   0  0  0  0  0  0  0  0  0  0  0  0
   -1.0342   -0.9626   -0.2165 H   0  0  0  0  0  0  0  0  0  0  0  0
    0.9621   -2.8145    0.8579 H   0  0  0  0  0  0  0  0  0  0  0  0
    0.4208   -2.8207   -0.8341 H   0  0  0  0  0  0  0  0  0  0  0  0
    2.6583   -3.9802   -0.3721 H   0  0  0  0  0  0  0  0  0  0  0  0
    2.6827   -2.7366   -1.6505 H   0  0  0  0  0  0  0  0  0  0  0  0
    4.1061   -0.5110   -1.0078 H   0  0  0  0  0  0  0  0  0  0  0  0
    4.1965   -0.2399    0.7483 H   0  0  0  0  0  0  0  0  0  0  0  0
    3.0348   -4.0615    1.7488 H   0  0  0  0  0  0  0  0  0  0  0  0
    5.9887   -1.6319    0.6247 H   0  0  0  0  0  0  0  0  0  0  0  0
    6.2419   -2.7559    1.8475 H   0  0  0  0  0  0  0  0  0  0  0  0
    4.5873   -4.2934    2.3476 H   0  0  0  0  0  0  0  0  0  0  0  0
  1  6  2  0  0  0  0
  1  2  1  0  0  0  0
  1 14  1  0  0  0  0
  2  3  2  0  0  0  0
  2 15  1  0  0  0  0
  3  4  1  0  0  0  0
  3 16  1  0  0  0  0
  4 10  1  0  0  0  0
  4  5  2  0  0  0  0
  5  6  1  0  0  0  0
  5  7  1  0  0  0  0
  6 17  1  0  0  0  0
  7  8  1  0  0  0  0
  7 18  1  0  0  0  0
  7 19  1  0  0  0  0
  8  9  1  0  0  0  0
  8 20  1  0  0  0  0
  8 21  1  0  0  0  0
  9 10  1  0  0  0  0
  9 11  1  0  0  0  0
 10 22  1  0  0  0  0
 10 23  1  0  0  0  0
 11 12  2  0  0  0  0
 11 13  1  0  0  0  0
 12 24  1  0  0  0  0
 12 27  1  0  0  0  0
 13 25  1  0  0  0  0
 13 26  1  0  0  0  0
M  END
$$$$
