ZINC13513942
 OpenBabel08292219463D

 53 55  0  0  1  0  0  0  0  0999 V2000
   -5.3537   -5.2949   -1.2293 C   0  0  0  0  0  0  0  0  0  0  0  0
   -4.3382   -4.3705   -1.3182 C   0  0  0  0  0  0  0  0  0  0  0  0
   -4.4855   -3.1143   -0.7364 C   0  0  0  0  0  0  0  0  0  0  0  0
   -5.6574   -2.7914   -0.0578 C   0  0  0  0  0  0  0  0  0  0  0  0
   -6.6786   -3.7096    0.0302 C   0  0  0  0  0  0  0  0  0  0  0  0
   -6.5339   -4.9717   -0.5534 C   0  0  0  0  0  0  0  0  0  0  0  0
   -7.6246   -5.9602   -0.4565 C   0  0  0  0  0  0  0  0  0  0  0  0
   -7.4976   -7.0574   -0.9649 O   0  0  0  0  0  0  0  0  0  0  0  0
   -8.7619   -5.6471    0.1954 N   0  0  0  0  0  0  0  0  0  0  0  0
   -9.8451   -6.6288    0.2916 C   0  0  1  0  0  0  0  0  0  0  0  0
   -9.3843   -7.6250    0.3645 H   0  0  0  0  0  0  0  0  0  0  0  0
  -10.6990   -6.3269    1.5247 C   0  0  0  0  0  0  0  0  0  0  0  0
   -9.8591   -6.5259    2.7879 C   0  0  0  0  0  0  0  0  0  0  0  0
  -10.7002   -6.2285    4.0024 C   0  0  0  0  0  0  0  0  0  0  0  0
  -11.8531   -5.8919    3.8712 O   0  0  0  0  0  0  0  0  0  0  0  0
  -10.1685   -6.3376    5.2301 O   0  0  0  0  0  1  0  0  0  0  0  0
  -10.7034   -6.5525   -0.9448 C   0  0  0  0  0  0  0  0  0  0  0  0
  -10.4376   -5.7595   -1.8168 O   0  0  0  0  0  0  0  0  0  0  0  0
  -11.7632   -7.3655   -1.0773 O   0  0  0  0  0  1  0  0  0  0  0  0
   -3.4578   -2.1822   -0.8285 N   0  0  0  0  0  0  0  0  0  0  0  0
   -3.6112   -0.8599   -0.2168 C   0  0  0  0  0  0  0  0  0  0  0  0
   -2.3463   -0.0348   -0.4619 C   0  0  1  0  0  0  0  0  0  0  0  0
   -2.2050    0.1316   -1.5400 H   0  0  0  0  0  0  0  0  0  0  0  0
   -2.4466    1.2973    0.2950 C   0  0  0  0  0  0  0  0  0  0  0  0
   -1.2132    2.0516    0.0173 N   0  0  0  0  0  0  0  0  0  0  0  0
   -0.0164    1.3587    0.0095 C   0  0  0  0  0  0  0  0  0  0  0  0
    0.0021   -0.0041    0.0020 C   0  0  0  0  0  0  0  0  0  0  0  0
    1.2550   -0.6611   -0.0246 C   0  0  0  0  0  0  0  0  0  0  0  0
    1.3073   -1.8832   -0.0397 O   0  0  0  0  0  0  0  0  0  0  0  0
    2.3848    0.0612   -0.0337 N   0  0  0  0  0  0  0  0  0  0  0  0
    2.3510    1.3764   -0.0202 C   0  0  0  0  0  0  0  0  0  0  0  0
    1.1691    2.0493    0.0019 N   0  0  0  0  0  0  0  0  0  0  0  0
    1.1650    3.1492    0.0137 H   0  0  0  0  0  0  0  0  0  0  0  0
    3.5276    2.0809   -0.0284 N   0  0  0  0  0  0  0  0  0  0  0  0
   -1.1765   -0.7719    0.0273 N   0  0  0  0  0  0  0  0  0  0  0  0
   -5.2391   -6.2690   -1.6814 H   0  0  0  0  0  0  0  0  0  0  0  0
   -3.4262   -4.6196   -1.8403 H   0  0  0  0  0  0  0  0  0  0  0  0
   -5.7668   -1.8177    0.3966 H   0  0  0  0  0  0  0  0  0  0  0  0
   -7.5892   -3.4569    0.5530 H   0  0  0  0  0  0  0  0  0  0  0  0
   -8.8768   -4.6545    0.6552 H   0  0  0  0  0  0  0  0  0  0  0  0
  -11.0528   -5.2863    1.4798 H   0  0  0  0  0  0  0  0  0  0  0  0
  -11.5630   -7.0073    1.5479 H   0  0  0  0  0  0  0  0  0  0  0  0
   -9.5053   -7.5665    2.8328 H   0  0  0  0  0  0  0  0  0  0  0  0
   -8.9951   -5.8455    2.7647 H   0  0  0  0  0  0  0  0  0  0  0  0
   -2.5296   -2.4377   -1.3607 H   0  0  0  0  0  0  0  0  0  0  0  0
   -4.4757   -0.3472   -0.6637 H   0  0  0  0  0  0  0  0  0  0  0  0
   -3.7713   -0.9729    0.8656 H   0  0  0  0  0  0  0  0  0  0  0  0
   -3.3275    1.8539   -0.0575 H   0  0  0  0  0  0  0  0  0  0  0  0
   -2.5446    1.1002    1.3728 H   0  0  0  0  0  0  0  0  0  0  0  0
   -1.2618    3.1334   -0.1759 H   0  0  0  0  0  0  0  0  0  0  0  0
    3.5102    3.1807   -0.0173 H   0  0  0  0  0  0  0  0  0  0  0  0
    4.4887    1.5462   -0.0461 H   0  0  0  0  0  0  0  0  0  0  0  0
   -1.2839   -1.8139    0.3631 H   0  0  0  0  0  0  0  0  0  0  0  0
  1  6  2  0  0  0  0
  1  2  1  0  0  0  0
  1 36  1  0  0  0  0
  2  3  2  0  0  0  0
  2 37  1  0  0  0  0
  3  4  1  0  0  0  0
  3 20  1  0  0  0  0
  4  5  2  0  0  0  0
  4 38  1  0  0  0  0
  5  6  1  0  0  0  0
  5 39  1  0  0  0  0
  6  7  1  0  0  0  0
  7  8  2  0  0  0  0
  7  9  1  0  0  0  0
  9 10  1  0  0  0  0
  9 40  1  0  0  0  0
 10 11  1  1  0  0  0
 10 12  1  0  0  0  0
 10 17  1  0  0  0  0
 12 13  1  0  0  0  0
 12 41  1  0  0  0  0
 12 42  1  0  0  0  0
 13 14  1  0  0  0  0
 13 43  1  0  0  0  0
 13 44  1  0  0  0  0
 14 15  2  0  0  0  0
 14 16  1  0  0  0  0
 17 18  2  0  0  0  0
 17 19  1  0  0  0  0
 20 21  1  0  0  0  0
 20 45  1  0  0  0  0
 21 22  1  0  0  0  0
 21 46  1  0  0  0  0
 21 47  1  0  0  0  0
 22 23  1  6  0  0  0
 22 35  1  0  0  0  0
 22 24  1  0  0  0  0
 24 25  1  0  0  0  0
 24 48  1  0  0  0  0
 24 49  1  0  0  0  0
 25 26  1  0  0  0  0
 25 50  1  0  0  0  0
 26 32  1  0  0  0  0
 26 27  2  0  0  0  0
 27 28  1  0  0  0  0
 27 35  1  0  0  0  0
 28 29  2  0  0  0  0
 28 30  1  0  0  0  0
 30 31  2  0  0  0  0
 31 32  1  0  0  0  0
 31 34  1  0  0  0  0
 32 33  1  0  0  0  0
 34 51  1  0  0  0  0
 34 52  1  0  0  0  0
 35 53  1  0  0  0  0
M  END
$$$$
