ZINC03830246
 OpenBabel08292219463D

 60 62  0  0  1  0  0  0  0  0999 V2000
   -8.2403    1.8534    0.5520 C   0  0  0  0  0  0  0  0  0  0  0  0
   -6.9974    1.0075    0.8363 C   0  0  0  0  0  0  0  0  0  0  0  0
   -6.0378    1.1616   -0.2652 N   0  3  0  0  0  0  0  0  0  0  0  0
   -5.5611    2.5504   -0.3087 C   0  0  0  0  0  0  0  0  0  0  0  0
   -4.6156    2.7280   -1.4984 C   0  0  0  0  0  0  0  0  0  0  0  0
   -4.8985    0.2592   -0.0519 C   0  0  0  0  0  0  0  0  0  0  0  0
   -5.3642   -1.1917   -0.1897 C   0  0  0  0  0  0  0  0  0  0  0  0
   -4.1554   -2.1257   -0.1034 C   0  0  0  0  0  0  0  0  0  0  0  0
   -4.6211   -3.5766   -0.2412 C   0  0  1  0  0  0  0  0  0  0  0  0
   -5.1922   -3.6888   -1.1628 H   0  0  0  0  0  0  0  0  0  0  0  0
   -3.4031   -4.5016   -0.2801 C   0  0  0  0  0  0  0  0  0  0  0  0
   -5.4658   -3.9291    0.9027 N   0  0  0  0  0  0  0  0  0  0  0  0
   -6.8360   -3.7963    0.8152 C   0  0  0  0  0  0  0  0  0  0  0  0
   -7.5688   -4.4602   -0.1852 C   0  0  0  0  0  0  0  0  0  0  0  0
   -6.9440   -5.2843   -1.1360 C   0  0  0  0  0  0  0  0  0  0  0  0
   -7.6985   -5.9043   -2.0829 C   0  0  0  0  0  0  0  0  0  0  0  0
   -9.0826   -5.7416   -2.1335 C   0  0  0  0  0  0  0  0  0  0  0  0
   -9.7446   -4.9569   -1.2408 C   0  0  0  0  0  0  0  0  0  0  0  0
   -9.0221   -4.2862   -0.2343 C   0  0  0  0  0  0  0  0  0  0  0  0
   -9.6342   -3.5113    0.6568 N   0  0  0  0  0  0  0  0  0  0  0  0
   -8.9596   -2.8730    1.6138 C   0  0  0  0  0  3  0  0  0  0  0  0
   -7.5507   -2.9952    1.7289 C   0  0  0  0  0  0  0  0  0  0  0  0
   -6.8745   -2.3105    2.7548 C   0  0  0  0  0  0  0  0  0  0  0  0
   -7.5791   -1.5389    3.6319 C   0  0  0  0  0  0  0  0  0  0  0  0
   -8.9691   -1.4210    3.5228 C   0  0  0  0  0  0  0  0  0  0  0  0
   -9.6511   -2.0610    2.5380 C   0  0  0  0  0  0  0  0  0  0  0  0
   -6.9239   -0.8778    4.6229 O   0  0  0  0  0  0  0  0  0  0  0  0
   -7.7172   -0.0862    5.5094 C   0  0  0  0  0  0  0  0  0  0  0  0
   -9.9850   -6.5618   -3.3691 Cl  0  0  0  0  0  0  0  0  0  0  0  0
   -8.9523    1.7391    1.3694 H   0  0  0  0  0  0  0  0  0  0  0  0
   -7.9540    2.9014    0.4634 H   0  0  0  0  0  0  0  0  0  0  0  0
   -8.6999    1.5222   -0.3792 H   0  0  0  0  0  0  0  0  0  0  0  0
   -6.5378    1.3386    1.7675 H   0  0  0  0  0  0  0  0  0  0  0  0
   -7.2837   -0.0405    0.9249 H   0  0  0  0  0  0  0  0  0  0  0  0
   -6.4117    3.2233   -0.4171 H   0  0  0  0  0  0  0  0  0  0  0  0
   -5.0304    2.7814    0.6149 H   0  0  0  0  0  0  0  0  0  0  0  0
   -3.7664    2.0531   -1.3915 H   0  0  0  0  0  0  0  0  0  0  0  0
   -5.1471    2.4996   -2.4222 H   0  0  0  0  0  0  0  0  0  0  0  0
   -4.2597    3.7578   -1.5290 H   0  0  0  0  0  0  0  0  0  0  0  0
   -4.1276    0.4654   -0.7944 H   0  0  0  0  0  0  0  0  0  0  0  0
   -4.4921    0.4170    0.9472 H   0  0  0  0  0  0  0  0  0  0  0  0
   -6.0630   -1.4268    0.6131 H   0  0  0  0  0  0  0  0  0  0  0  0
   -5.8582   -1.3248   -1.1521 H   0  0  0  0  0  0  0  0  0  0  0  0
   -3.4566   -1.8906   -0.9061 H   0  0  0  0  0  0  0  0  0  0  0  0
   -3.6614   -1.9925    0.8591 H   0  0  0  0  0  0  0  0  0  0  0  0
   -2.8157   -4.2916   -1.1739 H   0  0  0  0  0  0  0  0  0  0  0  0
   -2.7903   -4.3329    0.6054 H   0  0  0  0  0  0  0  0  0  0  0  0
   -3.7356   -5.5395   -0.2995 H   0  0  0  0  0  0  0  0  0  0  0  0
   -5.0615   -4.2559    1.7217 H   0  0  0  0  0  0  0  0  0  0  0  0
   -5.8733   -5.4242   -1.1156 H   0  0  0  0  0  0  0  0  0  0  0  0
   -7.2145   -6.5368   -2.8124 H   0  0  0  0  0  0  0  0  0  0  0  0
  -10.8173   -4.8485   -1.3036 H   0  0  0  0  0  0  0  0  0  0  0  0
   -5.8019   -2.3955    2.8480 H   0  0  0  0  0  0  0  0  0  0  0  0
   -9.5073   -0.8054    4.2283 H   0  0  0  0  0  0  0  0  0  0  0  0
  -10.7239   -1.9573    2.4689 H   0  0  0  0  0  0  0  0  0  0  0  0
   -7.0723    0.3858    6.2507 H   0  0  0  0  0  0  0  0  0  0  0  0
   -8.2402    0.6826    4.9406 H   0  0  0  0  0  0  0  0  0  0  0  0
   -8.4442   -0.7231    6.0133 H   0  0  0  0  0  0  0  0  0  0  0  0
   -6.4888    0.9332   -1.1385 H   0  0  0  0  0  0  0  0  0  0  0  0
  -10.5974   -3.4074    0.6090 H   0  0  0  0  0  0  0  0  0  0  0  0
  1  2  1  0  0  0  0
  1 30  1  0  0  0  0
  1 31  1  0  0  0  0
  1 32  1  0  0  0  0
  2  3  1  0  0  0  0
  2 33  1  0  0  0  0
  2 34  1  0  0  0  0
  3  4  1  0  0  0  0
  3  6  1  0  0  0  0
  3 59  1  0  0  0  0
  4  5  1  0  0  0  0
  4 35  1  0  0  0  0
  4 36  1  0  0  0  0
  5 37  1  0  0  0  0
  5 38  1  0  0  0  0
  5 39  1  0  0  0  0
  6  7  1  0  0  0  0
  6 40  1  0  0  0  0
  6 41  1  0  0  0  0
  7  8  1  0  0  0  0
  7 42  1  0  0  0  0
  7 43  1  0  0  0  0
  8  9  1  0  0  0  0
  8 44  1  0  0  0  0
  8 45  1  0  0  0  0
  9 10  1  6  0  0  0
  9 11  1  0  0  0  0
  9 12  1  0  0  0  0
 11 46  1  0  0  0  0
 11 47  1  0  0  0  0
 11 48  1  0  0  0  0
 12 13  1  0  0  0  0
 12 49  1  0  0  0  0
 13 22  2  0  0  0  0
 13 14  1  0  0  0  0
 14 19  2  0  0  0  0
 14 15  1  0  0  0  0
 15 16  2  0  0  0  0
 15 50  1  0  0  0  0
 16 17  1  0  0  0  0
 16 51  1  0  0  0  0
 17 18  2  0  0  0  0
 17 29  1  0  0  0  0
 18 19  1  0  0  0  0
 18 52  1  0  0  0  0
 19 20  1  0  0  0  0
 20 21  1  0  0  0  0
 20 60  1  0  0  0  0
 21 26  1  0  0  0  0
 21 22  1  0  0  0  0
 22 23  1  0  0  0  0
 23 24  2  0  0  0  0
 23 53  1  0  0  0  0
 24 25  1  0  0  0  0
 24 27  1  0  0  0  0
 25 26  2  0  0  0  0
 25 54  1  0  0  0  0
 26 55  1  0  0  0  0
 27 28  1  0  0  0  0
 28 56  1  0  0  0  0
 28 57  1  0  0  0  0
 28 58  1  0  0  0  0
M  CHG  1   3   1
M  END
$$$$
