ZINC37867473
 OpenBabel08292219463D

 53 56  0  0  1  0  0  0  0  0999 V2000
    0.9278   -0.6354   -1.4316 C   0  0  0  0  0  0  0  0  0  0  0  0
    0.1091   -0.2567   -0.2721 N   0  0  0  0  0  0  0  0  0  0  0  0
    0.1104    1.1997   -0.0799 C   0  0  0  0  0  0  0  0  0  0  0  0
   -1.2612   -0.7689   -0.4054 C   0  0  1  0  0  0  0  0  0  0  0  0
   -1.6866   -0.4421   -1.3543 H   0  0  0  0  0  0  0  0  0  0  0  0
   -1.2515   -2.2998   -0.3410 C   0  0  2  0  0  0  0  0  0  0  0  0
   -0.6570   -2.6899   -1.1671 H   0  0  0  0  0  0  0  0  0  0  0  0
   -2.6844   -2.8238   -0.4600 C   0  0  2  0  0  0  0  0  0  0  0  0
   -3.2728   -2.4697    0.3864 H   0  0  0  0  0  0  0  0  0  0  0  0
   -2.6651   -4.3493   -0.4641 C   0  0  2  0  0  0  0  0  0  0  0  0
   -2.0015   -4.7038   -1.2529 H   0  0  0  0  0  0  0  0  0  0  0  0
   -4.0499   -4.9137   -0.6766 C   0  0  0  0  0  0  0  0  0  0  0  0
   -5.0509   -4.1462   -1.0918 C   0  0  0  0  0  0  0  0  0  0  0  0
   -4.2483   -6.3556   -0.4045 C   0  0  0  0  0  0  0  0  0  0  0  0
   -5.3718   -7.0208   -0.8787 C   0  0  0  0  0  0  0  0  0  0  0  0
   -5.5353   -8.3695   -0.6182 C   0  0  0  0  0  0  0  0  0  0  0  0
   -4.5898   -9.0685    0.1096 C   0  0  0  0  0  0  0  0  0  0  0  0
   -3.4593   -8.4274    0.5960 C   0  0  0  0  0  0  0  0  0  0  0  0
   -3.2814   -7.0602    0.3472 C   0  0  0  0  0  0  0  0  0  0  0  0
   -2.1041   -6.3490    0.8640 C   0  0  0  0  0  0  0  0  0  0  0  0
   -1.1226   -6.9520    1.2453 O   0  0  0  0  0  0  0  0  0  0  0  0
   -2.1514   -4.8402    0.9007 C   0  0  1  0  0  0  0  0  0  0  0  0
   -0.7745   -4.2580    1.1094 C   0  0  0  0  0  0  0  0  0  0  0  0
   -0.6392   -2.7580    0.9784 C   0  0  2  0  0  0  0  0  0  0  0  0
   -1.2789   -2.0780    2.1510 C   0  0  0  0  0  0  0  0  0  0  0  0
   -1.1638   -2.6428    3.3621 O   0  5  0  0  0  0  0  0  0  0  0  0
   -1.9775   -0.9012    2.0382 C   0  0  0  0  0  0  0  0  0  0  0  0
   -2.1119   -0.2614    0.7398 C   0  0  0  0  0  0  0  0  0  0  0  0
   -2.9080    0.6407    0.5795 O   0  0  0  0  0  0  0  0  0  0  0  0
   -2.5730   -0.2811    3.2325 C   0  0  0  0  0  0  0  0  0  0  0  0
   -2.3630   -0.7552    4.3328 O   0  0  0  0  0  0  0  0  0  0  0  0
   -3.3511    0.8122    3.1071 N   0  0  0  0  0  0  0  0  0  0  0  0
    0.7534   -2.4373    0.9783 O   0  0  0  0  0  0  0  0  0  0  0  0
    0.1683   -4.9626    1.3794 O   0  0  0  0  0  0  0  0  0  0  0  0
   -2.5344   -9.1186    1.3071 O   0  0  0  0  0  0  0  0  0  0  0  0
   -3.2658   -2.3503   -1.6765 O   0  0  0  0  0  0  0  0  0  0  0  0
    1.9544   -0.3045   -1.2751 H   0  0  0  0  0  0  0  0  0  0  0  0
    0.9094   -1.7187   -1.5510 H   0  0  0  0  0  0  0  0  0  0  0  0
    0.5269   -0.1641   -2.3289 H   0  0  0  0  0  0  0  0  0  0  0  0
   -0.2180    1.6876   -0.9976 H   0  0  0  0  0  0  0  0  0  0  0  0
   -0.5681    1.4595    0.7326 H   0  0  0  0  0  0  0  0  0  0  0  0
    1.1183    1.5326    0.1679 H   0  0  0  0  0  0  0  0  0  0  0  0
   -4.9114   -3.0792   -1.1829 H   0  0  0  0  0  0  0  0  0  0  0  0
   -6.0046   -4.5892   -1.3384 H   0  0  0  0  0  0  0  0  0  0  0  0
   -6.1161   -6.4861   -1.4499 H   0  0  0  0  0  0  0  0  0  0  0  0
   -6.4110   -8.8824   -0.9878 H   0  0  0  0  0  0  0  0  0  0  0  0
   -4.7325  -10.1218    0.3012 H   0  0  0  0  0  0  0  0  0  0  0  0
   -3.5831    1.1439    2.2256 H   0  0  0  0  0  0  0  0  0  0  0  0
   -3.6792    1.2674    3.8984 H   0  0  0  0  0  0  0  0  0  0  0  0
    1.2323   -2.7638    1.7523 H   0  0  0  0  0  0  0  0  0  0  0  0
   -1.8356   -9.5114    0.7663 H   0  0  0  0  0  0  0  0  0  0  0  0
   -2.8391   -2.6903   -2.4748 H   0  0  0  0  0  0  0  0  0  0  0  0
   -2.8264   -4.5137    1.6918 H   0  0  0  0  0  0  0  0  0  0  0  0
  1  2  1  0  0  0  0
  1 37  1  0  0  0  0
  1 38  1  0  0  0  0
  1 39  1  0  0  0  0
  2  3  1  0  0  0  0
  2  4  1  0  0  0  0
  3 40  1  0  0  0  0
  3 41  1  0  0  0  0
  3 42  1  0  0  0  0
  4  5  1  6  0  0  0
  4 28  1  0  0  0  0
  4  6  1  0  0  0  0
  6  7  1  6  0  0  0
  6 24  1  0  0  0  0
  6  8  1  0  0  0  0
  8  9  1  1  0  0  0
  8 10  1  0  0  0  0
  8 36  1  0  0  0  0
 10 11  1  6  0  0  0
 10 22  1  0  0  0  0
 10 12  1  0  0  0  0
 12 13  2  0  0  0  0
 12 14  1  0  0  0  0
 13 43  1  0  0  0  0
 13 44  1  0  0  0  0
 14 19  2  0  0  0  0
 14 15  1  0  0  0  0
 15 16  2  0  0  0  0
 15 45  1  0  0  0  0
 16 17  1  0  0  0  0
 16 46  1  0  0  0  0
 17 18  2  0  0  0  0
 17 47  1  0  0  0  0
 18 19  1  0  0  0  0
 18 35  1  0  0  0  0
 19 20  1  0  0  0  0
 20 21  2  0  0  0  0
 20 22  1  0  0  0  0
 22 23  1  0  0  0  0
 22 53  1  1  0  0  0
 23 24  1  0  0  0  0
 23 34  2  0  0  0  0
 24 25  1  0  0  0  0
 24 33  1  6  0  0  0
 25 26  1  0  0  0  0
 25 27  2  0  0  0  0
 27 28  1  0  0  0  0
 27 30  1  0  0  0  0
 28 29  2  0  0  0  0
 30 31  2  0  0  0  0
 30 32  1  0  0  0  0
 32 48  1  0  0  0  0
 32 49  1  0  0  0  0
 33 50  1  0  0  0  0
 35 51  1  0  0  0  0
 36 52  1  0  0  0  0
M  CHG  1  26  -1
M  END
$$$$
