ZINC00000323
 OpenBabel08292219463D

 30 31  0  0  1  0  0  0  0  0999 V2000
   -0.0187    1.5258    0.0104 C   0  0  0  0  0  0  0  0  0  0  0  0
    0.0021   -0.0041    0.0020 C   0  0  1  0  0  0  0  0  0  0  0  0
    0.5293   -0.3651    0.8851 H   0  0  0  0  0  0  0  0  0  0  0  0
   -1.4117   -0.5257    0.0127 C   0  0  0  0  0  0  0  0  0  0  0  0
   -2.2739   -0.2004   -1.0193 C   0  0  0  0  0  0  0  0  0  0  0  0
   -3.5699   -0.6745   -1.0160 C   0  0  0  0  0  0  0  0  0  0  0  0
   -4.0111   -1.4830    0.0296 C   0  0  0  0  0  0  0  0  0  0  0  0
   -3.1382   -1.8086    1.0683 C   0  0  0  0  0  0  0  0  0  0  0  0
   -1.8402   -1.3319    1.0508 C   0  0  0  0  0  0  0  0  0  0  0  0
   -3.5585   -2.5916    2.0859 F   0  0  0  0  0  0  0  0  0  0  0  0
   -5.4035   -1.9951    0.0386 C   0  0  0  0  0  0  0  0  0  0  0  0
   -6.4707   -1.1232   -0.1677 C   0  0  0  0  0  0  0  0  0  0  0  0
   -7.7639   -1.6051   -0.1582 C   0  0  0  0  0  0  0  0  0  0  0  0
   -8.0017   -2.9508    0.0555 C   0  0  0  0  0  0  0  0  0  0  0  0
   -6.9462   -3.8209    0.2608 C   0  0  0  0  0  0  0  0  0  0  0  0
   -5.6486   -3.3509    0.2476 C   0  0  0  0  0  0  0  0  0  0  0  0
    0.7074   -0.4901   -1.2379 C   0  0  0  0  0  0  0  0  0  0  0  0
    1.4615   -1.4461   -1.1751 O   0  0  0  0  0  0  0  0  0  0  0  0
    0.5241    0.0728   -2.3037 O   0  0  0  0  0  1  0  0  0  0  0  0
    1.0039    1.9031    0.0027 H   0  0  0  0  0  0  0  0  0  0  0  0
   -0.5459    1.8868   -0.8726 H   0  0  0  0  0  0  0  0  0  0  0  0
   -0.5289    1.8773    0.9072 H   0  0  0  0  0  0  0  0  0  0  0  0
   -1.9319    0.4266   -1.8295 H   0  0  0  0  0  0  0  0  0  0  0  0
   -4.2413   -0.4190   -1.8224 H   0  0  0  0  0  0  0  0  0  0  0  0
   -1.1615   -1.5863    1.8516 H   0  0  0  0  0  0  0  0  0  0  0  0
   -6.2861   -0.0722   -0.3342 H   0  0  0  0  0  0  0  0  0  0  0  0
   -8.5918   -0.9301   -0.3176 H   0  0  0  0  0  0  0  0  0  0  0  0
   -9.0153   -3.3236    0.0624 H   0  0  0  0  0  0  0  0  0  0  0  0
   -7.1375   -4.8706    0.4275 H   0  0  0  0  0  0  0  0  0  0  0  0
   -4.8249   -4.0319    0.4032 H   0  0  0  0  0  0  0  0  0  0  0  0
  1  2  1  0  0  0  0
  1 20  1  0  0  0  0
  1 21  1  0  0  0  0
  1 22  1  0  0  0  0
  2  3  1  1  0  0  0
  2  4  1  0  0  0  0
  2 17  1  0  0  0  0
  4  9  2  0  0  0  0
  4  5  1  0  0  0  0
  5  6  2  0  0  0  0
  5 23  1  0  0  0  0
  6  7  1  0  0  0  0
  6 24  1  0  0  0  0
  7  8  2  0  0  0  0
  7 11  1  0  0  0  0
  8  9  1  0  0  0  0
  8 10  1  0  0  0  0
  9 25  1  0  0  0  0
 11 16  2  0  0  0  0
 11 12  1  0  0  0  0
 12 13  2  0  0  0  0
 12 26  1  0  0  0  0
 13 14  1  0  0  0  0
 13 27  1  0  0  0  0
 14 15  2  0  0  0  0
 14 28  1  0  0  0  0
 15 16  1  0  0  0  0
 15 29  1  0  0  0  0
 16 30  1  0  0  0  0
 17 18  2  0  0  0  0
 17 19  1  0  0  0  0
M  END
$$$$
