ZINC17920432
 OpenBabel08292219463D

 33 33  0  0  1  0  0  0  0  0999 V2000
    1.7801   -3.0117   -1.9278 C   0  0  0  0  0  0  0  0  0  0  0  0
    0.9111   -2.3157   -0.8784 C   0  0  0  0  0  0  0  0  0  0  0  0
   -0.5436   -2.7596   -1.0449 C   0  0  0  0  0  0  0  0  0  0  0  0
   -1.4126   -2.0635    0.0045 C   0  0  1  0  0  0  0  0  0  0  0  0
   -1.0094   -2.2595    0.9980 H   0  0  0  0  0  0  0  0  0  0  0  0
   -1.4171   -0.5558   -0.2558 C   0  0  0  0  0  0  0  0  0  0  0  0
   -2.8429   -2.6000   -0.0805 C   0  0  2  0  0  0  0  0  0  0  0  0
   -3.4228   -2.1879   -1.4197 C   0  0  0  0  0  0  0  0  0  0  0  0
   -2.8335   -2.5510   -2.5715 O   0  5  0  0  0  0  0  0  0  0  0  0
   -4.5146   -1.4684   -1.4182 N   0  0  0  0  0  0  0  0  0  0  0  0
   -5.1276   -1.0896   -0.2924 C   0  0  0  0  0  0  0  0  0  0  0  0
   -4.7105   -1.3917    0.9435 N   0  0  0  0  0  0  0  0  0  0  0  0
   -3.5974   -2.1303    1.1497 C   0  0  0  0  0  0  0  0  0  0  0  0
   -3.2185   -2.4055    2.2681 O   0  0  0  0  0  0  0  0  0  0  0  0
   -6.5502   -0.1489   -0.4417 S   0  0  0  0  0  0  0  0  0  0  0  0
   -2.7780   -4.1281   -0.0396 C   0  0  0  0  0  0  0  0  0  0  0  0
   -4.1942   -4.7011   -0.1227 C   0  0  0  0  0  0  0  0  0  0  0  0
    2.8164   -2.6955   -1.8091 H   0  0  0  0  0  0  0  0  0  0  0  0
    1.7126   -4.0918   -1.7970 H   0  0  0  0  0  0  0  0  0  0  0  0
    1.4304   -2.7438   -2.9248 H   0  0  0  0  0  0  0  0  0  0  0  0
    1.2608   -2.5835    0.1187 H   0  0  0  0  0  0  0  0  0  0  0  0
    0.9786   -1.2356   -1.0091 H   0  0  0  0  0  0  0  0  0  0  0  0
   -0.8933   -2.4917   -2.0420 H   0  0  0  0  0  0  0  0  0  0  0  0
   -0.6111   -3.8396   -0.9142 H   0  0  0  0  0  0  0  0  0  0  0  0
   -1.7178   -0.3659   -1.2862 H   0  0  0  0  0  0  0  0  0  0  0  0
   -2.1197   -0.0721    0.4228 H   0  0  0  0  0  0  0  0  0  0  0  0
   -0.4171   -0.1553   -0.0894 H   0  0  0  0  0  0  0  0  0  0  0  0
   -5.2178   -1.0741    1.7068 H   0  0  0  0  0  0  0  0  0  0  0  0
   -2.1897   -4.4895   -0.8831 H   0  0  0  0  0  0  0  0  0  0  0  0
   -2.3111   -4.4471    0.8922 H   0  0  0  0  0  0  0  0  0  0  0  0
   -4.1480   -5.7897   -0.0936 H   0  0  0  0  0  0  0  0  0  0  0  0
   -4.7824   -4.3397    0.7208 H   0  0  0  0  0  0  0  0  0  0  0  0
   -4.6611   -4.3821   -1.0546 H   0  0  0  0  0  0  0  0  0  0  0  0
  1  2  1  0  0  0  0
  1 18  1  0  0  0  0
  1 19  1  0  0  0  0
  1 20  1  0  0  0  0
  2  3  1  0  0  0  0
  2 21  1  0  0  0  0
  2 22  1  0  0  0  0
  3  4  1  0  0  0  0
  3 23  1  0  0  0  0
  3 24  1  0  0  0  0
  4  5  1  1  0  0  0
  4  6  1  0  0  0  0
  4  7  1  0  0  0  0
  6 25  1  0  0  0  0
  6 26  1  0  0  0  0
  6 27  1  0  0  0  0
  7  8  1  0  0  0  0
  7 16  1  1  0  0  0
  7 13  1  0  0  0  0
  8  9  1  0  0  0  0
  8 10  2  0  0  0  0
 10 11  1  0  0  0  0
 11 12  1  0  0  0  0
 11 15  2  0  0  0  0
 12 13  1  0  0  0  0
 12 28  1  0  0  0  0
 13 14  2  0  0  0  0
 16 17  1  0  0  0  0
 16 29  1  0  0  0  0
 16 30  1  0  0  0  0
 17 31  1  0  0  0  0
 17 32  1  0  0  0  0
 17 33  1  0  0  0  0
M  CHG  1   9  -1
M  END
$$$$
