ZINC04213506
 OpenBabel08292219463D

 76 79  0  0  1  0  0  0  0  0999 V2000
    8.3151    1.2070    0.2440 C   0  0  0  0  0  0  0  0  0  0  0  0
    8.0752    1.8767    1.5986 C   0  0  0  0  0  0  0  0  0  0  0  0
    8.9663    3.9523    0.7265 C   0  0  0  0  0  0  0  0  0  0  0  0
   10.1496    4.0343    1.6930 C   0  0  0  0  0  0  0  0  0  0  0  0
    6.5830    3.5319    0.6520 C   0  0  0  0  0  0  0  0  0  0  0  0
    5.4111    3.0790    1.4843 C   0  0  0  0  0  0  0  0  0  0  0  0
    5.5947    2.6193    2.5865 O   0  0  0  0  0  0  0  0  0  0  0  0
    4.1634    3.1862    1.0011 O   0  0  0  0  0  0  0  0  0  0  0  0
    3.0833    2.7302    1.8577 C   0  0  0  0  0  0  0  0  0  0  0  0
    1.7659    2.9272    1.1530 C   0  0  0  0  0  0  0  0  0  0  0  0
    1.7400    3.4028    0.0433 O   0  0  0  0  0  0  0  0  0  0  0  0
    0.4809    2.5307    1.8331 C   0  0  1  0  0  0  0  0  0  0  0  0
   -0.7159    3.3101    1.2248 C   0  0  0  0  0  0  0  0  0  0  0  0
   -1.7170    2.2421    0.7060 C   0  0  0  0  0  0  0  0  0  0  0  0
   -1.3763    1.0114    1.5538 C   0  0  2  0  0  0  0  0  0  0  0  0
   -1.7708    1.1120    2.5650 H   0  0  0  0  0  0  0  0  0  0  0  0
    0.1754    1.0600    1.5691 C   0  0  2  0  0  0  0  0  0  0  0  0
    0.6446    0.0721    2.6197 C   0  0  0  0  0  0  0  0  0  0  0  0
    0.2283   -1.3291    2.1443 C   0  0  1  0  0  0  0  0  0  0  0  0
    0.5197   -2.0613    2.8973 H   0  0  0  0  0  0  0  0  0  0  0  0
   -1.2773   -1.4222    1.9179 C   0  0  1  0  0  0  0  0  0  0  0  0
   -1.7913   -1.3243    2.8741 H   0  0  0  0  0  0  0  0  0  0  0  0
   -1.7753   -0.3266    0.9599 C   0  0  1  0  0  0  0  0  0  0  0  0
   -1.3032   -0.4501   -0.0148 H   0  0  0  0  0  0  0  0  0  0  0  0
   -3.2940   -0.4162    0.8099 C   0  0  0  0  0  0  0  0  0  0  0  0
   -3.6796   -1.7576    0.1753 C   0  0  0  0  0  0  0  0  0  0  0  0
   -3.0764   -2.8607    1.0285 C   0  0  0  0  0  0  0  0  0  0  0  0
   -3.8693   -3.8265    1.4842 C   0  0  0  0  0  0  0  0  0  0  0  0
   -3.2971   -4.8720    2.3443 C   0  0  0  0  0  0  0  0  0  0  0  0
   -3.7913   -5.9769    2.4286 O   0  0  0  0  0  0  0  0  0  0  0  0
   -2.0518   -4.4870    3.1208 C   0  0  0  0  0  0  0  0  0  0  0  0
   -1.0411   -3.9223    2.1233 C   0  0  0  0  0  0  0  0  0  0  0  0
   -1.6214   -2.7857    1.3175 C   0  0  2  0  0  0  0  0  0  0  0  0
   -0.9240   -2.8477   -0.0429 C   0  0  0  0  0  0  0  0  0  0  0  0
    0.9032   -1.6258    0.9202 O   0  0  0  0  0  0  0  0  0  0  0  0
    0.7201    0.6555    0.1978 C   0  0  0  0  0  0  0  0  0  0  0  0
    0.5680    2.7737    3.2385 O   0  0  0  0  0  0  0  0  0  0  0  0
    7.4829    1.4298   -0.4239 H   0  0  0  0  0  0  0  0  0  0  0  0
    9.2405    1.5857   -0.1898 H   0  0  0  0  0  0  0  0  0  0  0  0
    8.3925    0.1284    0.3806 H   0  0  0  0  0  0  0  0  0  0  0  0
    8.9535    1.7436    2.2302 H   0  0  0  0  0  0  0  0  0  0  0  0
    7.2092    1.4226    2.0801 H   0  0  0  0  0  0  0  0  0  0  0  0
    9.2504    3.3650   -0.1467 H   0  0  0  0  0  0  0  0  0  0  0  0
    8.6835    4.9570    0.4124 H   0  0  0  0  0  0  0  0  0  0  0  0
    9.8363    4.5346    2.6093 H   0  0  0  0  0  0  0  0  0  0  0  0
   10.4967    3.0283    1.9287 H   0  0  0  0  0  0  0  0  0  0  0  0
   10.9588    4.5986    1.2295 H   0  0  0  0  0  0  0  0  0  0  0  0
    6.6105    2.9624   -0.2770 H   0  0  0  0  0  0  0  0  0  0  0  0
    6.4788    4.5929    0.4249 H   0  0  0  0  0  0  0  0  0  0  0  0
    3.0881    3.2557    2.7085 H   0  0  0  0  0  0  0  0  0  0  0  0
    3.2202    1.6726    2.0832 H   0  0  0  0  0  0  0  0  0  0  0  0
   -0.3743    3.9349    0.3995 H   0  0  0  0  0  0  0  0  0  0  0  0
   -1.1891    3.9264    1.9892 H   0  0  0  0  0  0  0  0  0  0  0  0
   -1.5509    2.0395   -0.3520 H   0  0  0  0  0  0  0  0  0  0  0  0
   -2.7459    2.5574    0.8799 H   0  0  0  0  0  0  0  0  0  0  0  0
    1.7289    0.1233    2.7194 H   0  0  0  0  0  0  0  0  0  0  0  0
    0.1720    0.2951    3.5763 H   0  0  0  0  0  0  0  0  0  0  0  0
   -3.7600   -0.3333    1.7918 H   0  0  0  0  0  0  0  0  0  0  0  0
   -3.6436    0.3981    0.1753 H   0  0  0  0  0  0  0  0  0  0  0  0
   -4.7647   -1.8581    0.1541 H   0  0  0  0  0  0  0  0  0  0  0  0
   -3.2823   -1.8149   -0.8381 H   0  0  0  0  0  0  0  0  0  0  0  0
   -4.9179   -3.8421    1.2264 H   0  0  0  0  0  0  0  0  0  0  0  0
   -2.2871   -3.8011    3.8094 H   0  0  0  0  0  0  0  0  0  0  0  0
   -1.6352   -5.3666    3.6115 H   0  0  0  0  0  0  0  0  0  0  0  0
   -0.1683   -3.5645    2.6695 H   0  0  0  0  0  0  0  0  0  0  0  0
   -0.7312   -4.7183    1.4461 H   0  0  0  0  0  0  0  0  0  0  0  0
    0.1304   -3.0841    0.0998 H   0  0  0  0  0  0  0  0  0  0  0  0
   -1.3899   -3.6199   -0.6551 H   0  0  0  0  0  0  0  0  0  0  0  0
   -1.0158   -1.8834   -0.5425 H   0  0  0  0  0  0  0  0  0  0  0  0
    1.8676   -1.6191    0.9911 H   0  0  0  0  0  0  0  0  0  0  0  0
    0.2274   -0.2584   -0.1338 H   0  0  0  0  0  0  0  0  0  0  0  0
    1.7941    0.4837    0.2697 H   0  0  0  0  0  0  0  0  0  0  0  0
    0.5270    1.4532   -0.5196 H   0  0  0  0  0  0  0  0  0  0  0  0
    0.7607    3.6933    3.4675 H   0  0  0  0  0  0  0  0  0  0  0  0
    7.8255    3.3231    1.4247 N   0  3  0  0  0  0  0  0  0  0  0  0
    7.7201    3.7569    2.3494 H   0  0  0  0  0  0  0  0  0  0  0  0
  1  2  1  0  0  0  0
  1 38  1  0  0  0  0
  1 39  1  0  0  0  0
  1 40  1  0  0  0  0
  2 41  1  0  0  0  0
  2 42  1  0  0  0  0
  2 75  1  0  0  0  0
  3  4  1  0  0  0  0
  3 43  1  0  0  0  0
  3 44  1  0  0  0  0
  3 75  1  0  0  0  0
  4 45  1  0  0  0  0
  4 46  1  0  0  0  0
  4 47  1  0  0  0  0
  5  6  1  0  0  0  0
  5 48  1  0  0  0  0
  5 49  1  0  0  0  0
  5 75  1  0  0  0  0
  6  7  2  0  0  0  0
  6  8  1  0  0  0  0
  8  9  1  0  0  0  0
  9 10  1  0  0  0  0
  9 50  1  0  0  0  0
  9 51  1  0  0  0  0
 10 11  2  0  0  0  0
 12 10  1  6  0  0  0
 12 17  1  0  0  0  0
 12 13  1  0  0  0  0
 12 37  1  0  0  0  0
 13 14  1  0  0  0  0
 13 52  1  0  0  0  0
 13 53  1  0  0  0  0
 14 15  1  0  0  0  0
 14 54  1  0  0  0  0
 14 55  1  0  0  0  0
 15 16  1  1  0  0  0
 15 23  1  0  0  0  0
 15 17  1  0  0  0  0
 17 18  1  0  0  0  0
 17 36  1  6  0  0  0
 18 19  1  0  0  0  0
 18 56  1  0  0  0  0
 18 57  1  0  0  0  0
 19 20  1  1  0  0  0
 19 21  1  0  0  0  0
 19 35  1  0  0  0  0
 21 22  1  1  0  0  0
 21 33  1  0  0  0  0
 21 23  1  0  0  0  0
 23 24  1  6  0  0  0
 23 25  1  0  0  0  0
 25 26  1  0  0  0  0
 25 58  1  0  0  0  0
 25 59  1  0  0  0  0
 26 27  1  0  0  0  0
 26 60  1  0  0  0  0
 26 61  1  0  0  0  0
 27 33  1  0  0  0  0
 27 28  2  0  0  0  0
 28 29  1  0  0  0  0
 28 62  1  0  0  0  0
 29 30  2  0  0  0  0
 29 31  1  0  0  0  0
 31 32  1  0  0  0  0
 31 63  1  0  0  0  0
 31 64  1  0  0  0  0
 32 33  1  0  0  0  0
 32 65  1  0  0  0  0
 32 66  1  0  0  0  0
 33 34  1  6  0  0  0
 34 67  1  0  0  0  0
 34 68  1  0  0  0  0
 34 69  1  0  0  0  0
 35 70  1  0  0  0  0
 36 71  1  0  0  0  0
 36 72  1  0  0  0  0
 36 73  1  0  0  0  0
 37 74  1  0  0  0  0
 75 76  1  0  0  0  0
M  CHG  1  75   1
M  END
$$$$
