ZINC08101117
 OpenBabel08292219463D

 81 83  0  0  1  0  0  0  0  0999 V2000
   -2.9704    3.7991   -4.2293 C   0  0  0  0  0  0  0  0  0  0  0  0
   -2.8421    2.2825   -4.3851 C   0  0  2  0  0  0  0  0  0  0  0  0
   -3.4834    1.7868   -3.6563 H   0  0  0  0  0  0  0  0  0  0  0  0
   -1.3883    1.8669   -4.1514 C   0  0  1  0  0  0  0  0  0  0  0  0
   -1.0770    2.1785   -3.1543 H   0  0  0  0  0  0  0  0  0  0  0  0
   -1.2664    0.3456   -4.2722 C   0  0  0  0  0  0  0  0  0  0  0  0
    0.2011   -0.0567   -4.0967 C   0  0  0  0  0  0  0  0  0  0  0  0
    1.0489    0.6790   -5.1390 C   0  0  1  0  0  0  0  0  0  0  0  0
    0.7462    0.3692   -6.1392 H   0  0  0  0  0  0  0  0  0  0  0  0
    0.8376    2.1874   -4.9847 C   0  0  1  0  0  0  0  0  0  0  0  0
    1.4054    2.7143   -5.7515 H   0  0  0  0  0  0  0  0  0  0  0  0
   -0.5517    2.4898   -5.1282 O   0  0  0  0  0  0  0  0  0  0  0  0
    1.2844    2.6014   -3.6920 O   0  0  0  0  0  0  0  0  0  0  0  0
    1.1943    4.0101   -3.4695 C   0  0  2  0  0  0  0  0  0  0  0  0
    0.3826    4.4215   -4.0695 H   0  0  0  0  0  0  0  0  0  0  0  0
    2.5126    4.6751   -3.8705 C   0  0  1  0  0  0  0  0  0  0  0  0
    2.4440    5.7496   -3.7009 H   0  0  0  0  0  0  0  0  0  0  0  0
    3.6520    4.0975   -3.0284 C   0  0  0  0  0  0  0  0  0  0  0  0
    3.3766    4.3634   -1.5470 C   0  0  1  0  0  0  0  0  0  0  0  0
    3.3079    5.4379   -1.3773 H   0  0  0  0  0  0  0  0  0  0  0  0
    2.0583    3.6984   -1.1460 C   0  0  1  0  0  0  0  0  0  0  0  0
    1.8621    3.8878   -0.0907 H   0  0  0  0  0  0  0  0  0  0  0  0
    0.9190    4.2759   -1.9882 C   0  0  2  0  0  0  0  0  0  0  0  0
    0.8503    5.3505   -1.8185 H   0  0  0  0  0  0  0  0  0  0  0  0
   -0.3123    3.6549   -1.6137 O   0  0  0  0  0  0  0  0  0  0  0  0
    2.1484    2.2897   -1.3685 O   0  0  0  0  0  0  0  0  0  0  0  0
    1.7165    1.4975   -0.2603 C   0  0  2  0  0  0  0  0  0  0  0  0
    2.0746    1.9441    0.6672 H   0  0  0  0  0  0  0  0  0  0  0  0
    2.2798    0.0804   -0.3955 C   0  0  1  0  0  0  0  0  0  0  0  0
    3.3687    0.1169   -0.3651 H   0  0  0  0  0  0  0  0  0  0  0  0
    1.7638   -0.7784    0.7631 C   0  0  1  0  0  0  0  0  0  0  0  0
    2.1294   -0.3747    1.7073 H   0  0  0  0  0  0  0  0  0  0  0  0
    0.2321   -0.7586    0.7563 C   0  0  1  0  0  0  0  0  0  0  0  0
   -0.2521    0.6909    0.8469 C   0  0  0  0  0  0  0  0  0  0  0  0
    0.2887    1.4417   -0.2422 O   0  0  0  0  0  0  0  0  0  0  0  0
   -0.2815   -1.3891   -0.5397 C   0  0  0  0  0  0  0  0  0  0  0  0
   -0.2601   -1.4974    1.8760 O   0  0  0  0  0  0  0  0  0  0  0  0
    2.2398   -2.1587    0.6017 N   0  3  0  0  0  0  0  0  0  0  0  0
    3.7038   -2.1886    0.7188 C   0  0  0  0  0  0  0  0  0  0  0  0
    1.8554   -0.4857   -1.6371 O   0  0  0  0  0  0  0  0  0  0  0  0
    4.4706    3.8089   -0.7384 N   0  3  0  0  0  0  0  0  0  0  0  0
    2.7770    4.4198   -5.2928 N   0  3  0  0  0  0  0  0  0  0  0  0
    2.4675    0.3572   -4.9337 N   0  3  0  0  0  0  0  0  0  0  0  0
   -3.2506    1.8933   -5.7415 N   0  3  0  0  0  0  0  0  0  0  0  0
   -4.6821    2.1703   -5.9202 C   0  0  0  0  0  0  0  0  0  0  0  0
   -2.7038    4.0836   -3.2114 H   0  0  0  0  0  0  0  0  0  0  0  0
   -2.3007    4.2945   -4.9323 H   0  0  0  0  0  0  0  0  0  0  0  0
   -3.9981    4.0997   -4.4332 H   0  0  0  0  0  0  0  0  0  0  0  0
   -1.8696   -0.1306   -3.4993 H   0  0  0  0  0  0  0  0  0  0  0  0
   -1.6159    0.0291   -5.2549 H   0  0  0  0  0  0  0  0  0  0  0  0
    0.5366    0.2152   -3.0959 H   0  0  0  0  0  0  0  0  0  0  0  0
    0.3034   -1.1328   -4.2372 H   0  0  0  0  0  0  0  0  0  0  0  0
    3.7207    3.0230   -3.1981 H   0  0  0  0  0  0  0  0  0  0  0  0
    4.5912    4.5713   -3.3141 H   0  0  0  0  0  0  0  0  0  0  0  0
   -0.5937    3.8527   -0.7099 H   0  0  0  0  0  0  0  0  0  0  0  0
   -1.3408    0.7142    0.7994 H   0  0  0  0  0  0  0  0  0  0  0  0
    0.0802    1.1269    1.7891 H   0  0  0  0  0  0  0  0  0  0  0  0
    0.1676   -2.3740   -0.6675 H   0  0  0  0  0  0  0  0  0  0  0  0
   -1.3660   -1.4879   -0.4907 H   0  0  0  0  0  0  0  0  0  0  0  0
   -0.0123   -0.7546   -1.3841 H   0  0  0  0  0  0  0  0  0  0  0  0
   -1.2248   -1.5266    1.9346 H   0  0  0  0  0  0  0  0  0  0  0  0
    1.8331   -2.7408    1.3185 H   0  0  0  0  0  0  0  0  0  0  0  0
    4.0571   -3.2128    0.5990 H   0  0  0  0  0  0  0  0  0  0  0  0
    4.1432   -1.5598   -0.0556 H   0  0  0  0  0  0  0  0  0  0  0  0
    3.9975   -1.8155    1.6999 H   0  0  0  0  0  0  0  0  0  0  0  0
    2.2299   -0.0515   -2.4157 H   0  0  0  0  0  0  0  0  0  0  0  0
    5.3399    4.2474   -1.0029 H   0  0  0  0  0  0  0  0  0  0  0  0
    4.2889    3.9842    0.2385 H   0  0  0  0  0  0  0  0  0  0  0  0
    1.9722    4.6898   -5.8383 H   0  0  0  0  0  0  0  0  0  0  0  0
    3.5787    4.9570   -5.5876 H   0  0  0  0  0  0  0  0  0  0  0  0
    2.5904   -0.6442   -4.9461 H   0  0  0  0  0  0  0  0  0  0  0  0
    3.0167    0.7727   -5.6711 H   0  0  0  0  0  0  0  0  0  0  0  0
   -2.7189    2.4212   -6.4173 H   0  0  0  0  0  0  0  0  0  0  0  0
   -5.2565    1.6001   -5.1901 H   0  0  0  0  0  0  0  0  0  0  0  0
   -4.8669    3.2349   -5.7765 H   0  0  0  0  0  0  0  0  0  0  0  0
   -4.9852    1.8816   -6.9266 H   0  0  0  0  0  0  0  0  0  0  0  0
   -3.0796    0.9078   -5.8745 H   0  0  0  0  0  0  0  0  0  0  0  0
    4.5341    2.8142   -0.8955 H   0  0  0  0  0  0  0  0  0  0  0  0
    2.7696    0.7221   -4.0428 H   0  0  0  0  0  0  0  0  0  0  0  0
    1.9680   -2.5042   -0.3065 H   0  0  0  0  0  0  0  0  0  0  0  0
    2.9618    3.4374   -5.4296 H   0  0  0  0  0  0  0  0  0  0  0  0
  1  2  1  0  0  0  0
  1 46  1  0  0  0  0
  1 47  1  0  0  0  0
  1 48  1  0  0  0  0
  2  3  1  1  0  0  0
  2  4  1  0  0  0  0
  2 44  1  0  0  0  0
  4  5  1  1  0  0  0
  4 12  1  0  0  0  0
  4  6  1  0  0  0  0
  6  7  1  0  0  0  0
  6 49  1  0  0  0  0
  6 50  1  0  0  0  0
  7  8  1  0  0  0  0
  7 51  1  0  0  0  0
  7 52  1  0  0  0  0
  8  9  1  6  0  0  0
  8 10  1  0  0  0  0
  8 43  1  0  0  0  0
 10 11  1  6  0  0  0
 10 12  1  0  0  0  0
 10 13  1  0  0  0  0
 13 14  1  0  0  0  0
 14 15  1  6  0  0  0
 14 23  1  0  0  0  0
 14 16  1  0  0  0  0
 16 17  1  1  0  0  0
 16 18  1  0  0  0  0
 16 42  1  0  0  0  0
 18 19  1  0  0  0  0
 18 53  1  0  0  0  0
 18 54  1  0  0  0  0
 19 20  1  1  0  0  0
 19 21  1  0  0  0  0
 19 41  1  0  0  0  0
 21 22  1  1  0  0  0
 21 23  1  0  0  0  0
 21 26  1  0  0  0  0
 23 24  1  1  0  0  0
 23 25  1  0  0  0  0
 25 55  1  0  0  0  0
 26 27  1  0  0  0  0
 27 28  1  1  0  0  0
 27 35  1  0  0  0  0
 27 29  1  0  0  0  0
 29 30  1  1  0  0  0
 29 31  1  0  0  0  0
 29 40  1  0  0  0  0
 31 32  1  1  0  0  0
 31 33  1  0  0  0  0
 31 38  1  0  0  0  0
 33 34  1  0  0  0  0
 33 36  1  0  0  0  0
 33 37  1  1  0  0  0
 34 35  1  0  0  0  0
 34 56  1  0  0  0  0
 34 57  1  0  0  0  0
 36 58  1  0  0  0  0
 36 59  1  0  0  0  0
 36 60  1  0  0  0  0
 37 61  1  0  0  0  0
 38 39  1  0  0  0  0
 38 62  1  0  0  0  0
 38 80  1  0  0  0  0
 39 63  1  0  0  0  0
 39 64  1  0  0  0  0
 39 65  1  0  0  0  0
 40 66  1  0  0  0  0
 41 67  1  0  0  0  0
 41 68  1  0  0  0  0
 41 78  1  0  0  0  0
 42 69  1  0  0  0  0
 42 70  1  0  0  0  0
 42 81  1  0  0  0  0
 43 71  1  0  0  0  0
 43 72  1  0  0  0  0
 43 79  1  0  0  0  0
 44 45  1  0  0  0  0
 44 73  1  0  0  0  0
 44 77  1  0  0  0  0
 45 74  1  0  0  0  0
 45 75  1  0  0  0  0
 45 76  1  0  0  0  0
M  CHG  5  38   1  41   1  42   1  43   1  44   1
M  END
$$$$
