ZINC03798750
 OpenBabel08292219463D

 20 19  0  0  1  0  0  0  0  0999 V2000
   -0.0157    1.3058    0.0092 C   0  0  0  0  0  0  0  0  0  0  0  0
    0.0021   -0.0041    0.0020 C   0  0  0  0  0  0  0  0  0  0  0  0
   -1.2926   -0.7753    0.0102 C   0  0  2  0  0  0  0  0  0  0  0  0
   -1.3737   -1.3393    0.9394 H   0  0  0  0  0  0  0  0  0  0  0  0
   -1.3187   -1.7407   -1.1764 C   0  0  0  0  0  0  0  0  0  0  0  0
   -2.5748   -2.6108   -1.0985 C   0  0  0  0  0  0  0  0  0  0  0  0
   -2.6005   -3.5617   -2.2673 C   0  0  0  0  0  0  0  0  0  0  0  0
   -1.6978   -3.5451   -3.0866 O   0  0  0  0  0  0  0  0  0  0  0  0
   -3.5240   -4.3477   -2.3935 O   0  0  0  0  0  1  0  0  0  0  0  0
   -2.4204    0.1602   -0.0947 N   0  3  0  0  0  0  0  0  0  0  0  0
    0.9122    1.8585    0.0033 H   0  0  0  0  0  0  0  0  0  0  0  0
   -0.9582    1.8330    0.0166 H   0  0  0  0  0  0  0  0  0  0  0  0
    0.9446   -0.5313   -0.0098 H   0  0  0  0  0  0  0  0  0  0  0  0
   -1.3272   -1.1728   -2.1067 H   0  0  0  0  0  0  0  0  0  0  0  0
   -0.4339   -2.3766   -1.1470 H   0  0  0  0  0  0  0  0  0  0  0  0
   -2.5663   -3.1787   -0.1681 H   0  0  0  0  0  0  0  0  0  0  0  0
   -3.4596   -1.9749   -1.1279 H   0  0  0  0  0  0  0  0  0  0  0  0
   -3.2873   -0.3562   -0.0892 H   0  0  0  0  0  0  0  0  0  0  0  0
   -2.4032    0.7969    0.6879 H   0  0  0  0  0  0  0  0  0  0  0  0
   -2.3454    0.6823   -0.9548 H   0  0  0  0  0  0  0  0  0  0  0  0
  1  2  2  0  0  0  0
  1 11  1  0  0  0  0
  1 12  1  0  0  0  0
  2  3  1  0  0  0  0
  2 13  1  0  0  0  0
  3  4  1  1  0  0  0
  3  5  1  0  0  0  0
  3 10  1  0  0  0  0
  5  6  1  0  0  0  0
  5 14  1  0  0  0  0
  5 15  1  0  0  0  0
  6  7  1  0  0  0  0
  6 16  1  0  0  0  0
  6 17  1  0  0  0  0
  7  8  2  0  0  0  0
  7  9  1  0  0  0  0
 10 18  1  0  0  0  0
 10 19  1  0  0  0  0
 10 20  1  0  0  0  0
M  CHG  1  10   1
M  END
$$$$
