ZINC03938684
 OpenBabel08292219463D

 74 80  0  0  1  0  0  0  0  0999 V2000
   -0.3704   -8.8482   -1.8306 C   0  0  0  0  0  0  0  0  0  0  0  0
    0.3922   -7.5499   -1.5590 C   0  0  2  0  0  0  0  0  0  0  0  0
    1.4619   -7.7299   -1.6659 H   0  0  0  0  0  0  0  0  0  0  0  0
    0.1191   -7.1099   -0.2278 O   0  0  0  0  0  0  0  0  0  0  0  0
    0.7378   -5.8656    0.1226 C   0  0  0  0  0  0  0  0  0  0  0  0
    0.2806   -4.8029   -0.8776 C   0  0  2  0  0  0  0  0  0  0  0  0
   -0.7967   -4.6630   -0.7890 H   0  0  0  0  0  0  0  0  0  0  0  0
    0.6176   -5.2913   -2.2923 C   0  0  1  0  0  0  0  0  0  0  0  0
    1.6970   -5.4079   -2.3891 H   0  0  0  0  0  0  0  0  0  0  0  0
   -0.0179   -6.5523   -2.5009 O   0  0  0  0  0  0  0  0  0  0  0  0
    0.1250   -4.2510   -3.2983 C   0  0  1  0  0  0  0  0  0  0  0  0
   -0.9570   -4.1468   -3.2174 H   0  0  0  0  0  0  0  0  0  0  0  0
    0.8025   -2.9129   -2.9813 C   0  0  2  0  0  0  0  0  0  0  0  0
    1.8791   -3.0074   -3.1229 H   0  0  0  0  0  0  0  0  0  0  0  0
    0.5125   -2.5188   -1.5319 C   0  0  1  0  0  0  0  0  0  0  0  0
   -0.5584   -2.3573   -1.4083 H   0  0  0  0  0  0  0  0  0  0  0  0
    0.9410   -3.5602   -0.6484 O   0  0  0  0  0  0  0  0  0  0  0  0
    1.2130   -1.3132   -1.2190 O   0  0  0  0  0  0  0  0  0  0  0  0
    0.9189   -0.7900    0.0778 C   0  0  2  0  0  0  0  0  0  0  0  0
    0.6832   -1.6066    0.7603 H   0  0  0  0  0  0  0  0  0  0  0  0
   -0.2590    0.1647   -0.0079 C   0  0  0  0  0  0  0  0  0  0  0  0
   -1.5242   -0.4245   -0.0546 C   0  0  0  0  0  0  0  0  0  0  0  0
   -2.6275    0.4094   -0.1135 C   0  0  0  0  0  0  0  0  0  0  0  0
   -2.4750    1.8046   -0.1292 C   0  0  0  0  0  0  0  0  0  0  0  0
   -1.2172    2.3814   -0.0934 C   0  0  0  0  0  0  0  0  0  0  0  0
   -0.1090    1.5341   -0.0312 C   0  0  0  0  0  0  0  0  0  0  0  0
    1.2493    2.2128    0.0020 C   0  0  2  0  0  0  0  0  0  0  0  0
    1.2652    3.0401   -0.7074 H   0  0  0  0  0  0  0  0  0  0  0  0
    2.2947    1.1873   -0.3840 C   0  0  2  0  0  0  0  0  0  0  0  0
    2.1570    0.8589   -1.4142 H   0  0  0  0  0  0  0  0  0  0  0  0
    2.1111   -0.0110    0.6012 C   0  0  2  0  0  0  0  0  0  0  0  0
    1.9649    0.3082    1.6331 H   0  0  0  0  0  0  0  0  0  0  0  0
    3.4765   -0.6851    0.3962 C   0  0  0  0  0  0  0  0  0  0  0  0
    4.3926    0.4573    0.2686 O   0  0  0  0  0  0  0  0  0  0  0  0
    3.7271    1.5623   -0.1421 C   0  0  0  0  0  0  0  0  0  0  0  0
    4.2049    2.6623   -0.2887 O   0  0  0  0  0  0  0  0  0  0  0  0
    1.5283    2.7263    1.3911 C   0  0  0  0  0  0  0  0  0  0  0  0
    1.0365    2.0459    2.4892 C   0  0  0  0  0  0  0  0  0  0  0  0
    1.2958    2.5120    3.7692 C   0  0  0  0  0  0  0  0  0  0  0  0
    2.0412    3.6715    3.9467 C   0  0  0  0  0  0  0  0  0  0  0  0
    2.5291    4.3558    2.8398 C   0  0  0  0  0  0  0  0  0  0  0  0
    2.2705    3.8797    1.5634 C   0  0  0  0  0  0  0  0  0  0  0  0
    3.2586    5.4911    3.0083 O   0  0  0  0  0  0  0  0  0  0  0  0
    3.7275    6.1424    1.8259 C   0  0  0  0  0  0  0  0  0  0  0  0
    2.2924    4.1357    5.2011 O   0  0  0  0  0  0  0  0  0  0  0  0
    0.8162    1.8388    4.8492 O   0  0  0  0  0  0  0  0  0  0  0  0
    0.0582    0.6551    4.5916 C   0  0  0  0  0  0  0  0  0  0  0  0
   -3.6995    2.3760   -0.1838 O   0  0  0  0  0  0  0  0  0  0  0  0
   -4.6276    1.3371    0.1920 C   0  0  0  0  0  0  0  0  0  0  0  0
   -3.9466    0.1149   -0.1612 O   0  0  0  0  0  0  0  0  0  0  0  0
    0.2950   -1.9056   -3.8586 O   0  0  0  0  0  0  0  0  0  0  0  0
    0.4701   -4.6624   -4.6226 O   0  0  0  0  0  0  0  0  0  0  0  0
   -0.1542   -9.1916   -2.8423 H   0  0  0  0  0  0  0  0  0  0  0  0
   -0.0594   -9.6088   -1.1145 H   0  0  0  0  0  0  0  0  0  0  0  0
   -1.4407   -8.6690   -1.7287 H   0  0  0  0  0  0  0  0  0  0  0  0
    1.8220   -5.9692    0.0787 H   0  0  0  0  0  0  0  0  0  0  0  0
    0.4364   -5.5762    1.1294 H   0  0  0  0  0  0  0  0  0  0  0  0
   -1.6384   -1.4984   -0.0453 H   0  0  0  0  0  0  0  0  0  0  0  0
   -1.0969    3.4546   -0.1067 H   0  0  0  0  0  0  0  0  0  0  0  0
    3.7389   -1.2951    1.2606 H   0  0  0  0  0  0  0  0  0  0  0  0
    3.4779   -1.2841   -0.5145 H   0  0  0  0  0  0  0  0  0  0  0  0
    0.4533    1.1476    2.3502 H   0  0  0  0  0  0  0  0  0  0  0  0
    2.6493    4.4109    0.7027 H   0  0  0  0  0  0  0  0  0  0  0  0
    4.3695    5.4619    1.2666 H   0  0  0  0  0  0  0  0  0  0  0  0
    2.8769    6.4298    1.2079 H   0  0  0  0  0  0  0  0  0  0  0  0
    4.2936    7.0321    2.1014 H   0  0  0  0  0  0  0  0  0  0  0  0
    1.6242    4.7503    5.5342 H   0  0  0  0  0  0  0  0  0  0  0  0
   -0.2635    0.2169    5.5364 H   0  0  0  0  0  0  0  0  0  0  0  0
   -0.8162    0.9070    3.9915 H   0  0  0  0  0  0  0  0  0  0  0  0
    0.6761   -0.0615    4.0505 H   0  0  0  0  0  0  0  0  0  0  0  0
   -4.8234    1.3692    1.2638 H   0  0  0  0  0  0  0  0  0  0  0  0
   -5.5565    1.4330   -0.3701 H   0  0  0  0  0  0  0  0  0  0  0  0
    0.6812   -1.0303   -3.7178 H   0  0  0  0  0  0  0  0  0  0  0  0
    0.1867   -4.0466   -5.3121 H   0  0  0  0  0  0  0  0  0  0  0  0
  1  2  1  0  0  0  0
  1 53  1  0  0  0  0
  1 54  1  0  0  0  0
  1 55  1  0  0  0  0
  2  3  1  6  0  0  0
  2 10  1  0  0  0  0
  2  4  1  0  0  0  0
  4  5  1  0  0  0  0
  5  6  1  0  0  0  0
  5 56  1  0  0  0  0
  5 57  1  0  0  0  0
  6  7  1  1  0  0  0
  6 17  1  0  0  0  0
  6  8  1  0  0  0  0
  8  9  1  6  0  0  0
  8 10  1  0  0  0  0
  8 11  1  0  0  0  0
 11 12  1  1  0  0  0
 11 13  1  0  0  0  0
 11 52  1  0  0  0  0
 13 14  1  6  0  0  0
 13 15  1  0  0  0  0
 13 51  1  0  0  0  0
 15 16  1  1  0  0  0
 15 17  1  0  0  0  0
 15 18  1  0  0  0  0
 18 19  1  0  0  0  0
 19 20  1  1  0  0  0
 19 31  1  0  0  0  0
 19 21  1  0  0  0  0
 21 26  2  0  0  0  0
 21 22  1  0  0  0  0
 22 23  2  0  0  0  0
 22 58  1  0  0  0  0
 23 50  1  0  0  0  0
 23 24  1  0  0  0  0
 24 25  2  0  0  0  0
 24 48  1  0  0  0  0
 25 26  1  0  0  0  0
 25 59  1  0  0  0  0
 26 27  1  0  0  0  0
 27 28  1  6  0  0  0
 27 29  1  0  0  0  0
 27 37  1  0  0  0  0
 29 30  1  6  0  0  0
 29 35  1  0  0  0  0
 29 31  1  0  0  0  0
 31 32  1  1  0  0  0
 31 33  1  0  0  0  0
 33 34  1  0  0  0  0
 33 60  1  0  0  0  0
 33 61  1  0  0  0  0
 34 35  1  0  0  0  0
 35 36  2  0  0  0  0
 37 42  2  0  0  0  0
 37 38  1  0  0  0  0
 38 39  2  0  0  0  0
 38 62  1  0  0  0  0
 39 40  1  0  0  0  0
 39 46  1  0  0  0  0
 40 41  2  0  0  0  0
 40 45  1  0  0  0  0
 41 42  1  0  0  0  0
 41 43  1  0  0  0  0
 42 63  1  0  0  0  0
 43 44  1  0  0  0  0
 44 64  1  0  0  0  0
 44 65  1  0  0  0  0
 44 66  1  0  0  0  0
 45 67  1  0  0  0  0
 46 47  1  0  0  0  0
 47 68  1  0  0  0  0
 47 69  1  0  0  0  0
 47 70  1  0  0  0  0
 48 49  1  0  0  0  0
 49 50  1  0  0  0  0
 49 71  1  0  0  0  0
 49 72  1  0  0  0  0
 51 73  1  0  0  0  0
 52 74  1  0  0  0  0
M  END
$$$$
