ZINC00113382
 OpenBabel08292219463D

 32 32  0  0  1  0  0  0  0  0999 V2000
    1.8519   -0.1403   -1.7478 C   0  0  0  0  0  0  0  0  0  0  0  0
    2.5289   -0.5311   -2.8879 C   0  0  0  0  0  0  0  0  0  0  0  0
    3.3903    0.3488   -3.5160 C   0  0  0  0  0  0  0  0  0  0  0  0
    3.5708    1.6212   -3.0070 C   0  0  0  0  0  0  0  0  0  0  0  0
    2.8899    2.0138   -1.8699 C   0  0  0  0  0  0  0  0  0  0  0  0
    2.0284    1.1339   -1.2418 C   0  0  0  0  0  0  0  0  0  0  0  0
    1.2864    1.5618   -0.0018 C   0  0  2  0  0  0  0  0  0  0  0  0
    1.1856    2.6471    0.0050 H   0  0  0  0  0  0  0  0  0  0  0  0
    2.0636    1.1140    1.2377 C   0  0  1  0  0  0  0  0  0  0  0  0
    3.0180    1.6389    1.2773 H   0  0  0  0  0  0  0  0  0  0  0  0
    1.2513    1.4372    2.4933 C   0  0  0  0  0  0  0  0  0  0  0  0
   -0.0445    0.8440    2.3882 O   0  0  0  0  0  0  0  0  0  0  0  0
    2.3027   -0.3297    1.1689 N   0  0  0  0  0  0  0  0  0  0  0  0
    3.3465   -0.8720    1.8269 C   0  0  0  0  0  0  0  0  0  0  0  0
    4.0878   -0.1647    2.4759 O   0  0  0  0  0  0  0  0  0  0  0  0
    3.5925   -2.3571    1.7562 C   0  0  0  0  0  0  0  0  0  0  0  0
    4.9598   -2.7924    2.8479 Cl  0  0  0  0  0  0  0  0  0  0  0  0
    2.1066   -3.2377    2.2736 Cl  0  0  0  0  0  0  0  0  0  0  0  0
   -0.0110    0.9628    0.0073 O   0  0  0  0  0  0  0  0  0  0  0  0
    4.1199   -0.0718   -4.7333 N   0  0  0  0  0  4  0  0  0  0  0  0
    4.8792    0.7034   -5.2865 O   0  0  0  0  0  0  0  0  0  0  0  0
    3.9608   -1.1930   -5.1818 O   0  5  0  0  0  0  0  0  0  0  0  0
    1.1822   -0.8292   -1.2545 H   0  0  0  0  0  0  0  0  0  0  0  0
    2.3881   -1.5254   -3.2854 H   0  0  0  0  0  0  0  0  0  0  0  0
    4.2441    2.3086   -3.4975 H   0  0  0  0  0  0  0  0  0  0  0  0
    3.0312    3.0079   -1.4720 H   0  0  0  0  0  0  0  0  0  0  0  0
    1.7631    1.0392    3.3695 H   0  0  0  0  0  0  0  0  0  0  0  0
    1.1492    2.5179    2.5918 H   0  0  0  0  0  0  0  0  0  0  0  0
   -0.6154    1.0083    3.1512 H   0  0  0  0  0  0  0  0  0  0  0  0
    1.7098   -0.8954    0.6499 H   0  0  0  0  0  0  0  0  0  0  0  0
    3.8420   -2.6357    0.7324 H   0  0  0  0  0  0  0  0  0  0  0  0
    0.0021   -0.0041    0.0020 H   0  0  0  0  0  0  0  0  0  0  0  0
  1  6  2  0  0  0  0
  1  2  1  0  0  0  0
  1 23  1  0  0  0  0
  2  3  2  0  0  0  0
  2 24  1  0  0  0  0
  3  4  1  0  0  0  0
  3 20  1  0  0  0  0
  4  5  2  0  0  0  0
  4 25  1  0  0  0  0
  5  6  1  0  0  0  0
  5 26  1  0  0  0  0
  6  7  1  0  0  0  0
  7  8  1  1  0  0  0
  7  9  1  0  0  0  0
  7 19  1  0  0  0  0
  9 10  1  1  0  0  0
  9 11  1  0  0  0  0
  9 13  1  0  0  0  0
 11 12  1  0  0  0  0
 11 27  1  0  0  0  0
 11 28  1  0  0  0  0
 12 29  1  0  0  0  0
 13 14  1  0  0  0  0
 13 30  1  0  0  0  0
 14 15  2  0  0  0  0
 14 16  1  0  0  0  0
 16 17  1  0  0  0  0
 16 18  1  0  0  0  0
 16 31  1  0  0  0  0
 19 32  1  0  0  0  0
 20 21  2  0  0  0  0
 20 22  1  0  0  0  0
M  CHG  1  22  -1
M  END
$$$$
