ZINC01530567
 OpenBabel08292219463D

 52 53  0  0  1  0  0  0  0  0999 V2000
   -0.0187    1.5258    0.0104 C   0  0  0  0  0  0  0  0  0  0  0  0
    0.0021   -0.0041    0.0020 C   0  0  0  0  0  0  0  0  0  0  0  0
   -1.4333   -0.5336    0.0129 C   0  0  0  0  0  0  0  0  0  0  0  0
    0.6897   -0.4778   -1.2066 N   0  3  0  0  0  0  0  0  0  0  0  0
    2.1002   -0.0703   -1.1590 C   0  0  0  0  0  0  0  0  0  0  0  0
    2.8163   -0.5637   -2.4178 C   0  0  1  0  0  0  0  0  0  0  0  0
    2.3425   -0.1306   -3.2988 H   0  0  0  0  0  0  0  0  0  0  0  0
    4.2854   -0.1392   -2.3683 C   0  0  0  0  0  0  0  0  0  0  0  0
    4.9264   -0.4976   -3.5942 O   0  0  0  0  0  0  0  0  0  0  0  0
    6.2443   -0.1886   -3.7147 C   0  0  0  0  0  0  0  0  0  0  0  0
    6.9084    0.4412   -2.6721 C   0  0  0  0  0  0  0  0  0  0  0  0
    8.2483    0.7538   -2.7968 C   0  0  0  0  0  0  0  0  0  0  0  0
    8.9272    0.4399   -3.9596 C   0  0  0  0  0  0  0  0  0  0  0  0
    8.2675   -0.1874   -5.0003 C   0  0  0  0  0  0  0  0  0  0  0  0
    6.9293   -0.5077   -4.8782 C   0  0  0  0  0  0  0  0  0  0  0  0
   10.3887    0.7824   -4.0932 C   0  0  0  0  0  0  0  0  0  0  0  0
   11.2350   -0.3869   -3.5860 C   0  0  0  0  0  0  0  0  0  0  0  0
   12.6209   -0.0621   -3.7126 O   0  0  0  0  0  0  0  0  0  0  0  0
   13.5029   -1.0932   -3.2643 C   0  0  0  0  0  0  0  0  0  0  0  0
   14.9525   -0.6388   -3.4457 C   0  0  0  0  0  0  0  0  0  0  0  0
   15.8245   -1.4315   -4.4215 C   0  0  0  0  0  0  0  0  0  0  0  0
   16.0531   -1.5591   -2.9141 C   0  0  0  0  0  0  0  0  0  0  0  0
    2.7343   -1.9888   -2.4849 O   0  0  0  0  0  0  0  0  0  0  0  0
    1.0039    1.9031    0.0027 H   0  0  0  0  0  0  0  0  0  0  0  0
   -0.5459    1.8868   -0.8726 H   0  0  0  0  0  0  0  0  0  0  0  0
   -0.5289    1.8773    0.9072 H   0  0  0  0  0  0  0  0  0  0  0  0
    0.5293   -0.3651    0.8851 H   0  0  0  0  0  0  0  0  0  0  0  0
   -1.9605   -0.1726   -0.8702 H   0  0  0  0  0  0  0  0  0  0  0  0
   -1.4185   -1.6235    0.0069 H   0  0  0  0  0  0  0  0  0  0  0  0
   -1.9435   -0.1821    0.9097 H   0  0  0  0  0  0  0  0  0  0  0  0
    0.6317   -1.4840   -1.2540 H   0  0  0  0  0  0  0  0  0  0  0  0
    2.1628    1.0167   -1.1079 H   0  0  0  0  0  0  0  0  0  0  0  0
    2.5740   -0.5034   -0.2781 H   0  0  0  0  0  0  0  0  0  0  0  0
    4.3473    0.9399   -2.2279 H   0  0  0  0  0  0  0  0  0  0  0  0
    4.7813   -0.6427   -1.5384 H   0  0  0  0  0  0  0  0  0  0  0  0
    6.3783    0.6872   -1.7639 H   0  0  0  0  0  0  0  0  0  0  0  0
    8.7657    1.2440   -1.9855 H   0  0  0  0  0  0  0  0  0  0  0  0
    8.8000   -0.4313   -5.9077 H   0  0  0  0  0  0  0  0  0  0  0  0
    6.4155   -1.0016   -5.6896 H   0  0  0  0  0  0  0  0  0  0  0  0
   10.6230    0.9731   -5.1405 H   0  0  0  0  0  0  0  0  0  0  0  0
   10.6086    1.6726   -3.5038 H   0  0  0  0  0  0  0  0  0  0  0  0
   11.0008   -0.5776   -2.5387 H   0  0  0  0  0  0  0  0  0  0  0  0
   11.0152   -1.2771   -4.1754 H   0  0  0  0  0  0  0  0  0  0  0  0
   13.3157   -1.2985   -2.2103 H   0  0  0  0  0  0  0  0  0  0  0  0
   13.3300   -1.9980   -3.8470 H   0  0  0  0  0  0  0  0  0  0  0  0
   15.1200    0.4362   -3.3798 H   0  0  0  0  0  0  0  0  0  0  0  0
   15.3653   -2.2768   -4.9342 H   0  0  0  0  0  0  0  0  0  0  0  0
   16.5657   -0.8780   -4.9979 H   0  0  0  0  0  0  0  0  0  0  0  0
   16.9448   -1.0896   -2.4987 H   0  0  0  0  0  0  0  0  0  0  0  0
   15.7444   -2.4883   -2.4351 H   0  0  0  0  0  0  0  0  0  0  0  0
    3.1369   -2.4418   -1.7314 H   0  0  0  0  0  0  0  0  0  0  0  0
    0.2511   -0.0769   -2.0221 H   0  0  0  0  0  0  0  0  0  0  0  0
  1  2  1  0  0  0  0
  1 24  1  0  0  0  0
  1 25  1  0  0  0  0
  1 26  1  0  0  0  0
  2  3  1  0  0  0  0
  2  4  1  0  0  0  0
  2 27  1  0  0  0  0
  3 28  1  0  0  0  0
  3 29  1  0  0  0  0
  3 30  1  0  0  0  0
  4  5  1  0  0  0  0
  4 31  1  0  0  0  0
  4 52  1  0  0  0  0
  5  6  1  0  0  0  0
  5 32  1  0  0  0  0
  5 33  1  0  0  0  0
  6  7  1  6  0  0  0
  6  8  1  0  0  0  0
  6 23  1  0  0  0  0
  8  9  1  0  0  0  0
  8 34  1  0  0  0  0
  8 35  1  0  0  0  0
  9 10  1  0  0  0  0
 10 15  2  0  0  0  0
 10 11  1  0  0  0  0
 11 12  2  0  0  0  0
 11 36  1  0  0  0  0
 12 13  1  0  0  0  0
 12 37  1  0  0  0  0
 13 14  2  0  0  0  0
 13 16  1  0  0  0  0
 14 15  1  0  0  0  0
 14 38  1  0  0  0  0
 15 39  1  0  0  0  0
 16 17  1  0  0  0  0
 16 40  1  0  0  0  0
 16 41  1  0  0  0  0
 17 18  1  0  0  0  0
 17 42  1  0  0  0  0
 17 43  1  0  0  0  0
 18 19  1  0  0  0  0
 19 20  1  0  0  0  0
 19 44  1  0  0  0  0
 19 45  1  0  0  0  0
 20 22  1  0  0  0  0
 20 21  1  0  0  0  0
 20 46  1  0  0  0  0
 21 22  1  0  0  0  0
 21 47  1  0  0  0  0
 21 48  1  0  0  0  0
 22 49  1  0  0  0  0
 22 50  1  0  0  0  0
 23 51  1  0  0  0  0
M  CHG  1   4   1
M  END
$$$$
