ZINC03813042
 OpenBabel08292219463D

 19 19  0  0  0  0  0  0  0  0999 V2000
   -0.0184    1.5028    0.0103 C   0  0  0  0  0  0  0  0  0  0  0  0
    0.0021   -0.0041    0.0020 C   0  0  0  0  0  0  0  0  0  0  0  0
    1.0605   -0.5961   -0.0113 O   0  0  0  0  0  0  0  0  0  0  0  0
   -1.1558   -0.6938    0.0094 N   0  0  0  0  0  0  0  0  0  0  0  0
   -1.1370   -2.0844    0.0017 C   0  0  0  0  0  0  0  0  0  0  0  0
   -0.1026   -2.9019   -0.0067 N   0  0  0  0  0  0  0  0  0  0  0  0
   -0.2439   -4.1575   -0.0130 N   0  0  0  0  0  0  0  0  0  0  0  0
   -1.4599   -4.6659   -0.0111 C   0  0  0  0  0  0  0  0  0  0  0  0
   -2.4308   -3.1653    0.0083 S   0  0  0  0  0  0  0  0  0  0  0  0
   -1.9811   -6.3490   -0.0183 S   0  0  0  0  0  0  0  0  0  0  0  0
   -1.9574   -6.7873    1.3333 O   0  0  0  0  0  0  0  0  0  0  0  0
   -3.1545   -6.4075   -0.8177 O   0  0  0  0  0  0  0  0  0  0  0  0
   -0.8199   -7.2178   -0.8179 N   0  0  0  0  0  0  0  0  0  0  0  0
    1.0042    1.8801    0.0026 H   0  0  0  0  0  0  0  0  0  0  0  0
   -0.5455    1.8639   -0.8728 H   0  0  0  0  0  0  0  0  0  0  0  0
   -0.5286    1.8543    0.9071 H   0  0  0  0  0  0  0  0  0  0  0  0
   -2.0023   -0.2203    0.0200 H   0  0  0  0  0  0  0  0  0  0  0  0
   -0.6611   -8.1456   -0.5837 H   0  0  0  0  0  0  0  0  0  0  0  0
   -0.2986   -6.7988   -1.5204 H   0  0  0  0  0  0  0  0  0  0  0  0
  1  2  1  0  0  0  0
  1 14  1  0  0  0  0
  1 15  1  0  0  0  0
  1 16  1  0  0  0  0
  2  3  2  0  0  0  0
  2  4  1  0  0  0  0
  4  5  1  0  0  0  0
  4 17  1  0  0  0  0
  5  9  1  0  0  0  0
  5  6  2  0  0  0  0
  6  7  1  0  0  0  0
  7  8  2  0  0  0  0
  8  9  1  0  0  0  0
  8 10  1  0  0  0  0
 10 11  2  0  0  0  0
 10 12  2  0  0  0  0
 10 13  1  0  0  0  0
 13 18  1  0  0  0  0
 13 19  1  0  0  0  0
M  END
$$$$
