ZINC19632668
 OpenBabel08292219463D

 58 61  0  0  1  0  0  0  0  0999 V2000
    0.5246    0.5799    0.8061 C   0  0  0  0  0  0  0  0  0  0  0  0
    0.1362   -0.8980    0.7305 C   0  0  0  0  0  0  0  0  0  0  0  0
   -1.2963   -1.0125    0.4456 N   0  0  0  0  0  0  0  0  0  0  0  0
   -2.3429   -1.0701    1.4729 C   0  0  0  0  0  0  0  0  0  0  0  0
   -3.6619   -0.7485    0.7360 C   0  0  2  0  0  0  0  0  0  0  0  0
   -4.4869   -1.3365    1.1383 H   0  0  0  0  0  0  0  0  0  0  0  0
   -3.3282   -1.1806   -0.7107 C   0  0  0  0  0  0  0  0  0  0  0  0
   -1.8214   -1.0725   -0.7903 C   0  0  0  0  0  0  0  0  0  0  0  0
   -1.1803   -1.0464   -1.8194 O   0  0  0  0  0  0  0  0  0  0  0  0
   -3.7741   -2.5996   -0.9534 C   0  0  0  0  0  0  0  0  0  0  0  0
   -2.8808   -3.5288   -1.4529 C   0  0  0  0  0  0  0  0  0  0  0  0
   -3.2898   -4.8304   -1.6756 C   0  0  0  0  0  0  0  0  0  0  0  0
   -4.5918   -5.2028   -1.3983 C   0  0  0  0  0  0  0  0  0  0  0  0
   -5.4848   -4.2738   -0.8980 C   0  0  0  0  0  0  0  0  0  0  0  0
   -5.0747   -2.9733   -0.6713 C   0  0  0  0  0  0  0  0  0  0  0  0
   -3.9733   -0.2468   -1.7022 C   0  0  0  0  0  0  0  0  0  0  0  0
   -5.3498   -0.2105   -1.8230 C   0  0  0  0  0  0  0  0  0  0  0  0
   -5.9415    0.6460   -2.7324 C   0  0  0  0  0  0  0  0  0  0  0  0
   -5.1567    1.4666   -3.5207 C   0  0  0  0  0  0  0  0  0  0  0  0
   -3.7801    1.4310   -3.3993 C   0  0  0  0  0  0  0  0  0  0  0  0
   -3.1886    0.5775   -2.4868 C   0  0  0  0  0  0  0  0  0  0  0  0
   -3.9758    0.7475    0.8028 C   0  0  0  0  0  0  0  0  0  0  0  0
   -4.2339    1.1500    2.2562 C   0  0  0  0  0  0  0  0  0  0  0  0
   -4.5353    2.5863    2.3203 N   0  0  0  0  0  0  0  0  0  0  0  0
   -5.8081    2.8880    1.6494 C   0  0  0  0  0  0  0  0  0  0  0  0
   -6.0533    4.3988    1.6875 C   0  0  0  0  0  0  0  0  0  0  0  0
   -6.0383    4.8450    3.0462 O   0  0  0  0  0  0  0  0  0  0  0  0
   -4.8131    4.5677    3.7298 C   0  0  0  0  0  0  0  0  0  0  0  0
   -4.5554    3.0587    3.7124 C   0  0  0  0  0  0  0  0  0  0  0  0
    1.5904    0.6651    1.0180 H   0  0  0  0  0  0  0  0  0  0  0  0
    0.3037    1.0628   -0.1458 H   0  0  0  0  0  0  0  0  0  0  0  0
   -0.0436    1.0647    1.6000 H   0  0  0  0  0  0  0  0  0  0  0  0
    0.7044   -1.3829   -0.0634 H   0  0  0  0  0  0  0  0  0  0  0  0
    0.3571   -1.3809    1.6824 H   0  0  0  0  0  0  0  0  0  0  0  0
   -2.3883   -2.0678    1.9096 H   0  0  0  0  0  0  0  0  0  0  0  0
   -2.1526   -0.3270    2.2473 H   0  0  0  0  0  0  0  0  0  0  0  0
   -1.8636   -3.2379   -1.6696 H   0  0  0  0  0  0  0  0  0  0  0  0
   -2.5921   -5.5563   -2.0665 H   0  0  0  0  0  0  0  0  0  0  0  0
   -4.9115   -6.2195   -1.5729 H   0  0  0  0  0  0  0  0  0  0  0  0
   -6.5022   -4.5646   -0.6817 H   0  0  0  0  0  0  0  0  0  0  0  0
   -5.7713   -2.2483   -0.2769 H   0  0  0  0  0  0  0  0  0  0  0  0
   -5.9631   -0.8517   -1.2071 H   0  0  0  0  0  0  0  0  0  0  0  0
   -7.0170    0.6739   -2.8273 H   0  0  0  0  0  0  0  0  0  0  0  0
   -5.6189    2.1354   -4.2317 H   0  0  0  0  0  0  0  0  0  0  0  0
   -3.1669    2.0719   -4.0154 H   0  0  0  0  0  0  0  0  0  0  0  0
   -2.1133    0.5524   -2.3893 H   0  0  0  0  0  0  0  0  0  0  0  0
   -3.1297    1.3140    0.4137 H   0  0  0  0  0  0  0  0  0  0  0  0
   -4.8615    0.9600    0.2041 H   0  0  0  0  0  0  0  0  0  0  0  0
   -5.0800    0.5835    2.6453 H   0  0  0  0  0  0  0  0  0  0  0  0
   -3.3482    0.9374    2.8549 H   0  0  0  0  0  0  0  0  0  0  0  0
   -5.7618    2.5529    0.6133 H   0  0  0  0  0  0  0  0  0  0  0  0
   -6.6209    2.3744    2.1628 H   0  0  0  0  0  0  0  0  0  0  0  0
   -5.2691    4.9090    1.1283 H   0  0  0  0  0  0  0  0  0  0  0  0
   -7.0228    4.6216    1.2419 H   0  0  0  0  0  0  0  0  0  0  0  0
   -3.9928    5.0829    3.2299 H   0  0  0  0  0  0  0  0  0  0  0  0
   -4.8856    4.9127    4.7612 H   0  0  0  0  0  0  0  0  0  0  0  0
   -5.3482    2.5477    4.2587 H   0  0  0  0  0  0  0  0  0  0  0  0
   -3.5946    2.8481    4.1821 H   0  0  0  0  0  0  0  0  0  0  0  0
  1  2  1  0  0  0  0
  1 30  1  0  0  0  0
  1 31  1  0  0  0  0
  1 32  1  0  0  0  0
  2  3  1  0  0  0  0
  2 33  1  0  0  0  0
  2 34  1  0  0  0  0
  3  8  1  0  0  0  0
  3  4  1  0  0  0  0
  4  5  1  0  0  0  0
  4 35  1  0  0  0  0
  4 36  1  0  0  0  0
  5  6  1  1  0  0  0
  5  7  1  0  0  0  0
  5 22  1  0  0  0  0
  7  8  1  0  0  0  0
  7 10  1  0  0  0  0
  7 16  1  0  0  0  0
  8  9  2  0  0  0  0
 10 15  2  0  0  0  0
 10 11  1  0  0  0  0
 11 12  2  0  0  0  0
 11 37  1  0  0  0  0
 12 13  1  0  0  0  0
 12 38  1  0  0  0  0
 13 14  2  0  0  0  0
 13 39  1  0  0  0  0
 14 15  1  0  0  0  0
 14 40  1  0  0  0  0
 15 41  1  0  0  0  0
 16 21  2  0  0  0  0
 16 17  1  0  0  0  0
 17 18  2  0  0  0  0
 17 42  1  0  0  0  0
 18 19  1  0  0  0  0
 18 43  1  0  0  0  0
 19 20  2  0  0  0  0
 19 44  1  0  0  0  0
 20 21  1  0  0  0  0
 20 45  1  0  0  0  0
 21 46  1  0  0  0  0
 22 23  1  0  0  0  0
 22 47  1  0  0  0  0
 22 48  1  0  0  0  0
 23 24  1  0  0  0  0
 23 49  1  0  0  0  0
 23 50  1  0  0  0  0
 24 29  1  0  0  0  0
 24 25  1  0  0  0  0
 25 26  1  0  0  0  0
 25 51  1  0  0  0  0
 25 52  1  0  0  0  0
 26 27  1  0  0  0  0
 26 53  1  0  0  0  0
 26 54  1  0  0  0  0
 27 28  1  0  0  0  0
 28 29  1  0  0  0  0
 28 55  1  0  0  0  0
 28 56  1  0  0  0  0
 29 57  1  0  0  0  0
 29 58  1  0  0  0  0
M  END
$$$$
