ZINC01530922
 OpenBabel08292219463D

 38 40  0  0  0  0  0  0  0  0999 V2000
    7.1390    1.0468   -0.2826 C   0  0  0  0  0  0  0  0  0  0  0  0
    6.8080    1.3549    1.0236 C   0  0  0  0  0  0  0  0  0  0  0  0
    5.5866    1.9361    1.3085 C   0  0  0  0  0  0  0  0  0  0  0  0
    4.6963    2.2096    0.2870 C   0  0  0  0  0  0  0  0  0  0  0  0
    5.0251    1.8967   -1.0187 C   0  0  0  0  0  0  0  0  0  0  0  0
    6.2484    1.3194   -1.3041 C   0  0  0  0  0  0  0  0  0  0  0  0
    3.3647    2.8432    0.5975 C   0  0  0  0  0  0  0  0  0  0  0  0
    2.6742    2.1140    1.7330 C   0  0  0  0  0  0  0  0  0  0  0  0
    3.0717    1.9881    2.8714 O   0  0  0  0  0  0  0  0  0  0  0  0
    1.5275    1.6333    1.2133 N   0  0  0  0  0  0  0  0  0  0  0  0
    1.3953    1.9603   -0.0773 C   0  0  0  0  0  0  0  0  0  0  0  0
    0.4413    1.6431   -0.7603 O   0  0  0  0  0  0  0  0  0  0  0  0
    2.4362    2.6794   -0.5344 N   0  0  0  0  0  0  0  0  0  0  0  0
    0.5441    0.8542    1.9698 C   0  0  0  0  0  0  0  0  0  0  0  0
    0.6326   -0.5209    1.5911 O   0  0  0  0  0  0  0  0  0  0  0  0
   -0.3039   -1.6669    2.2248 P   0  0  0  0  0  0  0  0  0  0  0  0
   -0.1791   -1.6467    3.6993 O   0  0  0  0  0  0  0  0  0  0  0  0
    3.5389    4.3019    0.9335 C   0  0  0  0  0  0  0  0  0  0  0  0
    4.1533    4.6702    2.1158 C   0  0  0  0  0  0  0  0  0  0  0  0
    4.3171    6.0082    2.4220 C   0  0  0  0  0  0  0  0  0  0  0  0
    3.8582    6.9780    1.5502 C   0  0  0  0  0  0  0  0  0  0  0  0
    3.2391    6.6096    0.3704 C   0  0  0  0  0  0  0  0  0  0  0  0
    3.0792    5.2716    0.0622 C   0  0  0  0  0  0  0  0  0  0  0  0
    8.0936    0.5934   -0.5053 H   0  0  0  0  0  0  0  0  0  0  0  0
    7.5039    1.1419    1.8217 H   0  0  0  0  0  0  0  0  0  0  0  0
    5.3280    2.1768    2.3291 H   0  0  0  0  0  0  0  0  0  0  0  0
    4.3277    2.1062   -1.8163 H   0  0  0  0  0  0  0  0  0  0  0  0
    6.5071    1.0790   -2.3247 H   0  0  0  0  0  0  0  0  0  0  0  0
    2.5525    3.0235   -1.4339 H   0  0  0  0  0  0  0  0  0  0  0  0
   -0.4575    1.2265    1.7548 H   0  0  0  0  0  0  0  0  0  0  0  0
    0.7466    0.9510    3.0364 H   0  0  0  0  0  0  0  0  0  0  0  0
    4.5085    3.9126    2.7986 H   0  0  0  0  0  0  0  0  0  0  0  0
    4.8011    6.2960    3.3435 H   0  0  0  0  0  0  0  0  0  0  0  0
    3.9837    8.0233    1.7907 H   0  0  0  0  0  0  0  0  0  0  0  0
    2.8805    7.3672   -0.3107 H   0  0  0  0  0  0  0  0  0  0  0  0
    2.5955    4.9838   -0.8596 H   0  0  0  0  0  0  0  0  0  0  0  0
   -1.8365   -1.3966    1.8121 O   0  0  0  0  0  1  0  0  0  0  0  0
    0.1563   -3.1054    1.6669 O   0  0  0  0  0  1  0  0  0  0  0  0
  1  6  2  0  0  0  0
  1  2  1  0  0  0  0
  1 24  1  0  0  0  0
  2  3  2  0  0  0  0
  2 25  1  0  0  0  0
  3  4  1  0  0  0  0
  3 26  1  0  0  0  0
  4  5  2  0  0  0  0
  4  7  1  0  0  0  0
  5  6  1  0  0  0  0
  5 27  1  0  0  0  0
  6 28  1  0  0  0  0
  7 13  1  0  0  0  0
  7  8  1  0  0  0  0
  7 18  1  0  0  0  0
  8  9  2  0  0  0  0
  8 10  1  0  0  0  0
 10 11  1  0  0  0  0
 10 14  1  0  0  0  0
 11 12  2  0  0  0  0
 11 13  1  0  0  0  0
 13 29  1  0  0  0  0
 14 15  1  0  0  0  0
 14 30  1  0  0  0  0
 14 31  1  0  0  0  0
 15 16  1  0  0  0  0
 16 17  2  0  0  0  0
 16 37  1  0  0  0  0
 16 38  1  0  0  0  0
 18 23  2  0  0  0  0
 18 19  1  0  0  0  0
 19 20  2  0  0  0  0
 19 32  1  0  0  0  0
 20 21  1  0  0  0  0
 20 33  1  0  0  0  0
 21 22  2  0  0  0  0
 21 34  1  0  0  0  0
 22 23  1  0  0  0  0
 22 35  1  0  0  0  0
 23 36  1  0  0  0  0
M  END
$$$$
