ZINC00073711
 OpenBabel08292219463D

 21 23  0  0  0  0  0  0  0  0999 V2000
   -0.0166    1.3751    0.0096 C   0  0  0  0  0  0  0  0  0  0  0  0
    1.1697    2.0946    0.0021 C   0  0  0  0  0  0  0  0  0  0  0  0
    2.3748    1.4511   -0.0128 C   0  0  0  0  0  0  0  0  0  0  0  0
    2.4185    0.0534   -0.0208 C   0  0  0  0  0  0  0  0  0  0  0  0
    1.2164   -0.6755   -0.0132 C   0  0  0  0  0  0  0  0  0  0  0  0
    0.0021   -0.0041    0.0020 C   0  0  0  0  0  0  0  0  0  0  0  0
    1.5740   -2.0108   -0.0243 N   0  0  0  0  0  0  0  0  0  0  0  0
    0.9688   -2.7688   -0.0230 H   0  0  0  0  0  0  0  0  0  0  0  0
    2.9424   -2.0632   -0.0379 C   0  0  0  0  0  0  0  0  0  0  0  0
    3.4327   -0.8465   -0.0358 N   0  0  0  0  0  0  0  0  0  0  0  0
    3.7450   -3.3026   -0.0523 C   0  0  0  0  0  0  0  0  0  0  0  0
    5.1175   -3.2762   -0.0602 C   0  0  0  0  0  0  0  0  0  0  0  0
    5.4801   -5.0243   -0.0753 S   0  0  0  0  0  0  0  0  0  0  0  0
    3.8969   -5.5940   -0.0701 C   0  0  0  0  0  0  0  0  0  0  0  0
    3.1788   -4.5033   -0.0527 N   0  0  0  0  0  0  0  0  0  0  0  0
   -0.9612    1.8986    0.0260 H   0  0  0  0  0  0  0  0  0  0  0  0
    1.1403    3.1741    0.0079 H   0  0  0  0  0  0  0  0  0  0  0  0
    3.2922    2.0209   -0.0189 H   0  0  0  0  0  0  0  0  0  0  0  0
   -0.9244   -0.5590    0.0083 H   0  0  0  0  0  0  0  0  0  0  0  0
    5.7912   -2.4321   -0.0582 H   0  0  0  0  0  0  0  0  0  0  0  0
    3.5556   -6.6186   -0.0760 H   0  0  0  0  0  0  0  0  0  0  0  0
  1  6  2  0  0  0  0
  1  2  1  0  0  0  0
  1 16  1  0  0  0  0
  2  3  2  0  0  0  0
  2 17  1  0  0  0  0
  3  4  1  0  0  0  0
  3 18  1  0  0  0  0
  4 10  1  0  0  0  0
  4  5  2  0  0  0  0
  5  6  1  0  0  0  0
  5  7  1  0  0  0  0
  6 19  1  0  0  0  0
  7  8  1  0  0  0  0
  7  9  1  0  0  0  0
  9 10  2  0  0  0  0
  9 11  1  0  0  0  0
 11 15  1  0  0  0  0
 11 12  2  0  0  0  0
 12 13  1  0  0  0  0
 12 20  1  0  0  0  0
 13 14  1  0  0  0  0
 14 15  2  0  0  0  0
 14 21  1  0  0  0  0
M  END
$$$$
