ZINC00895330
 OpenBabel08292219463D

 28 29  0  0  1  0  0  0  0  0999 V2000
   -0.0168    1.3880    0.0097 C   0  0  0  0  0  0  0  0  0  0  0  0
    1.1587    2.1055    0.0023 C   0  0  0  0  0  0  0  0  0  0  0  0
    2.3795    1.4398   -0.0129 C   0  0  0  0  0  0  0  0  0  0  0  0
    2.4019    0.0334   -0.0206 C   0  0  0  0  0  0  0  0  0  0  0  0
    1.2039   -0.6838   -0.0130 C   0  0  0  0  0  0  0  0  0  0  0  0
    0.0021   -0.0041    0.0020 C   0  0  0  0  0  0  0  0  0  0  0  0
   -1.1679   -0.6972    0.0094 O   0  0  0  0  0  0  0  0  0  0  0  0
    3.8159   -0.3493   -0.0361 C   0  0  0  0  0  0  0  0  0  0  0  0
    4.5307    0.7870   -0.0369 C   0  0  0  0  0  0  0  0  0  0  0  0
    3.6908    1.8667   -0.0231 N   0  0  0  0  0  0  0  0  0  0  0  0
    3.9751    2.7941   -0.0208 H   0  0  0  0  0  0  0  0  0  0  0  0
    4.3642   -1.7530   -0.0489 C   0  0  0  0  0  0  0  0  0  0  0  0
    4.4190   -2.2661   -1.4892 C   0  0  1  0  0  0  0  0  0  0  0  0
    4.9924   -1.5699   -2.1014 H   0  0  0  0  0  0  0  0  0  0  0  0
    5.0801   -3.6201   -1.5154 C   0  0  0  0  0  0  0  0  0  0  0  0
    4.4068   -4.6296   -1.3972 O   0  0  0  0  0  0  0  0  0  0  0  0
    6.2883   -3.7060   -1.6547 O   0  0  0  0  0  1  0  0  0  0  0  0
    3.0544   -2.3771   -2.0217 N   0  3  0  0  0  0  0  0  0  0  0  0
   -0.9621    1.9101    0.0260 H   0  0  0  0  0  0  0  0  0  0  0  0
    1.1325    3.1852    0.0080 H   0  0  0  0  0  0  0  0  0  0  0  0
    1.2172   -1.7637   -0.0192 H   0  0  0  0  0  0  0  0  0  0  0  0
   -1.5147   -0.8930   -0.8718 H   0  0  0  0  0  0  0  0  0  0  0  0
    5.6093    0.8408   -0.0472 H   0  0  0  0  0  0  0  0  0  0  0  0
    5.3681   -1.7548    0.3759 H   0  0  0  0  0  0  0  0  0  0  0  0
    3.7180   -2.4009    0.5433 H   0  0  0  0  0  0  0  0  0  0  0  0
    2.6118   -1.4705   -2.0042 H   0  0  0  0  0  0  0  0  0  0  0  0
    3.0905   -2.7154   -2.9716 H   0  0  0  0  0  0  0  0  0  0  0  0
    2.5236   -3.0215   -1.4551 H   0  0  0  0  0  0  0  0  0  0  0  0
  1  6  2  0  0  0  0
  1  2  1  0  0  0  0
  1 19  1  0  0  0  0
  2  3  2  0  0  0  0
  2 20  1  0  0  0  0
  3 10  1  0  0  0  0
  3  4  1  0  0  0  0
  4  5  2  0  0  0  0
  4  8  1  0  0  0  0
  5  6  1  0  0  0  0
  5 21  1  0  0  0  0
  6  7  1  0  0  0  0
  7 22  1  0  0  0  0
  8  9  2  0  0  0  0
  8 12  1  0  0  0  0
  9 10  1  0  0  0  0
  9 23  1  0  0  0  0
 10 11  1  0  0  0  0
 12 13  1  0  0  0  0
 12 24  1  0  0  0  0
 12 25  1  0  0  0  0
 13 14  1  6  0  0  0
 13 15  1  0  0  0  0
 13 18  1  0  0  0  0
 15 16  2  0  0  0  0
 15 17  1  0  0  0  0
 18 26  1  0  0  0  0
 18 27  1  0  0  0  0
 18 28  1  0  0  0  0
M  CHG  1  18   1
M  END
$$$$
