ZINC03872317
 OpenBabel08292219463D

 55 55  0  0  1  0  0  0  0  0999 V2000
    1.5494   -1.3037    2.0559 C   0  0  0  0  0  0  0  0  0  0  0  0
    0.5990   -1.2934    0.8569 C   0  0  0  0  0  0  0  0  0  0  0  0
   -0.5649   -2.2509    1.1205 C   0  0  0  0  0  0  0  0  0  0  0  0
    0.0575    0.1221    0.6475 C   0  0  0  0  0  0  0  0  0  0  0  0
    1.3427   -1.7344   -0.3774 C   0  0  0  0  0  0  0  0  0  0  0  0
    2.5128   -2.0270   -0.3054 O   0  0  0  0  0  0  0  0  0  0  0  0
    0.7052   -1.8023   -1.5568 O   0  0  0  0  0  0  0  0  0  0  0  0
    1.4383   -2.0999   -2.6626 C   0  0  0  0  0  0  0  0  0  0  0  0
    1.9486   -1.0816   -3.4525 C   0  0  0  0  0  0  0  0  0  0  0  0
    2.6935   -1.3860   -4.5761 C   0  0  0  0  0  0  0  0  0  0  0  0
    2.9314   -2.7052   -4.9155 C   0  0  0  0  0  0  0  0  0  0  0  0
    2.4254   -3.7256   -4.1327 C   0  0  0  0  0  0  0  0  0  0  0  0
    1.6830   -3.4276   -3.0007 C   0  0  0  0  0  0  0  0  0  0  0  0
    1.1895   -4.4302   -2.2260 O   0  0  0  0  0  0  0  0  0  0  0  0
   -0.0632   -4.8508   -2.4622 C   0  0  0  0  0  0  0  0  0  0  0  0
   -0.7490   -4.2793   -3.2765 O   0  0  0  0  0  0  0  0  0  0  0  0
   -0.6143   -6.0359   -1.7119 C   0  0  0  0  0  0  0  0  0  0  0  0
   -2.0506   -6.3039   -2.1657 C   0  0  0  0  0  0  0  0  0  0  0  0
    0.2488   -7.2665   -1.9973 C   0  0  0  0  0  0  0  0  0  0  0  0
   -0.6005   -5.7403   -0.2107 C   0  0  0  0  0  0  0  0  0  0  0  0
    3.7440   -3.0311   -6.1421 C   0  0  1  0  0  0  0  0  0  0  0  0
    4.1253   -4.0493   -6.0654 H   0  0  0  0  0  0  0  0  0  0  0  0
    2.8613   -2.9094   -7.3858 C   0  0  0  0  0  0  0  0  0  0  0  0
    3.6185   -3.3419   -8.5680 N   0  3  0  0  0  0  0  0  0  0  0  0
    2.7709   -3.2251   -9.7621 C   0  0  0  0  0  0  0  0  0  0  0  0
    4.8392   -2.1188   -6.2442 O   0  0  0  0  0  0  0  0  0  0  0  0
    1.9352   -2.3122    2.2051 H   0  0  0  0  0  0  0  0  0  0  0  0
    2.3785   -0.6215    1.8682 H   0  0  0  0  0  0  0  0  0  0  0  0
    1.0114   -0.9847    2.9487 H   0  0  0  0  0  0  0  0  0  0  0  0
   -1.1028   -1.9319    2.0132 H   0  0  0  0  0  0  0  0  0  0  0  0
   -1.2419   -2.2436    0.2663 H   0  0  0  0  0  0  0  0  0  0  0  0
   -0.1791   -3.2594    1.2696 H   0  0  0  0  0  0  0  0  0  0  0  0
    0.8866    0.8043    0.4597 H   0  0  0  0  0  0  0  0  0  0  0  0
   -0.6196    0.1294   -0.2067 H   0  0  0  0  0  0  0  0  0  0  0  0
   -0.4805    0.4411    1.5402 H   0  0  0  0  0  0  0  0  0  0  0  0
    1.7637   -0.0504   -3.1902 H   0  0  0  0  0  0  0  0  0  0  0  0
    3.0905   -0.5916   -5.1907 H   0  0  0  0  0  0  0  0  0  0  0  0
    2.6122   -4.7550   -4.4005 H   0  0  0  0  0  0  0  0  0  0  0  0
   -2.0604   -6.5145   -3.2351 H   0  0  0  0  0  0  0  0  0  0  0  0
   -2.4492   -7.1611   -1.6230 H   0  0  0  0  0  0  0  0  0  0  0  0
   -2.6655   -5.4272   -1.9624 H   0  0  0  0  0  0  0  0  0  0  0  0
    1.2721   -7.0755   -1.6739 H   0  0  0  0  0  0  0  0  0  0  0  0
   -0.1497   -8.1236   -1.4545 H   0  0  0  0  0  0  0  0  0  0  0  0
    0.2390   -7.4771   -3.0667 H   0  0  0  0  0  0  0  0  0  0  0  0
   -1.2154   -4.8636   -0.0074 H   0  0  0  0  0  0  0  0  0  0  0  0
   -0.9991   -6.5974    0.3320 H   0  0  0  0  0  0  0  0  0  0  0  0
    0.4228   -5.5493    0.1126 H   0  0  0  0  0  0  0  0  0  0  0  0
    1.9795   -3.5394   -7.2686 H   0  0  0  0  0  0  0  0  0  0  0  0
    2.5522   -1.8718   -7.5119 H   0  0  0  0  0  0  0  0  0  0  0  0
    4.4347   -2.7587   -8.6765 H   0  0  0  0  0  0  0  0  0  0  0  0
    3.3328   -3.5461  -10.6393 H   0  0  0  0  0  0  0  0  0  0  0  0
    1.8892   -3.8552   -9.6449 H   0  0  0  0  0  0  0  0  0  0  0  0
    2.4618   -2.1875   -9.8882 H   0  0  0  0  0  0  0  0  0  0  0  0
    4.5734   -1.1917   -6.3159 H   0  0  0  0  0  0  0  0  0  0  0  0
    3.9046   -4.3025   -8.4512 H   0  0  0  0  0  0  0  0  0  0  0  0
  1  2  1  0  0  0  0
  1 27  1  0  0  0  0
  1 28  1  0  0  0  0
  1 29  1  0  0  0  0
  2  3  1  0  0  0  0
  2  4  1  0  0  0  0
  2  5  1  0  0  0  0
  3 30  1  0  0  0  0
  3 31  1  0  0  0  0
  3 32  1  0  0  0  0
  4 33  1  0  0  0  0
  4 34  1  0  0  0  0
  4 35  1  0  0  0  0
  5  6  2  0  0  0  0
  5  7  1  0  0  0  0
  7  8  1  0  0  0  0
  8 13  2  0  0  0  0
  8  9  1  0  0  0  0
  9 10  2  0  0  0  0
  9 36  1  0  0  0  0
 10 11  1  0  0  0  0
 10 37  1  0  0  0  0
 11 12  2  0  0  0  0
 11 21  1  0  0  0  0
 12 13  1  0  0  0  0
 12 38  1  0  0  0  0
 13 14  1  0  0  0  0
 14 15  1  0  0  0  0
 15 16  2  0  0  0  0
 15 17  1  0  0  0  0
 17 18  1  0  0  0  0
 17 19  1  0  0  0  0
 17 20  1  0  0  0  0
 18 39  1  0  0  0  0
 18 40  1  0  0  0  0
 18 41  1  0  0  0  0
 19 42  1  0  0  0  0
 19 43  1  0  0  0  0
 19 44  1  0  0  0  0
 20 45  1  0  0  0  0
 20 46  1  0  0  0  0
 20 47  1  0  0  0  0
 21 22  1  1  0  0  0
 21 23  1  0  0  0  0
 21 26  1  0  0  0  0
 23 24  1  0  0  0  0
 23 48  1  0  0  0  0
 23 49  1  0  0  0  0
 24 25  1  0  0  0  0
 24 50  1  0  0  0  0
 24 55  1  0  0  0  0
 25 51  1  0  0  0  0
 25 52  1  0  0  0  0
 25 53  1  0  0  0  0
 26 54  1  0  0  0  0
M  CHG  1  24   1
M  END
$$$$
