ZINC08673078
 OpenBabel08292219463D

 23 24  0  0  0  0  0  0  0  0999 V2000
   -0.0169    1.3939    0.0097 C   0  0  0  0  0  0  0  0  0  0  0  0
    1.1800    2.0794    0.0020 C   0  0  0  0  0  0  0  0  0  0  0  0
    2.3305    1.4332   -0.0129 N   0  0  0  0  0  0  0  0  0  0  0  0
    2.3924    0.1152   -0.0206 C   0  0  0  0  0  0  0  0  0  0  0  0
    1.2432   -0.6476   -0.0138 C   0  0  0  0  0  0  0  0  0  0  0  0
    0.0021   -0.0041    0.0020 C   0  0  0  0  0  0  0  0  0  0  0  0
   -1.2599   -0.7831    0.0099 C   0  0  0  0  0  0  0  0  0  0  0  0
   -1.5839   -1.5963    1.1189 C   0  0  0  0  0  0  0  0  0  0  0  0
   -2.7511   -2.3045    1.1050 C   0  0  0  0  0  0  0  0  0  0  0  0
   -3.6060   -2.2075   -0.0162 C   0  0  0  0  0  0  0  0  0  0  0  0
   -3.2701   -1.4242   -1.0580 N   0  0  0  0  0  0  0  0  0  0  0  0
   -2.1143   -0.7124   -1.0511 C   0  0  0  0  0  0  0  0  0  0  0  0
   -4.6517   -2.8362   -0.0400 O   0  0  0  0  0  0  0  0  0  0  0  0
   -3.0974   -3.1189    2.1905 N   0  0  0  0  0  0  0  0  0  0  0  0
   -0.9548    1.9292    0.0260 H   0  0  0  0  0  0  0  0  0  0  0  0
    1.1756    3.1593    0.0078 H   0  0  0  0  0  0  0  0  0  0  0  0
    3.3557   -0.3729   -0.0328 H   0  0  0  0  0  0  0  0  0  0  0  0
    1.3013   -1.7260   -0.0208 H   0  0  0  0  0  0  0  0  0  0  0  0
   -0.9170   -1.6572    1.9662 H   0  0  0  0  0  0  0  0  0  0  0  0
   -1.8667   -0.0870   -1.8961 H   0  0  0  0  0  0  0  0  0  0  0  0
   -2.5068   -3.1820    2.9574 H   0  0  0  0  0  0  0  0  0  0  0  0
   -3.9279   -3.6199    2.1754 H   0  0  0  0  0  0  0  0  0  0  0  0
   -3.8639   -1.3647   -1.8227 H   0  0  0  0  0  0  0  0  0  0  0  0
  1  6  2  0  0  0  0
  1  2  1  0  0  0  0
  1 15  1  0  0  0  0
  2  3  2  0  0  0  0
  2 16  1  0  0  0  0
  3  4  1  0  0  0  0
  4  5  2  0  0  0  0
  4 17  1  0  0  0  0
  5  6  1  0  0  0  0
  5 18  1  0  0  0  0
  6  7  1  0  0  0  0
  7 12  2  0  0  0  0
  7  8  1  0  0  0  0
  8  9  2  0  0  0  0
  8 19  1  0  0  0  0
  9 10  1  0  0  0  0
  9 14  1  0  0  0  0
 10 11  1  0  0  0  0
 10 13  2  0  0  0  0
 11 12  1  0  0  0  0
 11 23  1  0  0  0  0
 12 20  1  0  0  0  0
 14 21  1  0  0  0  0
 14 22  1  0  0  0  0
M  END
$$$$
