ZINC00000257
 OpenBabel08292219463D

 47 47  0  0  1  0  0  0  0  0999 V2000
    5.4147   -7.2515    0.9377 C   0  0  0  0  0  0  0  0  0  0  0  0
    4.8233   -6.9922   -0.4494 C   0  0  0  0  0  0  0  0  0  0  0  0
    4.6245   -8.3237   -1.1762 C   0  0  0  0  0  0  0  0  0  0  0  0
    3.7078   -4.8595   -0.1844 C   0  0  0  0  0  0  0  0  0  0  0  0
    2.3407   -4.1875   -0.0419 C   0  0  2  0  0  0  0  0  0  0  0  0
    1.7050   -4.4760   -0.8790 H   0  0  0  0  0  0  0  0  0  0  0  0
    2.5176   -2.6678   -0.0360 C   0  0  0  0  0  0  0  0  0  0  0  0
    1.2345   -2.0389   -0.0203 O   0  0  0  0  0  0  0  0  0  0  0  0
    1.2134   -0.6801   -0.0132 C   0  0  0  0  0  0  0  0  0  0  0  0
    0.0021   -0.0041    0.0020 C   0  0  0  0  0  0  0  0  0  0  0  0
   -0.0167    1.3772    0.0096 C   0  0  0  0  0  0  0  0  0  0  0  0
    1.1705    2.0859    0.0021 C   0  0  0  0  0  0  0  0  0  0  0  0
    2.3791    1.4145   -0.0132 C   0  0  0  0  0  0  0  0  0  0  0  0
    2.4032    0.0333   -0.0208 C   0  0  0  0  0  0  0  0  0  0  0  0
    1.1472    3.5927    0.0105 C   0  0  0  0  0  0  0  0  0  0  0  0
    1.1531    4.0949    1.4557 C   0  0  0  0  0  0  0  0  0  0  0  0
    1.1297    5.6017    1.4641 C   0  0  0  0  0  0  0  0  0  0  0  0
    1.1103    6.2114    0.4211 O   0  0  0  0  0  0  0  0  0  0  0  0
    1.1304    6.2664    2.6302 O   0  0  0  0  0  0  0  0  0  0  0  0
    1.1072    7.7167    2.5622 C   0  0  0  0  0  0  0  0  0  0  0  0
    1.7320   -4.6010    1.1831 O   0  0  0  0  0  0  0  0  0  0  0  0
    6.3753   -7.7561    0.8345 H   0  0  0  0  0  0  0  0  0  0  0  0
    5.5563   -6.3029    1.4555 H   0  0  0  0  0  0  0  0  0  0  0  0
    4.7337   -7.8804    1.5112 H   0  0  0  0  0  0  0  0  0  0  0  0
    5.5043   -6.3633   -1.0229 H   0  0  0  0  0  0  0  0  0  0  0  0
    4.2032   -8.1390   -2.1643 H   0  0  0  0  0  0  0  0  0  0  0  0
    5.5852   -8.8283   -1.2793 H   0  0  0  0  0  0  0  0  0  0  0  0
    3.9436   -8.9526   -0.6027 H   0  0  0  0  0  0  0  0  0  0  0  0
    4.2099   -4.4770   -1.0730 H   0  0  0  0  0  0  0  0  0  0  0  0
    4.3126   -4.6431    0.6962 H   0  0  0  0  0  0  0  0  0  0  0  0
    3.0613   -2.3618   -0.9298 H   0  0  0  0  0  0  0  0  0  0  0  0
    3.0787   -2.3708    0.8501 H   0  0  0  0  0  0  0  0  0  0  0  0
   -0.9255   -0.5572    0.0083 H   0  0  0  0  0  0  0  0  0  0  0  0
   -0.9595    1.9040    0.0169 H   0  0  0  0  0  0  0  0  0  0  0  0
    3.3051    1.9703   -0.0187 H   0  0  0  0  0  0  0  0  0  0  0  0
    3.3475   -0.4907   -0.0323 H   0  0  0  0  0  0  0  0  0  0  0  0
    2.0264    3.9726   -0.5098 H   0  0  0  0  0  0  0  0  0  0  0  0
    0.2468    3.9449   -0.4929 H   0  0  0  0  0  0  0  0  0  0  0  0
    0.2738    3.7150    1.9759 H   0  0  0  0  0  0  0  0  0  0  0  0
    2.0534    3.7427    1.9590 H   0  0  0  0  0  0  0  0  0  0  0  0
    1.9867    8.0693    2.0235 H   0  0  0  0  0  0  0  0  0  0  0  0
    0.2071    8.0416    2.0404 H   0  0  0  0  0  0  0  0  0  0  0  0
    1.1104    8.1278    3.5717 H   0  0  0  0  0  0  0  0  0  0  0  0
    2.2440   -4.3764    1.9721 H   0  0  0  0  0  0  0  0  0  0  0  0
    3.5191   -6.3171   -0.3103 N   0  3  0  0  0  0  0  0  0  0  0  0
    3.0424   -6.6705    0.5276 H   0  0  0  0  0  0  0  0  0  0  0  0
    2.9457   -6.5140   -1.1390 H   0  0  0  0  0  0  0  0  0  0  0  0
  1  2  1  0  0  0  0
  1 22  1  0  0  0  0
  1 23  1  0  0  0  0
  1 24  1  0  0  0  0
  2  3  1  0  0  0  0
  2 25  1  0  0  0  0
  2 45  1  0  0  0  0
  3 26  1  0  0  0  0
  3 27  1  0  0  0  0
  3 28  1  0  0  0  0
  4  5  1  0  0  0  0
  4 29  1  0  0  0  0
  4 30  1  0  0  0  0
  4 45  1  0  0  0  0
  5  6  1  6  0  0  0
  5  7  1  0  0  0  0
  5 21  1  0  0  0  0
  7  8  1  0  0  0  0
  7 31  1  0  0  0  0
  7 32  1  0  0  0  0
  8  9  1  0  0  0  0
  9 14  2  0  0  0  0
  9 10  1  0  0  0  0
 10 11  2  0  0  0  0
 10 33  1  0  0  0  0
 11 12  1  0  0  0  0
 11 34  1  0  0  0  0
 12 13  2  0  0  0  0
 12 15  1  0  0  0  0
 13 14  1  0  0  0  0
 13 35  1  0  0  0  0
 14 36  1  0  0  0  0
 15 16  1  0  0  0  0
 15 37  1  0  0  0  0
 15 38  1  0  0  0  0
 16 17  1  0  0  0  0
 16 39  1  0  0  0  0
 16 40  1  0  0  0  0
 17 18  2  0  0  0  0
 17 19  1  0  0  0  0
 19 20  1  0  0  0  0
 20 41  1  0  0  0  0
 20 42  1  0  0  0  0
 20 43  1  0  0  0  0
 21 44  1  0  0  0  0
 45 46  1  0  0  0  0
 45 47  1  0  0  0  0
M  CHG  1  45   1
M  END
$$$$
