ZINC01530716
 OpenBabel08292219463D

 43 43  0  0  0  0  0  0  0  0999 V2000
    0.0823    1.4510   -0.2163 C   0  0  0  0  0  0  0  0  0  0  0  0
    0.0237   -0.0664   -0.0289 C   0  0  0  0  0  0  0  0  0  0  0  0
   -1.3740   -0.4850    0.1418 N   0  3  0  0  0  0  0  0  0  0  0  0
   -2.1159   -0.2330   -1.1009 C   0  0  0  0  0  0  0  0  0  0  0  0
   -3.5996   -0.5332   -0.8788 C   0  0  0  0  0  0  0  0  0  0  0  0
   -1.4206   -1.9189    0.4577 C   0  0  0  0  0  0  0  0  0  0  0  0
   -0.7562   -2.1642    1.8139 C   0  0  0  0  0  0  0  0  0  0  0  0
   -0.8026   -3.5942    2.1289 N   0  0  0  0  0  0  0  0  0  0  0  0
   -0.2733   -4.0476    3.2824 C   0  0  0  0  0  0  0  0  0  0  0  0
    0.2431   -3.2696    4.0619 O   0  0  0  0  0  0  0  0  0  0  0  0
   -0.3200   -5.4846    3.5990 C   0  0  0  0  0  0  0  0  0  0  0  0
   -0.9083   -6.3825    2.7014 C   0  0  0  0  0  0  0  0  0  0  0  0
   -0.9514   -7.7152    2.9955 C   0  0  0  0  0  0  0  0  0  0  0  0
   -0.4107   -8.1907    4.1899 C   0  0  0  0  0  0  0  0  0  0  0  0
    0.1761   -7.3113    5.0909 C   0  0  0  0  0  0  0  0  0  0  0  0
    0.2305   -5.9594    4.7995 C   0  0  0  0  0  0  0  0  0  0  0  0
    0.8078   -5.0965    5.6730 O   0  0  0  0  0  0  0  0  0  0  0  0
    1.3467   -5.6527    6.8740 C   0  0  0  0  0  0  0  0  0  0  0  0
   -0.4597   -9.5504    4.4802 N   0  0  0  0  0  0  0  0  0  0  0  0
   -1.6834   -8.8231    1.8773 Cl  0  0  0  0  0  0  0  0  0  0  0  0
    1.1228    1.7753   -0.2311 H   0  0  0  0  0  0  0  0  0  0  0  0
   -0.3953    1.7194   -1.1586 H   0  0  0  0  0  0  0  0  0  0  0  0
   -0.4388    1.9392    0.6072 H   0  0  0  0  0  0  0  0  0  0  0  0
    0.4455   -0.5574   -0.9059 H   0  0  0  0  0  0  0  0  0  0  0  0
    0.5971   -0.3457    0.8550 H   0  0  0  0  0  0  0  0  0  0  0  0
   -1.9958    0.8109   -1.3904 H   0  0  0  0  0  0  0  0  0  0  0  0
   -1.7294   -0.8761   -1.8915 H   0  0  0  0  0  0  0  0  0  0  0  0
   -3.7314   -1.6000   -0.6980 H   0  0  0  0  0  0  0  0  0  0  0  0
   -3.9590    0.0285   -0.0166 H   0  0  0  0  0  0  0  0  0  0  0  0
   -4.1656   -0.2421   -1.7637 H   0  0  0  0  0  0  0  0  0  0  0  0
   -2.4588   -2.2488    0.4968 H   0  0  0  0  0  0  0  0  0  0  0  0
   -0.8905   -2.4782   -0.3132 H   0  0  0  0  0  0  0  0  0  0  0  0
    0.2820   -1.8343    1.7748 H   0  0  0  0  0  0  0  0  0  0  0  0
   -1.2864   -1.6049    2.5847 H   0  0  0  0  0  0  0  0  0  0  0  0
   -1.2144   -4.2146    1.5073 H   0  0  0  0  0  0  0  0  0  0  0  0
   -1.3292   -6.0208    1.7749 H   0  0  0  0  0  0  0  0  0  0  0  0
    0.5936   -7.6827    6.0151 H   0  0  0  0  0  0  0  0  0  0  0  0
    0.5529   -6.1481    7.4331 H   0  0  0  0  0  0  0  0  0  0  0  0
    2.1212   -6.3775    6.6232 H   0  0  0  0  0  0  0  0  0  0  0  0
    1.7770   -4.8568    7.4819 H   0  0  0  0  0  0  0  0  0  0  0  0
   -0.8694  -10.1659    3.8524 H   0  0  0  0  0  0  0  0  0  0  0  0
   -0.0842   -9.8829    5.3105 H   0  0  0  0  0  0  0  0  0  0  0  0
   -1.7925    0.0392    0.8955 H   0  0  0  0  0  0  0  0  0  0  0  0
  1  2  1  0  0  0  0
  1 21  1  0  0  0  0
  1 22  1  0  0  0  0
  1 23  1  0  0  0  0
  2  3  1  0  0  0  0
  2 24  1  0  0  0  0
  2 25  1  0  0  0  0
  3  4  1  0  0  0  0
  3  6  1  0  0  0  0
  3 43  1  0  0  0  0
  4  5  1  0  0  0  0
  4 26  1  0  0  0  0
  4 27  1  0  0  0  0
  5 28  1  0  0  0  0
  5 29  1  0  0  0  0
  5 30  1  0  0  0  0
  6  7  1  0  0  0  0
  6 31  1  0  0  0  0
  6 32  1  0  0  0  0
  7  8  1  0  0  0  0
  7 33  1  0  0  0  0
  7 34  1  0  0  0  0
  8  9  1  0  0  0  0
  8 35  1  0  0  0  0
  9 10  2  0  0  0  0
  9 11  1  0  0  0  0
 11 16  2  0  0  0  0
 11 12  1  0  0  0  0
 12 13  2  0  0  0  0
 12 36  1  0  0  0  0
 13 14  1  0  0  0  0
 13 20  1  0  0  0  0
 14 15  2  0  0  0  0
 14 19  1  0  0  0  0
 15 16  1  0  0  0  0
 15 37  1  0  0  0  0
 16 17  1  0  0  0  0
 17 18  1  0  0  0  0
 18 38  1  0  0  0  0
 18 39  1  0  0  0  0
 18 40  1  0  0  0  0
 19 41  1  0  0  0  0
 19 42  1  0  0  0  0
M  CHG  1   3   1
M  END
$$$$
