ZINC00006156
 OpenBabel08292219463D

 34 35  0  0  0  0  0  0  0  0999 V2000
    0.0955    1.5629    0.1074 C   0  0  0  0  0  0  0  0  0  0  0  0
    1.3178    2.2081    0.1260 C   0  0  0  0  0  0  0  0  0  0  0  0
    2.4879    1.4735    0.0792 C   0  0  0  0  0  0  0  0  0  0  0  0
    2.4356    0.0937    0.0144 C   0  0  0  0  0  0  0  0  0  0  0  0
    1.2132   -0.5516   -0.0032 C   0  0  0  0  0  0  0  0  0  0  0  0
    0.0431    0.1831    0.0421 C   0  0  0  0  0  0  0  0  0  0  0  0
    3.7112   -0.7071   -0.0376 C   0  0  0  0  0  0  0  0  0  0  0  0
    3.8699   -1.4828    1.2447 C   0  0  0  0  0  0  0  0  0  0  0  0
    3.0119   -2.5282    1.5308 C   0  0  0  0  0  0  0  0  0  0  0  0
    3.1575   -3.2398    2.7070 C   0  0  0  0  0  0  0  0  0  0  0  0
    4.1614   -2.9062    3.5968 C   0  0  0  0  0  0  0  0  0  0  0  0
    5.0200   -1.8613    3.3103 C   0  0  0  0  0  0  0  0  0  0  0  0
    4.8770   -1.1526    2.1321 C   0  0  0  0  0  0  0  0  0  0  0  0
    3.6452   -1.8593   -1.4371 S   0  0  2  0  0  0  0  0  0  0  0  0
    4.9135   -2.4789   -1.6007 O   0  0  0  0  0  0  0  0  0  0  0  0
    3.3033   -0.7952   -2.8659 C   0  0  0  0  0  0  0  0  0  0  0  0
    3.2221   -1.6385   -4.1122 C   0  0  0  0  0  0  0  0  0  0  0  0
    3.3794   -2.8391   -4.0434 O   0  0  0  0  0  0  0  0  0  0  0  0
    2.9748   -1.0584   -5.3034 N   0  0  0  0  0  0  0  0  0  0  0  0
   -0.8186    2.1366    0.1485 H   0  0  0  0  0  0  0  0  0  0  0  0
    1.3587    3.2861    0.1766 H   0  0  0  0  0  0  0  0  0  0  0  0
    3.4429    1.9776    0.0930 H   0  0  0  0  0  0  0  0  0  0  0  0
    1.1723   -1.6296   -0.0546 H   0  0  0  0  0  0  0  0  0  0  0  0
   -0.9119   -0.3210    0.0280 H   0  0  0  0  0  0  0  0  0  0  0  0
    4.5586   -0.0329   -0.1617 H   0  0  0  0  0  0  0  0  0  0  0  0
    2.2276   -2.7889    0.8356 H   0  0  0  0  0  0  0  0  0  0  0  0
    2.4868   -4.0561    2.9308 H   0  0  0  0  0  0  0  0  0  0  0  0
    4.2747   -3.4616    4.5161 H   0  0  0  0  0  0  0  0  0  0  0  0
    5.8040   -1.6005    4.0057 H   0  0  0  0  0  0  0  0  0  0  0  0
    5.5501   -0.3386    1.9065 H   0  0  0  0  0  0  0  0  0  0  0  0
    2.3560   -0.2777   -2.7150 H   0  0  0  0  0  0  0  0  0  0  0  0
    4.1040   -0.0635   -2.9738 H   0  0  0  0  0  0  0  0  0  0  0  0
    2.8490   -0.0982   -5.3584 H   0  0  0  0  0  0  0  0  0  0  0  0
    2.9225   -1.6011   -6.1056 H   0  0  0  0  0  0  0  0  0  0  0  0
  1  6  2  0  0  0  0
  1  2  1  0  0  0  0
  1 20  1  0  0  0  0
  2  3  2  0  0  0  0
  2 21  1  0  0  0  0
  3  4  1  0  0  0  0
  3 22  1  0  0  0  0
  4  5  2  0  0  0  0
  4  7  1  0  0  0  0
  5  6  1  0  0  0  0
  5 23  1  0  0  0  0
  6 24  1  0  0  0  0
  7  8  1  0  0  0  0
  7 14  1  0  0  0  0
  7 25  1  0  0  0  0
  8 13  2  0  0  0  0
  8  9  1  0  0  0  0
  9 10  2  0  0  0  0
  9 26  1  0  0  0  0
 10 11  1  0  0  0  0
 10 27  1  0  0  0  0
 11 12  2  0  0  0  0
 11 28  1  0  0  0  0
 12 13  1  0  0  0  0
 12 29  1  0  0  0  0
 13 30  1  0  0  0  0
 14 15  2  6  0  0  0
 14 16  1  0  0  0  0
 16 17  1  0  0  0  0
 16 31  1  0  0  0  0
 16 32  1  0  0  0  0
 17 18  2  0  0  0  0
 17 19  1  0  0  0  0
 19 33  1  0  0  0  0
 19 34  1  0  0  0  0
M  END
$$$$
