ZINC01530762
 OpenBabel08292219463D

 48 48  0  0  0  0  0  0  0  0999 V2000
    0.5360    0.6882   -2.0245 C   0  0  0  0  0  0  0  0  0  0  0  0
    0.4345   -0.8295   -2.1895 C   0  0  0  0  0  0  0  0  0  0  0  0
   -0.9946   -1.2814   -1.8823 C   0  0  0  0  0  0  0  0  0  0  0  0
   -1.0895   -2.6989   -2.0364 O   0  0  0  0  0  0  0  0  0  0  0  0
   -2.3008   -3.2652   -1.7990 C   0  0  0  0  0  0  0  0  0  0  0  0
   -3.3769   -2.4698   -1.4308 C   0  0  0  0  0  0  0  0  0  0  0  0
   -4.6081   -3.0391   -1.1883 C   0  0  0  0  0  0  0  0  0  0  0  0
   -4.7767   -4.4208   -1.3132 C   0  0  0  0  0  0  0  0  0  0  0  0
   -3.6941   -5.2232   -1.6844 C   0  0  0  0  0  0  0  0  0  0  0  0
   -2.4623   -4.6452   -1.9314 C   0  0  0  0  0  0  0  0  0  0  0  0
   -1.3767   -5.4443   -2.3090 N   0  0  0  0  0  0  0  0  0  0  0  0
   -6.0939   -5.0310   -1.0534 C   0  0  0  0  0  0  0  0  0  0  0  0
   -6.2390   -6.2325   -1.1623 O   0  0  0  0  0  0  0  0  0  0  0  0
   -7.1365   -4.2562   -0.6951 O   0  0  0  0  0  0  0  0  0  0  0  0
   -8.3829   -4.9142   -0.4591 C   0  0  0  0  0  0  0  0  0  0  0  0
   -9.4393   -3.8796   -0.0659 C   0  0  0  0  0  0  0  0  0  0  0  0
   -9.6851   -2.9762   -1.1978 N   0  3  0  0  0  0  0  0  0  0  0  0
  -10.2771   -3.7332   -2.3089 C   0  0  0  0  0  0  0  0  0  0  0  0
  -10.4032   -2.8257   -3.5343 C   0  0  0  0  0  0  0  0  0  0  0  0
  -10.6089   -1.9119   -0.7833 C   0  0  0  0  0  0  0  0  0  0  0  0
   -9.9358   -1.0360    0.2752 C   0  0  0  0  0  0  0  0  0  0  0  0
    1.5542    1.0101   -2.2434 H   0  0  0  0  0  0  0  0  0  0  0  0
   -0.1549    1.1755   -2.7124 H   0  0  0  0  0  0  0  0  0  0  0  0
    0.2813    0.9601   -1.0002 H   0  0  0  0  0  0  0  0  0  0  0  0
    0.6893   -1.1015   -3.2138 H   0  0  0  0  0  0  0  0  0  0  0  0
    1.1255   -1.3168   -1.5016 H   0  0  0  0  0  0  0  0  0  0  0  0
   -1.2494   -1.0094   -0.8580 H   0  0  0  0  0  0  0  0  0  0  0  0
   -1.6856   -0.7941   -2.5702 H   0  0  0  0  0  0  0  0  0  0  0  0
   -3.2488   -1.4018   -1.3337 H   0  0  0  0  0  0  0  0  0  0  0  0
   -5.4432   -2.4172   -0.9012 H   0  0  0  0  0  0  0  0  0  0  0  0
   -3.8202   -6.2914   -1.7819 H   0  0  0  0  0  0  0  0  0  0  0  0
   -0.5119   -5.0390   -2.4787 H   0  0  0  0  0  0  0  0  0  0  0  0
   -1.4893   -6.4034   -2.4009 H   0  0  0  0  0  0  0  0  0  0  0  0
   -8.6990   -5.4297   -1.3659 H   0  0  0  0  0  0  0  0  0  0  0  0
   -8.2648   -5.6375    0.3477 H   0  0  0  0  0  0  0  0  0  0  0  0
  -10.3655   -4.3892    0.2001 H   0  0  0  0  0  0  0  0  0  0  0  0
   -9.0834   -3.3035    0.7882 H   0  0  0  0  0  0  0  0  0  0  0  0
   -9.6388   -4.5831   -2.5504 H   0  0  0  0  0  0  0  0  0  0  0  0
  -11.2648   -4.0914   -2.0189 H   0  0  0  0  0  0  0  0  0  0  0  0
  -11.1236   -2.0342   -3.3277 H   0  0  0  0  0  0  0  0  0  0  0  0
   -9.4328   -2.3838   -3.7605 H   0  0  0  0  0  0  0  0  0  0  0  0
  -10.7429   -3.4126   -4.3876 H   0  0  0  0  0  0  0  0  0  0  0  0
  -10.8708   -1.3012   -1.6473 H   0  0  0  0  0  0  0  0  0  0  0  0
  -11.5121   -2.3570   -0.3658 H   0  0  0  0  0  0  0  0  0  0  0  0
   -9.7745   -1.6201    1.1812 H   0  0  0  0  0  0  0  0  0  0  0  0
   -8.9774   -0.6804   -0.1033 H   0  0  0  0  0  0  0  0  0  0  0  0
  -10.5758   -0.1833    0.5018 H   0  0  0  0  0  0  0  0  0  0  0  0
   -8.8127   -2.5667   -1.4969 H   0  0  0  0  0  0  0  0  0  0  0  0
  1  2  1  0  0  0  0
  1 22  1  0  0  0  0
  1 23  1  0  0  0  0
  1 24  1  0  0  0  0
  2  3  1  0  0  0  0
  2 25  1  0  0  0  0
  2 26  1  0  0  0  0
  3  4  1  0  0  0  0
  3 27  1  0  0  0  0
  3 28  1  0  0  0  0
  4  5  1  0  0  0  0
  5 10  2  0  0  0  0
  5  6  1  0  0  0  0
  6  7  2  0  0  0  0
  6 29  1  0  0  0  0
  7  8  1  0  0  0  0
  7 30  1  0  0  0  0
  8  9  2  0  0  0  0
  8 12  1  0  0  0  0
  9 10  1  0  0  0  0
  9 31  1  0  0  0  0
 10 11  1  0  0  0  0
 11 32  1  0  0  0  0
 11 33  1  0  0  0  0
 12 13  2  0  0  0  0
 12 14  1  0  0  0  0
 14 15  1  0  0  0  0
 15 16  1  0  0  0  0
 15 34  1  0  0  0  0
 15 35  1  0  0  0  0
 16 17  1  0  0  0  0
 16 36  1  0  0  0  0
 16 37  1  0  0  0  0
 17 18  1  0  0  0  0
 17 20  1  0  0  0  0
 17 48  1  0  0  0  0
 18 19  1  0  0  0  0
 18 38  1  0  0  0  0
 18 39  1  0  0  0  0
 19 40  1  0  0  0  0
 19 41  1  0  0  0  0
 19 42  1  0  0  0  0
 20 21  1  0  0  0  0
 20 43  1  0  0  0  0
 20 44  1  0  0  0  0
 21 45  1  0  0  0  0
 21 46  1  0  0  0  0
 21 47  1  0  0  0  0
M  CHG  1  17   1
M  END
$$$$
