ZINC00049154
 OpenBabel08292219463D

 23 23  0  0  0  0  0  0  0  0999 V2000
   -0.0127    1.0858    0.0080 C   0  0  0  0  0  0  0  0  0  0  0  0
   -0.7416    1.5850   -1.2129 C   0  0  0  0  0  0  0  0  0  0  0  0
   -2.1115    1.7950   -1.1564 C   0  0  0  0  0  0  0  0  0  0  0  0
   -2.7717    2.2565   -2.2909 C   0  0  0  0  0  0  0  0  0  0  0  0
   -2.0282    2.4885   -3.4366 C   0  0  0  0  0  0  0  0  0  0  0  0
   -0.6656    2.2557   -3.4156 C   0  0  0  0  0  0  0  0  0  0  0  0
   -0.0697    1.8229   -2.3220 N   0  0  0  0  0  0  0  0  0  0  0  0
   -2.6970    2.9882   -4.6912 C   0  0  0  0  0  0  0  0  0  0  0  0
   -1.7196    3.1457   -5.7217 O   0  0  0  0  0  0  0  0  0  0  0  0
   -4.2592    2.4977   -2.2739 C   0  0  0  0  0  0  0  0  0  0  0  0
   -4.5188    3.8448   -1.8740 O   0  0  0  0  0  0  0  0  0  0  0  0
   -2.7992    1.5528   -0.0094 O   0  0  0  0  0  0  0  0  0  0  0  0
    0.0021   -0.0041    0.0020 H   0  0  0  0  0  0  0  0  0  0  0  0
    1.0099    1.4631    0.0003 H   0  0  0  0  0  0  0  0  0  0  0  0
   -0.5229    1.4373    0.9048 H   0  0  0  0  0  0  0  0  0  0  0  0
   -0.0808    2.4344   -4.3058 H   0  0  0  0  0  0  0  0  0  0  0  0
   -3.4507    2.2692   -5.0122 H   0  0  0  0  0  0  0  0  0  0  0  0
   -3.1725    3.9485   -4.4917 H   0  0  0  0  0  0  0  0  0  0  0  0
   -2.0800    3.4653   -6.5601 H   0  0  0  0  0  0  0  0  0  0  0  0
   -4.6659    2.3299   -3.2712 H   0  0  0  0  0  0  0  0  0  0  0  0
   -4.7304    1.8123   -1.5694 H   0  0  0  0  0  0  0  0  0  0  0  0
   -5.4583    4.0711   -1.8408 H   0  0  0  0  0  0  0  0  0  0  0  0
   -2.8599    2.3160    0.5814 H   0  0  0  0  0  0  0  0  0  0  0  0
  1 13  1  0  0  0  0
  1 14  1  0  0  0  0
  1 15  1  0  0  0  0
  1  2  1  0  0  0  0
  2  3  2  0  0  0  0
  2  7  1  0  0  0  0
  3 12  1  0  0  0  0
  3  4  1  0  0  0  0
  4  5  2  0  0  0  0
  4 10  1  0  0  0  0
  5  6  1  0  0  0  0
  5  8  1  0  0  0  0
  6  7  2  0  0  0  0
  6 16  1  0  0  0  0
  8  9  1  0  0  0  0
  8 17  1  0  0  0  0
  8 18  1  0  0  0  0
  9 19  1  0  0  0  0
 10 11  1  0  0  0  0
 10 20  1  0  0  0  0
 10 21  1  0  0  0  0
 11 22  1  0  0  0  0
 12 23  1  0  0  0  0
M  END
$$$$
