ZINC03775644
 OpenBabel08292219463D

 28 30  0  0  0  0  0  0  0  0999 V2000
   -0.0170    1.4060    0.0098 C   0  0  0  0  0  0  0  0  0  0  0  0
    1.1512    2.0949    0.0023 C   0  0  0  0  0  0  0  0  0  0  0  0
    2.3889    1.4369   -0.0135 C   0  0  0  0  0  0  0  0  0  0  0  0
    2.4720    0.0638   -0.0221 C   0  0  0  0  0  0  0  0  0  0  0  0
    1.2912   -0.7031   -0.0145 C   0  0  0  0  0  0  0  0  0  0  0  0
    0.0021   -0.0041    0.0020 C   0  0  0  0  0  0  0  0  0  0  0  0
   -1.1832   -0.7430    0.0089 C   0  0  0  0  0  0  0  0  0  0  0  0
   -1.0860   -2.1364    0.0000 C   0  0  0  0  0  0  0  0  0  0  0  0
   -2.2390   -2.9483    0.0057 C   0  0  0  0  0  0  0  0  0  0  0  0
   -2.1114   -4.2985   -0.0036 C   0  0  0  0  0  0  0  0  0  0  0  0
   -0.8523   -4.9146   -0.0184 C   0  0  0  0  0  0  0  0  0  0  0  0
    0.3084   -4.1762   -0.0245 C   0  0  0  0  0  0  0  0  0  0  0  0
    0.2365   -2.7700   -0.0159 C   0  0  0  0  0  3  0  0  0  0  0  0
    1.3435   -2.0323   -0.0221 N   0  0  0  0  0  0  0  0  0  0  0  0
   -0.7747   -6.3052   -0.0266 N   0  0  0  0  0  0  0  0  0  0  0  0
    3.5604    2.1901   -0.0211 N   0  0  0  0  0  0  0  0  0  0  0  0
   -0.9583    1.9352    0.0261 H   0  0  0  0  0  0  0  0  0  0  0  0
    1.1274    3.1747    0.0083 H   0  0  0  0  0  0  0  0  0  0  0  0
    3.4363   -0.4225   -0.0350 H   0  0  0  0  0  0  0  0  0  0  0  0
   -2.1452   -0.2521    0.0210 H   0  0  0  0  0  0  0  0  0  0  0  0
   -3.2200   -2.4966    0.0177 H   0  0  0  0  0  0  0  0  0  0  0  0
   -2.9997   -4.9128    0.0008 H   0  0  0  0  0  0  0  0  0  0  0  0
    1.2680   -4.6716   -0.0363 H   0  0  0  0  0  0  0  0  0  0  0  0
   -1.5864   -6.8363   -0.0220 H   0  0  0  0  0  0  0  0  0  0  0  0
    0.0910   -6.7426   -0.0368 H   0  0  0  0  0  0  0  0  0  0  0  0
    3.5142    3.1590   -0.0154 H   0  0  0  0  0  0  0  0  0  0  0  0
    4.4226    1.7458   -0.0320 H   0  0  0  0  0  0  0  0  0  0  0  0
    2.2074   -2.4732   -0.0333 H   0  0  0  0  0  0  0  0  0  0  0  0
  1  6  2  0  0  0  0
  1  2  1  0  0  0  0
  1 17  1  0  0  0  0
  2  3  2  0  0  0  0
  2 18  1  0  0  0  0
  3  4  1  0  0  0  0
  3 16  1  0  0  0  0
  4  5  2  0  0  0  0
  4 19  1  0  0  0  0
  5 14  1  0  0  0  0
  5  6  1  0  0  0  0
  6  7  1  0  0  0  0
  7  8  2  0  0  0  0
  7 20  1  0  0  0  0
  8 13  1  0  0  0  0
  8  9  1  0  0  0  0
  9 10  2  0  0  0  0
  9 21  1  0  0  0  0
 10 11  1  0  0  0  0
 10 22  1  0  0  0  0
 11 12  2  0  0  0  0
 11 15  1  0  0  0  0
 12 13  1  0  0  0  0
 12 23  1  0  0  0  0
 13 14  1  0  0  0  0
 14 28  1  0  0  0  0
 15 24  1  0  0  0  0
 15 25  1  0  0  0  0
 16 26  1  0  0  0  0
 16 27  1  0  0  0  0
M  END
$$$$
