ZINC03813003
 OpenBabel08292219463D

 32 34  0  0  0  0  0  0  0  0999 V2000
   -0.9263    2.6093    1.0664 C   0  0  0  0  0  0  0  0  0  0  0  0
   -1.2194    1.7464    0.0248 C   0  0  0  0  0  0  0  0  0  0  0  0
   -0.3364    1.6002   -1.0293 C   0  0  0  0  0  0  0  0  0  0  0  0
    0.8504    2.3075   -1.0426 C   0  0  0  0  0  0  0  0  0  0  0  0
    1.1536    3.1748    0.0081 C   0  0  0  0  0  0  0  0  0  0  0  0
    0.2552    3.3212    1.0652 C   0  0  0  0  0  0  0  0  0  0  0  0
    2.4236    3.9367    0.0005 C   0  0  0  0  0  0  0  0  0  0  0  0
    2.3488    5.2171   -0.0965 N   0  0  0  0  0  0  0  0  0  0  0  0
    3.5433    6.0613   -0.1155 C   0  0  0  0  0  0  0  0  0  0  0  0
    4.3425    5.7386   -1.3485 C   0  0  0  0  0  0  0  0  0  0  0  0
    4.5038    6.5976   -2.1894 O   0  0  0  0  0  0  0  0  0  0  0  0
    4.8775    4.5351   -1.5405 N   0  0  0  0  0  0  0  0  0  0  0  0
    4.8170    3.4830   -0.6398 C   0  0  0  0  0  0  0  0  0  0  0  0
    3.6768    3.1720    0.0986 C   0  0  0  0  0  0  0  0  0  0  0  0
    3.7066    2.0828    0.9824 C   0  0  0  0  0  0  0  0  0  0  0  0
    4.8482    1.3279    1.1230 C   0  0  0  0  0  0  0  0  0  0  0  0
    5.9805    1.6403    0.3896 C   0  0  0  0  0  0  0  0  0  0  0  0
    5.9663    2.7060   -0.4835 C   0  0  0  0  0  0  0  0  0  0  0  0
    4.8662    0.1814    2.0592 N   0  0  0  0  0  4  0  0  0  0  0  0
    3.8706   -0.0934    2.7047 O   0  0  0  0  0  0  0  0  0  0  0  0
    5.8767   -0.4871    2.1840 O   0  5  0  0  0  0  0  0  0  0  0  0
    1.9618    2.1175   -2.3626 Cl  0  0  0  0  0  0  0  0  0  0  0  0
   -1.6223    2.7222    1.8844 H   0  0  0  0  0  0  0  0  0  0  0  0
   -2.1437    1.1878    0.0333 H   0  0  0  0  0  0  0  0  0  0  0  0
   -0.5727    0.9284   -1.8412 H   0  0  0  0  0  0  0  0  0  0  0  0
    0.4843    3.9905    1.8812 H   0  0  0  0  0  0  0  0  0  0  0  0
    4.1458    5.8660    0.7715 H   0  0  0  0  0  0  0  0  0  0  0  0
    3.2510    7.1112   -0.1344 H   0  0  0  0  0  0  0  0  0  0  0  0
    5.3466    4.3823   -2.3756 H   0  0  0  0  0  0  0  0  0  0  0  0
    2.8264    1.8351    1.5571 H   0  0  0  0  0  0  0  0  0  0  0  0
    6.8762    1.0474    0.5020 H   0  0  0  0  0  0  0  0  0  0  0  0
    6.8534    2.9432   -1.0520 H   0  0  0  0  0  0  0  0  0  0  0  0
  1  6  2  0  0  0  0
  1  2  1  0  0  0  0
  1 23  1  0  0  0  0
  2  3  2  0  0  0  0
  2 24  1  0  0  0  0
  3  4  1  0  0  0  0
  3 25  1  0  0  0  0
  4  5  2  0  0  0  0
  4 22  1  0  0  0  0
  5  6  1  0  0  0  0
  5  7  1  0  0  0  0
  6 26  1  0  0  0  0
  7 14  1  0  0  0  0
  7  8  2  0  0  0  0
  8  9  1  0  0  0  0
  9 10  1  0  0  0  0
  9 27  1  0  0  0  0
  9 28  1  0  0  0  0
 10 11  2  0  0  0  0
 10 12  1  0  0  0  0
 12 13  1  0  0  0  0
 12 29  1  0  0  0  0
 13 18  2  0  0  0  0
 13 14  1  0  0  0  0
 14 15  2  0  0  0  0
 15 16  1  0  0  0  0
 15 30  1  0  0  0  0
 16 17  2  0  0  0  0
 16 19  1  0  0  0  0
 17 18  1  0  0  0  0
 17 31  1  0  0  0  0
 18 32  1  0  0  0  0
 19 20  2  0  0  0  0
 19 21  1  0  0  0  0
M  CHG  1  21  -1
M  END
$$$$
