ZINC00057464
 OpenBabel08292219463D

 31 32  0  0  0  0  0  0  0  0999 V2000
    0.8938   -1.6695   -0.2826 C   0  0  0  0  0  0  0  0  0  0  0  0
    0.1058   -0.3830   -0.0280 C   0  0  0  0  0  0  0  0  0  0  0  0
   -1.3705   -0.6715   -0.1204 C   0  0  0  0  0  3  0  0  0  0  0  0
   -2.0171   -0.6541   -1.3543 C   0  0  0  0  0  0  0  0  0  0  0  0
   -3.3964   -0.9306   -1.3874 C   0  0  0  0  0  0  0  0  0  0  0  0
   -4.0249   -1.1960   -0.2480 N   0  0  0  0  0  0  0  0  0  0  0  0
   -3.3681   -1.2013    0.9023 C   0  0  0  0  0  0  0  0  0  0  0  0
   -2.0684   -0.9502    0.9687 N   0  0  0  0  0  0  0  0  0  0  0  0
   -4.0580   -1.4823    2.0680 N   0  0  0  0  0  0  0  0  0  0  0  0
   -4.0862   -0.9256   -2.5867 N   0  0  0  0  0  0  0  0  0  0  0  0
   -1.2715   -0.3515   -2.5998 C   0  0  0  0  0  0  0  0  0  0  0  0
   -0.7740    0.9313   -2.8230 C   0  0  0  0  0  0  0  0  0  0  0  0
   -0.0805    1.2075   -3.9835 C   0  0  0  0  0  0  0  0  0  0  0  0
    0.1212    0.2132   -4.9255 C   0  0  0  0  0  0  0  0  0  0  0  0
   -0.3708   -1.0625   -4.7087 C   0  0  0  0  0  0  0  0  0  0  0  0
   -1.0607   -1.3505   -3.5489 C   0  0  0  0  0  0  0  0  0  0  0  0
    0.9936    0.5676   -6.3840 Cl  0  0  0  0  0  0  0  0  0  0  0  0
    1.9579   -1.4768   -0.1461 H   0  0  0  0  0  0  0  0  0  0  0  0
    0.5708   -2.4384    0.4193 H   0  0  0  0  0  0  0  0  0  0  0  0
    0.7140   -2.0099   -1.3023 H   0  0  0  0  0  0  0  0  0  0  0  0
    0.3403   -0.0041    0.9668 H   0  0  0  0  0  0  0  0  0  0  0  0
    0.3775    0.3633   -0.7745 H   0  0  0  0  0  0  0  0  0  0  0  0
   -5.0088   -1.6717    2.0352 H   0  0  0  0  0  0  0  0  0  0  0  0
   -3.5910   -1.4900    2.9181 H   0  0  0  0  0  0  0  0  0  0  0  0
   -3.6191   -0.7304   -3.4141 H   0  0  0  0  0  0  0  0  0  0  0  0
   -5.0370   -1.1173   -2.6001 H   0  0  0  0  0  0  0  0  0  0  0  0
   -0.9315    1.7078   -2.0891 H   0  0  0  0  0  0  0  0  0  0  0  0
    0.3054    2.2011   -4.1575 H   0  0  0  0  0  0  0  0  0  0  0  0
   -0.2111   -1.8346   -5.4468 H   0  0  0  0  0  0  0  0  0  0  0  0
   -1.4406   -2.3471   -3.3788 H   0  0  0  0  0  0  0  0  0  0  0  0
   -1.6224   -0.9677    1.8299 H   0  0  0  0  0  0  0  0  0  0  0  0
  1  2  1  0  0  0  0
  1 18  1  0  0  0  0
  1 19  1  0  0  0  0
  1 20  1  0  0  0  0
  2  3  1  0  0  0  0
  2 21  1  0  0  0  0
  2 22  1  0  0  0  0
  3  8  1  0  0  0  0
  3  4  1  0  0  0  0
  4  5  2  0  0  0  0
  4 11  1  0  0  0  0
  5  6  1  0  0  0  0
  5 10  1  0  0  0  0
  6  7  2  0  0  0  0
  7  8  1  0  0  0  0
  7  9  1  0  0  0  0
  8 31  1  0  0  0  0
  9 23  1  0  0  0  0
  9 24  1  0  0  0  0
 10 25  1  0  0  0  0
 10 26  1  0  0  0  0
 11 16  2  0  0  0  0
 11 12  1  0  0  0  0
 12 13  2  0  0  0  0
 12 27  1  0  0  0  0
 13 14  1  0  0  0  0
 13 28  1  0  0  0  0
 14 15  2  0  0  0  0
 14 17  1  0  0  0  0
 15 16  1  0  0  0  0
 15 29  1  0  0  0  0
 16 30  1  0  0  0  0
M  END
$$$$
