ZINC00000905
 OpenBabel08292219463D

 33 33  0  0  0  0  0  0  0  0999 V2000
   -0.0178    1.4608    0.0101 C   0  0  0  0  0  0  0  0  0  0  0  0
    0.0021   -0.0041    0.0020 N   0  0  0  0  0  0  0  0  0  0  0  0
    0.0241   -0.7433    1.2666 C   0  0  0  0  0  0  0  0  0  0  0  0
    0.0000   -0.6876   -1.1969 C   0  0  0  0  0  0  0  0  0  0  0  0
    0.0126   -2.0169   -1.2042 N   0  0  0  0  0  0  0  0  0  0  0  0
    0.0106   -2.6753   -2.3590 C   0  0  0  0  0  0  0  0  0  0  0  0
   -0.0039   -2.0045   -3.5066 N   0  0  0  0  0  0  0  0  0  0  0  0
   -0.0169   -0.6752   -3.4993 C   0  0  0  0  0  0  0  0  0  0  0  0
   -0.0200   -0.0168   -2.3445 N   0  0  0  0  0  0  0  0  0  0  0  0
   -0.0319    0.0212   -4.6907 N   0  0  0  0  0  0  0  0  0  0  0  0
   -0.0336   -0.7044   -5.9634 C   0  0  0  0  0  0  0  0  0  0  0  0
   -0.0462    1.4861   -4.6827 C   0  0  0  0  0  0  0  0  0  0  0  0
    0.0241   -4.0554   -2.3666 N   0  0  0  0  0  0  0  0  0  0  0  0
    0.0405   -4.7947   -1.1019 C   0  0  0  0  0  0  0  0  0  0  0  0
    0.0219   -4.7810   -3.6392 C   0  0  0  0  0  0  0  0  0  0  0  0
    1.0048    1.8381    0.0023 H   0  0  0  0  0  0  0  0  0  0  0  0
   -0.5450    1.8219   -0.8730 H   0  0  0  0  0  0  0  0  0  0  0  0
   -0.5280    1.8123    0.9069 H   0  0  0  0  0  0  0  0  0  0  0  0
   -0.9979   -0.9406    1.5900 H   0  0  0  0  0  0  0  0  0  0  0  0
    0.5496   -1.6879    1.1262 H   0  0  0  0  0  0  0  0  0  0  0  0
    0.5371   -0.1514    2.0246 H   0  0  0  0  0  0  0  0  0  0  0  0
   -0.0217   -1.7770   -5.7701 H   0  0  0  0  0  0  0  0  0  0  0  0
   -0.9300   -0.4467   -6.5274 H   0  0  0  0  0  0  0  0  0  0  0  0
    0.8498   -0.4293   -6.5397 H   0  0  0  0  0  0  0  0  0  0  0  0
    0.9778    1.8595   -4.6878 H   0  0  0  0  0  0  0  0  0  0  0  0
   -0.5698    1.8492   -5.5672 H   0  0  0  0  0  0  0  0  0  0  0  0
   -0.5574    1.8396   -3.7873 H   0  0  0  0  0  0  0  0  0  0  0  0
   -0.9830   -4.9881   -0.7807 H   0  0  0  0  0  0  0  0  0  0  0  0
    0.5627   -5.7413   -1.2412 H   0  0  0  0  0  0  0  0  0  0  0  0
    0.5542   -4.2047   -0.3428 H   0  0  0  0  0  0  0  0  0  0  0  0
    1.0489   -4.9509   -3.9624 H   0  0  0  0  0  0  0  0  0  0  0  0
   -0.4817   -5.7391   -3.5104 H   0  0  0  0  0  0  0  0  0  0  0  0
   -0.5033   -4.1929   -4.3919 H   0  0  0  0  0  0  0  0  0  0  0  0
  1  2  1  0  0  0  0
  1 16  1  0  0  0  0
  1 17  1  0  0  0  0
  1 18  1  0  0  0  0
  2  3  1  0  0  0  0
  2  4  1  0  0  0  0
  3 19  1  0  0  0  0
  3 20  1  0  0  0  0
  3 21  1  0  0  0  0
  4  9  2  0  0  0  0
  4  5  1  0  0  0  0
  5  6  2  0  0  0  0
  6  7  1  0  0  0  0
  6 13  1  0  0  0  0
  7  8  2  0  0  0  0
  8  9  1  0  0  0  0
  8 10  1  0  0  0  0
 10 11  1  0  0  0  0
 10 12  1  0  0  0  0
 11 22  1  0  0  0  0
 11 23  1  0  0  0  0
 11 24  1  0  0  0  0
 12 25  1  0  0  0  0
 12 26  1  0  0  0  0
 12 27  1  0  0  0  0
 13 14  1  0  0  0  0
 13 15  1  0  0  0  0
 14 28  1  0  0  0  0
 14 29  1  0  0  0  0
 14 30  1  0  0  0  0
 15 31  1  0  0  0  0
 15 32  1  0  0  0  0
 15 33  1  0  0  0  0
M  END
$$$$
