ZINC31261349
 OpenBabel08292219463D

 40 42  0  0  0  0  0  0  0  0999 V2000
    1.5265   -1.0622    1.6097 C   0  0  0  0  0  0  0  0  0  0  0  0
    2.9703   -1.0495    1.3396 N   0  3  0  0  0  0  0  0  0  0  0  0
    3.6332   -2.0623    2.1719 C   0  0  0  0  0  0  0  0  0  0  0  0
    3.2058   -1.3508   -0.0788 C   0  0  0  0  0  0  0  0  0  0  0  0
    2.6226   -0.2302   -0.9419 C   0  0  0  0  0  0  0  0  0  0  0  0
    2.8641   -0.5394   -2.3970 C   0  0  0  0  0  0  0  0  0  0  0  0
    3.4385    0.3768   -3.1910 C   0  0  0  0  0  0  0  0  0  0  0  0
    3.4460    1.7874   -2.7608 C   0  0  0  0  0  0  0  0  0  0  0  0
    2.4921    2.2173   -1.8336 C   0  0  0  0  0  0  0  0  0  0  0  0
    2.4748    3.5299   -1.4146 C   0  0  0  0  0  0  0  0  0  0  0  0
    3.4025    4.4308   -1.9104 C   0  0  0  0  0  0  0  0  0  0  0  0
    4.3490    4.0203   -2.8248 C   0  0  0  0  0  0  0  0  0  0  0  0
    4.3821    2.6958   -3.2576 C   0  0  0  0  0  0  0  0  0  0  0  0
    5.6070    2.2067   -4.4197 S   0  0  0  0  0  0  0  0  0  0  0  0
    5.0273    0.6937   -5.1015 C   0  0  0  0  0  0  0  0  0  0  0  0
    4.0459   -0.0623   -4.4611 C   0  0  0  0  0  0  0  0  0  0  0  0
    3.6198   -1.2634   -5.0351 C   0  0  0  0  0  0  0  0  0  0  0  0
    4.1700   -1.6984   -6.2228 C   0  0  0  0  0  0  0  0  0  0  0  0
    5.1483   -0.9461   -6.8528 C   0  0  0  0  0  0  0  0  0  0  0  0
    5.5677    0.2414   -6.3034 C   0  0  0  0  0  0  0  0  0  0  0  0
    3.6363   -3.1916   -6.9292 Cl  0  0  0  0  0  0  0  0  0  0  0  0
    1.0346   -0.3108    0.9921 H   0  0  0  0  0  0  0  0  0  0  0  0
    1.1217   -2.0468    1.3754 H   0  0  0  0  0  0  0  0  0  0  0  0
    1.3517   -0.8386    2.6621 H   0  0  0  0  0  0  0  0  0  0  0  0
    3.2284   -3.0468    1.9376 H   0  0  0  0  0  0  0  0  0  0  0  0
    4.7046   -2.0528    1.9715 H   0  0  0  0  0  0  0  0  0  0  0  0
    3.4585   -1.8387    3.2243 H   0  0  0  0  0  0  0  0  0  0  0  0
    4.2777   -1.4291   -0.2605 H   0  0  0  0  0  0  0  0  0  0  0  0
    2.7241   -2.2946   -0.3345 H   0  0  0  0  0  0  0  0  0  0  0  0
    1.5507   -0.1520   -0.7602 H   0  0  0  0  0  0  0  0  0  0  0  0
    3.1043    0.7135   -0.6862 H   0  0  0  0  0  0  0  0  0  0  0  0
    2.5749   -1.4985   -2.8005 H   0  0  0  0  0  0  0  0  0  0  0  0
    1.7662    1.5186   -1.4447 H   0  0  0  0  0  0  0  0  0  0  0  0
    1.7358    3.8570   -0.6981 H   0  0  0  0  0  0  0  0  0  0  0  0
    3.3842    5.4588   -1.5798 H   0  0  0  0  0  0  0  0  0  0  0  0
    5.0688    4.7287   -3.2077 H   0  0  0  0  0  0  0  0  0  0  0  0
    2.8577   -1.8528   -4.5471 H   0  0  0  0  0  0  0  0  0  0  0  0
    5.5764   -1.2904   -7.7826 H   0  0  0  0  0  0  0  0  0  0  0  0
    6.3309    0.8214   -6.8010 H   0  0  0  0  0  0  0  0  0  0  0  0
    3.3451   -0.1381    1.5565 H   0  0  0  0  0  0  0  0  0  0  0  0
  1  2  1  0  0  0  0
  1 22  1  0  0  0  0
  1 23  1  0  0  0  0
  1 24  1  0  0  0  0
  2  3  1  0  0  0  0
  2  4  1  0  0  0  0
  2 40  1  0  0  0  0
  3 25  1  0  0  0  0
  3 26  1  0  0  0  0
  3 27  1  0  0  0  0
  4  5  1  0  0  0  0
  4 28  1  0  0  0  0
  4 29  1  0  0  0  0
  5  6  1  0  0  0  0
  5 30  1  0  0  0  0
  5 31  1  0  0  0  0
  6  7  2  0  0  0  0
  6 32  1  0  0  0  0
  7 16  1  0  0  0  0
  7  8  1  0  0  0  0
  8 13  2  0  0  0  0
  8  9  1  0  0  0  0
  9 10  2  0  0  0  0
  9 33  1  0  0  0  0
 10 11  1  0  0  0  0
 10 34  1  0  0  0  0
 11 12  2  0  0  0  0
 11 35  1  0  0  0  0
 12 13  1  0  0  0  0
 12 36  1  0  0  0  0
 13 14  1  0  0  0  0
 14 15  1  0  0  0  0
 15 20  2  0  0  0  0
 15 16  1  0  0  0  0
 16 17  2  0  0  0  0
 17 18  1  0  0  0  0
 17 37  1  0  0  0  0
 18 19  2  0  0  0  0
 18 21  1  0  0  0  0
 19 20  1  0  0  0  0
 19 38  1  0  0  0  0
 20 39  1  0  0  0  0
M  CHG  1   2   1
M  END
$$$$
