ZINC08214692
 OpenBabel08292219463D

 74 76  0  0  1  0  0  0  0  0999 V2000
   -0.0152    1.1540   -0.1171 C   0  0  0  0  0  0  0  0  0  0  0  0
    1.3190    1.8013    0.2593 C   0  0  1  0  0  0  0  0  0  0  0  0
    1.6969    1.3482    1.1759 H   0  0  0  0  0  0  0  0  0  0  0  0
    2.3278    1.5843   -0.8704 C   0  0  2  0  0  0  0  0  0  0  0  0
    1.9499    2.0374   -1.7869 H   0  0  0  0  0  0  0  0  0  0  0  0
    2.5327    0.0841   -1.0900 C   0  0  1  0  0  0  0  0  0  0  0  0
    2.9106   -0.3690   -0.1735 H   0  0  0  0  0  0  0  0  0  0  0  0
    1.1985   -0.5632   -1.4664 C   0  0  2  0  0  0  0  0  0  0  0  0
    0.8206   -0.1100   -2.3829 H   0  0  0  0  0  0  0  0  0  0  0  0
    0.1897   -0.3462   -0.3367 C   0  0  2  0  0  0  0  0  0  0  0  0
    0.5676   -0.7993    0.5798 H   0  0  0  0  0  0  0  0  0  0  0  0
   -1.0914   -0.9677   -0.6982 N   0  3  0  0  0  0  0  0  0  0  0  0
    1.3899   -1.9643   -1.6715 O   0  0  0  0  0  0  0  0  0  0  0  0
    0.5244   -2.5310   -2.6573 C   0  0  2  0  0  0  0  0  0  0  0  0
   -0.4961   -2.1890   -2.4849 H   0  0  0  0  0  0  0  0  0  0  0  0
    0.5738   -4.0582   -2.5630 C   0  0  1  0  0  0  0  0  0  0  0  0
   -0.1165   -4.4905   -3.2873 H   0  0  0  0  0  0  0  0  0  0  0  0
    1.9978   -4.5348   -2.8654 C   0  0  2  0  0  0  0  0  0  0  0  0
    2.6812   -4.1428   -2.1121 H   0  0  0  0  0  0  0  0  0  0  0  0
    2.4124   -4.0242   -4.2488 C   0  0  1  0  0  0  0  0  0  0  0  0
    1.7592   -4.4557   -5.0071 H   0  0  0  0  0  0  0  0  0  0  0  0
    2.2919   -2.4983   -4.2780 C   0  0  2  0  0  0  0  0  0  0  0  0
    2.9752   -2.0656   -3.5473 H   0  0  0  0  0  0  0  0  0  0  0  0
    0.9509   -2.1212   -3.9582 O   0  0  0  0  0  0  0  0  0  0  0  0
    2.6470   -1.9851   -5.6750 C   0  0  0  0  0  0  0  0  0  0  0  0
    2.6355   -0.5562   -5.6747 O   0  0  0  0  0  0  0  0  0  0  0  0
    3.7649   -4.4028   -4.5119 O   0  0  0  0  0  0  0  0  0  0  0  0
    2.0384   -6.0032   -2.8492 N   0  3  0  0  0  0  0  0  0  0  0  0
    0.2017   -4.4675   -1.2454 O   0  0  0  0  0  0  0  0  0  0  0  0
    3.4749   -0.1185   -2.1451 O   0  0  0  0  0  0  0  0  0  0  0  0
    3.5740    2.1889   -0.5188 O   0  0  0  0  0  0  0  0  0  0  0  0
    4.3308    2.6537   -1.6382 C   0  0  2  0  0  0  0  0  0  0  0  0
    4.4031    1.8608   -2.3826 H   0  0  0  0  0  0  0  0  0  0  0  0
    5.7355    3.0495   -1.1759 C   0  0  1  0  0  0  0  0  0  0  0  0
    6.3263    3.3659   -2.0355 H   0  0  0  0  0  0  0  0  0  0  0  0
    5.6288    4.2043   -0.1752 C   0  0  0  0  0  0  0  0  0  0  0  0
    4.8839    5.3693   -0.8342 C   0  0  1  0  0  0  0  0  0  0  0  0
    5.4575    5.7326   -1.6870 H   0  0  0  0  0  0  0  0  0  0  0  0
    3.5121    4.8839   -1.3097 C   0  0  2  0  0  0  0  0  0  0  0  0
    2.9241    4.5585   -0.4516 H   0  0  0  0  0  0  0  0  0  0  0  0
    3.6821    3.7897   -2.2134 O   0  0  0  0  0  0  0  0  0  0  0  0
    2.7855    6.0263   -2.0225 C   0  0  0  0  0  0  0  0  0  0  0  0
    1.4247    5.5980   -2.3729 N   0  3  0  0  0  0  0  0  0  0  0  0
    4.7159    6.4258    0.1132 O   0  0  0  0  0  0  0  0  0  0  0  0
    6.3829    1.8987   -0.5321 N   0  3  0  0  0  0  0  0  0  0  0  0
    1.1223    3.2417    0.4702 N   0  3  0  0  0  0  0  0  0  0  0  0
   -0.7339    1.3086    0.6877 H   0  0  0  0  0  0  0  0  0  0  0  0
   -0.3931    1.6071   -1.0336 H   0  0  0  0  0  0  0  0  0  0  0  0
   -1.3798   -0.6393   -1.6076 H   0  0  0  0  0  0  0  0  0  0  0  0
   -0.9840   -1.9707   -0.7213 H   0  0  0  0  0  0  0  0  0  0  0  0
    3.6398   -2.3404   -5.9511 H   0  0  0  0  0  0  0  0  0  0  0  0
    1.9159   -2.3542   -6.3943 H   0  0  0  0  0  0  0  0  0  0  0  0
    2.8523   -0.1609   -6.5302 H   0  0  0  0  0  0  0  0  0  0  0  0
    4.0944   -4.1115   -5.3732 H   0  0  0  0  0  0  0  0  0  0  0  0
    1.4076   -6.3648   -3.5488 H   0  0  0  0  0  0  0  0  0  0  0  0
    2.9768   -6.3159   -3.0485 H   0  0  0  0  0  0  0  0  0  0  0  0
   -0.6890   -4.1948   -0.9856 H   0  0  0  0  0  0  0  0  0  0  0  0
    3.7412   -1.0406   -2.2629 H   0  0  0  0  0  0  0  0  0  0  0  0
    5.0804    3.8731    0.7067 H   0  0  0  0  0  0  0  0  0  0  0  0
    6.6281    4.5283    0.1156 H   0  0  0  0  0  0  0  0  0  0  0  0
    2.7352    6.8925   -1.3627 H   0  0  0  0  0  0  0  0  0  0  0  0
    3.3279    6.2917   -2.9299 H   0  0  0  0  0  0  0  0  0  0  0  0
    1.4712    4.7962   -2.9835 H   0  0  0  0  0  0  0  0  0  0  0  0
    0.9226    5.3523   -1.5328 H   0  0  0  0  0  0  0  0  0  0  0  0
    5.5467    6.7787    0.4602 H   0  0  0  0  0  0  0  0  0  0  0  0
    6.4483    1.1375   -1.1912 H   0  0  0  0  0  0  0  0  0  0  0  0
    7.3086    2.1604   -0.2277 H   0  0  0  0  0  0  0  0  0  0  0  0
    0.4570    3.3848    1.2152 H   0  0  0  0  0  0  0  0  0  0  0  0
    2.0022    3.6686    0.7184 H   0  0  0  0  0  0  0  0  0  0  0  0
    0.9456    6.3514   -2.8429 H   0  0  0  0  0  0  0  0  0  0  0  0
    0.7725    3.6611   -0.3782 H   0  0  0  0  0  0  0  0  0  0  0  0
   -1.7903   -0.7199   -0.0139 H   0  0  0  0  0  0  0  0  0  0  0  0
    1.7587   -6.3374   -1.9391 H   0  0  0  0  0  0  0  0  0  0  0  0
    5.8366    1.6078    0.2647 H   0  0  0  0  0  0  0  0  0  0  0  0
  1 10  1  0  0  0  0
  1  2  1  0  0  0  0
  1 47  1  0  0  0  0
  1 48  1  0  0  0  0
  2  3  1  1  0  0  0
  2  4  1  0  0  0  0
  2 46  1  0  0  0  0
  4  5  1  6  0  0  0
  4  6  1  0  0  0  0
  4 31  1  0  0  0  0
  6  7  1  1  0  0  0
  6  8  1  0  0  0  0
  6 30  1  0  0  0  0
  8  9  1  6  0  0  0
  8 10  1  0  0  0  0
  8 13  1  0  0  0  0
 10 11  1  1  0  0  0
 10 12  1  0  0  0  0
 12 49  1  0  0  0  0
 12 50  1  0  0  0  0
 12 72  1  0  0  0  0
 13 14  1  0  0  0  0
 14 15  1  1  0  0  0
 14 24  1  0  0  0  0
 14 16  1  0  0  0  0
 16 17  1  6  0  0  0
 16 18  1  0  0  0  0
 16 29  1  0  0  0  0
 18 19  1  1  0  0  0
 18 20  1  0  0  0  0
 18 28  1  0  0  0  0
 20 21  1  6  0  0  0
 20 22  1  0  0  0  0
 20 27  1  0  0  0  0
 22 23  1  1  0  0  0
 22 24  1  0  0  0  0
 22 25  1  0  0  0  0
 25 26  1  0  0  0  0
 25 51  1  0  0  0  0
 25 52  1  0  0  0  0
 26 53  1  0  0  0  0
 27 54  1  0  0  0  0
 28 55  1  0  0  0  0
 28 56  1  0  0  0  0
 28 73  1  0  0  0  0
 29 57  1  0  0  0  0
 30 58  1  0  0  0  0
 31 32  1  0  0  0  0
 32 33  1  6  0  0  0
 32 41  1  0  0  0  0
 32 34  1  0  0  0  0
 34 35  1  6  0  0  0
 34 36  1  0  0  0  0
 34 45  1  0  0  0  0
 36 37  1  0  0  0  0
 36 59  1  0  0  0  0
 36 60  1  0  0  0  0
 37 38  1  6  0  0  0
 37 39  1  0  0  0  0
 37 44  1  0  0  0  0
 39 40  1  1  0  0  0
 39 41  1  0  0  0  0
 39 42  1  0  0  0  0
 42 43  1  0  0  0  0
 42 61  1  0  0  0  0
 42 62  1  0  0  0  0
 43 63  1  0  0  0  0
 43 64  1  0  0  0  0
 43 70  1  0  0  0  0
 44 65  1  0  0  0  0
 45 66  1  0  0  0  0
 45 67  1  0  0  0  0
 45 74  1  0  0  0  0
 46 68  1  0  0  0  0
 46 69  1  0  0  0  0
 46 71  1  0  0  0  0
M  CHG  5  12   1  28   1  43   1  45   1  46   1
M  END
$$$$
