ZINC00000504
 OpenBabel08292219463D

 41 44  0  0  1  0  0  0  0  0999 V2000
   -0.0178    1.4648    0.0101 C   0  0  0  0  0  0  0  0  0  0  0  0
    0.0021   -0.0041    0.0020 N   0  3  2  0  0  0  0  0  0  0  0  0
   -1.3782   -0.5248    0.0610 C   0  0  0  0  0  0  0  0  0  0  0  0
   -1.3147   -2.0017   -0.3247 C   0  0  0  0  0  0  0  0  0  0  0  0
   -0.2536   -2.6823    0.4304 N   0  0  0  0  0  0  0  0  0  0  0  0
   -0.1632   -4.0681    0.2474 C   0  0  0  0  0  0  0  0  0  0  0  0
    0.1651   -4.5655   -1.0110 C   0  0  0  0  0  0  0  0  0  0  0  0
    0.3219   -5.9257   -1.1894 C   0  0  0  0  0  0  0  0  0  0  0  0
    0.1595   -6.7897   -0.1216 C   0  0  0  0  0  0  0  0  0  0  0  0
   -0.1903   -6.2968    1.1226 C   0  0  0  0  0  0  0  0  0  0  0  0
   -0.3794   -4.9379    1.2936 C   0  0  0  0  0  0  0  0  0  0  0  0
   -0.9055   -4.4020    2.5876 C   0  0  0  0  0  0  0  0  0  0  0  0
    0.0255   -3.4607    3.2849 C   0  0  0  0  0  0  0  0  0  0  0  0
    0.2033   -3.7275    4.6483 C   0  0  0  0  0  0  0  0  0  0  0  0
    1.0009   -2.9352    5.4386 C   0  0  0  0  0  0  0  0  0  0  0  0
    1.6407   -1.8450    4.8776 C   0  0  0  0  0  0  0  0  0  0  0  0
    1.4792   -1.5873    3.5373 C   0  0  0  0  0  0  0  0  0  0  0  0
    0.6836   -2.4040    2.7249 C   0  0  0  0  0  0  0  0  0  0  0  0
    0.6957   -2.0166    1.2712 C   0  0  2  0  0  0  0  0  0  0  0  0
    1.6762   -2.3177    0.9022 H   0  0  0  0  0  0  0  0  0  0  0  0
    0.7079   -0.4980    1.1840 C   0  0  0  0  0  0  0  0  0  0  0  0
    1.0047    1.8421    0.0024 H   0  0  0  0  0  0  0  0  0  0  0  0
   -0.5450    1.8259   -0.8730 H   0  0  0  0  0  0  0  0  0  0  0  0
   -0.5280    1.8163    0.9069 H   0  0  0  0  0  0  0  0  0  0  0  0
   -1.7720   -0.4210    1.0720 H   0  0  0  0  0  0  0  0  0  0  0  0
   -2.0104    0.0166   -0.6429 H   0  0  0  0  0  0  0  0  0  0  0  0
   -2.2727   -2.4732   -0.1054 H   0  0  0  0  0  0  0  0  0  0  0  0
   -1.1096   -2.0872   -1.3918 H   0  0  0  0  0  0  0  0  0  0  0  0
    0.2970   -3.8905   -1.8436 H   0  0  0  0  0  0  0  0  0  0  0  0
    0.5722   -6.3158   -2.1649 H   0  0  0  0  0  0  0  0  0  0  0  0
    0.3058   -7.8509   -0.2596 H   0  0  0  0  0  0  0  0  0  0  0  0
   -0.3156   -6.9709    1.9570 H   0  0  0  0  0  0  0  0  0  0  0  0
   -1.8427   -3.8810    2.3915 H   0  0  0  0  0  0  0  0  0  0  0  0
   -1.1118   -5.2412    3.2519 H   0  0  0  0  0  0  0  0  0  0  0  0
   -0.2988   -4.5760    5.0892 H   0  0  0  0  0  0  0  0  0  0  0  0
    1.1270   -3.1618    6.4870 H   0  0  0  0  0  0  0  0  0  0  0  0
    2.2602   -1.2030    5.4861 H   0  0  0  0  0  0  0  0  0  0  0  0
    1.9776   -0.7345    3.1006 H   0  0  0  0  0  0  0  0  0  0  0  0
    1.7417   -0.1544    1.1475 H   0  0  0  0  0  0  0  0  0  0  0  0
    0.2329   -0.0891    2.0758 H   0  0  0  0  0  0  0  0  0  0  0  0
    0.4593   -0.3360   -0.8339 H   0  0  0  0  0  0  0  0  0  0  0  0
  1  2  1  0  0  0  0
  1 22  1  0  0  0  0
  1 23  1  0  0  0  0
  1 24  1  0  0  0  0
  2 21  1  0  0  0  0
  2  3  1  0  0  0  0
  2 41  1  6  0  0  0
  3  4  1  0  0  0  0
  3 25  1  0  0  0  0
  3 26  1  0  0  0  0
  4  5  1  0  0  0  0
  4 27  1  0  0  0  0
  4 28  1  0  0  0  0
  5 19  1  0  0  0  0
  5  6  1  0  0  0  0
  6 11  2  0  0  0  0
  6  7  1  0  0  0  0
  7  8  2  0  0  0  0
  7 29  1  0  0  0  0
  8  9  1  0  0  0  0
  8 30  1  0  0  0  0
  9 10  2  0  0  0  0
  9 31  1  0  0  0  0
 10 11  1  0  0  0  0
 10 32  1  0  0  0  0
 11 12  1  0  0  0  0
 12 13  1  0  0  0  0
 12 33  1  0  0  0  0
 12 34  1  0  0  0  0
 13 18  2  0  0  0  0
 13 14  1  0  0  0  0
 14 15  2  0  0  0  0
 14 35  1  0  0  0  0
 15 16  1  0  0  0  0
 15 36  1  0  0  0  0
 16 17  2  0  0  0  0
 16 37  1  0  0  0  0
 17 18  1  0  0  0  0
 17 38  1  0  0  0  0
 18 19  1  0  0  0  0
 19 20  1  6  0  0  0
 19 21  1  0  0  0  0
 21 39  1  0  0  0  0
 21 40  1  0  0  0  0
M  CHG  1   2   1
M  END
$$$$
