ZINC01530695
 OpenBabel08292219463D

 52 55  0  0  1  0  0  0  0  0999 V2000
   -1.1433    3.8527    2.8784 C   0  0  0  0  0  0  0  0  0  0  0  0
   -1.4072    3.2632    1.5590 N   0  3  2  0  0  0  0  0  0  0  0  0
   -2.7176    2.6020    1.5734 C   0  0  0  0  0  0  0  0  0  0  0  0
   -3.0331    2.0563    0.1791 C   0  0  0  0  0  0  0  0  0  0  0  0
   -1.9545    1.0467   -0.2240 C   0  0  0  0  0  0  0  0  0  0  0  0
   -0.5840    1.7272   -0.1636 C   0  0  0  0  0  0  0  0  0  0  0  0
   -0.3592    2.2851    1.2434 C   0  0  1  0  0  0  0  0  0  0  0  0
   -0.3936    1.4703    1.9666 H   0  0  0  0  0  0  0  0  0  0  0  0
    1.0094    2.9660    1.3087 C   0  0  0  0  0  0  0  0  0  0  0  0
    2.1091    1.9201    1.1151 C   0  0  0  0  0  0  0  0  0  0  0  0
    3.4204    2.5646    1.2225 N   0  0  0  0  0  0  0  0  0  0  0  0
    4.0139    2.6094    2.4812 C   0  0  0  0  0  0  0  0  0  0  0  0
    3.2033    2.5259    3.6086 C   0  0  0  0  0  0  0  0  0  0  0  0
    3.7597    2.5612    4.8729 C   0  0  0  0  0  0  0  0  0  0  0  0
    5.1280    2.6793    5.0277 C   0  0  0  0  0  0  0  0  0  0  0  0
    5.9435    2.7651    3.9143 C   0  0  0  0  0  0  0  0  0  0  0  0
    5.3912    2.7328    2.6416 C   0  0  0  0  0  0  0  0  0  0  0  0
    6.4447    2.8536    1.2352 S   0  0  0  0  0  0  0  0  0  0  0  0
    5.3514    3.2711   -0.0815 C   0  0  0  0  0  0  0  0  0  0  0  0
    3.9807    3.0807    0.0571 C   0  0  0  0  0  0  0  0  0  0  0  0
    3.1391    3.4181   -0.9969 C   0  0  0  0  0  0  0  0  0  0  0  0
    3.6637    3.9309   -2.1755 C   0  0  0  0  0  0  0  0  0  0  0  0
    5.0342    4.1090   -2.3068 C   0  0  0  0  0  0  0  0  0  0  0  0
    5.8696    3.7867   -1.2603 C   0  0  0  0  0  0  0  0  0  0  0  0
    2.5893    4.3553   -3.5060 S   0  0  0  0  0  0  0  0  0  0  0  0
    3.7086    4.9669   -4.7959 C   0  0  0  0  0  0  0  0  0  0  0  0
   -0.2348    4.4533    2.8329 H   0  0  0  0  0  0  0  0  0  0  0  0
   -1.9826    4.4850    3.1683 H   0  0  0  0  0  0  0  0  0  0  0  0
   -1.0168    3.0575    3.6130 H   0  0  0  0  0  0  0  0  0  0  0  0
   -2.7016    1.7804    2.2896 H   0  0  0  0  0  0  0  0  0  0  0  0
   -3.4837    3.3210    1.8636 H   0  0  0  0  0  0  0  0  0  0  0  0
   -4.0056    1.5642    0.1923 H   0  0  0  0  0  0  0  0  0  0  0  0
   -3.0495    2.8771   -0.5379 H   0  0  0  0  0  0  0  0  0  0  0  0
   -1.9720    0.2007    0.4631 H   0  0  0  0  0  0  0  0  0  0  0  0
   -2.1435    0.6972   -1.2391 H   0  0  0  0  0  0  0  0  0  0  0  0
    0.1941    0.9999   -0.3954 H   0  0  0  0  0  0  0  0  0  0  0  0
   -0.5496    2.5412   -0.8877 H   0  0  0  0  0  0  0  0  0  0  0  0
    1.0795    3.7170    0.5218 H   0  0  0  0  0  0  0  0  0  0  0  0
    1.1307    3.4453    2.2802 H   0  0  0  0  0  0  0  0  0  0  0  0
    2.0183    1.1511    1.8823 H   0  0  0  0  0  0  0  0  0  0  0  0
    2.0078    1.4644    0.1302 H   0  0  0  0  0  0  0  0  0  0  0  0
    2.1332    2.4333    3.4951 H   0  0  0  0  0  0  0  0  0  0  0  0
    3.1233    2.4958    5.7430 H   0  0  0  0  0  0  0  0  0  0  0  0
    5.5598    2.7050    6.0173 H   0  0  0  0  0  0  0  0  0  0  0  0
    7.0127    2.8577    4.0355 H   0  0  0  0  0  0  0  0  0  0  0  0
    2.0724    3.2810   -0.8981 H   0  0  0  0  0  0  0  0  0  0  0  0
    5.4429    4.5065   -3.2241 H   0  0  0  0  0  0  0  0  0  0  0  0
    6.9356    3.9267   -1.3633 H   0  0  0  0  0  0  0  0  0  0  0  0
    4.4111    4.1800   -5.0704 H   0  0  0  0  0  0  0  0  0  0  0  0
    3.1288    5.2582   -5.6718 H   0  0  0  0  0  0  0  0  0  0  0  0
    4.2583    5.8301   -4.4206 H   0  0  0  0  0  0  0  0  0  0  0  0
   -1.4078    3.9913    0.8605 H   0  0  0  0  0  0  0  0  0  0  0  0
  1  2  1  0  0  0  0
  1 27  1  0  0  0  0
  1 28  1  0  0  0  0
  1 29  1  0  0  0  0
  2  7  1  0  0  0  0
  2  3  1  0  0  0  0
  2 52  1  6  0  0  0
  3  4  1  0  0  0  0
  3 30  1  0  0  0  0
  3 31  1  0  0  0  0
  4  5  1  0  0  0  0
  4 32  1  0  0  0  0
  4 33  1  0  0  0  0
  5  6  1  0  0  0  0
  5 34  1  0  0  0  0
  5 35  1  0  0  0  0
  6  7  1  0  0  0  0
  6 36  1  0  0  0  0
  6 37  1  0  0  0  0
  7  8  1  1  0  0  0
  7  9  1  0  0  0  0
  9 10  1  0  0  0  0
  9 38  1  0  0  0  0
  9 39  1  0  0  0  0
 10 11  1  0  0  0  0
 10 40  1  0  0  0  0
 10 41  1  0  0  0  0
 11 20  1  0  0  0  0
 11 12  1  0  0  0  0
 12 17  2  0  0  0  0
 12 13  1  0  0  0  0
 13 14  2  0  0  0  0
 13 42  1  0  0  0  0
 14 15  1  0  0  0  0
 14 43  1  0  0  0  0
 15 16  2  0  0  0  0
 15 44  1  0  0  0  0
 16 17  1  0  0  0  0
 16 45  1  0  0  0  0
 17 18  1  0  0  0  0
 18 19  1  0  0  0  0
 19 24  2  0  0  0  0
 19 20  1  0  0  0  0
 20 21  2  0  0  0  0
 21 22  1  0  0  0  0
 21 46  1  0  0  0  0
 22 23  2  0  0  0  0
 22 25  1  0  0  0  0
 23 24  1  0  0  0  0
 23 47  1  0  0  0  0
 24 48  1  0  0  0  0
 25 26  1  0  0  0  0
 26 49  1  0  0  0  0
 26 50  1  0  0  0  0
 26 51  1  0  0  0  0
M  CHG  1   2   1
M  END
$$$$
