ZINC00001505
 OpenBabel08292219463D

 31 32  0  0  0  0  0  0  0  0999 V2000
   -0.0164    1.3606    0.0095 C   0  0  0  0  0  0  0  0  0  0  0  0
    1.2014    1.8181    0.0004 N   0  0  0  0  0  0  0  0  0  0  0  0
    2.0711    0.7788   -0.0135 C   0  0  0  0  0  0  0  0  0  0  0  0
    3.4818    0.6749   -0.0276 C   0  0  0  0  0  0  0  0  0  0  0  0
    4.1818    1.6731   -0.0285 O   0  0  0  0  0  0  0  0  0  0  0  0
    4.0343   -0.5584   -0.0395 N   0  0  0  0  0  0  0  0  0  0  0  0
    4.9994   -0.6547   -0.0489 H   0  0  0  0  0  0  0  0  0  0  0  0
    3.2421   -1.6676   -0.0379 C   0  0  0  0  0  0  0  0  0  0  0  0
    1.9305   -1.5844   -0.0253 N   0  0  0  0  0  0  0  0  0  0  0  0
    1.3128   -0.3975   -0.0126 C   0  0  0  0  0  0  0  0  0  0  0  0
    0.0021   -0.0041    0.0020 N   0  0  0  0  0  0  0  0  0  0  0  0
   -1.1673   -0.8865    0.0089 C   0  0  0  0  0  0  0  0  0  0  0  0
   -2.3590   -0.0979    0.0243 O   0  0  0  0  0  0  0  0  0  0  0  0
   -3.5641   -0.8659    0.0321 C   0  0  0  0  0  0  0  0  0  0  0  0
   -3.9802   -1.1472    1.4773 C   0  0  0  0  0  0  0  0  0  0  0  0
   -4.3114    0.0824    2.1256 O   0  0  0  0  0  0  0  0  0  0  0  0
   -4.6724   -0.0829   -0.6745 C   0  0  0  0  0  0  0  0  0  0  0  0
   -4.9718    1.0980    0.0723 O   0  0  0  0  0  0  0  0  0  0  0  0
    3.8310   -2.9070   -0.0502 N   0  0  0  0  0  0  0  0  0  0  0  0
   -0.9084    1.9694    0.0254 H   0  0  0  0  0  0  0  0  0  0  0  0
   -1.1565   -1.5110   -0.8844 H   0  0  0  0  0  0  0  0  0  0  0  0
   -1.1393   -1.5199    0.8955 H   0  0  0  0  0  0  0  0  0  0  0  0
   -3.3972   -1.8091   -0.4881 H   0  0  0  0  0  0  0  0  0  0  0  0
   -4.8482   -1.8066    1.4837 H   0  0  0  0  0  0  0  0  0  0  0  0
   -3.1562   -1.6263    2.0060 H   0  0  0  0  0  0  0  0  0  0  0  0
   -4.5850   -0.0202    3.0474 H   0  0  0  0  0  0  0  0  0  0  0  0
   -4.3402    0.1944   -1.6750 H   0  0  0  0  0  0  0  0  0  0  0  0
   -5.5658   -0.7031   -0.7473 H   0  0  0  0  0  0  0  0  0  0  0  0
   -5.6676    1.6445   -0.3181 H   0  0  0  0  0  0  0  0  0  0  0  0
    4.7979   -2.9845   -0.0598 H   0  0  0  0  0  0  0  0  0  0  0  0
    3.2805   -3.7056   -0.0492 H   0  0  0  0  0  0  0  0  0  0  0  0
  1 11  1  0  0  0  0
  1  2  2  0  0  0  0
  1 20  1  0  0  0  0
  2  3  1  0  0  0  0
  3 10  2  0  0  0  0
  3  4  1  0  0  0  0
  4  5  2  0  0  0  0
  4  6  1  0  0  0  0
  6  7  1  0  0  0  0
  6  8  1  0  0  0  0
  8  9  2  0  0  0  0
  8 19  1  0  0  0  0
  9 10  1  0  0  0  0
 10 11  1  0  0  0  0
 11 12  1  0  0  0  0
 12 13  1  0  0  0  0
 12 21  1  0  0  0  0
 12 22  1  0  0  0  0
 13 14  1  0  0  0  0
 14 15  1  0  0  0  0
 14 17  1  0  0  0  0
 14 23  1  0  0  0  0
 15 16  1  0  0  0  0
 15 24  1  0  0  0  0
 15 25  1  0  0  0  0
 16 26  1  0  0  0  0
 17 18  1  0  0  0  0
 17 27  1  0  0  0  0
 17 28  1  0  0  0  0
 18 29  1  0  0  0  0
 19 30  1  0  0  0  0
 19 31  1  0  0  0  0
M  END
$$$$
