ZINC00897232
 OpenBabel08292219463D

 31 32  0  0  1  0  0  0  0  0999 V2000
    0.1234    1.3784   -0.0402 C   0  0  0  0  0  0  0  0  0  0  0  0
    0.0494   -0.0847   -0.0510 N   0  0  0  0  0  0  0  0  0  0  0  0
   -1.2389   -0.8049    0.0034 C   0  0  1  0  0  0  0  0  0  0  0  0
   -2.0590   -0.0870    0.0156 H   0  0  0  0  0  0  0  0  0  0  0  0
   -1.3498   -1.6555   -1.1792 N   0  0  0  0  0  0  0  0  0  0  0  0
   -0.3474   -2.5303   -1.5893 C   0  0  0  0  0  0  0  0  0  0  0  0
   -0.6870   -3.6025   -2.4128 C   0  0  0  0  0  0  0  0  0  0  0  0
    0.2863   -4.4777   -2.8503 C   0  0  0  0  0  0  0  0  0  0  0  0
    1.6065   -4.2969   -2.4750 C   0  0  0  0  0  0  0  0  0  0  0  0
    1.9493   -3.2391   -1.6528 C   0  0  0  0  0  0  0  0  0  0  0  0
    0.9775   -2.3671   -1.2078 C   0  0  0  0  0  0  0  0  0  0  0  0
    1.4148   -1.0398   -0.1325 S   0  0  0  0  0  0  0  0  0  0  0  0
    2.4144   -0.2793   -0.7971 O   0  0  0  0  0  0  0  0  0  0  0  0
    1.6060   -1.6019    1.1585 O   0  0  0  0  0  0  0  0  0  0  0  0
    2.8470   -5.4113   -3.0440 S   0  0  0  0  0  0  0  0  0  0  0  0
    2.6642   -5.5405   -4.4473 O   0  0  0  0  0  0  0  0  0  0  0  0
    4.0741   -4.9794   -2.4722 O   0  0  0  0  0  0  0  0  0  0  0  0
    2.5134   -6.8934   -2.3848 N   0  0  0  0  0  0  0  0  0  0  0  0
   -0.1466   -5.8108   -3.8745 Cl  0  0  0  0  0  0  0  0  0  0  0  0
   -1.2923   -1.6667    1.2664 C   0  0  0  0  0  0  0  0  0  0  0  0
   -2.9257   -2.4157    1.4144 Cl  0  0  0  0  0  0  0  0  0  0  0  0
    1.1667    1.6898   -0.0920 H   0  0  0  0  0  0  0  0  0  0  0  0
   -0.4175    1.7759   -0.8990 H   0  0  0  0  0  0  0  0  0  0  0  0
   -0.3239    1.7580    0.8784 H   0  0  0  0  0  0  0  0  0  0  0  0
   -2.1634   -1.6086   -1.7053 H   0  0  0  0  0  0  0  0  0  0  0  0
   -1.7151   -3.7486   -2.7098 H   0  0  0  0  0  0  0  0  0  0  0  0
    2.9786   -3.0956   -1.3589 H   0  0  0  0  0  0  0  0  0  0  0  0
    1.7442   -7.0039   -1.8043 H   0  0  0  0  0  0  0  0  0  0  0  0
    3.0872   -7.6509   -2.5792 H   0  0  0  0  0  0  0  0  0  0  0  0
   -0.5375   -2.4506    1.2036 H   0  0  0  0  0  0  0  0  0  0  0  0
   -1.0976   -1.0440    2.1396 H   0  0  0  0  0  0  0  0  0  0  0  0
  1  2  1  0  0  0  0
  1 22  1  0  0  0  0
  1 23  1  0  0  0  0
  1 24  1  0  0  0  0
  2 12  1  0  0  0  0
  2  3  1  0  0  0  0
  3  4  1  1  0  0  0
  3  5  1  0  0  0  0
  3 20  1  0  0  0  0
  5  6  1  0  0  0  0
  5 25  1  0  0  0  0
  6 11  2  0  0  0  0
  6  7  1  0  0  0  0
  7  8  2  0  0  0  0
  7 26  1  0  0  0  0
  8  9  1  0  0  0  0
  8 19  1  0  0  0  0
  9 10  2  0  0  0  0
  9 15  1  0  0  0  0
 10 11  1  0  0  0  0
 10 27  1  0  0  0  0
 11 12  1  0  0  0  0
 12 13  2  0  0  0  0
 12 14  2  0  0  0  0
 15 16  2  0  0  0  0
 15 17  2  0  0  0  0
 15 18  1  0  0  0  0
 18 28  1  0  0  0  0
 18 29  1  0  0  0  0
 20 21  1  0  0  0  0
 20 30  1  0  0  0  0
 20 31  1  0  0  0  0
M  END
$$$$
