ZINC19364222
 OpenBabel08292219463D

 54 56  0  0  1  0  0  0  0  0999 V2000
    6.5838    1.7354   -2.0449 C   0  0  0  0  0  0  0  0  0  0  0  0
    6.6402    1.5890   -0.6715 C   0  0  0  0  0  0  0  0  0  0  0  0
    5.7105    0.7987   -0.0219 C   0  0  0  0  0  0  0  0  0  0  0  0
    4.7241    0.1552   -0.7456 C   0  0  0  0  0  0  0  0  0  0  0  0
    4.6671    0.3024   -2.1190 C   0  0  0  0  0  0  0  0  0  0  0  0
    5.5977    1.0915   -2.7687 C   0  0  0  0  0  0  0  0  0  0  0  0
    3.7112   -0.7071   -0.0376 C   0  0  1  0  0  0  0  0  0  0  0  0
    4.0605   -0.9234    0.9720 H   0  0  0  0  0  0  0  0  0  0  0  0
    2.3932    0.0203    0.0319 C   0  0  0  0  0  0  0  0  0  0  0  0
    1.5996    0.1215   -1.0955 C   0  0  0  0  0  0  0  0  0  0  0  0
    0.3907    0.7885   -1.0324 C   0  0  0  0  0  0  0  0  0  0  0  0
   -0.0252    1.3549    0.1595 C   0  0  0  0  0  0  0  0  0  0  0  0
    0.7695    1.2532    1.2874 C   0  0  0  0  0  0  0  0  0  0  0  0
    1.9756    0.5811    1.2245 C   0  0  0  0  0  0  0  0  0  0  0  0
   -1.5432    2.1933    0.2394 Cl  0  0  0  0  0  0  0  0  0  0  0  0
    3.5378   -1.9653   -0.7758 N   0  0  0  0  0  0  0  0  0  0  0  0
    2.5169   -2.8115   -0.1418 C   0  0  0  0  0  0  0  0  0  0  0  0
    2.3244   -4.0823   -0.9724 C   0  0  0  0  0  0  0  0  0  0  0  0
    3.5990   -4.8067   -1.0618 N   0  3  2  0  0  0  0  0  0  0  0  0
    4.6016   -3.9580   -1.7191 C   0  0  0  0  0  0  0  0  0  0  0  0
    4.8130   -2.6862   -0.8947 C   0  0  0  0  0  0  0  0  0  0  0  0
    3.4096   -6.0357   -1.8439 C   0  0  0  0  0  0  0  0  0  0  0  0
    4.7036   -6.8519   -1.8326 C   0  0  0  0  0  0  0  0  0  0  0  0
    4.9787   -7.2902   -0.5006 O   0  0  0  0  0  0  0  0  0  0  0  0
    6.1728   -8.0657   -0.3788 C   0  0  0  0  0  0  0  0  0  0  0  0
    6.3663   -8.4782    1.0818 C   0  0  0  0  0  0  0  0  0  0  0  0
    5.3061   -9.3524    1.4743 O   0  0  0  0  0  0  0  0  0  0  0  0
    7.3074    2.3565   -2.5519 H   0  0  0  0  0  0  0  0  0  0  0  0
    7.4108    2.0918   -0.1060 H   0  0  0  0  0  0  0  0  0  0  0  0
    5.7550    0.6838    1.0511 H   0  0  0  0  0  0  0  0  0  0  0  0
    3.8967   -0.2007   -2.6845 H   0  0  0  0  0  0  0  0  0  0  0  0
    5.5534    1.2062   -3.8417 H   0  0  0  0  0  0  0  0  0  0  0  0
    1.9245   -0.3203   -2.0259 H   0  0  0  0  0  0  0  0  0  0  0  0
   -0.2290    0.8679   -1.9133 H   0  0  0  0  0  0  0  0  0  0  0  0
    0.4455    1.6953    2.2180 H   0  0  0  0  0  0  0  0  0  0  0  0
    2.5937    0.4975    2.1061 H   0  0  0  0  0  0  0  0  0  0  0  0
    2.8403   -3.0799    0.8639 H   0  0  0  0  0  0  0  0  0  0  0  0
    1.5747   -2.2661   -0.0878 H   0  0  0  0  0  0  0  0  0  0  0  0
    1.5779   -4.7179   -0.4962 H   0  0  0  0  0  0  0  0  0  0  0  0
    1.9879   -3.8142   -1.9739 H   0  0  0  0  0  0  0  0  0  0  0  0
    5.5432   -4.5015   -1.7965 H   0  0  0  0  0  0  0  0  0  0  0  0
    4.2534   -3.6906   -2.7167 H   0  0  0  0  0  0  0  0  0  0  0  0
    5.5460   -2.0494   -1.3900 H   0  0  0  0  0  0  0  0  0  0  0  0
    5.1743   -2.9525    0.0986 H   0  0  0  0  0  0  0  0  0  0  0  0
    2.6044   -6.6250   -1.4053 H   0  0  0  0  0  0  0  0  0  0  0  0
    3.1524   -5.7767   -2.8710 H   0  0  0  0  0  0  0  0  0  0  0  0
    4.5924   -7.7184   -2.4845 H   0  0  0  0  0  0  0  0  0  0  0  0
    5.5270   -6.2327   -2.1887 H   0  0  0  0  0  0  0  0  0  0  0  0
    6.0920   -8.9573   -1.0005 H   0  0  0  0  0  0  0  0  0  0  0  0
    7.0266   -7.4716   -0.7047 H   0  0  0  0  0  0  0  0  0  0  0  0
    7.3208   -8.9931    1.1906 H   0  0  0  0  0  0  0  0  0  0  0  0
    6.3581   -7.5905    1.7142 H   0  0  0  0  0  0  0  0  0  0  0  0
    5.3645   -9.6546    2.3910 H   0  0  0  0  0  0  0  0  0  0  0  0
    3.9163   -5.0446   -0.1339 H   0  0  0  0  0  0  0  0  0  0  0  0
  1  6  2  0  0  0  0
  1  2  1  0  0  0  0
  1 28  1  0  0  0  0
  2  3  2  0  0  0  0
  2 29  1  0  0  0  0
  3  4  1  0  0  0  0
  3 30  1  0  0  0  0
  4  5  2  0  0  0  0
  4  7  1  0  0  0  0
  5  6  1  0  0  0  0
  5 31  1  0  0  0  0
  6 32  1  0  0  0  0
  7  8  1  1  0  0  0
  7  9  1  0  0  0  0
  7 16  1  0  0  0  0
  9 14  2  0  0  0  0
  9 10  1  0  0  0  0
 10 11  2  0  0  0  0
 10 33  1  0  0  0  0
 11 12  1  0  0  0  0
 11 34  1  0  0  0  0
 12 13  2  0  0  0  0
 12 15  1  0  0  0  0
 13 14  1  0  0  0  0
 13 35  1  0  0  0  0
 14 36  1  0  0  0  0
 16 21  1  0  0  0  0
 16 17  1  0  0  0  0
 17 18  1  0  0  0  0
 17 37  1  0  0  0  0
 17 38  1  0  0  0  0
 18 19  1  0  0  0  0
 18 39  1  0  0  0  0
 18 40  1  0  0  0  0
 19 20  1  0  0  0  0
 19 22  1  0  0  0  0
 19 54  1  1  0  0  0
 20 21  1  0  0  0  0
 20 41  1  0  0  0  0
 20 42  1  0  0  0  0
 21 43  1  0  0  0  0
 21 44  1  0  0  0  0
 22 23  1  0  0  0  0
 22 45  1  0  0  0  0
 22 46  1  0  0  0  0
 23 24  1  0  0  0  0
 23 47  1  0  0  0  0
 23 48  1  0  0  0  0
 24 25  1  0  0  0  0
 25 26  1  0  0  0  0
 25 49  1  0  0  0  0
 25 50  1  0  0  0  0
 26 27  1  0  0  0  0
 26 51  1  0  0  0  0
 26 52  1  0  0  0  0
 27 53  1  0  0  0  0
M  CHG  1  19   1
M  END
$$$$
