ZINC84403367
 OpenBabel08292219463D

 46 47  0  0  1  0  0  0  0  0999 V2000
    1.1166   -0.8675   -2.2530 C   0  0  0  0  0  0  0  0  0  0  0  0
    0.5009   -1.0611   -0.8658 C   0  0  0  0  0  0  0  0  0  0  0  0
   -0.8081   -1.6187   -0.9993 O   0  0  0  0  0  0  0  0  0  0  0  0
   -1.4931   -1.8532    0.1395 C   0  0  0  0  0  0  0  0  0  0  0  0
   -0.9911   -1.5909    1.2165 O   0  0  0  0  0  0  0  0  0  0  0  0
   -2.7943   -2.4040    0.0813 C   0  0  0  0  0  0  0  0  0  0  0  0
   -2.9404   -3.7297   -0.0865 C   0  0  0  0  0  0  0  0  0  0  0  0
   -4.1845   -4.2966   -0.1385 N   0  0  0  0  0  0  0  0  0  0  0  0
   -5.2742   -3.6136    0.3287 C   0  0  0  0  0  0  0  0  0  0  0  0
   -5.2257   -2.2830    0.5129 C   0  0  0  0  0  0  0  0  0  0  0  0
   -3.9835   -1.4955    0.2144 C   0  0  2  0  0  0  0  0  0  0  0  0
   -3.8039   -0.7851    1.0213 H   0  0  0  0  0  0  0  0  0  0  0  0
   -4.1784   -0.7410   -1.0755 C   0  0  0  0  0  0  0  0  0  0  0  0
   -4.4156   -1.4301   -2.2504 C   0  0  0  0  0  0  0  0  0  0  0  0
   -4.5944   -0.7381   -3.4334 C   0  0  0  0  0  0  0  0  0  0  0  0
   -4.5364    0.6432   -3.4418 C   0  0  0  0  0  0  0  0  0  0  0  0
   -4.3002    1.3321   -2.2671 C   0  0  0  0  0  0  0  0  0  0  0  0
   -4.1256    0.6401   -1.0830 C   0  0  0  0  0  0  0  0  0  0  0  0
   -4.2376    2.8110   -2.2762 N   0  0  0  0  0  4  0  0  0  0  0  0
   -4.3931    3.4163   -3.3111 O   0  0  0  0  0  0  0  0  0  0  0  0
   -4.0309    3.4136   -1.2486 O   0  5  0  0  0  0  0  0  0  0  0  0
   -6.3687   -1.6105    1.0042 C   0  0  0  0  0  0  0  0  0  0  0  0
   -7.3817   -2.2362    1.2552 O   0  0  0  0  0  0  0  0  0  0  0  0
   -6.3359   -0.2749    1.1945 O   0  0  0  0  0  0  0  0  0  0  0  0
   -7.5263    0.3387    1.6931 C   0  0  0  0  0  0  0  0  0  0  0  0
   -6.5445   -4.3623    0.6399 C   0  0  0  0  0  0  0  0  0  0  0  0
   -1.7188   -4.6022   -0.2186 C   0  0  0  0  0  0  0  0  0  0  0  0
    2.1150   -0.4422   -2.1512 H   0  0  0  0  0  0  0  0  0  0  0  0
    1.1818   -1.8306   -2.7593 H   0  0  0  0  0  0  0  0  0  0  0  0
    0.4916   -0.1917   -2.8368 H   0  0  0  0  0  0  0  0  0  0  0  0
    1.1259   -1.7369   -0.2820 H   0  0  0  0  0  0  0  0  0  0  0  0
    0.4357   -0.0980   -0.3596 H   0  0  0  0  0  0  0  0  0  0  0  0
   -4.2946   -5.1865   -0.5084 H   0  0  0  0  0  0  0  0  0  0  0  0
   -4.4609   -2.5091   -2.2438 H   0  0  0  0  0  0  0  0  0  0  0  0
   -4.7790   -1.2764   -4.3513 H   0  0  0  0  0  0  0  0  0  0  0  0
   -4.6754    1.1839   -4.3663 H   0  0  0  0  0  0  0  0  0  0  0  0
   -3.9447    1.1786   -0.1644 H   0  0  0  0  0  0  0  0  0  0  0  0
   -7.3647    1.4114    1.7999 H   0  0  0  0  0  0  0  0  0  0  0  0
   -8.3454    0.1623    0.9959 H   0  0  0  0  0  0  0  0  0  0  0  0
   -7.7766   -0.0894    2.6637 H   0  0  0  0  0  0  0  0  0  0  0  0
   -6.4015   -5.4227    0.4320 H   0  0  0  0  0  0  0  0  0  0  0  0
   -6.7963   -4.2291    1.6920 H   0  0  0  0  0  0  0  0  0  0  0  0
   -7.3545   -3.9767    0.0208 H   0  0  0  0  0  0  0  0  0  0  0  0
   -1.4262   -4.9690    0.7653 H   0  0  0  0  0  0  0  0  0  0  0  0
   -1.9445   -5.4473   -0.8690 H   0  0  0  0  0  0  0  0  0  0  0  0
   -0.9021   -4.0215   -0.6475 H   0  0  0  0  0  0  0  0  0  0  0  0
  1  2  1  0  0  0  0
  1 28  1  0  0  0  0
  1 29  1  0  0  0  0
  1 30  1  0  0  0  0
  2  3  1  0  0  0  0
  2 31  1  0  0  0  0
  2 32  1  0  0  0  0
  3  4  1  0  0  0  0
  4  5  2  0  0  0  0
  4  6  1  0  0  0  0
  6 11  1  0  0  0  0
  6  7  2  0  0  0  0
  7  8  1  0  0  0  0
  7 27  1  0  0  0  0
  8  9  1  0  0  0  0
  8 33  1  0  0  0  0
  9 10  2  0  0  0  0
  9 26  1  0  0  0  0
 10 11  1  0  0  0  0
 10 22  1  0  0  0  0
 11 12  1  1  0  0  0
 11 13  1  0  0  0  0
 13 18  2  0  0  0  0
 13 14  1  0  0  0  0
 14 15  2  0  0  0  0
 14 34  1  0  0  0  0
 15 16  1  0  0  0  0
 15 35  1  0  0  0  0
 16 17  2  0  0  0  0
 16 36  1  0  0  0  0
 17 18  1  0  0  0  0
 17 19  1  0  0  0  0
 18 37  1  0  0  0  0
 19 20  2  0  0  0  0
 19 21  1  0  0  0  0
 22 23  2  0  0  0  0
 22 24  1  0  0  0  0
 24 25  1  0  0  0  0
 25 38  1  0  0  0  0
 25 39  1  0  0  0  0
 25 40  1  0  0  0  0
 26 41  1  0  0  0  0
 26 42  1  0  0  0  0
 26 43  1  0  0  0  0
 27 44  1  0  0  0  0
 27 45  1  0  0  0  0
 27 46  1  0  0  0  0
M  CHG  1  21  -1
M  END
$$$$
