ZINC05004658
 OpenBabel08292219463D

 33 33  0  0  1  0  0  0  0  0999 V2000
   -0.1670    0.1232    3.9291 C   0  0  0  0  0  0  0  0  0  0  0  0
    0.9277   -0.8635    3.6142 C   0  0  0  0  0  0  0  0  0  0  0  0
    1.4748   -0.8771    2.4239 C   0  0  0  0  0  0  0  0  0  0  0  0
    1.0095    0.0940    1.3696 C   0  0  0  0  0  0  0  0  0  0  0  0
    2.1892    0.8744    0.8498 C   0  0  0  0  0  0  0  0  0  0  0  0
    2.4249    0.9252   -0.4379 C   0  0  0  0  0  0  0  0  0  0  0  0
    1.4206    0.3626   -1.4105 C   0  0  0  0  0  0  0  0  0  0  0  0
    1.1096    1.4075   -2.4840 C   0  0  0  0  0  0  0  0  0  0  0  0
    0.1054    0.8449   -3.4566 C   0  0  0  0  0  0  0  0  0  0  0  0
   -0.3995   -0.2320   -3.2479 O   0  0  0  0  0  0  0  0  0  0  0  0
   -0.2689    1.6263   -4.6896 C   0  0  2  0  0  0  0  0  0  0  0  0
    0.3439    2.4107   -4.7859 H   0  0  0  0  0  0  0  0  0  0  0  0
   -1.7464    1.6706   -5.0845 C   0  0  1  0  0  0  0  0  0  0  0  0
   -2.1206    2.5822   -5.5503 H   0  0  0  0  0  0  0  0  0  0  0  0
   -0.7841    0.9001   -5.8073 O   0  0  0  0  0  0  0  0  0  0  0  0
   -2.7284    0.9298   -4.2139 C   0  0  0  0  0  0  0  0  0  0  0  0
   -3.0280    1.3727   -3.1253 O   0  0  0  0  0  0  0  0  0  0  0  0
   -3.2737   -0.2249   -4.6450 N   0  0  0  0  0  0  0  0  0  0  0  0
    0.2105    1.1377    3.8012 H   0  0  0  0  0  0  0  0  0  0  0  0
   -1.0077   -0.0394    3.2546 H   0  0  0  0  0  0  0  0  0  0  0  0
   -0.4955   -0.0151    4.9591 H   0  0  0  0  0  0  0  0  0  0  0  0
    1.2612   -1.5594    4.3697 H   0  0  0  0  0  0  0  0  0  0  0  0
    2.2593   -1.5842    2.1983 H   0  0  0  0  0  0  0  0  0  0  0  0
    0.2824    0.7804    1.8035 H   0  0  0  0  0  0  0  0  0  0  0  0
    0.5467   -0.4546    0.5493 H   0  0  0  0  0  0  0  0  0  0  0  0
    2.8403    1.3919    1.5387 H   0  0  0  0  0  0  0  0  0  0  0  0
    3.3389    1.3702   -0.8024 H   0  0  0  0  0  0  0  0  0  0  0  0
    0.5049    0.1045   -0.8786 H   0  0  0  0  0  0  0  0  0  0  0  0
    1.8315   -0.5306   -1.8811 H   0  0  0  0  0  0  0  0  0  0  0  0
    0.7326    2.2269   -2.0522 H   0  0  0  0  0  0  0  0  0  0  0  0
    2.0254    1.6656   -3.0158 H   0  0  0  0  0  0  0  0  0  0  0  0
   -2.9786   -0.6182   -5.4811 H   0  0  0  0  0  0  0  0  0  0  0  0
   -3.9612   -0.6626   -4.1191 H   0  0  0  0  0  0  0  0  0  0  0  0
  1  2  1  0  0  0  0
  1 19  1  0  0  0  0
  1 20  1  0  0  0  0
  1 21  1  0  0  0  0
  2  3  2  0  0  0  0
  2 22  1  0  0  0  0
  3  4  1  0  0  0  0
  3 23  1  0  0  0  0
  4  5  1  0  0  0  0
  4 24  1  0  0  0  0
  4 25  1  0  0  0  0
  5  6  2  0  0  0  0
  5 26  1  0  0  0  0
  6  7  1  0  0  0  0
  6 27  1  0  0  0  0
  7  8  1  0  0  0  0
  7 28  1  0  0  0  0
  7 29  1  0  0  0  0
  8  9  1  0  0  0  0
  8 30  1  0  0  0  0
  8 31  1  0  0  0  0
  9 10  2  0  0  0  0
  9 11  1  0  0  0  0
 11 12  1  6  0  0  0
 11 15  1  0  0  0  0
 11 13  1  0  0  0  0
 13 14  1  6  0  0  0
 13 15  1  0  0  0  0
 13 16  1  0  0  0  0
 16 17  2  0  0  0  0
 16 18  1  0  0  0  0
 18 32  1  0  0  0  0
 18 33  1  0  0  0  0
M  END
$$$$
