ZINC08214619
 OpenBabel08292219463D

 75 78  0  0  1  0  0  0  0  0999 V2000
   -0.7348    2.0192    1.2692 C   0  0  0  0  0  0  0  0  0  0  0  0
   -0.0187    1.5258    0.0104 C   0  0  0  0  0  0  0  0  0  0  0  0
    0.0021   -0.0041    0.0020 C   0  0  0  0  0  0  0  0  0  0  0  0
    0.7182   -0.4975   -1.2568 C   0  0  0  0  0  0  0  0  0  0  0  0
    0.7390   -2.0273   -1.2652 C   0  0  0  0  0  0  0  0  0  0  0  0
    1.4551   -2.5207   -2.5240 C   0  0  0  0  0  0  0  0  0  0  0  0
    1.4758   -4.0506   -2.5324 C   0  0  0  0  0  0  0  0  0  0  0  0
    2.1920   -4.5440   -3.7912 C   0  0  0  0  0  0  0  0  0  0  0  0
    2.2127   -6.0738   -3.7996 C   0  0  0  0  0  0  0  0  0  0  0  0
    2.9181   -6.5598   -5.0395 C   0  0  0  0  0  0  0  0  0  0  0  0
    3.3590   -5.7642   -5.8348 O   0  0  0  0  0  0  0  0  0  0  0  0
    3.0566   -7.8766   -5.2603 O   0  0  0  0  0  0  0  0  0  0  0  0
    3.7468   -8.2723   -6.4750 C   0  0  1  0  0  0  0  0  0  0  0  0
    3.5848   -7.5324   -7.2588 H   0  0  0  0  0  0  0  0  0  0  0  0
    5.2620   -8.4408   -6.2007 C   0  0  0  0  0  0  0  0  0  0  0  0
    5.6201   -9.8986   -6.5989 C   0  0  0  0  0  0  0  0  0  0  0  0
    4.5222  -10.2585   -7.6059 C   0  0  2  0  0  0  0  0  0  0  0  0
    4.7219   -9.7886   -8.5689 H   0  0  0  0  0  0  0  0  0  0  0  0
    3.2648   -9.6449   -6.9335 C   0  0  2  0  0  0  0  0  0  0  0  0
    2.1401   -9.6731   -7.9477 C   0  0  0  0  0  0  0  0  0  0  0  0
    1.8383  -11.1453   -8.2691 C   0  0  0  0  0  0  0  0  0  0  0  0
    3.0791  -11.8807   -8.7677 C   0  0  1  0  0  0  0  0  0  0  0  0
    3.3716  -11.4686   -9.7334 H   0  0  0  0  0  0  0  0  0  0  0  0
    4.2536  -11.7414   -7.7883 C   0  0  1  0  0  0  0  0  0  0  0  0
    3.9956  -12.1937   -6.8307 H   0  0  0  0  0  0  0  0  0  0  0  0
    5.4888  -12.4208   -8.3857 C   0  0  0  0  0  0  0  0  0  0  0  0
    5.2280  -13.9240   -8.5056 C   0  0  0  0  0  0  0  0  0  0  0  0
    3.9627  -14.1343   -9.3174 C   0  0  0  0  0  0  0  0  0  0  0  0
    4.0054  -15.0142  -10.3171 C   0  0  0  0  0  0  0  0  0  0  0  0
    2.8012  -15.2826  -11.1105 C   0  0  0  0  0  0  0  0  0  0  0  0
    2.8637  -15.7651  -12.2219 O   0  0  0  0  0  0  0  0  0  0  0  0
    1.4743  -14.9262  -10.4694 C   0  0  0  0  0  0  0  0  0  0  0  0
    1.5932  -13.4988   -9.9363 C   0  0  0  0  0  0  0  0  0  0  0  0
    2.7336  -13.3645   -8.9426 C   0  0  2  0  0  0  0  0  0  0  0  0
    2.3777  -13.7421   -7.9840 H   0  0  0  0  0  0  0  0  0  0  0  0
    2.8627  -10.4855   -5.7200 C   0  0  0  0  0  0  0  0  0  0  0  0
   -1.7574    1.6419    1.2770 H   0  0  0  0  0  0  0  0  0  0  0  0
   -0.2076    1.6581    2.1523 H   0  0  0  0  0  0  0  0  0  0  0  0
   -0.7496    3.1091    1.2752 H   0  0  0  0  0  0  0  0  0  0  0  0
    1.0039    1.9031    0.0027 H   0  0  0  0  0  0  0  0  0  0  0  0
   -0.5459    1.8868   -0.8726 H   0  0  0  0  0  0  0  0  0  0  0  0
    0.5293   -0.3651    0.8851 H   0  0  0  0  0  0  0  0  0  0  0  0
   -1.0205   -0.3814    0.0098 H   0  0  0  0  0  0  0  0  0  0  0  0
    0.1910   -0.1364   -2.1398 H   0  0  0  0  0  0  0  0  0  0  0  0
    1.7408   -0.1202   -1.2645 H   0  0  0  0  0  0  0  0  0  0  0  0
    1.2661   -2.3884   -0.3821 H   0  0  0  0  0  0  0  0  0  0  0  0
   -0.2836   -2.4046   -1.2575 H   0  0  0  0  0  0  0  0  0  0  0  0
    0.9279   -2.1597   -3.4071 H   0  0  0  0  0  0  0  0  0  0  0  0
    2.4777   -2.1435   -2.5317 H   0  0  0  0  0  0  0  0  0  0  0  0
    2.0030   -4.4117   -1.6494 H   0  0  0  0  0  0  0  0  0  0  0  0
    0.4533   -4.4279   -2.5247 H   0  0  0  0  0  0  0  0  0  0  0  0
    1.6648   -4.1829   -4.6743 H   0  0  0  0  0  0  0  0  0  0  0  0
    3.2146   -4.1667   -3.7990 H   0  0  0  0  0  0  0  0  0  0  0  0
    2.7399   -6.4349   -2.9166 H   0  0  0  0  0  0  0  0  0  0  0  0
    1.1901   -6.4511   -3.7919 H   0  0  0  0  0  0  0  0  0  0  0  0
    5.8323   -7.7367   -6.8066 H   0  0  0  0  0  0  0  0  0  0  0  0
    5.4708   -8.2798   -5.1431 H   0  0  0  0  0  0  0  0  0  0  0  0
    6.6028   -9.9399   -7.0686 H   0  0  0  0  0  0  0  0  0  0  0  0
    5.5783  -10.5568   -5.7311 H   0  0  0  0  0  0  0  0  0  0  0  0
    2.4643   -9.1550   -8.8503 H   0  0  0  0  0  0  0  0  0  0  0  0
    1.2500   -9.1915   -7.5429 H   0  0  0  0  0  0  0  0  0  0  0  0
    1.0660  -11.1904   -9.0369 H   0  0  0  0  0  0  0  0  0  0  0  0
    1.4722  -11.6368   -7.3677 H   0  0  0  0  0  0  0  0  0  0  0  0
    5.6904  -12.0063   -9.3735 H   0  0  0  0  0  0  0  0  0  0  0  0
    6.3476  -12.2508   -7.7364 H   0  0  0  0  0  0  0  0  0  0  0  0
    5.1006  -14.3535   -7.5119 H   0  0  0  0  0  0  0  0  0  0  0  0
    6.0682  -14.4047   -9.0067 H   0  0  0  0  0  0  0  0  0  0  0  0
    4.9269  -15.5301  -10.5431 H   0  0  0  0  0  0  0  0  0  0  0  0
    0.7465  -14.9894  -11.1523 H   0  0  0  0  0  0  0  0  0  0  0  0
    1.2633  -15.6118   -9.6487 H   0  0  0  0  0  0  0  0  0  0  0  0
    0.6597  -13.2236   -9.4456 H   0  0  0  0  0  0  0  0  0  0  0  0
    1.7678  -12.8207  -10.7717 H   0  0  0  0  0  0  0  0  0  0  0  0
    2.0423   -9.9963   -5.1949 H   0  0  0  0  0  0  0  0  0  0  0  0
    2.5438  -11.4735   -6.0520 H   0  0  0  0  0  0  0  0  0  0  0  0
    3.7155  -10.5855   -5.0486 H   0  0  0  0  0  0  0  0  0  0  0  0
  1  2  1  0  0  0  0
  1 37  1  0  0  0  0
  1 38  1  0  0  0  0
  1 39  1  0  0  0  0
  2  3  1  0  0  0  0
  2 40  1  0  0  0  0
  2 41  1  0  0  0  0
  3  4  1  0  0  0  0
  3 42  1  0  0  0  0
  3 43  1  0  0  0  0
  4  5  1  0  0  0  0
  4 44  1  0  0  0  0
  4 45  1  0  0  0  0
  5  6  1  0  0  0  0
  5 46  1  0  0  0  0
  5 47  1  0  0  0  0
  6  7  1  0  0  0  0
  6 48  1  0  0  0  0
  6 49  1  0  0  0  0
  7  8  1  0  0  0  0
  7 50  1  0  0  0  0
  7 51  1  0  0  0  0
  8  9  1  0  0  0  0
  8 52  1  0  0  0  0
  8 53  1  0  0  0  0
  9 10  1  0  0  0  0
  9 54  1  0  0  0  0
  9 55  1  0  0  0  0
 10 11  2  0  0  0  0
 10 12  1  0  0  0  0
 12 13  1  0  0  0  0
 13 14  1  6  0  0  0
 13 19  1  0  0  0  0
 13 15  1  0  0  0  0
 15 16  1  0  0  0  0
 15 56  1  0  0  0  0
 15 57  1  0  0  0  0
 16 17  1  0  0  0  0
 16 58  1  0  0  0  0
 16 59  1  0  0  0  0
 17 18  1  6  0  0  0
 17 24  1  0  0  0  0
 17 19  1  0  0  0  0
 19 20  1  0  0  0  0
 19 36  1  1  0  0  0
 20 21  1  0  0  0  0
 20 60  1  0  0  0  0
 20 61  1  0  0  0  0
 21 22  1  0  0  0  0
 21 62  1  0  0  0  0
 21 63  1  0  0  0  0
 22 23  1  6  0  0  0
 22 34  1  0  0  0  0
 22 24  1  0  0  0  0
 24 25  1  1  0  0  0
 24 26  1  0  0  0  0
 26 27  1  0  0  0  0
 26 64  1  0  0  0  0
 26 65  1  0  0  0  0
 27 28  1  0  0  0  0
 27 66  1  0  0  0  0
 27 67  1  0  0  0  0
 28 34  1  0  0  0  0
 28 29  2  0  0  0  0
 29 30  1  0  0  0  0
 29 68  1  0  0  0  0
 30 31  2  0  0  0  0
 30 32  1  0  0  0  0
 32 33  1  0  0  0  0
 32 69  1  0  0  0  0
 32 70  1  0  0  0  0
 33 34  1  0  0  0  0
 33 71  1  0  0  0  0
 33 72  1  0  0  0  0
 34 35  1  1  0  0  0
 36 73  1  0  0  0  0
 36 74  1  0  0  0  0
 36 75  1  0  0  0  0
M  END
$$$$
