ZINC03873157
 OpenBabel08292219463D

 44 46  0  0  1  0  0  0  0  0999 V2000
    0.0259    1.5254    0.0359 C   0  0  0  0  0  0  0  0  0  0  0  0
    0.0021   -0.0041    0.0020 C   0  0  0  0  0  0  0  0  0  0  0  0
    0.6878   -0.4765   -1.2033 N   0  0  0  0  0  0  0  0  0  0  0  0
   -0.0463   -0.7855   -2.2784 C   0  0  0  0  0  0  0  0  0  0  0  0
    0.5240   -1.2373   -3.4533 C   0  0  0  0  0  0  0  0  0  0  0  0
    1.9882   -1.3835   -3.5242 C   0  0  0  0  0  0  0  0  0  0  0  0
    2.5386   -1.7776   -4.5376 O   0  0  0  0  0  0  0  0  0  0  0  0
    2.7590   -1.0330   -2.3194 C   0  0  0  0  0  0  0  0  0  0  0  0
    2.0642   -0.5787   -1.1835 C   0  0  0  0  0  0  0  0  0  0  0  0
    2.7803   -0.2398   -0.0402 C   0  0  0  0  0  0  0  0  0  0  0  0
    4.1631   -0.3483   -0.0358 C   0  0  0  0  0  0  0  0  0  0  0  0
    4.8428   -0.7954   -1.1708 C   0  0  0  0  0  0  0  0  0  0  0  0
    4.1514   -1.1414   -2.2978 C   0  0  0  0  0  0  0  0  0  0  0  0
    6.1900   -0.8958   -1.1513 F   0  0  0  0  0  0  0  0  0  0  0  0
    4.8803   -0.0079    1.1108 N   0  0  0  0  0  0  0  0  0  0  0  0
    5.3585    1.3669    1.3235 C   0  0  0  0  0  0  0  0  0  0  0  0
    6.8482    1.3136    1.6778 C   0  0  0  0  0  0  0  0  0  0  0  0
    7.0458    0.4189    2.8253 N   0  3  0  0  0  0  0  0  0  0  0  0
    6.6777   -0.9543    2.4578 C   0  0  2  0  0  0  0  0  0  0  0  0
    7.2465   -1.2604    1.5799 H   0  0  0  0  0  0  0  0  0  0  0  0
    5.1746   -1.0120    2.1448 C   0  0  0  0  0  0  0  0  0  0  0  0
    6.9913   -1.8955    3.6226 C   0  0  0  0  0  0  0  0  0  0  0  0
    2.1312    0.1940    1.0624 F   0  0  0  0  0  0  0  0  0  0  0  0
   -0.3145   -1.5663   -4.6103 C   0  0  0  0  0  0  0  0  0  0  0  0
   -1.5303   -1.4415   -4.5404 O   0  0  0  0  0  0  0  0  0  0  0  0
    0.2011   -1.9657   -5.6462 O   0  0  0  0  0  1  0  0  0  0  0  0
    1.0590    1.8726    0.0460 H   0  0  0  0  0  0  0  0  0  0  0  0
   -0.4802    1.9163   -0.8468 H   0  0  0  0  0  0  0  0  0  0  0  0
   -0.4843    1.8769    0.9327 H   0  0  0  0  0  0  0  0  0  0  0  0
    0.5081   -0.3950    0.8847 H   0  0  0  0  0  0  0  0  0  0  0  0
   -1.0311   -0.3512   -0.0081 H   0  0  0  0  0  0  0  0  0  0  0  0
   -1.1197   -0.6786   -2.2262 H   0  0  0  0  0  0  0  0  0  0  0  0
    4.6812   -1.4868   -3.1732 H   0  0  0  0  0  0  0  0  0  0  0  0
    5.2194    1.9483    0.4120 H   0  0  0  0  0  0  0  0  0  0  0  0
    4.8035    1.8253    2.1420 H   0  0  0  0  0  0  0  0  0  0  0  0
    7.4119    0.9388    0.8235 H   0  0  0  0  0  0  0  0  0  0  0  0
    7.1972    2.3143    1.9329 H   0  0  0  0  0  0  0  0  0  0  0  0
    8.0147    0.4425    3.1057 H   0  0  0  0  0  0  0  0  0  0  0  0
    4.6014   -0.7898    3.0449 H   0  0  0  0  0  0  0  0  0  0  0  0
    4.9139   -2.0043    1.7766 H   0  0  0  0  0  0  0  0  0  0  0  0
    6.4223   -1.5894    4.5004 H   0  0  0  0  0  0  0  0  0  0  0  0
    6.7180   -2.9148    3.3497 H   0  0  0  0  0  0  0  0  0  0  0  0
    8.0570   -1.8528    3.8474 H   0  0  0  0  0  0  0  0  0  0  0  0
    6.4683    0.7265    3.5934 H   0  0  0  0  0  0  0  0  0  0  0  0
  1  2  1  0  0  0  0
  1 27  1  0  0  0  0
  1 28  1  0  0  0  0
  1 29  1  0  0  0  0
  2  3  1  0  0  0  0
  2 30  1  0  0  0  0
  2 31  1  0  0  0  0
  3  9  1  0  0  0  0
  3  4  1  0  0  0  0
  4  5  2  0  0  0  0
  4 32  1  0  0  0  0
  5  6  1  0  0  0  0
  5 24  1  0  0  0  0
  6  7  2  0  0  0  0
  6  8  1  0  0  0  0
  8 13  2  0  0  0  0
  8  9  1  0  0  0  0
  9 10  2  0  0  0  0
 10 11  1  0  0  0  0
 10 23  1  0  0  0  0
 11 12  2  0  0  0  0
 11 15  1  0  0  0  0
 12 13  1  0  0  0  0
 12 14  1  0  0  0  0
 13 33  1  0  0  0  0
 15 21  1  0  0  0  0
 15 16  1  0  0  0  0
 16 17  1  0  0  0  0
 16 34  1  0  0  0  0
 16 35  1  0  0  0  0
 17 18  1  0  0  0  0
 17 36  1  0  0  0  0
 17 37  1  0  0  0  0
 18 19  1  0  0  0  0
 18 38  1  0  0  0  0
 18 44  1  0  0  0  0
 19 20  1  6  0  0  0
 19 21  1  0  0  0  0
 19 22  1  0  0  0  0
 21 39  1  0  0  0  0
 21 40  1  0  0  0  0
 22 41  1  0  0  0  0
 22 42  1  0  0  0  0
 22 43  1  0  0  0  0
 24 25  2  0  0  0  0
 24 26  1  0  0  0  0
M  CHG  1  18   1
M  END
$$$$
