ZINC03874498
 OpenBabel08292219463D

 32 33  0  0  0  0  0  0  0  0999 V2000
    1.8669   -1.2093    0.5187 C   0  0  0  0  0  0  0  0  0  0  0  0
    0.6718   -0.3888    1.0079 C   0  0  0  0  0  0  0  0  0  0  0  0
   -0.2276   -1.2309    1.8908 C   0  0  0  0  0  0  0  0  0  0  0  0
    0.0642   -1.7574    2.9432 O   0  0  0  0  0  0  0  0  0  0  0  0
   -1.4195   -1.2719    1.2631 N   0  0  0  0  0  0  0  0  0  0  0  0
   -1.3983   -0.5800    0.1182 C   0  0  0  0  0  0  0  0  0  0  0  0
   -2.3552   -0.4707   -0.6230 O   0  0  0  0  0  0  0  0  0  0  0  0
   -0.1994   -0.0183   -0.1207 N   0  0  0  0  0  0  0  0  0  0  0  0
   -2.5426   -1.9559    1.7493 C   0  0  0  0  0  0  0  0  0  0  0  0
   -3.7624   -1.8435    1.0956 C   0  0  0  0  0  0  0  0  0  0  0  0
   -4.8668   -2.5188    1.5766 C   0  0  0  0  0  0  0  0  0  0  0  0
   -4.7588   -3.3064    2.7082 C   0  0  0  0  0  0  0  0  0  0  0  0
   -3.5456   -3.4200    3.3615 C   0  0  0  0  0  0  0  0  0  0  0  0
   -2.4360   -2.7514    2.8818 C   0  0  0  0  0  0  0  0  0  0  0  0
   -3.4321   -4.2789    4.5946 C   0  0  0  0  0  0  0  0  0  0  0  0
   -2.1183   -4.2362    5.0733 F   0  0  0  0  0  0  0  0  0  0  0  0
   -4.3029   -3.7991    5.5789 F   0  0  0  0  0  0  0  0  0  0  0  0
   -3.7699   -5.5986    4.2763 F   0  0  0  0  0  0  0  0  0  0  0  0
   -5.9444   -4.0289    3.2213 N   0  0  0  0  0  4  0  0  0  0  0  0
   -7.0060   -3.9302    2.6512 O   0  0  0  0  0  0  0  0  0  0  0  0
   -5.8513   -4.7178    4.2104 O   0  5  0  0  0  0  0  0  0  0  0  0
    1.1472    0.8599    1.7534 C   0  0  0  0  0  0  0  0  0  0  0  0
    2.4584   -0.6116   -0.1749 H   0  0  0  0  0  0  0  0  0  0  0  0
    2.4845   -1.4949    1.3702 H   0  0  0  0  0  0  0  0  0  0  0  0
    1.5093   -2.1057    0.0122 H   0  0  0  0  0  0  0  0  0  0  0  0
    0.0438    0.5249   -0.8866 H   0  0  0  0  0  0  0  0  0  0  0  0
   -3.8475   -1.2282    0.2121 H   0  0  0  0  0  0  0  0  0  0  0  0
   -5.8160   -2.4314    1.0688 H   0  0  0  0  0  0  0  0  0  0  0  0
   -1.4875   -2.8440    3.3899 H   0  0  0  0  0  0  0  0  0  0  0  0
    1.7591    1.4693    1.0882 H   0  0  0  0  0  0  0  0  0  0  0  0
    0.2834    1.4372    2.0830 H   0  0  0  0  0  0  0  0  0  0  0  0
    1.7378    0.5629    2.6200 H   0  0  0  0  0  0  0  0  0  0  0  0
  1  2  1  0  0  0  0
  1 23  1  0  0  0  0
  1 24  1  0  0  0  0
  1 25  1  0  0  0  0
  2  8  1  0  0  0  0
  2  3  1  0  0  0  0
  2 22  1  0  0  0  0
  3  4  2  0  0  0  0
  3  5  1  0  0  0  0
  5  6  1  0  0  0  0
  5  9  1  0  0  0  0
  6  7  2  0  0  0  0
  6  8  1  0  0  0  0
  8 26  1  0  0  0  0
  9 14  2  0  0  0  0
  9 10  1  0  0  0  0
 10 11  2  0  0  0  0
 10 27  1  0  0  0  0
 11 12  1  0  0  0  0
 11 28  1  0  0  0  0
 12 13  2  0  0  0  0
 12 19  1  0  0  0  0
 13 14  1  0  0  0  0
 13 15  1  0  0  0  0
 14 29  1  0  0  0  0
 15 16  1  0  0  0  0
 15 17  1  0  0  0  0
 15 18  1  0  0  0  0
 19 20  2  0  0  0  0
 19 21  1  0  0  0  0
 22 30  1  0  0  0  0
 22 31  1  0  0  0  0
 22 32  1  0  0  0  0
M  CHG  1  21  -1
M  END
$$$$
