ZINC04468780
 OpenBabel08292219463D

 46 48  0  0  1  0  0  0  0  0999 V2000
    2.2601   -3.5083    0.0622 C   0  0  0  0  0  0  0  0  0  0  0  0
    1.1579   -2.4828   -0.0060 C   0  0  0  0  0  0  0  0  0  0  0  0
    1.4296   -1.3075   -0.0745 O   0  0  0  0  0  0  0  0  0  0  0  0
   -0.1257   -2.8751    0.0094 O   0  0  0  0  0  0  0  0  0  0  0  0
   -1.1184   -1.8494   -0.0581 C   0  0  0  0  0  0  0  0  0  0  0  0
   -2.4847   -2.4782   -0.1523 C   0  0  0  0  0  0  0  0  0  0  0  0
   -3.5001   -1.6397   -0.2990 C   0  0  0  0  0  0  0  0  0  0  0  0
   -4.8127   -2.1207   -0.4449 N   0  0  0  0  0  0  0  0  0  0  0  0
   -5.3061   -3.4858   -0.1263 C   0  0  1  0  0  0  0  0  0  0  0  0
   -5.5813   -3.6572    0.9144 H   0  0  0  0  0  0  0  0  0  0  0  0
   -6.4603   -3.1785   -1.0561 C   0  0  1  0  0  0  0  0  0  0  0  0
   -7.4425   -3.3665   -0.6223 H   0  0  0  0  0  0  0  0  0  0  0  0
   -5.9932   -1.7548   -0.9225 C   0  0  0  0  0  0  0  0  0  0  0  0
   -6.5033   -0.6805   -1.1612 O   0  0  0  0  0  0  0  0  0  0  0  0
   -6.3080   -3.7369   -2.4019 N   0  0  0  0  0  0  0  0  0  0  0  0
   -7.3976   -3.9916   -3.1531 C   0  0  0  0  0  0  0  0  0  0  0  0
   -8.5081   -3.8436   -2.6826 O   0  0  0  0  0  0  0  0  0  0  0  0
   -7.2414   -4.4520   -4.5529 C   0  0  0  0  0  0  0  0  0  0  0  0
   -8.2886   -4.5792   -5.3176 N   0  0  0  0  0  0  0  0  0  0  0  0
   -9.5613   -4.1730   -4.8484 O   0  0  0  0  0  0  0  0  0  0  0  0
  -10.6179   -4.3696   -5.7902 C   0  0  0  0  0  0  0  0  0  0  0  0
   -5.8970   -4.7671   -5.0819 C   0  0  0  0  0  0  0  0  0  0  0  0
   -5.7266   -5.0695   -6.4066 C   0  0  0  0  0  0  0  0  0  0  0  0
   -3.9615   -5.3488   -6.4607 S   0  0  0  0  0  0  0  0  0  0  0  0
   -3.6299   -5.0383   -4.7323 C   0  0  0  0  0  0  0  0  0  0  0  0
   -4.8355   -4.7549   -4.2769 N   0  0  0  0  0  0  0  0  0  0  0  0
   -2.4247   -5.0795   -4.0515 N   0  0  0  0  0  0  0  0  0  0  0  0
   -4.0502   -4.6437   -0.7699 S   0  0  0  0  0  0  0  0  0  0  0  0
   -2.5251   -3.9702   -0.0744 C   0  0  0  0  0  0  0  0  0  0  0  0
   -3.2509   -0.1891   -0.3089 C   0  0  0  0  0  0  0  0  0  0  0  0
   -2.1036    0.2348   -0.2768 O   0  0  0  0  0  0  0  0  0  0  0  0
   -4.1910    0.5929   -0.3493 O   0  0  0  0  0  1  0  0  0  0  0  0
    3.2266   -3.0050    0.0382 H   0  0  0  0  0  0  0  0  0  0  0  0
    2.1698   -4.0777    0.9872 H   0  0  0  0  0  0  0  0  0  0  0  0
    2.1810   -4.1838   -0.7896 H   0  0  0  0  0  0  0  0  0  0  0  0
   -1.0638   -1.2314    0.8381 H   0  0  0  0  0  0  0  0  0  0  0  0
   -0.9419   -1.2303   -0.9376 H   0  0  0  0  0  0  0  0  0  0  0  0
   -5.4229   -3.9234   -2.7523 H   0  0  0  0  0  0  0  0  0  0  0  0
  -11.5594   -4.0340   -5.3554 H   0  0  0  0  0  0  0  0  0  0  0  0
  -10.4103   -3.7966   -6.6940 H   0  0  0  0  0  0  0  0  0  0  0  0
  -10.6899   -5.4282   -6.0397 H   0  0  0  0  0  0  0  0  0  0  0  0
   -6.4572   -5.1245   -7.2000 H   0  0  0  0  0  0  0  0  0  0  0  0
   -1.6078   -5.3023   -4.5246 H   0  0  0  0  0  0  0  0  0  0  0  0
   -2.3975   -4.8856   -3.1014 H   0  0  0  0  0  0  0  0  0  0  0  0
   -1.6719   -4.3774   -0.6170 H   0  0  0  0  0  0  0  0  0  0  0  0
   -2.4573   -4.2733    0.9704 H   0  0  0  0  0  0  0  0  0  0  0  0
  1  2  1  0  0  0  0
  1 33  1  0  0  0  0
  1 34  1  0  0  0  0
  1 35  1  0  0  0  0
  2  3  2  0  0  0  0
  2  4  1  0  0  0  0
  4  5  1  0  0  0  0
  5  6  1  0  0  0  0
  5 36  1  0  0  0  0
  5 37  1  0  0  0  0
  6 29  1  0  0  0  0
  6  7  2  0  0  0  0
  7  8  1  0  0  0  0
  7 30  1  0  0  0  0
  8 13  1  0  0  0  0
  8  9  1  0  0  0  0
  9 10  1  1  0  0  0
  9 11  1  0  0  0  0
  9 28  1  0  0  0  0
 11 12  1  1  0  0  0
 11 13  1  0  0  0  0
 11 15  1  0  0  0  0
 13 14  2  0  0  0  0
 15 16  1  0  0  0  0
 15 38  1  0  0  0  0
 16 17  2  0  0  0  0
 16 18  1  0  0  0  0
 18 19  2  0  0  0  0
 18 22  1  0  0  0  0
 19 20  1  0  0  0  0
 20 21  1  0  0  0  0
 21 39  1  0  0  0  0
 21 40  1  0  0  0  0
 21 41  1  0  0  0  0
 22 26  1  0  0  0  0
 22 23  2  0  0  0  0
 23 24  1  0  0  0  0
 23 42  1  0  0  0  0
 24 25  1  0  0  0  0
 25 26  2  0  0  0  0
 25 27  1  0  0  0  0
 27 43  1  0  0  0  0
 27 44  1  0  0  0  0
 28 29  1  0  0  0  0
 29 45  1  0  0  0  0
 29 46  1  0  0  0  0
 30 31  2  0  0  0  0
 30 32  1  0  0  0  0
M  END
$$$$
