ZINC00001971
 OpenBabel08292219463D

 40 43  0  0  0  0  0  0  0  0999 V2000
   -0.0165    1.3795    0.0097 C   0  0  0  0  0  0  0  0  0  0  0  0
    1.1414    2.0349    0.3888 C   0  0  0  0  0  0  0  0  0  0  0  0
    2.3500    1.3694    0.3757 C   0  0  0  0  0  0  0  0  0  0  0  0
    2.4028    0.0333   -0.0207 C   0  0  0  0  0  0  0  0  0  0  0  0
    1.2321   -0.6220   -0.4018 C   0  0  0  0  0  0  0  0  0  0  0  0
    0.0295    0.0542   -0.3846 C   0  0  0  0  0  0  0  0  0  0  0  0
    3.6974   -0.6869   -0.0375 C   0  0  0  0  0  0  0  0  0  0  0  0
    4.7685    0.0173   -0.1385 N   0  0  0  0  0  0  0  0  0  0  0  0
    6.0957   -0.5958   -0.1703 C   0  0  0  0  0  0  0  0  0  0  0  0
    6.2077   -1.4514   -1.4026 C   0  0  0  0  0  0  0  0  0  0  0  0
    7.0273   -1.1638   -2.2490 O   0  0  0  0  0  0  0  0  0  0  0  0
    5.4306   -2.5163   -1.5879 N   0  0  0  0  0  0  0  0  0  0  0  0
    4.4944   -2.9884   -0.6804 C   0  0  0  0  0  0  0  0  0  0  0  0
    3.6615   -2.1539    0.0687 C   0  0  0  0  0  0  0  0  0  0  0  0
    2.7413   -2.7188    0.9645 C   0  0  0  0  0  0  0  0  0  0  0  0
    2.6592   -4.0851    1.1138 C   0  0  0  0  0  0  0  0  0  0  0  0
    3.4894   -4.9140    0.3762 C   0  0  0  0  0  0  0  0  0  0  0  0
    4.3980   -4.3719   -0.5201 C   0  0  0  0  0  0  0  0  0  0  0  0
    1.5161   -4.7694    2.2267 Cl  0  0  0  0  0  0  0  0  0  0  0  0
    5.5756   -3.2464   -2.8497 C   0  0  0  0  0  0  0  0  0  0  0  0
    6.6331   -4.3401   -2.6875 C   0  0  0  0  0  0  0  0  0  0  0  0
    7.8994   -4.2301   -3.5391 C   0  0  0  0  0  0  0  0  0  0  0  0
    6.8490   -5.2940   -3.8641 C   0  0  0  0  0  0  0  0  0  0  0  0
   -0.9609    1.9033    0.0258 H   0  0  0  0  0  0  0  0  0  0  0  0
    1.0992    3.0697    0.6953 H   0  0  0  0  0  0  0  0  0  0  0  0
    3.2533    1.8822    0.6715 H   0  0  0  0  0  0  0  0  0  0  0  0
    1.2669   -1.6565   -0.7101 H   0  0  0  0  0  0  0  0  0  0  0  0
   -0.8777   -0.4522   -0.6794 H   0  0  0  0  0  0  0  0  0  0  0  0
    6.8574    0.1835   -0.1966 H   0  0  0  0  0  0  0  0  0  0  0  0
    6.2337   -1.2138    0.7169 H   0  0  0  0  0  0  0  0  0  0  0  0
    2.0923   -2.0769    1.5417 H   0  0  0  0  0  0  0  0  0  0  0  0
    3.4254   -5.9855    0.4953 H   0  0  0  0  0  0  0  0  0  0  0  0
    5.0429   -5.0224   -1.0923 H   0  0  0  0  0  0  0  0  0  0  0  0
    4.6217   -3.7003   -3.1185 H   0  0  0  0  0  0  0  0  0  0  0  0
    5.8838   -2.5565   -3.6353 H   0  0  0  0  0  0  0  0  0  0  0  0
    6.7360   -4.7492   -1.6825 H   0  0  0  0  0  0  0  0  0  0  0  0
    7.9791   -3.3786   -4.2149 H   0  0  0  0  0  0  0  0  0  0  0  0
    8.8359   -4.5668   -3.0943 H   0  0  0  0  0  0  0  0  0  0  0  0
    7.0944   -6.3306   -3.6331 H   0  0  0  0  0  0  0  0  0  0  0  0
    6.2376   -5.1425   -4.7537 H   0  0  0  0  0  0  0  0  0  0  0  0
  1  6  2  0  0  0  0
  1  2  1  0  0  0  0
  1 24  1  0  0  0  0
  2  3  2  0  0  0  0
  2 25  1  0  0  0  0
  3  4  1  0  0  0  0
  3 26  1  0  0  0  0
  4  5  2  0  0  0  0
  4  7  1  0  0  0  0
  5  6  1  0  0  0  0
  5 27  1  0  0  0  0
  6 28  1  0  0  0  0
  7 14  1  0  0  0  0
  7  8  2  0  0  0  0
  8  9  1  0  0  0  0
  9 10  1  0  0  0  0
  9 29  1  0  0  0  0
  9 30  1  0  0  0  0
 10 11  2  0  0  0  0
 10 12  1  0  0  0  0
 12 13  1  0  0  0  0
 12 20  1  0  0  0  0
 13 18  2  0  0  0  0
 13 14  1  0  0  0  0
 14 15  2  0  0  0  0
 15 16  1  0  0  0  0
 15 31  1  0  0  0  0
 16 17  2  0  0  0  0
 16 19  1  0  0  0  0
 17 18  1  0  0  0  0
 17 32  1  0  0  0  0
 18 33  1  0  0  0  0
 20 21  1  0  0  0  0
 20 34  1  0  0  0  0
 20 35  1  0  0  0  0
 21 23  1  0  0  0  0
 21 22  1  0  0  0  0
 21 36  1  0  0  0  0
 22 23  1  0  0  0  0
 22 37  1  0  0  0  0
 22 38  1  0  0  0  0
 23 39  1  0  0  0  0
 23 40  1  0  0  0  0
M  END
$$$$
