ZINC60183170
 OpenBabel08292219463D

 91 94  0  0  1  0  0  0  0  0999 V2000
   -0.3190    1.3349    0.1321 C   0  0  0  0  0  0  0  0  0  0  0  0
    0.9628    2.1679    0.0678 C   0  0  2  0  0  0  0  0  0  0  0  0
    1.5776    1.8249   -0.7643 H   0  0  0  0  0  0  0  0  0  0  0  0
    1.7403    2.0091    1.3759 C   0  0  1  0  0  0  0  0  0  0  0  0
    1.1255    2.3521    2.2080 H   0  0  0  0  0  0  0  0  0  0  0  0
    2.0993    0.5359    1.5802 C   0  0  2  0  0  0  0  0  0  0  0  0
    2.7141    0.1930    0.7481 H   0  0  0  0  0  0  0  0  0  0  0  0
    0.8175   -0.2971    1.6445 C   0  0  1  0  0  0  0  0  0  0  0  0
    0.2027    0.0458    2.4766 H   0  0  0  0  0  0  0  0  0  0  0  0
    0.0399   -0.1383    0.3364 C   0  0  1  0  0  0  0  0  0  0  0  0
    0.6548   -0.4813   -0.4957 H   0  0  0  0  0  0  0  0  0  0  0  0
   -1.1907   -0.9381    0.3982 N   0  3  0  0  0  0  0  0  0  0  0  0
    1.1528   -1.6731    1.8353 O   0  0  0  0  0  0  0  0  0  0  0  0
    1.2923   -2.0526    3.2059 C   0  0  2  0  0  0  0  0  0  0  0  0
    1.9688   -1.3607    3.7076 H   0  0  0  0  0  0  0  0  0  0  0  0
    1.8608   -3.4717    3.2874 C   0  0  1  0  0  0  0  0  0  0  0  0
    2.0055   -3.7468    4.3321 H   0  0  0  0  0  0  0  0  0  0  0  0
    0.8763   -4.4460    2.6332 C   0  0  2  0  0  0  0  0  0  0  0  0
    0.7694   -4.2016    1.5763 H   0  0  0  0  0  0  0  0  0  0  0  0
   -0.4835   -4.3238    3.3276 C   0  0  1  0  0  0  0  0  0  0  0  0
   -0.3862   -4.6160    4.3731 H   0  0  0  0  0  0  0  0  0  0  0  0
   -0.9614   -2.8717    3.2446 C   0  0  2  0  0  0  0  0  0  0  0  0
   -1.0974   -2.5929    2.1996 H   0  0  0  0  0  0  0  0  0  0  0  0
    0.0138   -2.0155    3.8433 O   0  0  0  0  0  0  0  0  0  0  0  0
   -2.2911   -2.7289    3.9879 C   0  0  0  0  0  0  0  0  0  0  0  0
   -2.7919   -1.4015    3.8174 O   0  0  0  0  0  0  0  0  0  0  0  0
   -1.4291   -5.1768    2.6793 O   0  0  0  0  0  0  0  0  0  0  0  0
    1.3653   -5.7820    2.7677 O   0  0  0  0  0  0  0  0  0  0  0  0
    3.1485   -3.5259    2.5826 N   0  3  0  0  0  0  0  0  0  0  0  0
    2.8255    0.3876    2.8019 O   0  0  0  0  0  0  0  0  0  0  0  0
    4.2416    0.5110    2.6550 C   0  0  1  0  0  0  0  0  0  0  0  0
    4.4908    1.4516    2.1638 H   0  0  0  0  0  0  0  0  0  0  0  0
    4.9349    0.4235    4.0327 C   0  0  1  0  0  0  0  0  0  0  0  0
    4.3087   -0.1181    4.7416 H   0  0  0  0  0  0  0  0  0  0  0  0
    6.2353   -0.3614    3.7494 C   0  0  1  0  0  0  0  0  0  0  0  0
    6.2520   -1.2910    4.3183 H   0  0  0  0  0  0  0  0  0  0  0  0
    6.1738   -0.6552    2.2340 C   0  0  2  0  0  0  0  0  0  0  0  0
    6.7210    0.1058    1.6775 H   0  0  0  0  0  0  0  0  0  0  0  0
    4.7680   -0.6039    1.9028 O   0  0  0  0  0  0  0  0  0  0  0  0
    6.7438   -2.0437    1.9371 C   0  0  0  0  0  0  0  0  0  0  0  0
    6.7855   -2.2492    0.5236 O   0  0  0  0  0  0  0  0  0  0  0  0
    7.3794    0.4359    4.0616 O   0  0  0  0  0  0  0  0  0  0  0  0
    7.8525    0.2745    5.4003 C   0  0  2  0  0  0  0  0  0  0  0  0
    7.0197    0.3808    6.0955 H   0  0  0  0  0  0  0  0  0  0  0  0
    8.9079    1.3418    5.7010 C   0  0  1  0  0  0  0  0  0  0  0  0
    8.4553    2.3311    5.6326 H   0  0  0  0  0  0  0  0  0  0  0  0
    9.4532    1.1252    7.1160 C   0  0  2  0  0  0  0  0  0  0  0  0
   10.2449    1.8472    7.3161 H   0  0  0  0  0  0  0  0  0  0  0  0
   10.0163   -0.2953    7.2223 C   0  0  1  0  0  0  0  0  0  0  0  0
   10.3564   -0.4769    8.2419 H   0  0  0  0  0  0  0  0  0  0  0  0
    8.9181   -1.2995    6.8629 C   0  0  1  0  0  0  0  0  0  0  0  0
    8.0993   -1.2139    7.5773 H   0  0  0  0  0  0  0  0  0  0  0  0
    8.4333   -1.0229    5.5474 O   0  0  0  0  0  0  0  0  0  0  0  0
    9.4890   -2.7182    6.9087 C   0  0  0  0  0  0  0  0  0  0  0  0
    8.4350   -3.6816    6.5638 N   0  3  0  0  0  0  0  0  0  0  0  0
   11.1140   -0.4427    6.3194 O   0  0  0  0  0  0  0  0  0  0  0  0
    8.3993    1.2959    8.0658 O   0  0  0  0  0  0  0  0  0  0  0  0
   10.0045    1.2354    4.7293 N   0  0  0  0  0  0  0  0  0  0  0  0
    5.2333    1.7306    4.5270 O   0  0  0  0  0  0  0  0  0  0  0  0
    2.9375    2.7871    1.3158 O   0  0  0  0  0  0  0  0  0  0  0  0
    0.6181    3.5824   -0.1284 N   0  3  0  0  0  0  0  0  0  0  0  0
   -0.9338    1.6778    0.9642 H   0  0  0  0  0  0  0  0  0  0  0  0
   -0.8730    1.4480   -0.7998 H   0  0  0  0  0  0  0  0  0  0  0  0
   -1.7564   -0.7483   -0.4155 H   0  0  0  0  0  0  0  0  0  0  0  0
   -0.9537   -1.9186    0.4217 H   0  0  0  0  0  0  0  0  0  0  0  0
   -3.0102   -3.4429    3.5865 H   0  0  0  0  0  0  0  0  0  0  0  0
   -2.1372   -2.9257    5.0489 H   0  0  0  0  0  0  0  0  0  0  0  0
   -3.6346   -1.2388    4.2629 H   0  0  0  0  0  0  0  0  0  0  0  0
   -2.3142   -5.1498    3.0679 H   0  0  0  0  0  0  0  0  0  0  0  0
    0.7902   -6.4528    2.3749 H   0  0  0  0  0  0  0  0  0  0  0  0
    3.7943   -2.8803    3.0118 H   0  0  0  0  0  0  0  0  0  0  0  0
    3.5225   -4.4615    2.6368 H   0  0  0  0  0  0  0  0  0  0  0  0
    7.7519   -2.1174    2.3449 H   0  0  0  0  0  0  0  0  0  0  0  0
    6.1098   -2.8024    2.3960 H   0  0  0  0  0  0  0  0  0  0  0  0
    7.1369   -3.1111    0.2616 H   0  0  0  0  0  0  0  0  0  0  0  0
   10.3075   -2.8038    6.1940 H   0  0  0  0  0  0  0  0  0  0  0  0
    9.8593   -2.9286    7.9121 H   0  0  0  0  0  0  0  0  0  0  0  0
    8.8115   -4.6172    6.5940 H   0  0  0  0  0  0  0  0  0  0  0  0
    7.6773   -3.6024    7.2254 H   0  0  0  0  0  0  0  0  0  0  0  0
   11.8456    0.1670    6.4868 H   0  0  0  0  0  0  0  0  0  0  0  0
    8.6742    1.1728    8.9847 H   0  0  0  0  0  0  0  0  0  0  0  0
    9.6677    1.3703    3.7878 H   0  0  0  0  0  0  0  0  0  0  0  0
   10.7439    1.8870    4.9457 H   0  0  0  0  0  0  0  0  0  0  0  0
    4.4540    2.2861    4.6656 H   0  0  0  0  0  0  0  0  0  0  0  0
    2.7855    3.7334    1.1873 H   0  0  0  0  0  0  0  0  0  0  0  0
    0.0490    3.8998    0.6419 H   0  0  0  0  0  0  0  0  0  0  0  0
    1.4634    4.1317   -0.1708 H   0  0  0  0  0  0  0  0  0  0  0  0
    8.0922   -3.4868    5.6350 H   0  0  0  0  0  0  0  0  0  0  0  0
   -1.7072   -0.6968    1.2307 H   0  0  0  0  0  0  0  0  0  0  0  0
    0.1053    3.6871   -0.9910 H   0  0  0  0  0  0  0  0  0  0  0  0
    3.0134   -3.2732    1.6152 H   0  0  0  0  0  0  0  0  0  0  0  0
  1 10  1  0  0  0  0
  1  2  1  0  0  0  0
  1 62  1  0  0  0  0
  1 63  1  0  0  0  0
  2  3  1  6  0  0  0
  2  4  1  0  0  0  0
  2 61  1  0  0  0  0
  4  5  1  1  0  0  0
  4  6  1  0  0  0  0
  4 60  1  0  0  0  0
  6  7  1  6  0  0  0
  6  8  1  0  0  0  0
  6 30  1  0  0  0  0
  8  9  1  1  0  0  0
  8 10  1  0  0  0  0
  8 13  1  0  0  0  0
 10 11  1  6  0  0  0
 10 12  1  0  0  0  0
 12 64  1  0  0  0  0
 12 65  1  0  0  0  0
 12 89  1  0  0  0  0
 13 14  1  0  0  0  0
 14 15  1  1  0  0  0
 14 24  1  0  0  0  0
 14 16  1  0  0  0  0
 16 17  1  1  0  0  0
 16 18  1  0  0  0  0
 16 29  1  0  0  0  0
 18 19  1  6  0  0  0
 18 20  1  0  0  0  0
 18 28  1  0  0  0  0
 20 21  1  1  0  0  0
 20 22  1  0  0  0  0
 20 27  1  0  0  0  0
 22 23  1  6  0  0  0
 22 24  1  0  0  0  0
 22 25  1  0  0  0  0
 25 26  1  0  0  0  0
 25 66  1  0  0  0  0
 25 67  1  0  0  0  0
 26 68  1  0  0  0  0
 27 69  1  0  0  0  0
 28 70  1  0  0  0  0
 29 71  1  0  0  0  0
 29 72  1  0  0  0  0
 29 91  1  0  0  0  0
 30 31  1  0  0  0  0
 31 32  1  6  0  0  0
 31 39  1  0  0  0  0
 31 33  1  0  0  0  0
 33 34  1  1  0  0  0
 33 35  1  0  0  0  0
 33 59  1  0  0  0  0
 35 36  1  1  0  0  0
 35 37  1  0  0  0  0
 35 42  1  0  0  0  0
 37 38  1  6  0  0  0
 37 39  1  0  0  0  0
 37 40  1  0  0  0  0
 40 41  1  0  0  0  0
 40 73  1  0  0  0  0
 40 74  1  0  0  0  0
 41 75  1  0  0  0  0
 42 43  1  0  0  0  0
 43 44  1  1  0  0  0
 43 53  1  0  0  0  0
 43 45  1  0  0  0  0
 45 46  1  6  0  0  0
 45 47  1  0  0  0  0
 45 58  1  0  0  0  0
 47 48  1  1  0  0  0
 47 49  1  0  0  0  0
 47 57  1  0  0  0  0
 49 50  1  1  0  0  0
 49 51  1  0  0  0  0
 49 56  1  0  0  0  0
 51 52  1  1  0  0  0
 51 53  1  0  0  0  0
 51 54  1  0  0  0  0
 54 55  1  0  0  0  0
 54 76  1  0  0  0  0
 54 77  1  0  0  0  0
 55 78  1  0  0  0  0
 55 79  1  0  0  0  0
 55 88  1  0  0  0  0
 56 80  1  0  0  0  0
 57 81  1  0  0  0  0
 58 82  1  0  0  0  0
 58 83  1  0  0  0  0
 59 84  1  0  0  0  0
 60 85  1  0  0  0  0
 61 86  1  0  0  0  0
 61 87  1  0  0  0  0
 61 90  1  0  0  0  0
M  CHG  4  12   1  29   1  55   1  61   1
M  END
$$$$
