ZINC00002232
 OpenBabel08292219463D

 38 39  0  0  0  0  0  0  0  0999 V2000
    1.2293   -2.1840   -0.0214 C   0  0  0  0  0  0  0  0  0  0  0  0
    1.2081   -0.6771   -0.0131 C   0  0  0  0  0  0  0  0  0  0  0  0
    2.3962    0.0305   -0.0211 C   0  0  0  0  0  0  0  0  0  0  0  0
    2.3801    1.4128   -0.0135 C   0  0  0  0  0  0  0  0  0  0  0  0
    1.1763    2.0908    0.0021 C   0  0  0  0  0  0  0  0  0  0  0  0
   -0.0167    1.3833    0.0096 C   0  0  0  0  0  0  0  0  0  0  0  0
    0.0021   -0.0041    0.0020 C   0  0  0  0  0  0  0  0  0  0  0  0
   -1.2021    2.0479    0.0189 O   0  0  0  0  0  0  0  0  0  0  0  0
   -2.3907    1.2546    0.0202 C   0  0  0  0  0  0  0  0  0  0  0  0
   -3.5972    2.1574    0.0308 C   0  0  0  0  0  0  0  0  0  0  0  0
   -4.8451    4.0411    0.0470 C   0  0  0  0  0  0  0  0  0  0  0  0
   -5.7972    2.8279    0.0449 C   0  0  0  0  0  0  0  0  0  0  0  0
   -4.8739    1.6804    0.0343 N   0  0  0  0  0  0  0  0  0  0  0  0
    1.1596    3.5977    0.0098 C   0  0  0  0  0  0  0  0  0  0  0  0
    1.8867    4.1094    1.2549 C   0  0  0  0  0  0  0  0  0  0  0  0
    1.8634    4.1220   -1.2434 C   0  0  0  0  0  0  0  0  0  0  0  0
    1.2246   -2.5417   -1.0510 H   0  0  0  0  0  0  0  0  0  0  0  0
    2.1291   -2.5375    0.4820 H   0  0  0  0  0  0  0  0  0  0  0  0
    0.3494   -2.5626    0.4988 H   0  0  0  0  0  0  0  0  0  0  0  0
    3.3382   -0.4976   -0.0329 H   0  0  0  0  0  0  0  0  0  0  0  0
    3.3093    1.9633   -0.0198 H   0  0  0  0  0  0  0  0  0  0  0  0
   -0.9255   -0.5572    0.0075 H   0  0  0  0  0  0  0  0  0  0  0  0
   -2.4118    0.6303   -0.8731 H   0  0  0  0  0  0  0  0  0  0  0  0
   -2.4034    0.6207    0.9068 H   0  0  0  0  0  0  0  0  0  0  0  0
   -4.9973    4.6485   -0.8452 H   0  0  0  0  0  0  0  0  0  0  0  0
   -4.9906    4.6402    0.9459 H   0  0  0  0  0  0  0  0  0  0  0  0
   -6.4207    2.8290   -0.8491 H   0  0  0  0  0  0  0  0  0  0  0  0
   -6.4144    2.8175    0.9433 H   0  0  0  0  0  0  0  0  0  0  0  0
   -5.1306    0.7450    0.0309 H   0  0  0  0  0  0  0  0  0  0  0  0
    0.1280    3.9495    0.0212 H   0  0  0  0  0  0  0  0  0  0  0  0
    2.9183    3.7576    1.2435 H   0  0  0  0  0  0  0  0  0  0  0  0
    1.8746    5.1994    1.2605 H   0  0  0  0  0  0  0  0  0  0  0  0
    1.3853    3.7359    2.1477 H   0  0  0  0  0  0  0  0  0  0  0  0
    1.3453    3.7575   -2.1305 H   0  0  0  0  0  0  0  0  0  0  0  0
    1.8512    5.2120   -1.2378 H   0  0  0  0  0  0  0  0  0  0  0  0
    2.8950    3.7702   -1.2549 H   0  0  0  0  0  0  0  0  0  0  0  0
   -3.5014    3.4388    0.0428 N   0  0  0  0  0  4  0  0  0  0  0  0
   -2.6194    3.9643    0.0487 H   0  0  0  0  0  0  0  0  0  0  0  0
  1  2  1  0  0  0  0
  1 17  1  0  0  0  0
  1 18  1  0  0  0  0
  1 19  1  0  0  0  0
  2  7  2  0  0  0  0
  2  3  1  0  0  0  0
  3  4  2  0  0  0  0
  3 20  1  0  0  0  0
  4  5  1  0  0  0  0
  4 21  1  0  0  0  0
  5  6  2  0  0  0  0
  5 14  1  0  0  0  0
  6  7  1  0  0  0  0
  6  8  1  0  0  0  0
  7 22  1  0  0  0  0
  8  9  1  0  0  0  0
  9 10  1  0  0  0  0
  9 23  1  0  0  0  0
  9 24  1  0  0  0  0
 10 13  1  0  0  0  0
 10 37  2  0  0  0  0
 11 12  1  0  0  0  0
 11 25  1  0  0  0  0
 11 26  1  0  0  0  0
 11 37  1  0  0  0  0
 12 13  1  0  0  0  0
 12 27  1  0  0  0  0
 12 28  1  0  0  0  0
 13 29  1  0  0  0  0
 14 15  1  0  0  0  0
 14 16  1  0  0  0  0
 14 30  1  0  0  0  0
 15 31  1  0  0  0  0
 15 32  1  0  0  0  0
 15 33  1  0  0  0  0
 16 34  1  0  0  0  0
 16 35  1  0  0  0  0
 16 36  1  0  0  0  0
 37 38  1  0  0  0  0
M  END
$$$$
