ZINC00056721
 OpenBabel08292219463D

 26 27  0  0  0  0  0  0  0  0999 V2000
   -0.0187    1.5258    0.0104 C   0  0  0  0  0  0  0  0  0  0  0  0
    0.0021   -0.0041    0.0020 C   0  0  0  0  0  0  0  0  0  0  0  0
    0.6932   -0.4774    1.1597 O   0  0  0  0  0  0  0  0  0  0  0  0
    0.8020   -1.8247    1.3057 C   0  0  0  0  0  0  0  0  0  0  0  0
    0.2604   -2.6828    0.3521 C   0  0  0  0  0  0  0  0  0  0  0  0
    0.3546   -4.0332    0.4731 C   0  0  0  0  0  0  0  0  0  0  0  0
    1.0107   -4.6197    1.5806 C   0  0  0  0  0  0  0  0  0  0  0  0
    1.5510   -3.7250    2.5328 C   0  0  0  0  0  0  0  0  0  0  0  0
    1.4586   -2.3607    2.4030 C   0  0  0  0  0  0  0  0  0  0  0  0
    2.2658   -4.8318    3.7244 S   0  0  0  0  0  0  0  0  0  0  0  0
    1.8165   -6.3576    2.9091 C   0  0  0  0  0  0  0  0  0  0  0  0
    1.1890   -5.9318    1.8469 N   0  0  0  0  0  0  0  0  0  0  0  0
    2.1387   -8.0154    3.4117 S   0  0  0  0  0  0  0  0  0  0  0  0
    3.5473   -8.1923    3.3489 O   0  0  0  0  0  0  0  0  0  0  0  0
    1.3964   -8.2298    4.6043 O   0  0  0  0  0  0  0  0  0  0  0  0
    1.4848   -9.0116    2.2617 N   0  0  0  0  0  0  0  0  0  0  0  0
    1.0039    1.9031    0.0027 H   0  0  0  0  0  0  0  0  0  0  0  0
   -0.5459    1.8868   -0.8726 H   0  0  0  0  0  0  0  0  0  0  0  0
   -0.5289    1.8773    0.9072 H   0  0  0  0  0  0  0  0  0  0  0  0
   -1.0205   -0.3814    0.0098 H   0  0  0  0  0  0  0  0  0  0  0  0
    0.5123   -0.3556   -0.8948 H   0  0  0  0  0  0  0  0  0  0  0  0
   -0.2474   -2.2649   -0.5046 H   0  0  0  0  0  0  0  0  0  0  0  0
   -0.0778   -4.6673   -0.2867 H   0  0  0  0  0  0  0  0  0  0  0  0
    1.8895   -1.7116    3.1509 H   0  0  0  0  0  0  0  0  0  0  0  0
    1.8842   -9.8780    2.0868 H   0  0  0  0  0  0  0  0  0  0  0  0
    0.7024   -8.7286    1.7631 H   0  0  0  0  0  0  0  0  0  0  0  0
  1  2  1  0  0  0  0
  1 17  1  0  0  0  0
  1 18  1  0  0  0  0
  1 19  1  0  0  0  0
  2  3  1  0  0  0  0
  2 20  1  0  0  0  0
  2 21  1  0  0  0  0
  3  4  1  0  0  0  0
  4  9  2  0  0  0  0
  4  5  1  0  0  0  0
  5  6  2  0  0  0  0
  5 22  1  0  0  0  0
  6  7  1  0  0  0  0
  6 23  1  0  0  0  0
  7 12  1  0  0  0  0
  7  8  2  0  0  0  0
  8  9  1  0  0  0  0
  8 10  1  0  0  0  0
  9 24  1  0  0  0  0
 10 11  1  0  0  0  0
 11 12  2  0  0  0  0
 11 13  1  0  0  0  0
 13 14  2  0  0  0  0
 13 15  2  0  0  0  0
 13 16  1  0  0  0  0
 16 25  1  0  0  0  0
 16 26  1  0  0  0  0
M  END
$$$$
