ZINC03938482
 OpenBabel08292219463D

 93 99  0  0  1  0  0  0  0  0999 V2000
   -0.0399    0.9579    5.0017 C   0  0  0  0  0  0  0  0  0  0  0  0
   -0.7050    1.5658    3.7651 C   0  0  0  0  0  0  0  0  0  0  0  0
    0.0111    1.0724    2.5063 C   0  0  1  0  0  0  0  0  0  0  0  0
    0.0259   -0.0175    2.5003 H   0  0  0  0  0  0  0  0  0  0  0  0
   -0.7288    1.5792    1.2668 C   0  0  2  0  0  0  0  0  0  0  0  0
   -1.7514    1.2020    1.2746 H   0  0  0  0  0  0  0  0  0  0  0  0
   -0.0127    1.0858    0.0080 C   0  0  0  0  0  0  0  0  0  0  0  0
   -0.7482    3.0081    1.2747 O   0  0  0  0  0  0  0  0  0  0  0  0
    1.3856    1.5795    2.4959 N   0  0  0  0  0  0  0  0  0  0  0  0
    2.5119    0.8364    2.4866 C   0  0  0  0  0  0  0  0  0  0  0  0
    2.5731   -0.3802    2.4859 O   0  0  0  0  0  0  0  0  0  0  0  0
    3.5569    1.6881    2.4755 N   0  0  0  0  0  0  0  0  0  0  0  0
    3.0673    2.9728    2.4877 C   0  0  0  0  0  0  0  0  0  0  0  0
    1.7739    2.9262    2.5000 N   0  0  0  0  0  0  0  0  0  0  0  0
    4.9128    1.3253    2.4610 C   0  0  0  0  0  0  0  0  0  0  0  0
    5.2724   -0.0155    2.4559 C   0  0  0  0  0  0  0  0  0  0  0  0
    6.6058   -0.3727    2.4359 C   0  0  0  0  0  0  0  0  0  0  0  0
    7.5877    0.6096    2.4328 C   0  0  0  0  0  0  0  0  0  0  0  0
    7.2276    1.9511    2.4436 C   0  0  0  0  0  0  0  0  0  0  0  0
    5.8939    2.3075    2.4574 C   0  0  0  0  0  0  0  0  0  0  0  0
    8.9386    0.2482    2.4183 N   0  0  0  0  0  0  0  0  0  0  0  0
    9.6341    0.8557    1.2751 C   0  0  0  0  0  0  0  0  0  0  0  0
   11.1218    0.5018    1.3397 C   0  0  0  0  0  0  0  0  0  0  0  0
   11.2758   -0.9596    1.3301 N   0  0  0  0  0  0  0  0  0  0  0  0
   10.5803   -1.5671    2.4733 C   0  0  0  0  0  0  0  0  0  0  0  0
    9.0927   -1.2132    2.4087 C   0  0  0  0  0  0  0  0  0  0  0  0
   12.6276   -1.3213    1.3157 C   0  0  0  0  0  0  0  0  0  0  0  0
   13.1362   -2.1479    2.3087 C   0  0  0  0  0  0  0  0  0  0  0  0
   14.4692   -2.5090    2.2904 C   0  0  0  0  0  0  0  0  0  0  0  0
   15.3023   -2.0366    1.2872 C   0  0  0  0  0  0  0  0  0  0  0  0
   14.7963   -1.2066    0.2979 C   0  0  0  0  0  0  0  0  0  0  0  0
   13.4623   -0.8491    0.3114 C   0  0  0  0  0  0  0  0  0  0  0  0
   16.6162   -2.3878    1.2733 O   0  0  0  0  0  0  0  0  0  0  0  0
   17.0696   -3.2452    2.3227 C   0  0  0  0  0  0  0  0  0  0  0  0
   18.5622   -3.5283    2.1410 C   0  0  1  0  0  0  0  0  0  0  0  0
   19.1200   -2.6000    2.0176 H   0  0  0  0  0  0  0  0  0  0  0  0
   19.1168   -4.3523    3.3284 C   0  0  0  0  0  0  0  0  0  0  0  0
   20.0616   -5.3758    2.6693 C   0  0  2  0  0  0  0  0  0  0  0  0
   20.0664   -5.1055    1.2575 O   0  0  0  0  0  0  0  0  0  0  0  0
   18.8024   -4.4823    0.9433 C   0  0  0  0  0  0  0  0  0  0  0  0
   19.5513   -6.7953    2.9255 C   0  0  0  0  0  0  0  0  0  0  0  0
   20.5166   -7.7636    2.3993 N   0  0  0  0  0  0  0  0  0  0  0  0
   21.1044   -8.7648    3.0769 C   0  0  0  0  0  0  0  0  0  0  0  0
   21.8967   -9.4020    2.2535 N   0  0  0  0  0  0  0  0  0  0  0  0
   21.8477   -8.8343    1.0490 C   0  0  0  0  0  0  0  0  0  0  0  0
   21.0162   -7.8266    1.0882 N   0  0  0  0  0  0  0  0  0  0  0  0
   21.4528   -5.2229    3.2281 C   0  0  0  0  0  0  0  0  0  0  0  0
   22.5048   -4.9115    2.3871 C   0  0  0  0  0  0  0  0  0  0  0  0
   23.7808   -4.7701    2.8983 C   0  0  0  0  0  0  0  0  0  0  0  0
   24.0072   -4.9408    4.2539 C   0  0  0  0  0  0  0  0  0  0  0  0
   22.9548   -5.2530    5.0967 C   0  0  0  0  0  0  0  0  0  0  0  0
   21.6758   -5.3888    4.5844 C   0  0  0  0  0  0  0  0  0  0  0  0
   20.6466   -5.6881    5.4068 F   0  0  0  0  0  0  0  0  0  0  0  0
   25.2549   -4.8030    4.7533 F   0  0  0  0  0  0  0  0  0  0  0  0
   -0.5501    1.3094    5.8985 H   0  0  0  0  0  0  0  0  0  0  0  0
   -0.1025   -0.1291    4.9505 H   0  0  0  0  0  0  0  0  0  0  0  0
    1.0067    1.2603    5.0370 H   0  0  0  0  0  0  0  0  0  0  0  0
   -0.6424    2.6528    3.8163 H   0  0  0  0  0  0  0  0  0  0  0  0
   -1.7516    1.2634    3.7299 H   0  0  0  0  0  0  0  0  0  0  0  0
    0.0021   -0.0041    0.0020 H   0  0  0  0  0  0  0  0  0  0  0  0
    1.0099    1.4631    0.0003 H   0  0  0  0  0  0  0  0  0  0  0  0
   -0.5399    1.4469   -0.8751 H   0  0  0  0  0  0  0  0  0  0  0  0
    0.1297    3.4134    1.2685 H   0  0  0  0  0  0  0  0  0  0  0  0
    3.6639    3.8731    2.4871 H   0  0  0  0  0  0  0  0  0  0  0  0
    4.5088   -0.7793    2.4631 H   0  0  0  0  0  0  0  0  0  0  0  0
    6.8854   -1.4159    2.4275 H   0  0  0  0  0  0  0  0  0  0  0  0
    7.9908    2.7152    2.4415 H   0  0  0  0  0  0  0  0  0  0  0  0
    5.6138    3.3505    2.4658 H   0  0  0  0  0  0  0  0  0  0  0  0
    9.2096    0.4741    0.3465 H   0  0  0  0  0  0  0  0  0  0  0  0
    9.5160    1.9387    1.3113 H   0  0  0  0  0  0  0  0  0  0  0  0
   11.5525    0.9069    2.2554 H   0  0  0  0  0  0  0  0  0  0  0  0
   11.6346    0.9272    0.4771 H   0  0  0  0  0  0  0  0  0  0  0  0
   11.0049   -1.1856    3.4019 H   0  0  0  0  0  0  0  0  0  0  0  0
   10.6984   -2.6501    2.4371 H   0  0  0  0  0  0  0  0  0  0  0  0
    8.5799   -1.6386    3.2713 H   0  0  0  0  0  0  0  0  0  0  0  0
    8.6620   -1.6183    1.4930 H   0  0  0  0  0  0  0  0  0  0  0  0
   12.4888   -2.5117    3.0929 H   0  0  0  0  0  0  0  0  0  0  0  0
   14.8640   -3.1556    3.0602 H   0  0  0  0  0  0  0  0  0  0  0  0
   15.4457   -0.8395   -0.4831 H   0  0  0  0  0  0  0  0  0  0  0  0
   13.0686   -0.2023   -0.4586 H   0  0  0  0  0  0  0  0  0  0  0  0
   16.9064   -2.7596    3.2848 H   0  0  0  0  0  0  0  0  0  0  0  0
   16.5154   -4.1833    2.2905 H   0  0  0  0  0  0  0  0  0  0  0  0
   19.6691   -3.7096    4.0140 H   0  0  0  0  0  0  0  0  0  0  0  0
   18.3066   -4.8600    3.8519 H   0  0  0  0  0  0  0  0  0  0  0  0
   18.0108   -5.2291    0.8827 H   0  0  0  0  0  0  0  0  0  0  0  0
   18.8728   -3.9196    0.0125 H   0  0  0  0  0  0  0  0  0  0  0  0
   19.4296   -6.9496    3.9977 H   0  0  0  0  0  0  0  0  0  0  0  0
   18.5914   -6.9317    2.4275 H   0  0  0  0  0  0  0  0  0  0  0  0
   20.9481   -9.0031    4.1186 H   0  0  0  0  0  0  0  0  0  0  0  0
   22.4053   -9.1545    0.1812 H   0  0  0  0  0  0  0  0  0  0  0  0
   22.3292   -4.7783    1.3299 H   0  0  0  0  0  0  0  0  0  0  0  0
   24.6019   -4.5261    2.2405 H   0  0  0  0  0  0  0  0  0  0  0  0
   23.1304   -5.3863    6.1540 H   0  0  0  0  0  0  0  0  0  0  0  0
  1  2  1  0  0  0  0
  1 55  1  0  0  0  0
  1 56  1  0  0  0  0
  1 57  1  0  0  0  0
  2  3  1  0  0  0  0
  2 58  1  0  0  0  0
  2 59  1  0  0  0  0
  3  4  1  6  0  0  0
  3  5  1  0  0  0  0
  3  9  1  0  0  0  0
  5  6  1  1  0  0  0
  5  7  1  0  0  0  0
  5  8  1  0  0  0  0
  7 60  1  0  0  0  0
  7 61  1  0  0  0  0
  7 62  1  0  0  0  0
  8 63  1  0  0  0  0
  9 14  1  0  0  0  0
  9 10  1  0  0  0  0
 10 11  2  0  0  0  0
 10 12  1  0  0  0  0
 12 13  1  0  0  0  0
 12 15  1  0  0  0  0
 13 14  2  0  0  0  0
 13 64  1  0  0  0  0
 15 20  2  0  0  0  0
 15 16  1  0  0  0  0
 16 17  2  0  0  0  0
 16 65  1  0  0  0  0
 17 18  1  0  0  0  0
 17 66  1  0  0  0  0
 18 19  2  0  0  0  0
 18 21  1  0  0  0  0
 19 20  1  0  0  0  0
 19 67  1  0  0  0  0
 20 68  1  0  0  0  0
 21 26  1  0  0  0  0
 21 22  1  0  0  0  0
 22 23  1  0  0  0  0
 22 69  1  0  0  0  0
 22 70  1  0  0  0  0
 23 24  1  0  0  0  0
 23 71  1  0  0  0  0
 23 72  1  0  0  0  0
 24 25  1  0  0  0  0
 24 27  1  0  0  0  0
 25 26  1  0  0  0  0
 25 73  1  0  0  0  0
 25 74  1  0  0  0  0
 26 75  1  0  0  0  0
 26 76  1  0  0  0  0
 27 32  2  0  0  0  0
 27 28  1  0  0  0  0
 28 29  2  0  0  0  0
 28 77  1  0  0  0  0
 29 30  1  0  0  0  0
 29 78  1  0  0  0  0
 30 31  2  0  0  0  0
 30 33  1  0  0  0  0
 31 32  1  0  0  0  0
 31 79  1  0  0  0  0
 32 80  1  0  0  0  0
 33 34  1  0  0  0  0
 34 35  1  0  0  0  0
 34 81  1  0  0  0  0
 34 82  1  0  0  0  0
 35 36  1  6  0  0  0
 35 40  1  0  0  0  0
 35 37  1  0  0  0  0
 37 38  1  0  0  0  0
 37 83  1  0  0  0  0
 37 84  1  0  0  0  0
 38 39  1  0  0  0  0
 38 41  1  1  0  0  0
 38 47  1  0  0  0  0
 39 40  1  0  0  0  0
 40 85  1  0  0  0  0
 40 86  1  0  0  0  0
 41 42  1  0  0  0  0
 41 87  1  0  0  0  0
 41 88  1  0  0  0  0
 42 46  1  0  0  0  0
 42 43  1  0  0  0  0
 43 44  2  0  0  0  0
 43 89  1  0  0  0  0
 44 45  1  0  0  0  0
 45 46  2  0  0  0  0
 45 90  1  0  0  0  0
 47 52  2  0  0  0  0
 47 48  1  0  0  0  0
 48 49  2  0  0  0  0
 48 91  1  0  0  0  0
 49 50  1  0  0  0  0
 49 92  1  0  0  0  0
 50 51  2  0  0  0  0
 50 54  1  0  0  0  0
 51 52  1  0  0  0  0
 51 93  1  0  0  0  0
 52 53  1  0  0  0  0
M  END
$$$$
