ZINC01482113
 OpenBabel08292219463D

 18 17  0  0  1  0  0  0  0  0999 V2000
   -0.0187    1.5258    0.0104 C   0  0  0  0  0  0  0  0  0  0  0  0
    0.0021   -0.0041    0.0020 C   0  0  0  0  0  0  0  0  0  0  0  0
   -1.4117   -0.5257    0.0127 C   0  0  0  0  0  0  0  0  0  0  0  0
   -2.3491    0.2539    0.0259 O   0  0  0  0  0  0  0  0  0  0  0  0
   -1.6182   -1.7273    0.0082 O   0  0  0  0  0  1  0  0  0  0  0  0
    1.4167    2.0553   -0.0004 C   0  0  1  0  0  0  0  0  0  0  0  0
    1.9535    1.6326   -0.8497 H   0  0  0  0  0  0  0  0  0  0  0  0
    1.3970    3.5578   -0.1160 C   0  0  0  0  0  0  0  0  0  0  0  0
    1.7295    4.2467    0.8334 O   0  0  0  0  0  0  0  0  0  0  0  0
    1.0484    4.0844   -1.1589 O   0  0  0  0  0  1  0  0  0  0  0  0
    2.0906    1.6690    1.2464 N   0  3  0  0  0  0  0  0  0  0  0  0
   -0.5459    1.8868   -0.8726 H   0  0  0  0  0  0  0  0  0  0  0  0
   -0.5289    1.8773    0.9072 H   0  0  0  0  0  0  0  0  0  0  0  0
    0.5123   -0.3556   -0.8948 H   0  0  0  0  0  0  0  0  0  0  0  0
    0.5293   -0.3651    0.8851 H   0  0  0  0  0  0  0  0  0  0  0  0
    2.1039    0.6630    1.3237 H   0  0  0  0  0  0  0  0  0  0  0  0
    3.0372    2.0182    1.2392 H   0  0  0  0  0  0  0  0  0  0  0  0
    1.5937    2.0603    2.0325 H   0  0  0  0  0  0  0  0  0  0  0  0
  1  2  1  0  0  0  0
  1  6  1  0  0  0  0
  1 12  1  0  0  0  0
  1 13  1  0  0  0  0
  2  3  1  0  0  0  0
  2 14  1  0  0  0  0
  2 15  1  0  0  0  0
  3  4  2  0  0  0  0
  3  5  1  0  0  0  0
  6  7  1  6  0  0  0
  6  8  1  0  0  0  0
  6 11  1  0  0  0  0
  8  9  2  0  0  0  0
  8 10  1  0  0  0  0
 11 16  1  0  0  0  0
 11 17  1  0  0  0  0
 11 18  1  0  0  0  0
M  CHG  1  11   1
M  END
$$$$
