ZINC03814422
 OpenBabel08292219463D

 52 55  0  0  1  0  0  0  0  0999 V2000
   -0.1004    1.5252   -0.0424 C   0  0  0  0  0  0  0  0  0  0  0  0
   -0.0873   -0.0047   -0.0558 C   0  0  2  0  0  0  0  0  0  0  0  0
   -1.5229   -0.4525   -0.1819 C   0  0  0  0  0  0  0  0  0  0  0  0
   -1.7682   -1.8077    0.4808 C   0  0  0  0  0  0  0  0  0  0  0  0
   -1.3095   -1.7025    1.9229 C   0  0  0  0  0  0  0  0  0  0  0  0
   -2.0263   -2.0191    2.8492 O   0  0  0  0  0  0  0  0  0  0  0  0
    0.0537   -1.1954    2.1328 C   0  0  0  0  0  0  0  0  0  0  0  0
    0.6146   -0.4408    1.1926 C   0  0  0  0  0  0  0  0  0  0  0  0
    2.0594   -0.0056    1.3703 C   0  0  0  0  0  0  0  0  0  0  0  0
    2.8299   -0.4253    0.1133 C   0  0  0  0  0  0  0  0  0  0  0  0
    2.1548    0.1548   -1.1298 C   0  0  2  0  0  0  0  0  0  0  0  0
    2.1008    1.2402   -1.0447 H   0  0  0  0  0  0  0  0  0  0  0  0
    0.7372   -0.4241   -1.2738 C   0  0  2  0  0  0  0  0  0  0  0  0
    0.7954   -1.5119   -1.3108 H   0  0  0  0  0  0  0  0  0  0  0  0
    0.0557    0.0696   -2.5462 C   0  0  0  0  0  0  0  0  0  0  0  0
    0.9109   -0.2098   -3.7925 C   0  0  0  0  0  0  0  0  0  0  0  0
    2.2511    0.4669   -3.5782 C   0  0  1  0  0  0  0  0  0  0  0  0
    2.9419   -0.2213   -2.3716 C   0  0  1  0  0  0  0  0  0  0  0  0
    2.9388   -1.3026   -2.5091 H   0  0  0  0  0  0  0  0  0  0  0  0
    4.3665    0.3385   -2.4528 C   0  0  0  0  0  0  0  0  0  0  0  0
    4.6646    0.3110   -3.9767 C   0  0  0  0  0  0  0  0  0  0  0  0
    3.2762    0.3165   -4.6975 C   0  0  1  0  0  0  0  0  0  0  0  0
    3.0335   -0.9832   -5.4674 C   0  0  0  0  0  0  0  0  0  0  0  0
    3.2112    1.4367   -5.5823 O   0  0  0  0  0  0  0  0  0  0  0  0
    2.0387    1.9496   -3.2658 C   0  0  0  0  0  0  0  0  0  0  0  0
    0.9240    1.8972   -0.0238 H   0  0  0  0  0  0  0  0  0  0  0  0
   -0.6039    1.8921   -0.9368 H   0  0  0  0  0  0  0  0  0  0  0  0
   -0.6306    1.8763    0.8429 H   0  0  0  0  0  0  0  0  0  0  0  0
   -2.1675    0.2915    0.2860 H   0  0  0  0  0  0  0  0  0  0  0  0
   -1.7789   -0.5246   -1.2390 H   0  0  0  0  0  0  0  0  0  0  0  0
   -2.8307   -2.0488    0.4473 H   0  0  0  0  0  0  0  0  0  0  0  0
   -1.1965   -2.5800   -0.0338 H   0  0  0  0  0  0  0  0  0  0  0  0
    0.5969   -1.4429    3.0329 H   0  0  0  0  0  0  0  0  0  0  0  0
    2.1074    1.0769    1.4890 H   0  0  0  0  0  0  0  0  0  0  0  0
    2.4872   -0.4934    2.2462 H   0  0  0  0  0  0  0  0  0  0  0  0
    3.8532   -0.0552    0.1755 H   0  0  0  0  0  0  0  0  0  0  0  0
    2.8435   -1.5130    0.0435 H   0  0  0  0  0  0  0  0  0  0  0  0
   -0.9048   -0.4344   -2.6537 H   0  0  0  0  0  0  0  0  0  0  0  0
   -0.1145    1.1431   -2.4650 H   0  0  0  0  0  0  0  0  0  0  0  0
    1.0525   -1.2839   -3.9123 H   0  0  0  0  0  0  0  0  0  0  0  0
    0.4243    0.2022   -4.6765 H   0  0  0  0  0  0  0  0  0  0  0  0
    4.4022    1.3589   -2.0712 H   0  0  0  0  0  0  0  0  0  0  0  0
    5.0637   -0.3013   -1.9118 H   0  0  0  0  0  0  0  0  0  0  0  0
    5.2553    1.1828   -4.2581 H   0  0  0  0  0  0  0  0  0  0  0  0
    5.1983   -0.6030   -4.2371 H   0  0  0  0  0  0  0  0  0  0  0  0
    2.0333   -0.9677   -5.9003 H   0  0  0  0  0  0  0  0  0  0  0  0
    3.7724   -1.0775   -6.2632 H   0  0  0  0  0  0  0  0  0  0  0  0
    3.1220   -1.8304   -4.7872 H   0  0  0  0  0  0  0  0  0  0  0  0
    3.8411    1.3963   -6.3149 H   0  0  0  0  0  0  0  0  0  0  0  0
    1.3848    2.0483   -2.3994 H   0  0  0  0  0  0  0  0  0  0  0  0
    2.9998    2.4168   -3.0508 H   0  0  0  0  0  0  0  0  0  0  0  0
    1.5804    2.4398   -4.1247 H   0  0  0  0  0  0  0  0  0  0  0  0
  1 26  1  0  0  0  0
  1 27  1  0  0  0  0
  1 28  1  0  0  0  0
  2  1  1  1  0  0  0
  2  8  1  0  0  0  0
  2 13  1  0  0  0  0
  2  3  1  0  0  0  0
  3  4  1  0  0  0  0
  3 29  1  0  0  0  0
  3 30  1  0  0  0  0
  4  5  1  0  0  0  0
  4 31  1  0  0  0  0
  4 32  1  0  0  0  0
  5  6  2  0  0  0  0
  5  7  1  0  0  0  0
  7  8  2  0  0  0  0
  7 33  1  0  0  0  0
  8  9  1  0  0  0  0
  9 10  1  0  0  0  0
  9 34  1  0  0  0  0
  9 35  1  0  0  0  0
 10 11  1  0  0  0  0
 10 36  1  0  0  0  0
 10 37  1  0  0  0  0
 11 12  1  1  0  0  0
 11 18  1  0  0  0  0
 11 13  1  0  0  0  0
 13 14  1  6  0  0  0
 13 15  1  0  0  0  0
 15 16  1  0  0  0  0
 15 38  1  0  0  0  0
 15 39  1  0  0  0  0
 16 17  1  0  0  0  0
 16 40  1  0  0  0  0
 16 41  1  0  0  0  0
 17 22  1  0  0  0  0
 17 18  1  0  0  0  0
 17 25  1  1  0  0  0
 18 19  1  6  0  0  0
 18 20  1  0  0  0  0
 20 21  1  0  0  0  0
 20 42  1  0  0  0  0
 20 43  1  0  0  0  0
 21 22  1  0  0  0  0
 21 44  1  0  0  0  0
 21 45  1  0  0  0  0
 22 23  1  0  0  0  0
 22 24  1  6  0  0  0
 23 46  1  0  0  0  0
 23 47  1  0  0  0  0
 23 48  1  0  0  0  0
 24 49  1  0  0  0  0
 25 50  1  0  0  0  0
 25 51  1  0  0  0  0
 25 52  1  0  0  0  0
M  END
$$$$
