ZINC19796039
 OpenBabel08292219463D

 54 55  0  0  1  0  0  0  0  0999 V2000
   -2.3669   -0.9201    0.0143 C   0  0  0  0  0  0  0  0  0  0  0  0
   -0.8508   -1.0920   -0.0992 C   0  0  0  0  0  0  0  0  0  0  0  0
   -0.3390   -1.6247    1.1240 O   0  0  0  0  0  0  0  0  0  0  0  0
    0.9920   -1.8379    1.1900 C   0  0  0  0  0  0  0  0  0  0  0  0
    1.6979   -1.5779    0.2335 O   0  0  0  0  0  0  0  0  0  0  0  0
    1.5663   -2.3635    2.3705 C   0  0  0  0  0  0  0  0  0  0  0  0
    1.4893   -3.6844    2.6076 C   0  0  0  0  0  0  0  0  0  0  0  0
    2.0418   -4.2273    3.7355 N   0  0  0  0  0  0  0  0  0  0  0  0
    2.9751   -3.5288    4.4518 C   0  0  0  0  0  0  0  0  0  0  0  0
    3.1134   -2.2013    4.2923 C   0  0  0  0  0  0  0  0  0  0  0  0
    2.2545   -1.4343    3.3297 C   0  0  2  0  0  0  0  0  0  0  0  0
    2.8758   -0.7357    2.7693 H   0  0  0  0  0  0  0  0  0  0  0  0
    1.2171   -0.6630    4.1042 C   0  0  0  0  0  0  0  0  0  0  0  0
    0.3009   -1.3352    4.8915 C   0  0  0  0  0  0  0  0  0  0  0  0
   -0.6507   -0.6279    5.6019 C   0  0  0  0  0  0  0  0  0  0  0  0
   -0.6869    0.7521    5.5257 C   0  0  0  0  0  0  0  0  0  0  0  0
    0.2284    1.4252    4.7390 C   0  0  0  0  0  0  0  0  0  0  0  0
    1.1849    0.7180    4.0320 C   0  0  0  0  0  0  0  0  0  0  0  0
    2.3393    1.5632    3.0488 Cl  0  0  0  0  0  0  0  0  0  0  0  0
    4.0934   -1.5126    5.0439 C   0  0  0  0  0  0  0  0  0  0  0  0
    4.8005   -2.1217    5.8248 O   0  0  0  0  0  0  0  0  0  0  0  0
    4.2446   -0.1798    4.8951 O   0  0  0  0  0  0  0  0  0  0  0  0
    5.2539    0.4509    5.6860 C   0  0  0  0  0  0  0  0  0  0  0  0
    3.8586   -4.2567    5.4320 C   0  0  0  0  0  0  0  0  0  0  0  0
    0.7865   -4.5783    1.6187 C   0  0  0  0  0  0  0  0  0  0  0  0
    1.7317   -5.4747    1.0312 O   0  0  0  0  0  0  0  0  0  0  0  0
    1.1651   -6.3711    0.0734 C   0  0  0  0  0  0  0  0  0  0  0  0
    2.2620   -7.2786   -0.4871 C   0  0  0  0  0  0  0  0  0  0  0  0
    2.7843   -8.1355    0.5857 N   0  3  0  0  0  0  0  0  0  0  0  0
   -2.5949   -0.2363    0.8320 H   0  0  0  0  0  0  0  0  0  0  0  0
   -2.7574   -0.5137   -0.9187 H   0  0  0  0  0  0  0  0  0  0  0  0
   -2.8286   -1.8878    0.2105 H   0  0  0  0  0  0  0  0  0  0  0  0
   -0.6229   -1.7758   -0.9168 H   0  0  0  0  0  0  0  0  0  0  0  0
   -0.3892   -0.1243   -0.2954 H   0  0  0  0  0  0  0  0  0  0  0  0
    1.7703   -5.1111    4.0287 H   0  0  0  0  0  0  0  0  0  0  0  0
    0.3285   -2.4132    4.9512 H   0  0  0  0  0  0  0  0  0  0  0  0
   -1.3665   -1.1535    6.2166 H   0  0  0  0  0  0  0  0  0  0  0  0
   -1.4309    1.3042    6.0807 H   0  0  0  0  0  0  0  0  0  0  0  0
    0.1999    2.5032    4.6793 H   0  0  0  0  0  0  0  0  0  0  0  0
    5.0362    0.2970    6.7429 H   0  0  0  0  0  0  0  0  0  0  0  0
    6.2254    0.0176    5.4483 H   0  0  0  0  0  0  0  0  0  0  0  0
    5.2699    1.5192    5.4701 H   0  0  0  0  0  0  0  0  0  0  0  0
    3.6076   -5.3174    5.4292 H   0  0  0  0  0  0  0  0  0  0  0  0
    4.9022   -4.1295    5.1443 H   0  0  0  0  0  0  0  0  0  0  0  0
    3.7050   -3.8496    6.4314 H   0  0  0  0  0  0  0  0  0  0  0  0
    0.0135   -5.1505    2.1317 H   0  0  0  0  0  0  0  0  0  0  0  0
    0.3301   -3.9691    0.8386 H   0  0  0  0  0  0  0  0  0  0  0  0
    0.3999   -6.9805    0.5544 H   0  0  0  0  0  0  0  0  0  0  0  0
    0.7166   -5.7990   -0.7387 H   0  0  0  0  0  0  0  0  0  0  0  0
    1.8484   -7.9011   -1.2804 H   0  0  0  0  0  0  0  0  0  0  0  0
    3.0696   -6.6667   -0.8890 H   0  0  0  0  0  0  0  0  0  0  0  0
    3.1672   -7.5592    1.3202 H   0  0  0  0  0  0  0  0  0  0  0  0
    2.0368   -8.7018    0.9578 H   0  0  0  0  0  0  0  0  0  0  0  0
    3.5077   -8.7339    0.2161 H   0  0  0  0  0  0  0  0  0  0  0  0
  1  2  1  0  0  0  0
  1 30  1  0  0  0  0
  1 31  1  0  0  0  0
  1 32  1  0  0  0  0
  2  3  1  0  0  0  0
  2 33  1  0  0  0  0
  2 34  1  0  0  0  0
  3  4  1  0  0  0  0
  4  5  2  0  0  0  0
  4  6  1  0  0  0  0
  6 11  1  0  0  0  0
  6  7  2  0  0  0  0
  7  8  1  0  0  0  0
  7 25  1  0  0  0  0
  8  9  1  0  0  0  0
  8 35  1  0  0  0  0
  9 10  2  0  0  0  0
  9 24  1  0  0  0  0
 10 11  1  0  0  0  0
 10 20  1  0  0  0  0
 11 12  1  6  0  0  0
 11 13  1  0  0  0  0
 13 18  2  0  0  0  0
 13 14  1  0  0  0  0
 14 15  2  0  0  0  0
 14 36  1  0  0  0  0
 15 16  1  0  0  0  0
 15 37  1  0  0  0  0
 16 17  2  0  0  0  0
 16 38  1  0  0  0  0
 17 18  1  0  0  0  0
 17 39  1  0  0  0  0
 18 19  1  0  0  0  0
 20 21  2  0  0  0  0
 20 22  1  0  0  0  0
 22 23  1  0  0  0  0
 23 40  1  0  0  0  0
 23 41  1  0  0  0  0
 23 42  1  0  0  0  0
 24 43  1  0  0  0  0
 24 44  1  0  0  0  0
 24 45  1  0  0  0  0
 25 26  1  0  0  0  0
 25 46  1  0  0  0  0
 25 47  1  0  0  0  0
 26 27  1  0  0  0  0
 27 28  1  0  0  0  0
 27 48  1  0  0  0  0
 27 49  1  0  0  0  0
 28 29  1  0  0  0  0
 28 50  1  0  0  0  0
 28 51  1  0  0  0  0
 29 52  1  0  0  0  0
 29 53  1  0  0  0  0
 29 54  1  0  0  0  0
M  CHG  1  29   1
M  END
$$$$
