ZINC01530771
 OpenBabel08292219463D

 22 22  0  0  1  0  0  0  0  0999 V2000
    2.6555    4.0880   -1.2856 C   0  0  0  0  0  0  0  0  0  0  0  0
    1.1260    4.0898   -1.2449 C   0  0  0  0  0  0  0  0  0  0  0  0
    0.6485    3.3630    0.0139 C   0  0  1  0  0  0  0  0  0  0  0  0
   -0.8635    3.2596    0.0278 C   0  0  0  0  0  0  0  0  0  0  0  0
   -1.6606    4.1729    0.0403 O   0  0  0  0  0  0  0  0  0  0  0  0
   -1.1367    1.9395    0.0176 N   0  0  0  0  0  0  0  0  0  0  0  0
   -0.0144    1.2104    0.0087 C   0  0  0  0  0  0  0  0  0  0  0  0
    0.0021   -0.0041    0.0020 O   0  0  0  0  0  0  0  0  0  0  0  0
    1.0915    1.9723    0.0022 O   0  0  0  0  0  0  0  0  0  0  0  0
   -2.4887    1.3753    0.0196 C   0  0  0  0  0  0  0  0  0  0  0  0
    1.1501    4.0763    1.2711 C   0  0  0  0  0  0  0  0  0  0  0  0
    3.0430    4.5970   -0.4030 H   0  0  0  0  0  0  0  0  0  0  0  0
    3.0173    3.0600   -1.3003 H   0  0  0  0  0  0  0  0  0  0  0  0
    2.9957    4.6059   -2.1824 H   0  0  0  0  0  0  0  0  0  0  0  0
    0.7385    3.5809   -2.1274 H   0  0  0  0  0  0  0  0  0  0  0  0
    0.7642    5.1179   -1.2301 H   0  0  0  0  0  0  0  0  0  0  0  0
   -2.4283    0.2869    0.0133 H   0  0  0  0  0  0  0  0  0  0  0  0
   -3.0185    1.7045    0.9135 H   0  0  0  0  0  0  0  0  0  0  0  0
   -3.0253    1.7145   -0.8664 H   0  0  0  0  0  0  0  0  0  0  0  0
    2.2399    4.0631    1.2860 H   0  0  0  0  0  0  0  0  0  0  0  0
    0.7992    5.1083    1.2677 H   0  0  0  0  0  0  0  0  0  0  0  0
    0.7684    3.5657    2.1553 H   0  0  0  0  0  0  0  0  0  0  0  0
  1  2  1  0  0  0  0
  1 12  1  0  0  0  0
  1 13  1  0  0  0  0
  1 14  1  0  0  0  0
  2 15  1  0  0  0  0
  2 16  1  0  0  0  0
  3  2  1  6  0  0  0
  3  9  1  0  0  0  0
  3  4  1  0  0  0  0
  3 11  1  0  0  0  0
  4  5  2  0  0  0  0
  4  6  1  0  0  0  0
  6  7  1  0  0  0  0
  6 10  1  0  0  0  0
  7  8  2  0  0  0  0
  7  9  1  0  0  0  0
 10 17  1  0  0  0  0
 10 18  1  0  0  0  0
 10 19  1  0  0  0  0
 11 20  1  0  0  0  0
 11 21  1  0  0  0  0
 11 22  1  0  0  0  0
M  END
$$$$
