ZINC12503159
 OpenBabel08292219463D

 45 49  0  0  1  0  0  0  0  0999 V2000
   -4.4769   -0.2115    0.0221 C   0  0  0  0  0  0  0  0  0  0  0  0
   -5.3680    0.8520    0.0334 C   0  0  0  0  0  0  0  0  0  0  0  0
   -4.9102    2.1514    0.0385 C   0  0  0  0  0  0  0  0  0  0  0  0
   -3.5424    2.4055    0.0328 C   0  0  0  0  0  0  0  0  0  0  0  0
   -2.6423    1.3283    0.0218 C   0  0  0  0  0  0  0  0  0  0  0  0
   -3.1188    0.0198    0.0170 C   0  0  0  0  0  0  0  0  0  0  0  0
   -1.2950    1.9281    0.0187 C   0  0  0  0  0  0  0  0  0  0  0  0
   -1.4745    3.2809    0.0329 C   0  0  0  0  0  0  0  0  0  0  0  0
   -2.7979    3.5672    0.0360 N   0  0  0  0  0  0  0  0  0  0  0  0
   -3.1702    4.4628    0.0433 H   0  0  0  0  0  0  0  0  0  0  0  0
   -0.0144    1.2118    0.0087 C   0  0  0  0  0  0  0  0  0  0  0  0
    0.0021   -0.0041    0.0020 O   0  0  0  0  0  0  0  0  0  0  0  0
    1.1440    1.9018    0.0013 O   0  0  0  0  0  0  0  0  0  0  0  0
    2.3723    1.1276   -0.0145 C   0  0  2  0  0  0  0  0  0  0  0  0
    2.8233    0.8539    1.4228 C   0  0  0  0  0  0  0  0  0  0  0  0
    4.1508    0.0937    1.4017 C   0  0  1  0  0  0  0  0  0  0  0  0
    4.4906   -0.0637    2.4253 H   0  0  0  0  0  0  0  0  0  0  0  0
    3.9555   -1.2619    0.7219 C   0  0  0  0  0  0  0  0  0  0  0  0
    4.9119   -1.3663   -0.4785 C   0  0  1  0  0  0  0  0  0  0  0  0
    4.5782   -0.2101   -1.4348 C   0  0  0  0  0  0  0  0  0  0  0  0
    4.7713    1.1192   -0.7037 C   0  0  1  0  0  0  0  0  0  0  0  0
    5.5568    1.6912   -1.1975 H   0  0  0  0  0  0  0  0  0  0  0  0
    3.4648    1.9161   -0.7424 C   0  0  0  0  0  0  0  0  0  0  0  0
    6.4832    0.2296    0.7616 C   0  0  0  0  0  0  0  0  0  0  0  0
    6.3161   -1.1088    0.0573 C   0  0  0  0  0  0  0  0  0  0  0  0
    7.2195   -1.9004   -0.0673 O   0  0  0  0  0  0  0  0  0  0  0  0
   -4.8496   -1.2251    0.0178 H   0  0  0  0  0  0  0  0  0  0  0  0
   -6.4306    0.6593    0.0378 H   0  0  0  0  0  0  0  0  0  0  0  0
   -5.6124    2.9719    0.0466 H   0  0  0  0  0  0  0  0  0  0  0  0
   -2.4271   -0.8096    0.0086 H   0  0  0  0  0  0  0  0  0  0  0  0
   -0.6805    4.0130    0.0381 H   0  0  0  0  0  0  0  0  0  0  0  0
    2.2006    0.1825   -0.5297 H   0  0  0  0  0  0  0  0  0  0  0  0
    2.9540    1.7994    1.9493 H   0  0  0  0  0  0  0  0  0  0  0  0
    2.0691    0.2546    1.9327 H   0  0  0  0  0  0  0  0  0  0  0  0
    2.9257   -1.3511    0.3762 H   0  0  0  0  0  0  0  0  0  0  0  0
    4.1731   -2.0601    1.4316 H   0  0  0  0  0  0  0  0  0  0  0  0
    4.8125   -2.2645   -0.9068 H   0  0  0  0  0  0  0  0  0  0  0  0
    3.5429   -0.2974   -1.7644 H   0  0  0  0  0  0  0  0  0  0  0  0
    5.2403   -0.2494   -2.2999 H   0  0  0  0  0  0  0  0  0  0  0  0
    3.1678    2.0783   -1.7785 H   0  0  0  0  0  0  0  0  0  0  0  0
    3.6098    2.8774   -0.2495 H   0  0  0  0  0  0  0  0  0  0  0  0
    7.1877    0.7654    0.2963 H   0  0  0  0  0  0  0  0  0  0  0  0
    6.7717    0.0741    1.8012 H   0  0  0  0  0  0  0  0  0  0  0  0
    5.1658    0.9095    0.7043 N   0  3  2  0  0  0  0  0  0  0  0  0
    5.2388    1.8217    1.1700 H   0  0  0  0  0  0  0  0  0  0  0  0
  1  6  2  0  0  0  0
  1  2  1  0  0  0  0
  1 27  1  0  0  0  0
  2  3  2  0  0  0  0
  2 28  1  0  0  0  0
  3  4  1  0  0  0  0
  3 29  1  0  0  0  0
  4  9  1  0  0  0  0
  4  5  2  0  0  0  0
  5  6  1  0  0  0  0
  5  7  1  0  0  0  0
  6 30  1  0  0  0  0
  7  8  2  0  0  0  0
  7 11  1  0  0  0  0
  8  9  1  0  0  0  0
  8 31  1  0  0  0  0
  9 10  1  0  0  0  0
 11 12  2  0  0  0  0
 11 13  1  0  0  0  0
 13 14  1  0  0  0  0
 14 23  1  0  0  0  0
 14 15  1  0  0  0  0
 14 32  1  6  0  0  0
 15 16  1  0  0  0  0
 15 33  1  0  0  0  0
 15 34  1  0  0  0  0
 16 17  1  1  0  0  0
 16 18  1  0  0  0  0
 16 44  1  0  0  0  0
 18 19  1  0  0  0  0
 18 35  1  0  0  0  0
 18 36  1  0  0  0  0
 19 25  1  0  0  0  0
 19 20  1  0  0  0  0
 19 37  1  6  0  0  0
 20 21  1  0  0  0  0
 20 38  1  0  0  0  0
 20 39  1  0  0  0  0
 21 22  1  6  0  0  0
 21 23  1  0  0  0  0
 21 44  1  0  0  0  0
 23 40  1  0  0  0  0
 23 41  1  0  0  0  0
 24 25  1  0  0  0  0
 24 42  1  0  0  0  0
 24 43  1  0  0  0  0
 24 44  1  0  0  0  0
 25 26  2  0  0  0  0
 44 45  1  1  0  0  0
M  CHG  1  44   1
M  END
$$$$
