ZINC34142548
 OpenBabel08292219463D

 53 56  0  0  1  0  0  0  0  0999 V2000
   -0.1169    1.5209   -0.0328 C   0  0  0  0  0  0  0  0  0  0  0  0
    0.0021   -0.0041    0.0020 C   0  0  0  0  0  0  0  0  0  0  0  0
    0.6055   -0.4982   -1.3125 C   0  0  2  0  0  0  0  0  0  0  0  0
   -0.0749    0.1649   -2.4852 C   0  0  0  0  0  0  0  0  0  0  0  0
   -1.5167   -0.3655   -2.5926 C   0  0  0  0  0  0  0  0  0  0  0  0
   -1.5191   -1.8760   -2.7785 C   0  0  1  0  0  0  0  0  0  0  0  0
   -0.9127   -2.0862   -3.6774 H   0  0  0  0  0  0  0  0  0  0  0  0
   -0.8278   -2.5849   -1.6054 C   0  0  1  0  0  0  0  0  0  0  0  0
   -0.7528   -3.6627   -1.8682 H   0  0  0  0  0  0  0  0  0  0  0  0
    0.5580   -2.0310   -1.4689 C   0  0  2  0  0  0  0  0  0  0  0  0
    1.1195   -2.2978   -2.3986 H   0  0  0  0  0  0  0  0  0  0  0  0
    1.4230   -2.4884   -0.2888 C   0  0  0  0  0  0  0  0  0  0  0  0
    2.6042   -1.4755   -0.3327 C   0  0  0  0  0  0  0  0  0  0  0  0
    2.1281   -0.2832   -1.2038 C   0  0  2  0  0  0  0  0  0  0  0  0
    2.4055    0.9919   -0.5304 C   0  0  0  0  0  0  0  0  0  0  0  0
    2.6272    2.0114    0.0080 C   0  0  0  0  0  0  0  0  0  0  0  0
    2.7275   -0.3257   -2.4942 O   0  0  0  0  0  0  0  0  0  0  0  0
   -1.6825   -2.4744   -0.3497 C   0  0  0  0  0  0  0  0  0  0  0  0
   -2.9617   -3.2967   -0.5777 C   0  0  0  0  0  0  0  0  0  0  0  0
   -3.6750   -2.7032   -1.7780 C   0  0  0  0  0  0  0  0  0  0  0  0
   -4.9709   -2.4387   -1.6447 C   0  0  0  0  0  0  0  0  0  0  0  0
   -5.7522   -1.8965   -2.7677 C   0  0  0  0  0  0  0  0  0  0  0  0
   -6.9396   -1.4032   -2.5941 N   0  0  0  0  0  0  0  0  0  0  0  0
   -7.5134   -1.3776   -1.2998 O   0  0  0  0  0  0  0  0  0  0  0  0
   -5.1194   -1.9642   -4.1440 C   0  0  0  0  0  0  0  0  0  0  0  0
   -3.6611   -1.5270   -4.0031 C   0  0  0  0  0  0  0  0  0  0  0  0
   -2.9110   -2.4313   -3.0346 C   0  0  1  0  0  0  0  0  0  0  0  0
   -2.7856   -3.3967   -3.5450 H   0  0  0  0  0  0  0  0  0  0  0  0
    0.6933    1.9349   -0.6330 H   0  0  0  0  0  0  0  0  0  0  0  0
   -1.0743    1.8007   -0.4723 H   0  0  0  0  0  0  0  0  0  0  0  0
   -0.0544    1.9135    0.9821 H   0  0  0  0  0  0  0  0  0  0  0  0
    0.6454   -0.2995    0.8308 H   0  0  0  0  0  0  0  0  0  0  0  0
   -0.9868   -0.4427    0.1354 H   0  0  0  0  0  0  0  0  0  0  0  0
   -0.0987    1.2480   -2.3390 H   0  0  0  0  0  0  0  0  0  0  0  0
    0.4619   -0.0579   -3.4094 H   0  0  0  0  0  0  0  0  0  0  0  0
   -2.0836   -0.0982   -1.7080 H   0  0  0  0  0  0  0  0  0  0  0  0
   -1.9818    0.1028   -3.4647 H   0  0  0  0  0  0  0  0  0  0  0  0
    0.8888   -2.4327    0.6533 H   0  0  0  0  0  0  0  0  0  0  0  0
    1.7911   -3.5033   -0.4576 H   0  0  0  0  0  0  0  0  0  0  0  0
    2.8408   -1.1335    0.6732 H   0  0  0  0  0  0  0  0  0  0  0  0
    3.4766   -1.9433   -0.7873 H   0  0  0  0  0  0  0  0  0  0  0  0
    2.8256    2.9232    0.4895 H   0  0  0  0  0  0  0  0  0  0  0  0
    3.6858   -0.1963   -2.4872 H   0  0  0  0  0  0  0  0  0  0  0  0
   -1.1536   -2.8613    0.5147 H   0  0  0  0  0  0  0  0  0  0  0  0
   -1.9990   -1.4456   -0.1814 H   0  0  0  0  0  0  0  0  0  0  0  0
   -2.6981   -4.3325   -0.7747 H   0  0  0  0  0  0  0  0  0  0  0  0
   -3.5971   -3.2273    0.3024 H   0  0  0  0  0  0  0  0  0  0  0  0
   -5.4554   -2.6238   -0.6947 H   0  0  0  0  0  0  0  0  0  0  0  0
   -8.3996   -0.9918   -1.2701 H   0  0  0  0  0  0  0  0  0  0  0  0
   -5.1635   -2.9858   -4.5216 H   0  0  0  0  0  0  0  0  0  0  0  0
   -5.6419   -1.2939   -4.8263 H   0  0  0  0  0  0  0  0  0  0  0  0
   -3.1773   -1.5698   -4.9764 H   0  0  0  0  0  0  0  0  0  0  0  0
   -3.6416   -0.5055   -3.6268 H   0  0  0  0  0  0  0  0  0  0  0  0
  1  2  1  0  0  0  0
  1 29  1  0  0  0  0
  1 30  1  0  0  0  0
  1 31  1  0  0  0  0
  2 32  1  0  0  0  0
  2 33  1  0  0  0  0
  3  2  1  1  0  0  0
  3 10  1  0  0  0  0
  3 14  1  0  0  0  0
  3  4  1  0  0  0  0
  4  5  1  0  0  0  0
  4 34  1  0  0  0  0
  4 35  1  0  0  0  0
  5  6  1  0  0  0  0
  5 36  1  0  0  0  0
  5 37  1  0  0  0  0
  6  7  1  6  0  0  0
  6 27  1  0  0  0  0
  6  8  1  0  0  0  0
  8  9  1  6  0  0  0
  8 10  1  0  0  0  0
  8 18  1  0  0  0  0
 10 11  1  6  0  0  0
 10 12  1  0  0  0  0
 12 13  1  0  0  0  0
 12 38  1  0  0  0  0
 12 39  1  0  0  0  0
 13 14  1  0  0  0  0
 13 40  1  0  0  0  0
 13 41  1  0  0  0  0
 14 15  1  1  0  0  0
 14 17  1  0  0  0  0
 15 16  3  0  0  0  0
 16 42  1  0  0  0  0
 17 43  1  0  0  0  0
 18 19  1  0  0  0  0
 18 44  1  0  0  0  0
 18 45  1  0  0  0  0
 19 20  1  0  0  0  0
 19 46  1  0  0  0  0
 19 47  1  0  0  0  0
 20 27  1  0  0  0  0
 20 21  2  0  0  0  0
 21 22  1  0  0  0  0
 21 48  1  0  0  0  0
 22 23  2  0  0  0  0
 22 25  1  0  0  0  0
 23 24  1  0  0  0  0
 24 49  1  0  0  0  0
 25 26  1  0  0  0  0
 25 50  1  0  0  0  0
 25 51  1  0  0  0  0
 26 27  1  0  0  0  0
 26 52  1  0  0  0  0
 26 53  1  0  0  0  0
 27 28  1  6  0  0  0
M  END
$$$$
