ZINC43207851
 OpenBabel08292219463D

 41 44  0  0  1  0  0  0  0  0999 V2000
   -0.0177    1.4562    0.0100 C   0  0  0  0  0  0  0  0  0  0  0  0
    1.2630    1.8627    0.0000 C   0  0  0  0  0  0  0  0  0  0  0  0
    2.0962    0.7748   -0.0138 N   0  0  0  0  0  0  0  0  0  0  0  0
    3.0653    0.8164   -0.0225 H   0  0  0  0  0  0  0  0  0  0  0  0
    1.3605   -0.3787   -0.0130 C   0  0  0  0  0  0  0  0  0  0  0  0
    0.0021   -0.0041    0.0020 C   0  0  0  0  0  0  0  0  0  0  0  0
   -0.9746   -1.0138    0.0052 C   0  0  0  0  0  0  0  0  0  0  0  0
   -0.5697   -2.2831   -0.0061 N   0  0  0  0  0  0  0  0  0  0  0  0
    0.7143   -2.5871   -0.0199 C   0  0  0  0  0  0  0  0  0  0  0  0
    1.6626   -1.6744   -0.0232 N   0  0  0  0  0  0  0  0  0  0  0  0
   -2.4158   -0.6764    0.0213 C   0  0  0  0  0  0  0  0  0  0  0  0
   -3.0087    0.4202    0.6810 C   0  0  0  0  0  0  0  0  0  0  0  0
   -4.2951    0.3778    0.4601 N   0  0  0  0  0  0  0  0  0  0  0  0
   -4.5741   -0.7356   -0.3413 N   0  0  0  0  0  0  0  0  0  0  0  0
   -3.4151   -1.3673   -0.6056 C   0  0  0  0  0  0  0  0  0  0  0  0
   -5.8997   -1.1411   -0.8152 C   0  0  2  0  0  0  0  0  0  0  0  0
   -6.6614   -0.7566   -0.1369 H   0  0  0  0  0  0  0  0  0  0  0  0
   -5.9803   -2.6683   -0.8596 C   0  0  0  0  0  0  0  0  0  0  0  0
   -5.8743   -3.2052    0.5069 C   0  0  0  0  0  0  0  0  0  0  0  0
   -5.7925   -3.6195    1.5615 N   0  0  0  0  0  0  0  0  0  0  0  0
   -6.1343   -0.5771   -2.2180 C   0  0  0  0  0  0  0  0  0  0  0  0
   -6.1264    0.9650   -2.1756 C   0  0  0  0  0  0  0  0  0  0  0  0
   -7.2156    1.3787   -3.1962 C   0  0  0  0  0  0  0  0  0  0  0  0
   -8.3123    0.3068   -2.9789 C   0  0  0  0  0  0  0  0  0  0  0  0
   -7.5242   -0.9956   -2.7287 C   0  0  0  0  0  0  0  0  0  0  0  0
   -0.8935    2.0880    0.0258 H   0  0  0  0  0  0  0  0  0  0  0  0
    1.5872    2.8929    0.0021 H   0  0  0  0  0  0  0  0  0  0  0  0
    0.9990   -3.6288   -0.0288 H   0  0  0  0  0  0  0  0  0  0  0  0
   -2.4897    1.1645    1.2667 H   0  0  0  0  0  0  0  0  0  0  0  0
   -3.2965   -2.2591   -1.2030 H   0  0  0  0  0  0  0  0  0  0  0  0
   -6.9330   -2.9694   -1.2954 H   0  0  0  0  0  0  0  0  0  0  0  0
   -5.1636   -3.0578   -1.4673 H   0  0  0  0  0  0  0  0  0  0  0  0
   -5.3626   -0.9366   -2.8986 H   0  0  0  0  0  0  0  0  0  0  0  0
   -6.3837    1.3206   -1.1779 H   0  0  0  0  0  0  0  0  0  0  0  0
   -5.1529    1.3499   -2.4795 H   0  0  0  0  0  0  0  0  0  0  0  0
   -7.5982    2.3741   -2.9706 H   0  0  0  0  0  0  0  0  0  0  0  0
   -6.8281    1.3341   -4.2140 H   0  0  0  0  0  0  0  0  0  0  0  0
   -8.9227    0.5560   -2.1109 H   0  0  0  0  0  0  0  0  0  0  0  0
   -8.9342    0.2113   -3.8690 H   0  0  0  0  0  0  0  0  0  0  0  0
   -7.4270   -1.5575   -3.6576 H   0  0  0  0  0  0  0  0  0  0  0  0
   -8.0316   -1.6005   -1.9772 H   0  0  0  0  0  0  0  0  0  0  0  0
  1  6  1  0  0  0  0
  1  2  2  0  0  0  0
  1 26  1  0  0  0  0
  2  3  1  0  0  0  0
  2 27  1  0  0  0  0
  3  4  1  0  0  0  0
  3  5  1  0  0  0  0
  5 10  2  0  0  0  0
  5  6  1  0  0  0  0
  6  7  2  0  0  0  0
  7  8  1  0  0  0  0
  7 11  1  0  0  0  0
  8  9  2  0  0  0  0
  9 10  1  0  0  0  0
  9 28  1  0  0  0  0
 11 15  2  0  0  0  0
 11 12  1  0  0  0  0
 12 13  2  0  0  0  0
 12 29  1  0  0  0  0
 13 14  1  0  0  0  0
 14 15  1  0  0  0  0
 14 16  1  0  0  0  0
 15 30  1  0  0  0  0
 16 17  1  1  0  0  0
 16 18  1  0  0  0  0
 16 21  1  0  0  0  0
 18 19  1  0  0  0  0
 18 31  1  0  0  0  0
 18 32  1  0  0  0  0
 19 20  3  0  0  0  0
 21 25  1  0  0  0  0
 21 22  1  0  0  0  0
 21 33  1  0  0  0  0
 22 23  1  0  0  0  0
 22 34  1  0  0  0  0
 22 35  1  0  0  0  0
 23 24  1  0  0  0  0
 23 36  1  0  0  0  0
 23 37  1  0  0  0  0
 24 25  1  0  0  0  0
 24 38  1  0  0  0  0
 24 39  1  0  0  0  0
 25 40  1  0  0  0  0
 25 41  1  0  0  0  0
M  END
$$$$
