ZINC00000456
 OpenBabel08292219463D

 41 42  0  0  1  0  0  0  0  0999 V2000
    2.9684    1.1623    1.4237 C   0  0  0  0  0  0  0  0  0  0  0  0
    1.8706    0.4037    0.7234 C   0  0  0  0  0  0  0  0  0  0  0  0
    2.0605   -0.0545   -0.5655 C   0  0  0  0  0  0  0  0  0  0  0  0
    1.0534   -0.7502   -1.2090 C   0  0  0  0  0  0  0  0  0  0  0  0
   -0.1463   -0.9898   -0.5644 C   0  0  0  0  0  0  0  0  0  0  0  0
   -0.3423   -0.5346    0.7247 C   0  0  0  0  0  0  0  0  0  0  0  0
    0.6690    0.1598    1.3756 C   0  0  0  0  0  0  0  0  0  0  0  0
    0.4758    0.6173    2.6837 N   0  0  0  0  0  0  0  0  0  0  0  0
   -0.0598   -0.2006    3.6114 C   0  0  0  0  0  0  0  0  0  0  0  0
   -0.3173   -1.3517    3.3290 O   0  0  0  0  0  0  0  0  0  0  0  0
   -0.3388    0.3151    4.9997 C   0  0  1  0  0  0  0  0  0  0  0  0
    0.3947    1.0792    5.2572 H   0  0  0  0  0  0  0  0  0  0  0  0
   -1.7432    0.9211    5.0453 C   0  0  0  0  0  0  0  0  0  0  0  0
   -2.0219    1.4439    6.4575 C   0  0  0  0  0  0  0  0  0  0  0  0
   -1.8517    0.2975    7.4585 C   0  0  0  0  0  0  0  0  0  0  0  0
   -0.4434   -0.2854    7.3234 C   0  0  0  0  0  0  0  0  0  0  0  0
   -0.2489   -0.7918    5.9594 N   0  3  2  0  0  0  0  0  0  0  0  0
    1.0748   -1.4206    5.8569 C   0  0  0  0  0  0  0  0  0  0  0  0
   -1.6503   -0.7958    1.4262 C   0  0  0  0  0  0  0  0  0  0  0  0
    3.6106    0.4619    1.9576 H   0  0  0  0  0  0  0  0  0  0  0  0
    3.5590    1.7085    0.6882 H   0  0  0  0  0  0  0  0  0  0  0  0
    2.5297    1.8653    2.1319 H   0  0  0  0  0  0  0  0  0  0  0  0
    2.9963    0.1311   -1.0716 H   0  0  0  0  0  0  0  0  0  0  0  0
    1.2041   -1.1069   -2.2172 H   0  0  0  0  0  0  0  0  0  0  0  0
   -0.9310   -1.5332   -1.0698 H   0  0  0  0  0  0  0  0  0  0  0  0
    0.7273    1.5231    2.9229 H   0  0  0  0  0  0  0  0  0  0  0  0
   -1.8079    1.7438    4.3333 H   0  0  0  0  0  0  0  0  0  0  0  0
   -2.4775    0.1578    4.7882 H   0  0  0  0  0  0  0  0  0  0  0  0
   -1.3198    2.2429    6.6956 H   0  0  0  0  0  0  0  0  0  0  0  0
   -3.0416    1.8255    6.5102 H   0  0  0  0  0  0  0  0  0  0  0  0
   -1.9941    0.6744    8.4712 H   0  0  0  0  0  0  0  0  0  0  0  0
   -2.5884   -0.4788    7.2515 H   0  0  0  0  0  0  0  0  0  0  0  0
    0.2924    0.4916    7.5308 H   0  0  0  0  0  0  0  0  0  0  0  0
   -0.3188   -1.1018    8.0348 H   0  0  0  0  0  0  0  0  0  0  0  0
    1.8478   -0.6595    5.9635 H   0  0  0  0  0  0  0  0  0  0  0  0
    1.1859   -2.1643    6.6459 H   0  0  0  0  0  0  0  0  0  0  0  0
    1.1729   -1.9044    4.8851 H   0  0  0  0  0  0  0  0  0  0  0  0
   -1.6360   -1.7950    1.8614 H   0  0  0  0  0  0  0  0  0  0  0  0
   -1.7930   -0.0577    2.2154 H   0  0  0  0  0  0  0  0  0  0  0  0
   -2.4679   -0.7235    0.7090 H   0  0  0  0  0  0  0  0  0  0  0  0
   -0.9609   -1.4755    5.7504 H   0  0  0  0  0  0  0  0  0  0  0  0
  1  2  1  0  0  0  0
  1 20  1  0  0  0  0
  1 21  1  0  0  0  0
  1 22  1  0  0  0  0
  2  7  2  0  0  0  0
  2  3  1  0  0  0  0
  3  4  2  0  0  0  0
  3 23  1  0  0  0  0
  4  5  1  0  0  0  0
  4 24  1  0  0  0  0
  5  6  2  0  0  0  0
  5 25  1  0  0  0  0
  6  7  1  0  0  0  0
  6 19  1  0  0  0  0
  7  8  1  0  0  0  0
  8  9  1  0  0  0  0
  8 26  1  0  0  0  0
  9 10  2  0  0  0  0
  9 11  1  0  0  0  0
 11 12  1  1  0  0  0
 11 17  1  0  0  0  0
 11 13  1  0  0  0  0
 13 14  1  0  0  0  0
 13 27  1  0  0  0  0
 13 28  1  0  0  0  0
 14 15  1  0  0  0  0
 14 29  1  0  0  0  0
 14 30  1  0  0  0  0
 15 16  1  0  0  0  0
 15 31  1  0  0  0  0
 15 32  1  0  0  0  0
 16 17  1  0  0  0  0
 16 33  1  0  0  0  0
 16 34  1  0  0  0  0
 17 18  1  0  0  0  0
 17 41  1  6  0  0  0
 18 35  1  0  0  0  0
 18 36  1  0  0  0  0
 18 37  1  0  0  0  0
 19 38  1  0  0  0  0
 19 39  1  0  0  0  0
 19 40  1  0  0  0  0
M  CHG  1  17   1
M  END
$$$$
