ZINC00000453
 OpenBabel08292219463D

 30 31  0  0  1  0  0  0  0  0999 V2000
   -0.0187    1.5258    0.0104 C   0  0  0  0  0  0  0  0  0  0  0  0
    0.0021   -0.0041    0.0020 C   0  0  0  0  0  0  0  0  0  0  0  0
    0.7421   -0.5109    1.2415 C   0  0  1  0  0  0  0  0  0  0  0  0
    2.1272    0.0994    1.3225 C   0  0  0  0  0  0  0  0  0  0  0  0
    3.0281   -0.0201    0.5200 O   0  0  0  0  0  0  0  0  0  0  0  0
    2.1487    0.8032    2.4716 N   0  0  0  0  0  0  0  0  0  0  0  0
    0.9818    0.7232    3.1212 C   0  0  0  0  0  0  0  0  0  0  0  0
    0.7597    1.2741    4.1815 O   0  0  0  0  0  0  0  0  0  0  0  0
    0.0820   -0.0356    2.4697 N   0  0  0  0  0  0  0  0  0  0  0  0
    3.3070    1.5615    2.9507 C   0  0  0  0  0  0  0  0  0  0  0  0
    0.8220   -2.0157    1.2310 C   0  0  0  0  0  0  0  0  0  0  0  0
    0.8681   -2.6970    0.0291 C   0  0  0  0  0  0  0  0  0  0  0  0
    0.9414   -4.0774    0.0194 C   0  0  0  0  0  0  0  0  0  0  0  0
    0.9691   -4.7765    1.2116 C   0  0  0  0  0  0  0  0  0  0  0  0
    0.9240   -4.0951    2.4136 C   0  0  0  0  0  0  0  0  0  0  0  0
    0.8550   -2.7145    2.4233 C   0  0  0  0  0  0  0  0  0  0  0  0
    1.0039    1.9031    0.0027 H   0  0  0  0  0  0  0  0  0  0  0  0
   -0.5459    1.8868   -0.8726 H   0  0  0  0  0  0  0  0  0  0  0  0
   -0.5289    1.8773    0.9072 H   0  0  0  0  0  0  0  0  0  0  0  0
   -1.0205   -0.3814    0.0098 H   0  0  0  0  0  0  0  0  0  0  0  0
    0.5123   -0.3556   -0.8948 H   0  0  0  0  0  0  0  0  0  0  0  0
   -0.8248   -0.2312    2.7532 H   0  0  0  0  0  0  0  0  0  0  0  0
    3.2581    2.5806    2.5669 H   0  0  0  0  0  0  0  0  0  0  0  0
    3.3016    1.5831    4.0405 H   0  0  0  0  0  0  0  0  0  0  0  0
    4.2230    1.0852    2.6012 H   0  0  0  0  0  0  0  0  0  0  0  0
    0.8465   -2.1509   -0.9024 H   0  0  0  0  0  0  0  0  0  0  0  0
    0.9767   -4.6097   -0.9197 H   0  0  0  0  0  0  0  0  0  0  0  0
    1.0257   -5.8549    1.2041 H   0  0  0  0  0  0  0  0  0  0  0  0
    0.9453   -4.6413    3.3450 H   0  0  0  0  0  0  0  0  0  0  0  0
    0.8234   -2.1820    3.3623 H   0  0  0  0  0  0  0  0  0  0  0  0
  1  2  1  0  0  0  0
  1 17  1  0  0  0  0
  1 18  1  0  0  0  0
  1 19  1  0  0  0  0
  2 20  1  0  0  0  0
  2 21  1  0  0  0  0
  3  2  1  6  0  0  0
  3  9  1  0  0  0  0
  3  4  1  0  0  0  0
  3 11  1  0  0  0  0
  4  5  2  0  0  0  0
  4  6  1  0  0  0  0
  6  7  1  0  0  0  0
  6 10  1  0  0  0  0
  7  8  2  0  0  0  0
  7  9  1  0  0  0  0
  9 22  1  0  0  0  0
 10 23  1  0  0  0  0
 10 24  1  0  0  0  0
 10 25  1  0  0  0  0
 11 16  2  0  0  0  0
 11 12  1  0  0  0  0
 12 13  2  0  0  0  0
 12 26  1  0  0  0  0
 13 14  1  0  0  0  0
 13 27  1  0  0  0  0
 14 15  2  0  0  0  0
 14 28  1  0  0  0  0
 15 16  1  0  0  0  0
 15 29  1  0  0  0  0
 16 30  1  0  0  0  0
M  END
$$$$
