ZINC01530637
 OpenBabel08292219463D

 41 42  0  0  1  0  0  0  0  0999 V2000
   -0.4120    1.0349    0.3013 C   0  0  0  0  0  0  0  0  0  0  0  0
   -0.2330   -0.4168    0.1652 N   0  3  0  0  0  0  0  0  0  0  0  0
    0.5049   -0.7054   -1.0718 C   0  0  0  0  0  0  0  0  0  0  0  0
    0.6913   -2.2174   -1.2135 C   0  0  0  0  0  0  0  0  0  0  0  0
    1.4598   -2.5179   -2.5019 C   0  0  1  0  0  0  0  0  0  0  0  0
    2.3976   -1.9623   -2.5036 H   0  0  0  0  0  0  0  0  0  0  0  0
    1.7506   -3.9945   -2.5806 C   0  0  0  0  0  0  0  0  0  0  0  0
    0.8070   -4.8578   -3.1052 C   0  0  0  0  0  0  0  0  0  0  0  0
    1.0737   -6.2123   -3.1773 C   0  0  0  0  0  0  0  0  0  0  0  0
    2.2842   -6.7034   -2.7252 C   0  0  0  0  0  0  0  0  0  0  0  0
    3.2282   -5.8399   -2.2014 C   0  0  0  0  0  0  0  0  0  0  0  0
    2.9632   -4.4849   -2.1333 C   0  0  0  0  0  0  0  0  0  0  0  0
    0.6724   -2.1269   -3.6285 O   0  0  0  0  0  0  0  0  0  0  0  0
    0.8838   -0.8800   -4.1260 C   0  0  0  0  0  0  0  0  0  0  0  0
    1.8748   -0.0745   -3.5841 C   0  0  0  0  0  0  0  0  0  0  0  0
    2.0880    1.1924   -4.0920 C   0  0  0  0  0  0  0  0  0  0  0  0
    1.3144    1.6580   -5.1391 C   0  0  0  0  0  0  0  0  0  0  0  0
    0.3257    0.8573   -5.6806 C   0  0  0  0  0  0  0  0  0  0  0  0
    0.1127   -0.4127   -5.1804 C   0  0  0  0  0  0  0  0  0  0  0  0
    1.5488    3.0406   -5.6908 C   0  0  0  0  0  0  0  0  0  0  0  0
    2.4914    2.9774   -6.7227 F   0  0  0  0  0  0  0  0  0  0  0  0
    0.3464    3.5542   -6.1884 F   0  0  0  0  0  0  0  0  0  0  0  0
    2.0262    3.8739   -4.6735 F   0  0  0  0  0  0  0  0  0  0  0  0
    0.5637    1.5193    0.3388 H   0  0  0  0  0  0  0  0  0  0  0  0
   -0.9730    1.4134   -0.5531 H   0  0  0  0  0  0  0  0  0  0  0  0
   -0.9595    1.2490    1.2192 H   0  0  0  0  0  0  0  0  0  0  0  0
    0.2863   -0.7673    0.9561 H   0  0  0  0  0  0  0  0  0  0  0  0
   -0.0562   -0.3268   -1.9262 H   0  0  0  0  0  0  0  0  0  0  0  0
    1.4806   -0.2209   -1.0343 H   0  0  0  0  0  0  0  0  0  0  0  0
    1.2523   -2.5959   -0.3591 H   0  0  0  0  0  0  0  0  0  0  0  0
   -0.2844   -2.7018   -1.2511 H   0  0  0  0  0  0  0  0  0  0  0  0
   -0.1388   -4.4741   -3.4583 H   0  0  0  0  0  0  0  0  0  0  0  0
    0.3362   -6.8868   -3.5865 H   0  0  0  0  0  0  0  0  0  0  0  0
    2.4924   -7.7616   -2.7809 H   0  0  0  0  0  0  0  0  0  0  0  0
    4.1738   -6.2237   -1.8480 H   0  0  0  0  0  0  0  0  0  0  0  0
    3.7021   -3.8099   -1.7275 H   0  0  0  0  0  0  0  0  0  0  0  0
    2.4789   -0.4374   -2.7657 H   0  0  0  0  0  0  0  0  0  0  0  0
    2.8594    1.8199   -3.6705 H   0  0  0  0  0  0  0  0  0  0  0  0
   -0.2775    1.2233   -6.4983 H   0  0  0  0  0  0  0  0  0  0  0  0
   -0.6567   -1.0394   -5.6066 H   0  0  0  0  0  0  0  0  0  0  0  0
   -1.1362   -0.8653    0.1305 H   0  0  0  0  0  0  0  0  0  0  0  0
  1  2  1  0  0  0  0
  1 24  1  0  0  0  0
  1 25  1  0  0  0  0
  1 26  1  0  0  0  0
  2  3  1  0  0  0  0
  2 27  1  0  0  0  0
  2 41  1  0  0  0  0
  3  4  1  0  0  0  0
  3 28  1  0  0  0  0
  3 29  1  0  0  0  0
  4  5  1  0  0  0  0
  4 30  1  0  0  0  0
  4 31  1  0  0  0  0
  5  6  1  6  0  0  0
  5  7  1  0  0  0  0
  5 13  1  0  0  0  0
  7 12  2  0  0  0  0
  7  8  1  0  0  0  0
  8  9  2  0  0  0  0
  8 32  1  0  0  0  0
  9 10  1  0  0  0  0
  9 33  1  0  0  0  0
 10 11  2  0  0  0  0
 10 34  1  0  0  0  0
 11 12  1  0  0  0  0
 11 35  1  0  0  0  0
 12 36  1  0  0  0  0
 13 14  1  0  0  0  0
 14 19  2  0  0  0  0
 14 15  1  0  0  0  0
 15 16  2  0  0  0  0
 15 37  1  0  0  0  0
 16 17  1  0  0  0  0
 16 38  1  0  0  0  0
 17 18  2  0  0  0  0
 17 20  1  0  0  0  0
 18 19  1  0  0  0  0
 18 39  1  0  0  0  0
 19 40  1  0  0  0  0
 20 21  1  0  0  0  0
 20 22  1  0  0  0  0
 20 23  1  0  0  0  0
M  CHG  1   2   1
M  END
$$$$
