ZINC00057409
 OpenBabel08292219463D

 33 33  0  0  1  0  0  0  0  0999 V2000
   -0.0187    1.5258    0.0104 C   0  0  0  0  0  0  0  0  0  0  0  0
    0.0021   -0.0041    0.0020 C   0  0  2  0  0  0  0  0  0  0  0  0
   -1.0205   -0.3814    0.0098 H   0  0  0  0  0  0  0  0  0  0  0  0
    0.7421   -0.5109    1.2415 C   0  0  2  0  0  0  0  0  0  0  0  0
    1.7647   -0.1336    1.2338 H   0  0  0  0  0  0  0  0  0  0  0  0
    0.7625   -2.0177    1.2333 C   0  0  0  0  0  0  0  0  0  0  0  0
   -0.2049   -2.7255    1.9202 C   0  0  0  0  0  0  0  0  0  0  0  0
   -0.1863   -4.1121    1.9122 C   0  0  0  0  0  0  0  0  0  0  0  0
    0.8035   -4.7885    1.2144 C   0  0  0  0  0  0  0  0  0  0  0  0
    1.7706   -4.0810    0.5276 C   0  0  0  0  0  0  0  0  0  0  0  0
    1.7490   -2.6940    0.5313 C   0  0  0  0  0  0  0  0  0  0  0  0
    2.6978   -1.9974   -0.1495 O   0  0  0  0  0  0  0  0  0  0  0  0
    3.6834   -2.7585   -0.8505 C   0  0  0  0  0  0  0  0  0  0  0  0
   -1.1382   -4.8087    2.5888 O   0  0  0  0  0  0  0  0  0  0  0  0
   -1.0581   -6.2345    2.5373 C   0  0  0  0  0  0  0  0  0  0  0  0
    0.0732   -0.0501    2.4172 O   0  0  0  0  0  0  0  0  0  0  0  0
    0.6897   -0.4778   -1.2066 N   0  3  0  0  0  0  0  0  0  0  0  0
    1.0039    1.9031    0.0027 H   0  0  0  0  0  0  0  0  0  0  0  0
   -0.5459    1.8868   -0.8726 H   0  0  0  0  0  0  0  0  0  0  0  0
   -0.5289    1.8773    0.9072 H   0  0  0  0  0  0  0  0  0  0  0  0
   -0.9753   -2.1989    2.4638 H   0  0  0  0  0  0  0  0  0  0  0  0
    0.8182   -5.8684    1.2085 H   0  0  0  0  0  0  0  0  0  0  0  0
    2.5417   -4.6076   -0.0151 H   0  0  0  0  0  0  0  0  0  0  0  0
    4.3777   -2.0823   -1.3493 H   0  0  0  0  0  0  0  0  0  0  0  0
    4.2295   -3.3839   -0.1442 H   0  0  0  0  0  0  0  0  0  0  0  0
    3.1948   -3.3900   -1.5925 H   0  0  0  0  0  0  0  0  0  0  0  0
   -1.1337   -6.5655    1.5016 H   0  0  0  0  0  0  0  0  0  0  0  0
   -0.1051   -6.5602    2.9542 H   0  0  0  0  0  0  0  0  0  0  0  0
   -1.8745   -6.6655    3.1170 H   0  0  0  0  0  0  0  0  0  0  0  0
    0.4885   -0.3343    3.2430 H   0  0  0  0  0  0  0  0  0  0  0  0
    1.6363   -0.1286   -1.2138 H   0  0  0  0  0  0  0  0  0  0  0  0
    0.7033   -1.4867   -1.2121 H   0  0  0  0  0  0  0  0  0  0  0  0
    0.2017   -0.1436   -2.0240 H   0  0  0  0  0  0  0  0  0  0  0  0
  1  2  1  0  0  0  0
  1 18  1  0  0  0  0
  1 19  1  0  0  0  0
  1 20  1  0  0  0  0
  2  3  1  1  0  0  0
  2  4  1  0  0  0  0
  2 17  1  0  0  0  0
  4  5  1  6  0  0  0
  4  6  1  0  0  0  0
  4 16  1  0  0  0  0
  6 11  2  0  0  0  0
  6  7  1  0  0  0  0
  7  8  2  0  0  0  0
  7 21  1  0  0  0  0
  8  9  1  0  0  0  0
  8 14  1  0  0  0  0
  9 10  2  0  0  0  0
  9 22  1  0  0  0  0
 10 11  1  0  0  0  0
 10 23  1  0  0  0  0
 11 12  1  0  0  0  0
 12 13  1  0  0  0  0
 13 24  1  0  0  0  0
 13 25  1  0  0  0  0
 13 26  1  0  0  0  0
 14 15  1  0  0  0  0
 15 27  1  0  0  0  0
 15 28  1  0  0  0  0
 15 29  1  0  0  0  0
 16 30  1  0  0  0  0
 17 31  1  0  0  0  0
 17 32  1  0  0  0  0
 17 33  1  0  0  0  0
M  CHG  1  17   1
M  END
$$$$
