ZINC03607120
 OpenBabel08292219463D

 49 52  0  0  1  0  0  0  0  0999 V2000
    0.0703    1.3683    0.2046 C   0  0  0  0  0  0  0  0  0  0  0  0
    0.0786   -0.1604    0.1419 C   0  0  2  0  0  0  0  0  0  0  0  0
    0.5768   -0.4839   -0.7721 H   0  0  0  0  0  0  0  0  0  0  0  0
   -1.3629   -0.6799    0.1494 C   0  0  0  0  0  0  0  0  0  0  0  0
   -1.3287   -2.1489    0.2204 N   0  0  0  0  0  0  0  0  0  0  0  0
   -0.4982   -2.7735    1.2617 C   0  0  0  0  0  0  0  0  0  0  0  0
    0.9024   -2.1551    1.2017 C   0  0  0  0  0  0  0  0  0  0  0  0
    0.7965   -0.6943    1.3061 N   0  3  0  0  0  0  0  0  0  0  0  0
   -2.0641   -2.9282   -0.6747 C   0  0  0  0  0  0  0  0  0  0  0  0
   -3.3735   -3.2950   -0.3599 C   0  0  0  0  0  0  0  0  0  0  0  0
   -4.1045   -4.0580   -1.2269 C   0  0  0  0  0  0  0  0  0  0  0  0
   -3.5393   -4.4733   -2.4353 C   0  0  0  0  0  0  0  0  0  0  0  0
   -2.2212   -4.1102   -2.7648 C   0  0  0  0  0  0  0  0  0  0  0  0
   -1.4891   -3.3276   -1.8740 C   0  0  0  0  0  0  0  0  0  0  0  0
   -0.2137   -2.9609   -2.1757 O   0  0  0  0  0  0  0  0  0  0  0  0
    0.8307   -3.8424   -1.7584 C   0  0  0  0  0  0  0  0  0  0  0  0
   -1.6627   -4.5214   -3.9586 N   0  0  0  0  0  0  0  0  0  0  0  0
   -2.3247   -5.2694   -4.8484 C   0  0  0  0  0  0  0  0  0  0  0  0
   -3.6248   -5.6876   -4.6354 C   0  0  0  0  0  0  0  0  0  0  0  0
   -4.3034   -5.2962   -3.3880 C   0  0  0  0  0  0  0  0  0  0  0  0
   -5.4490   -5.6398   -3.1537 O   0  0  0  0  0  0  0  0  0  0  0  0
   -4.3174   -6.5064   -5.6352 C   0  0  0  0  0  0  0  0  0  0  0  0
   -3.7442   -6.8252   -6.6689 O   0  0  0  0  0  0  0  0  0  0  0  0
   -5.4689   -6.8713   -5.4364 O   0  0  0  0  0  1  0  0  0  0  0  0
   -0.2869   -4.1212   -4.2641 C   0  0  0  0  0  0  0  0  0  0  0  0
    0.2950   -4.5620   -5.6087 C   0  0  0  0  0  0  0  0  0  0  0  0
    0.7744   -5.2220   -4.3143 C   0  0  0  0  0  0  0  0  0  0  0  0
   -3.9212   -2.8942    0.8082 F   0  0  0  0  0  0  0  0  0  0  0  0
    1.0957    1.7377    0.1996 H   0  0  0  0  0  0  0  0  0  0  0  0
   -0.4630    1.7645   -0.6595 H   0  0  0  0  0  0  0  0  0  0  0  0
   -0.4279    1.6917    1.1186 H   0  0  0  0  0  0  0  0  0  0  0  0
   -1.8906   -0.2834    1.0168 H   0  0  0  0  0  0  0  0  0  0  0  0
   -1.8690   -0.3691   -0.7646 H   0  0  0  0  0  0  0  0  0  0  0  0
   -0.9387   -2.5884    2.2414 H   0  0  0  0  0  0  0  0  0  0  0  0
   -0.4328   -3.8468    1.0831 H   0  0  0  0  0  0  0  0  0  0  0  0
    1.5035   -2.5359    2.0274 H   0  0  0  0  0  0  0  0  0  0  0  0
    1.3757   -2.4184    0.2557 H   0  0  0  0  0  0  0  0  0  0  0  0
    1.7216   -0.2930    1.3424 H   0  0  0  0  0  0  0  0  0  0  0  0
   -5.1170   -4.3397   -0.9782 H   0  0  0  0  0  0  0  0  0  0  0  0
    0.6892   -4.8186   -2.2222 H   0  0  0  0  0  0  0  0  0  0  0  0
    1.7944   -3.4327   -2.0609 H   0  0  0  0  0  0  0  0  0  0  0  0
    0.8052   -3.9483   -0.6738 H   0  0  0  0  0  0  0  0  0  0  0  0
   -1.8271   -5.5556   -5.7632 H   0  0  0  0  0  0  0  0  0  0  0  0
    0.0158   -3.1473   -3.8793 H   0  0  0  0  0  0  0  0  0  0  0  0
   -0.3457   -5.1497   -6.2660 H   0  0  0  0  0  0  0  0  0  0  0  0
    0.9807   -3.8780   -6.1088 H   0  0  0  0  0  0  0  0  0  0  0  0
    1.7755   -4.9723   -3.9629 H   0  0  0  0  0  0  0  0  0  0  0  0
    0.4491   -6.2440   -4.1201 H   0  0  0  0  0  0  0  0  0  0  0  0
    0.2951   -0.4542    2.1481 H   0  0  0  0  0  0  0  0  0  0  0  0
  1  2  1  0  0  0  0
  1 29  1  0  0  0  0
  1 30  1  0  0  0  0
  1 31  1  0  0  0  0
  2  3  1  6  0  0  0
  2  8  1  0  0  0  0
  2  4  1  0  0  0  0
  4  5  1  0  0  0  0
  4 32  1  0  0  0  0
  4 33  1  0  0  0  0
  5  6  1  0  0  0  0
  5  9  1  0  0  0  0
  6  7  1  0  0  0  0
  6 34  1  0  0  0  0
  6 35  1  0  0  0  0
  7  8  1  0  0  0  0
  7 36  1  0  0  0  0
  7 37  1  0  0  0  0
  8 38  1  0  0  0  0
  8 49  1  0  0  0  0
  9 14  2  0  0  0  0
  9 10  1  0  0  0  0
 10 11  2  0  0  0  0
 10 28  1  0  0  0  0
 11 12  1  0  0  0  0
 11 39  1  0  0  0  0
 12 20  1  0  0  0  0
 12 13  2  0  0  0  0
 13 14  1  0  0  0  0
 13 17  1  0  0  0  0
 14 15  1  0  0  0  0
 15 16  1  0  0  0  0
 16 40  1  0  0  0  0
 16 41  1  0  0  0  0
 16 42  1  0  0  0  0
 17 18  1  0  0  0  0
 17 25  1  0  0  0  0
 18 19  2  0  0  0  0
 18 43  1  0  0  0  0
 19 20  1  0  0  0  0
 19 22  1  0  0  0  0
 20 21  2  0  0  0  0
 22 23  2  0  0  0  0
 22 24  1  0  0  0  0
 25 27  1  0  0  0  0
 25 26  1  0  0  0  0
 25 44  1  0  0  0  0
 26 27  1  0  0  0  0
 26 45  1  0  0  0  0
 26 46  1  0  0  0  0
 27 47  1  0  0  0  0
 27 48  1  0  0  0  0
M  CHG  1   8   1
M  END
$$$$
