ZINC01487602
 OpenBabel08292219463D

 10 10  0  0  1  0  0  0  0  0999 V2000
   -0.0173    1.4248    0.0099 C   0  0  0  0  0  0  0  0  0  0  0  0
    1.2859    0.6234   -0.0069 C   0  0  2  0  0  0  0  0  0  0  0  0
    1.8561    0.6003   -0.9356 H   0  0  0  0  0  0  0  0  0  0  0  0
    0.0021   -0.0041    0.0020 O   0  0  0  0  0  0  0  0  0  0  0  0
    2.1117    0.5782    1.2804 C   0  0  0  0  0  0  0  0  0  0  0  0
    3.6588   -0.2947    0.9716 Cl  0  0  0  0  0  0  0  0  0  0  0  0
   -0.2948    1.9239    0.9383 H   0  0  0  0  0  0  0  0  0  0  0  0
   -0.3124    1.9338   -0.9077 H   0  0  0  0  0  0  0  0  0  0  0  0
    2.3274    1.5947    1.6095 H   0  0  0  0  0  0  0  0  0  0  0  0
    1.5489    0.0572    2.0550 H   0  0  0  0  0  0  0  0  0  0  0  0
  1  4  1  0  0  0  0
  1  2  1  0  0  0  0
  1  7  1  0  0  0  0
  1  8  1  0  0  0  0
  2  3  1  6  0  0  0
  2  4  1  0  0  0  0
  2  5  1  0  0  0  0
  5  6  1  0  0  0  0
  5  9  1  0  0  0  0
  5 10  1  0  0  0  0
M  END
$$$$
