ZINC14261579
 OpenBabel08292219463D

 83 88  0  0  1  0  0  0  0  0999 V2000
    8.0532   -8.2221    2.8257 C   0  0  0  0  0  0  0  0  0  0  0  0
    6.8329   -8.5149    3.7009 C   0  0  0  0  0  0  0  0  0  0  0  0
    7.2555   -9.3743    4.8941 C   0  0  0  0  0  0  0  0  0  0  0  0
    6.2484   -7.2179    4.1980 C   0  0  0  0  0  0  0  0  0  0  0  0
    6.1771   -7.0029    5.3848 O   0  0  0  0  0  0  0  0  0  0  0  0
    5.8070   -6.3014    3.3223 O   0  0  0  0  0  0  0  0  0  0  0  0
    5.2564   -5.0756    3.8723 C   0  0  0  0  0  0  0  0  0  0  0  0
    4.8160   -4.1739    2.7479 C   0  0  0  0  0  0  0  0  0  0  0  0
    4.9521   -4.5279    1.6014 O   0  0  0  0  0  0  0  0  0  0  0  0
    4.2057   -2.8305    3.0544 C   0  0  1  0  0  0  0  0  0  0  0  0
    5.2292   -1.6407    3.0138 C   0  0  1  0  0  0  0  0  0  0  0  0
    6.1080   -1.8737    2.4124 H   0  0  0  0  0  0  0  0  0  0  0  0
    4.4632   -0.4130    2.4684 C   0  0  0  0  0  0  0  0  0  0  0  0
    3.0196   -0.8758    2.3025 C   0  0  2  0  0  0  0  0  0  0  0  0
    2.4750   -0.7243    3.2345 H   0  0  0  0  0  0  0  0  0  0  0  0
    3.1611   -2.3952    2.0191 C   0  0  2  0  0  0  0  0  0  0  0  0
    1.7801   -3.0046    2.1844 C   0  0  0  0  0  0  0  0  0  0  0  0
    0.8849   -2.4057    1.0884 C   0  0  1  0  0  0  0  0  0  0  0  0
   -0.1246   -2.8019    1.1979 H   0  0  0  0  0  0  0  0  0  0  0  0
    0.8338   -0.8832    1.1718 C   0  0  1  0  0  0  0  0  0  0  0  0
    0.3435   -0.5913    2.1005 H   0  0  0  0  0  0  0  0  0  0  0  0
    2.2419   -0.2673    1.1519 C   0  0  1  0  0  0  0  0  0  0  0  0
    2.7340   -0.5055    0.2089 H   0  0  0  0  0  0  0  0  0  0  0  0
    2.1423    1.2486    1.3329 C   0  0  0  0  0  0  0  0  0  0  0  0
    1.3894    1.8606    0.1473 C   0  0  0  0  0  0  0  0  0  0  0  0
    0.0466    1.1641    0.0305 C   0  0  0  0  0  0  0  0  0  0  0  0
   -1.0558    1.8990   -0.0143 C   0  0  0  0  0  0  0  0  0  0  0  0
   -2.3783    1.2593   -0.0917 C   0  0  0  0  0  0  0  0  0  0  0  0
   -3.3908    1.9304   -0.1637 O   0  0  0  0  0  0  0  0  0  0  0  0
   -2.4490   -0.2116   -0.0806 C   0  0  0  0  0  0  0  0  0  0  0  0
   -1.3349   -0.9249   -0.0415 C   0  0  0  0  0  0  0  0  0  0  0  0
    0.0337   -0.3355   -0.0139 C   0  0  2  0  0  0  0  0  0  0  0  0
    0.7415   -0.7732   -1.2978 C   0  0  0  0  0  0  0  0  0  0  0  0
    1.3965   -2.7855   -0.1907 O   0  0  0  0  0  0  0  0  0  0  0  0
    3.6829   -2.6312    0.6003 C   0  0  0  0  0  0  0  0  0  0  0  0
    5.5629   -1.4186    4.3921 O   0  0  0  0  0  0  0  0  0  0  0  0
    4.4430   -1.8527    5.1689 C   0  0  1  0  0  0  0  0  0  0  0  0
    3.8660   -0.9857    5.4908 H   0  0  0  0  0  0  0  0  0  0  0  0
    3.6165   -2.7077    4.3765 O   0  0  0  0  0  0  0  0  0  0  0  0
    4.9398   -2.6192    6.3963 C   0  0  0  0  0  0  0  0  0  0  0  0
    3.7411   -3.1145    7.2079 C   0  0  0  0  0  0  0  0  0  0  0  0
    4.2378   -3.8810    8.4353 C   0  0  0  0  0  0  0  0  0  0  0  0
    5.0936   -2.9555    9.3026 C   0  0  0  0  0  0  0  0  0  0  0  0
    6.2923   -2.4602    8.4911 C   0  0  0  0  0  0  0  0  0  0  0  0
    5.7955   -1.6937    7.2636 C   0  0  0  0  0  0  0  0  0  0  0  0
    8.4760   -9.1602    2.4662 H   0  0  0  0  0  0  0  0  0  0  0  0
    7.7522   -7.6099    1.9756 H   0  0  0  0  0  0  0  0  0  0  0  0
    8.8009   -7.6876    3.4118 H   0  0  0  0  0  0  0  0  0  0  0  0
    6.0853   -9.0494    3.1149 H   0  0  0  0  0  0  0  0  0  0  0  0
    6.3861   -9.5829    5.5177 H   0  0  0  0  0  0  0  0  0  0  0  0
    7.6783  -10.3125    4.5346 H   0  0  0  0  0  0  0  0  0  0  0  0
    8.0031   -8.8399    5.4802 H   0  0  0  0  0  0  0  0  0  0  0  0
    5.9547   -4.6118    4.4176 H   0  0  0  0  0  0  0  0  0  0  0  0
    4.4005   -5.3131    4.5040 H   0  0  0  0  0  0  0  0  0  0  0  0
    4.8747   -0.1085    1.5060 H   0  0  0  0  0  0  0  0  0  0  0  0
    4.5157    0.4112    3.1798 H   0  0  0  0  0  0  0  0  0  0  0  0
    1.3800   -2.7562    3.1674 H   0  0  0  0  0  0  0  0  0  0  0  0
    1.8357   -4.0870    2.0679 H   0  0  0  0  0  0  0  0  0  0  0  0
    1.6063    1.4693    2.2560 H   0  0  0  0  0  0  0  0  0  0  0  0
    3.1443    1.6744    1.3846 H   0  0  0  0  0  0  0  0  0  0  0  0
    1.9619    1.7121   -0.7683 H   0  0  0  0  0  0  0  0  0  0  0  0
    1.2376    2.9263    0.3184 H   0  0  0  0  0  0  0  0  0  0  0  0
   -0.9825    2.9763    0.0068 H   0  0  0  0  0  0  0  0  0  0  0  0
   -3.4083   -0.7073   -0.1039 H   0  0  0  0  0  0  0  0  0  0  0  0
   -1.4230   -2.0012   -0.0284 H   0  0  0  0  0  0  0  0  0  0  0  0
    1.8198   -0.6813   -1.1677 H   0  0  0  0  0  0  0  0  0  0  0  0
    0.4889   -1.8108   -1.5163 H   0  0  0  0  0  0  0  0  0  0  0  0
    0.4199   -0.1393   -2.1241 H   0  0  0  0  0  0  0  0  0  0  0  0
    1.4595   -3.7416   -0.3210 H   0  0  0  0  0  0  0  0  0  0  0  0
    3.1316   -2.0025   -0.0988 H   0  0  0  0  0  0  0  0  0  0  0  0
    4.7428   -2.3804    0.5566 H   0  0  0  0  0  0  0  0  0  0  0  0
    3.5461   -3.6789    0.3325 H   0  0  0  0  0  0  0  0  0  0  0  0
    5.5380   -3.4717    6.0747 H   0  0  0  0  0  0  0  0  0  0  0  0
    3.1428   -2.2620    7.5295 H   0  0  0  0  0  0  0  0  0  0  0  0
    3.1314   -3.7738    6.5900 H   0  0  0  0  0  0  0  0  0  0  0  0
    4.8361   -4.7335    8.1137 H   0  0  0  0  0  0  0  0  0  0  0  0
    3.3838   -4.2338    9.0135 H   0  0  0  0  0  0  0  0  0  0  0  0
    5.4475   -3.5016   10.1771 H   0  0  0  0  0  0  0  0  0  0  0  0
    4.4953   -2.1030    9.6242 H   0  0  0  0  0  0  0  0  0  0  0  0
    6.8905   -3.3127    8.1695 H   0  0  0  0  0  0  0  0  0  0  0  0
    6.9019   -1.8009    9.1089 H   0  0  0  0  0  0  0  0  0  0  0  0
    6.6495   -1.3408    6.6855 H   0  0  0  0  0  0  0  0  0  0  0  0
    5.1972   -0.8412    7.5852 H   0  0  0  0  0  0  0  0  0  0  0  0
  1  2  1  0  0  0  0
  1 46  1  0  0  0  0
  1 47  1  0  0  0  0
  1 48  1  0  0  0  0
  2  3  1  0  0  0  0
  2  4  1  0  0  0  0
  2 49  1  0  0  0  0
  3 50  1  0  0  0  0
  3 51  1  0  0  0  0
  3 52  1  0  0  0  0
  4  5  2  0  0  0  0
  4  6  1  0  0  0  0
  6  7  1  0  0  0  0
  7  8  1  0  0  0  0
  7 53  1  0  0  0  0
  7 54  1  0  0  0  0
  8  9  2  0  0  0  0
 10  8  1  6  0  0  0
 10 16  1  0  0  0  0
 10 39  1  0  0  0  0
 10 11  1  0  0  0  0
 11 12  1  6  0  0  0
 11 13  1  0  0  0  0
 11 36  1  0  0  0  0
 13 14  1  0  0  0  0
 13 55  1  0  0  0  0
 13 56  1  0  0  0  0
 14 15  1  1  0  0  0
 14 22  1  0  0  0  0
 14 16  1  0  0  0  0
 16 17  1  0  0  0  0
 16 35  1  6  0  0  0
 17 18  1  0  0  0  0
 17 57  1  0  0  0  0
 17 58  1  0  0  0  0
 18 19  1  1  0  0  0
 18 20  1  0  0  0  0
 18 34  1  0  0  0  0
 20 21  1  1  0  0  0
 20 32  1  0  0  0  0
 20 22  1  0  0  0  0
 22 23  1  6  0  0  0
 22 24  1  0  0  0  0
 24 25  1  0  0  0  0
 24 59  1  0  0  0  0
 24 60  1  0  0  0  0
 25 26  1  0  0  0  0
 25 61  1  0  0  0  0
 25 62  1  0  0  0  0
 26 32  1  0  0  0  0
 26 27  2  0  0  0  0
 27 28  1  0  0  0  0
 27 63  1  0  0  0  0
 28 29  2  0  0  0  0
 28 30  1  0  0  0  0
 30 31  2  0  0  0  0
 30 64  1  0  0  0  0
 31 32  1  0  0  0  0
 31 65  1  0  0  0  0
 32 33  1  6  0  0  0
 33 66  1  0  0  0  0
 33 67  1  0  0  0  0
 33 68  1  0  0  0  0
 34 69  1  0  0  0  0
 35 70  1  0  0  0  0
 35 71  1  0  0  0  0
 35 72  1  0  0  0  0
 36 37  1  0  0  0  0
 37 38  1  1  0  0  0
 37 39  1  0  0  0  0
 37 40  1  0  0  0  0
 40 45  1  0  0  0  0
 40 41  1  0  0  0  0
 40 73  1  0  0  0  0
 41 42  1  0  0  0  0
 41 74  1  0  0  0  0
 41 75  1  0  0  0  0
 42 43  1  0  0  0  0
 42 76  1  0  0  0  0
 42 77  1  0  0  0  0
 43 44  1  0  0  0  0
 43 78  1  0  0  0  0
 43 79  1  0  0  0  0
 44 45  1  0  0  0  0
 44 80  1  0  0  0  0
 44 81  1  0  0  0  0
 45 82  1  0  0  0  0
 45 83  1  0  0  0  0
M  END
$$$$
