ZINC13233295
 OpenBabel08292219463D

 34 35  0  0  0  0  0  0  0  0999 V2000
   -0.0173    1.4248    0.0099 C   0  0  0  0  0  0  0  0  0  0  0  0
    0.0021   -0.0041    0.0020 O   0  0  0  0  0  0  0  0  0  0  0  0
    0.6042   -0.6055   -1.0529 C   0  0  0  0  0  0  0  0  0  0  0  0
    0.6588   -1.9912   -1.1358 C   0  0  0  0  0  0  0  0  0  0  0  0
    1.2872   -2.5646   -2.2382 C   0  0  0  0  0  0  0  0  0  0  0  0
    1.8110   -1.7709   -3.1695 N   0  0  0  0  0  0  0  0  0  0  0  0
    1.7393   -0.4553   -3.0558 C   0  0  0  0  0  0  0  0  0  0  0  0
    1.1454    0.1230   -2.0246 N   0  0  0  0  0  0  0  0  0  0  0  0
    2.2837    0.3208   -4.0233 O   0  0  0  0  0  0  0  0  0  0  0  0
    2.1803    1.7360   -3.8546 C   0  0  0  0  0  0  0  0  0  0  0  0
    1.3665   -3.9426   -2.3638 N   0  0  0  0  0  2  0  0  0  0  0  0
    2.1164   -4.6123   -3.6796 S   0  0  0  0  0  0  0  0  0  0  0  0
    1.3246   -4.2792   -4.8116 O   0  0  0  0  0  0  0  0  0  0  0  0
    3.4913   -4.2664   -3.5832 O   0  0  0  0  0  0  0  0  0  0  0  0
    2.0234   -6.3624   -3.4975 C   0  0  0  0  0  0  0  0  0  0  0  0
    3.0268   -7.0408   -2.8302 C   0  0  0  0  0  0  0  0  0  0  0  0
    2.9571   -8.4125   -2.6857 C   0  0  0  0  0  0  0  0  0  0  0  0
    1.8775   -9.1108   -3.2115 C   0  0  0  0  0  0  0  0  0  0  0  0
    0.8713   -8.4262   -3.8812 C   0  0  0  0  0  0  0  0  0  0  0  0
    0.9445   -7.0538   -4.0173 C   0  0  0  0  0  0  0  0  0  0  0  0
    1.8040  -10.4981   -3.0675 N   0  0  0  0  0  0  0  0  0  0  0  0
    1.0053    1.8021    0.0021 H   0  0  0  0  0  0  0  0  0  0  0  0
   -0.5445    1.7859   -0.8732 H   0  0  0  0  0  0  0  0  0  0  0  0
   -0.5275    1.7763    0.9067 H   0  0  0  0  0  0  0  0  0  0  0  0
    0.2246   -2.6089   -0.3635 H   0  0  0  0  0  0  0  0  0  0  0  0
    1.1291    2.0205   -3.8079 H   0  0  0  0  0  0  0  0  0  0  0  0
    2.6774    2.0290   -2.9298 H   0  0  0  0  0  0  0  0  0  0  0  0
    2.6555    2.2380   -4.6973 H   0  0  0  0  0  0  0  0  0  0  0  0
    3.8661   -6.4974   -2.4220 H   0  0  0  0  0  0  0  0  0  0  0  0
    3.7413   -8.9418   -2.1647 H   0  0  0  0  0  0  0  0  0  0  0  0
    0.0307   -8.9661   -4.2916 H   0  0  0  0  0  0  0  0  0  0  0  0
    0.1603   -6.5204   -4.5340 H   0  0  0  0  0  0  0  0  0  0  0  0
    2.5074  -10.9751   -2.5999 H   0  0  0  0  0  0  0  0  0  0  0  0
    1.0497  -10.9846   -3.4351 H   0  0  0  0  0  0  0  0  0  0  0  0
  1  2  1  0  0  0  0
  1 22  1  0  0  0  0
  1 23  1  0  0  0  0
  1 24  1  0  0  0  0
  2  3  1  0  0  0  0
  3  8  2  0  0  0  0
  3  4  1  0  0  0  0
  4  5  2  0  0  0  0
  4 25  1  0  0  0  0
  5  6  1  0  0  0  0
  5 11  1  0  0  0  0
  6  7  2  0  0  0  0
  7  8  1  0  0  0  0
  7  9  1  0  0  0  0
  9 10  1  0  0  0  0
 10 26  1  0  0  0  0
 10 27  1  0  0  0  0
 10 28  1  0  0  0  0
 11 12  1  0  0  0  0
 12 13  2  0  0  0  0
 12 14  2  0  0  0  0
 12 15  1  0  0  0  0
 15 20  2  0  0  0  0
 15 16  1  0  0  0  0
 16 17  2  0  0  0  0
 16 29  1  0  0  0  0
 17 18  1  0  0  0  0
 17 30  1  0  0  0  0
 18 19  2  0  0  0  0
 18 21  1  0  0  0  0
 19 20  1  0  0  0  0
 19 31  1  0  0  0  0
 20 32  1  0  0  0  0
 21 33  1  0  0  0  0
 21 34  1  0  0  0  0
M  END
$$$$
