ZINC00039092
 OpenBabel08292219463D

 36 38  0  0  1  0  0  0  0  0999 V2000
   -0.0173    1.4248    0.0099 C   0  0  0  0  0  0  0  0  0  0  0  0
    0.0021   -0.0041    0.0020 O   0  0  0  0  0  0  0  0  0  0  0  0
    0.6062   -0.6075   -1.0564 C   0  0  0  0  0  0  0  0  0  0  0  0
    1.1729    0.1590   -2.0621 C   0  0  0  0  0  0  0  0  0  0  0  0
    1.7870   -0.4560   -3.1371 C   0  0  0  0  0  0  0  0  0  0  0  0
    1.8372   -1.8356   -3.2121 C   0  0  0  0  0  0  0  0  0  0  0  0
    1.2734   -2.6062   -2.2124 C   0  0  0  0  0  0  0  0  0  0  0  0
    0.6617   -1.9961   -1.1290 C   0  0  0  0  0  0  0  0  0  0  0  0
    0.1119   -2.7526   -0.1417 O   0  0  0  0  0  0  0  0  0  0  0  0
    2.5075   -2.5009   -4.3865 C   0  0  2  0  0  0  0  0  0  0  0  0
    2.0922   -3.4991   -4.5248 H   0  0  0  0  0  0  0  0  0  0  0  0
    4.0168   -2.6057   -4.1233 C   0  0  0  0  0  0  0  0  0  0  0  0
    4.6428   -3.2488   -5.3478 C   0  0  0  0  0  0  0  0  0  0  0  0
    5.5277   -4.0740   -5.2529 O   0  0  0  0  0  0  0  0  0  0  0  0
    4.1229   -2.8220   -6.6515 C   0  0  0  0  0  0  0  0  0  0  0  0
    4.7968   -3.1582   -7.8363 C   0  0  0  0  0  0  0  0  0  0  0  0
    4.2786   -2.7534   -9.0533 C   0  0  0  0  0  0  0  0  0  0  0  0
    3.1007   -2.0176   -9.0982 C   0  0  0  0  0  0  0  0  0  0  0  0
    2.4327   -1.6770   -7.9290 C   0  0  0  0  0  0  0  0  0  0  0  0
    2.9347   -2.0699   -6.7008 C   0  0  0  0  0  0  0  0  0  0  0  0
    2.2854   -1.7251   -5.5640 O   0  0  0  0  0  0  0  0  0  0  0  0
    2.5981   -1.6273  -10.2965 O   0  0  0  0  0  0  0  0  0  0  0  0
    5.9476   -3.8742   -7.7880 O   0  0  0  0  0  0  0  0  0  0  0  0
    1.0053    1.8021    0.0021 H   0  0  0  0  0  0  0  0  0  0  0  0
   -0.5445    1.7859   -0.8732 H   0  0  0  0  0  0  0  0  0  0  0  0
   -0.5275    1.7763    0.9067 H   0  0  0  0  0  0  0  0  0  0  0  0
    1.1344    1.2368   -2.0063 H   0  0  0  0  0  0  0  0  0  0  0  0
    2.2283    0.1425   -3.9203 H   0  0  0  0  0  0  0  0  0  0  0  0
    1.3136   -3.6837   -2.2735 H   0  0  0  0  0  0  0  0  0  0  0  0
   -0.8162   -2.9794   -0.2906 H   0  0  0  0  0  0  0  0  0  0  0  0
    4.4368   -1.6115   -3.9705 H   0  0  0  0  0  0  0  0  0  0  0  0
    4.1982   -3.2253   -3.2450 H   0  0  0  0  0  0  0  0  0  0  0  0
    4.7902   -3.0091   -9.9694 H   0  0  0  0  0  0  0  0  0  0  0  0
    1.5189   -1.1036   -7.9786 H   0  0  0  0  0  0  0  0  0  0  0  0
    1.9864   -2.2632  -10.6923 H   0  0  0  0  0  0  0  0  0  0  0  0
    5.8169   -4.8316   -7.8253 H   0  0  0  0  0  0  0  0  0  0  0  0
  1  2  1  0  0  0  0
  1 24  1  0  0  0  0
  1 25  1  0  0  0  0
  1 26  1  0  0  0  0
  2  3  1  0  0  0  0
  3  8  2  0  0  0  0
  3  4  1  0  0  0  0
  4  5  2  0  0  0  0
  4 27  1  0  0  0  0
  5  6  1  0  0  0  0
  5 28  1  0  0  0  0
  6  7  2  0  0  0  0
  6 10  1  0  0  0  0
  7  8  1  0  0  0  0
  7 29  1  0  0  0  0
  8  9  1  0  0  0  0
  9 30  1  0  0  0  0
 10 11  1  6  0  0  0
 10 21  1  0  0  0  0
 10 12  1  0  0  0  0
 12 13  1  0  0  0  0
 12 31  1  0  0  0  0
 12 32  1  0  0  0  0
 13 14  2  0  0  0  0
 13 15  1  0  0  0  0
 15 20  2  0  0  0  0
 15 16  1  0  0  0  0
 16 17  2  0  0  0  0
 16 23  1  0  0  0  0
 17 18  1  0  0  0  0
 17 33  1  0  0  0  0
 18 19  2  0  0  0  0
 18 22  1  0  0  0  0
 19 20  1  0  0  0  0
 19 34  1  0  0  0  0
 20 21  1  0  0  0  0
 22 35  1  0  0  0  0
 23 36  1  0  0  0  0
M  END
$$$$
