ZINC03830449
 OpenBabel08292219463D

 44 46  0  0  1  0  0  0  0  0999 V2000
    0.0251    1.4314   -0.1412 C   0  0  0  0  0  0  0  0  0  0  0  0
    0.0348    0.0027   -0.1111 O   0  0  0  0  0  0  0  0  0  0  0  0
   -1.2665   -0.5866   -0.0716 C   0  0  2  0  0  0  0  0  0  0  0  0
   -1.2359   -2.1003    0.0595 C   0  0  2  0  0  0  0  0  0  0  0  0
   -0.2567   -2.5687   -0.0398 H   0  0  0  0  0  0  0  0  0  0  0  0
   -2.0805   -2.0429   -1.1711 N   0  0  0  0  0  0  0  0  0  0  0  0
   -1.8939   -0.7411   -1.4390 C   0  0  0  0  0  0  0  0  0  0  0  0
   -2.1282   -0.0053   -2.3744 O   0  0  0  0  0  0  0  0  0  0  0  0
   -2.8939   -3.0824   -1.6690 C   0  0  0  0  0  0  0  0  0  0  0  0
   -3.2747   -4.0735   -0.8778 C   0  0  0  0  0  0  0  0  0  0  0  0
   -2.9169   -4.3113    0.5532 C   0  0  0  0  0  0  0  0  0  0  0  0
   -2.2899   -2.7964    1.3764 S   0  0  0  0  0  0  0  0  0  0  0  0
   -4.1893   -5.0955   -1.5025 C   0  0  0  0  0  0  0  0  0  0  0  0
   -4.6054   -6.0334   -0.5079 O   0  0  0  0  0  0  0  0  0  0  0  0
   -5.3477   -7.0767   -0.9241 C   0  0  0  0  0  0  0  0  0  0  0  0
   -5.6343   -7.1878   -2.0997 O   0  0  0  0  0  0  0  0  0  0  0  0
   -5.7728   -7.9979   -0.0369 N   0  0  0  0  0  0  0  0  0  0  0  0
   -3.3225   -3.0649   -3.0770 C   0  0  0  0  0  0  0  0  0  0  0  0
   -3.9378   -4.0152   -3.5410 O   0  0  0  0  0  0  0  0  0  0  0  0
   -3.0634   -2.1001   -3.7834 O   0  0  0  0  0  1  0  0  0  0  0  0
   -2.1493    0.0639    0.8999 N   0  0  0  0  0  0  0  0  0  0  0  0
   -3.4624   -0.2386    0.9253 C   0  0  0  0  0  0  0  0  0  0  0  0
   -3.9132   -1.0494    0.1441 O   0  0  0  0  0  0  0  0  0  0  0  0
   -4.3706    0.4305    1.9246 C   0  0  0  0  0  0  0  0  0  0  0  0
   -5.7774   -0.0789    1.7448 C   0  0  0  0  0  0  0  0  0  0  0  0
   -6.3848   -1.1358    2.3375 C   0  0  0  0  0  0  0  0  0  0  0  0
   -7.6990   -1.4200    2.0169 C   0  0  0  0  0  0  0  0  0  0  0  0
   -8.3416   -0.6333    1.1193 C   0  0  0  0  0  0  0  0  0  0  0  0
   -7.0789    0.5577    0.7017 S   0  0  0  0  0  0  0  0  0  0  0  0
    1.0500    1.8011   -0.1703 H   0  0  0  0  0  0  0  0  0  0  0  0
   -0.5096    1.7725   -1.0277 H   0  0  0  0  0  0  0  0  0  0  0  0
   -0.4726    1.8102    0.7515 H   0  0  0  0  0  0  0  0  0  0  0  0
   -3.7992   -4.6671    1.0852 H   0  0  0  0  0  0  0  0  0  0  0  0
   -2.1419   -5.0761    0.6028 H   0  0  0  0  0  0  0  0  0  0  0  0
   -5.0637   -4.5947   -1.9180 H   0  0  0  0  0  0  0  0  0  0  0  0
   -3.6590   -5.6200   -2.2973 H   0  0  0  0  0  0  0  0  0  0  0  0
   -5.5440   -7.9092    0.9016 H   0  0  0  0  0  0  0  0  0  0  0  0
   -6.3075   -8.7496   -0.3368 H   0  0  0  0  0  0  0  0  0  0  0  0
   -1.7888    0.7123    1.5247 H   0  0  0  0  0  0  0  0  0  0  0  0
   -4.0287    0.2046    2.9346 H   0  0  0  0  0  0  0  0  0  0  0  0
   -4.3518    1.5090    1.7674 H   0  0  0  0  0  0  0  0  0  0  0  0
   -5.8499   -1.7469    3.0493 H   0  0  0  0  0  0  0  0  0  0  0  0
   -8.2062   -2.2564    2.4746 H   0  0  0  0  0  0  0  0  0  0  0  0
   -9.3555   -0.7058    0.7545 H   0  0  0  0  0  0  0  0  0  0  0  0
  1  2  1  0  0  0  0
  1 30  1  0  0  0  0
  1 31  1  0  0  0  0
  1 32  1  0  0  0  0
  3  2  1  6  0  0  0
  3  7  1  0  0  0  0
  3  4  1  0  0  0  0
  3 21  1  0  0  0  0
  4  5  1  6  0  0  0
  4 12  1  0  0  0  0
  4  6  1  0  0  0  0
  6  7  1  0  0  0  0
  6  9  1  0  0  0  0
  7  8  2  0  0  0  0
  9 10  2  0  0  0  0
  9 18  1  0  0  0  0
 10 11  1  0  0  0  0
 10 13  1  0  0  0  0
 11 12  1  0  0  0  0
 11 33  1  0  0  0  0
 11 34  1  0  0  0  0
 13 14  1  0  0  0  0
 13 35  1  0  0  0  0
 13 36  1  0  0  0  0
 14 15  1  0  0  0  0
 15 16  2  0  0  0  0
 15 17  1  0  0  0  0
 17 37  1  0  0  0  0
 17 38  1  0  0  0  0
 18 19  2  0  0  0  0
 18 20  1  0  0  0  0
 21 22  1  0  0  0  0
 21 39  1  0  0  0  0
 22 23  2  0  0  0  0
 22 24  1  0  0  0  0
 24 25  1  0  0  0  0
 24 40  1  0  0  0  0
 24 41  1  0  0  0  0
 25 29  1  0  0  0  0
 25 26  2  0  0  0  0
 26 27  1  0  0  0  0
 26 42  1  0  0  0  0
 27 28  2  0  0  0  0
 27 43  1  0  0  0  0
 28 29  1  0  0  0  0
 28 44  1  0  0  0  0
M  END
$$$$
