ZINC01532734
 OpenBabel08292219463D

 44 43  0  0  0  0  0  0  0  0999 V2000
   -0.0187    1.5258    0.0104 C   0  0  0  0  0  0  0  0  0  0  0  0
    0.0021   -0.0041    0.0020 C   0  0  0  0  0  0  0  0  0  0  0  0
   -1.4333   -0.5336    0.0129 C   0  0  0  0  0  0  0  0  0  0  0  0
   -1.4134   -2.0025    0.0048 N   0  3  0  0  0  0  0  0  0  0  0  0
   -2.7915   -2.5110    0.0152 C   0  0  0  0  0  0  0  0  0  0  0  0
   -2.7708   -4.0408    0.0068 C   0  0  0  0  0  0  0  0  0  0  0  0
   -4.2062   -4.5704    0.0177 C   0  0  0  0  0  0  0  0  0  0  0  0
   -4.1863   -6.0392    0.0096 N   0  3  0  0  0  0  0  0  0  0  0  0
    1.4167    2.0553   -0.0004 C   0  0  0  0  0  0  0  0  0  0  0  0
    1.3968    3.5242    0.0076 N   0  3  0  0  0  0  0  0  0  0  0  0
    2.7749    4.0327   -0.0028 C   0  0  0  0  0  0  0  0  0  0  0  0
    2.7542    5.5625    0.0056 C   0  0  0  0  0  0  0  0  0  0  0  0
    4.1896    6.0921   -0.0052 C   0  0  0  0  0  0  0  0  0  0  0  0
    4.1697    7.5609    0.0029 N   0  3  0  0  0  0  0  0  0  0  0  0
   -0.5459    1.8868   -0.8726 H   0  0  0  0  0  0  0  0  0  0  0  0
   -0.5289    1.8773    0.9072 H   0  0  0  0  0  0  0  0  0  0  0  0
    0.5123   -0.3556   -0.8948 H   0  0  0  0  0  0  0  0  0  0  0  0
    0.5293   -0.3651    0.8851 H   0  0  0  0  0  0  0  0  0  0  0  0
   -1.9435   -0.1821    0.9097 H   0  0  0  0  0  0  0  0  0  0  0  0
   -1.9605   -0.1726   -0.8702 H   0  0  0  0  0  0  0  0  0  0  0  0
   -0.9411   -2.3279   -0.8254 H   0  0  0  0  0  0  0  0  0  0  0  0
   -3.3017   -2.1594    0.9120 H   0  0  0  0  0  0  0  0  0  0  0  0
   -3.3187   -2.1499   -0.8678 H   0  0  0  0  0  0  0  0  0  0  0  0
   -2.2606   -4.3923   -0.8900 H   0  0  0  0  0  0  0  0  0  0  0  0
   -2.2436   -4.4019    0.8899 H   0  0  0  0  0  0  0  0  0  0  0  0
   -4.7164   -4.2189    0.9145 H   0  0  0  0  0  0  0  0  0  0  0  0
   -4.7334   -4.2093   -0.8654 H   0  0  0  0  0  0  0  0  0  0  0  0
   -3.7140   -6.3646   -0.8206 H   0  0  0  0  0  0  0  0  0  0  0  0
   -3.6982   -6.3735    0.8270 H   0  0  0  0  0  0  0  0  0  0  0  0
    1.9439    1.6943    0.8826 H   0  0  0  0  0  0  0  0  0  0  0  0
    1.9269    1.7038   -0.8972 H   0  0  0  0  0  0  0  0  0  0  0  0
    0.9088    3.8584   -0.8098 H   0  0  0  0  0  0  0  0  0  0  0  0
    3.3021    3.6716    0.8803 H   0  0  0  0  0  0  0  0  0  0  0  0
    3.2851    3.6811   -0.8996 H   0  0  0  0  0  0  0  0  0  0  0  0
    2.2270    5.9236   -0.8774 H   0  0  0  0  0  0  0  0  0  0  0  0
    2.2440    5.9140    0.9024 H   0  0  0  0  0  0  0  0  0  0  0  0
    4.7168    5.7310    0.8778 H   0  0  0  0  0  0  0  0  0  0  0  0
    4.6998    5.7406   -0.9020 H   0  0  0  0  0  0  0  0  0  0  0  0
    3.6817    7.8952   -0.8146 H   0  0  0  0  0  0  0  0  0  0  0  0
    3.6974    7.8863    0.8330 H   0  0  0  0  0  0  0  0  0  0  0  0
   -5.1329   -6.3885    0.0168 H   0  0  0  0  0  0  0  0  0  0  0  0
    0.9245    3.8496    0.8378 H   0  0  0  0  0  0  0  0  0  0  0  0
   -0.9254   -2.3367    0.8222 H   0  0  0  0  0  0  0  0  0  0  0  0
    5.1163    7.9102   -0.0043 H   0  0  0  0  0  0  0  0  0  0  0  0
  1  2  1  0  0  0  0
  1  9  1  0  0  0  0
  1 15  1  0  0  0  0
  1 16  1  0  0  0  0
  2  3  1  0  0  0  0
  2 17  1  0  0  0  0
  2 18  1  0  0  0  0
  3  4  1  0  0  0  0
  3 19  1  0  0  0  0
  3 20  1  0  0  0  0
  4  5  1  0  0  0  0
  4 21  1  0  0  0  0
  4 43  1  0  0  0  0
  5  6  1  0  0  0  0
  5 22  1  0  0  0  0
  5 23  1  0  0  0  0
  6  7  1  0  0  0  0
  6 24  1  0  0  0  0
  6 25  1  0  0  0  0
  7  8  1  0  0  0  0
  7 26  1  0  0  0  0
  7 27  1  0  0  0  0
  8 28  1  0  0  0  0
  8 29  1  0  0  0  0
  8 41  1  0  0  0  0
  9 10  1  0  0  0  0
  9 30  1  0  0  0  0
  9 31  1  0  0  0  0
 10 11  1  0  0  0  0
 10 32  1  0  0  0  0
 10 42  1  0  0  0  0
 11 12  1  0  0  0  0
 11 33  1  0  0  0  0
 11 34  1  0  0  0  0
 12 13  1  0  0  0  0
 12 35  1  0  0  0  0
 12 36  1  0  0  0  0
 13 14  1  0  0  0  0
 13 37  1  0  0  0  0
 13 38  1  0  0  0  0
 14 39  1  0  0  0  0
 14 40  1  0  0  0  0
 14 44  1  0  0  0  0
M  CHG  4   4   1   8   1  10   1  14   1
M  END
$$$$
