ZINC01530756
 OpenBabel08292219463D

 39 39  0  0  0  0  0  0  0  0999 V2000
    0.0823    1.4510   -0.2163 C   0  0  0  0  0  0  0  0  0  0  0  0
    0.0237   -0.0664   -0.0289 C   0  0  0  0  0  0  0  0  0  0  0  0
   -1.3740   -0.4850    0.1418 N   0  3  0  0  0  0  0  0  0  0  0  0
   -2.1159   -0.2330   -1.1009 C   0  0  0  0  0  0  0  0  0  0  0  0
   -3.5996   -0.5332   -0.8788 C   0  0  0  0  0  0  0  0  0  0  0  0
   -1.4206   -1.9189    0.4577 C   0  0  0  0  0  0  0  0  0  0  0  0
   -0.7562   -2.1642    1.8139 C   0  0  0  0  0  0  0  0  0  0  0  0
   -0.8026   -3.5942    2.1289 N   0  0  0  0  0  0  0  0  0  0  0  0
   -0.2733   -4.0476    3.2824 C   0  0  0  0  0  0  0  0  0  0  0  0
    0.2429   -3.2698    4.0617 O   0  0  0  0  0  0  0  0  0  0  0  0
   -0.3201   -5.4876    3.5997 C   0  0  0  0  0  0  0  0  0  0  0  0
   -0.9080   -6.3838    2.7022 C   0  0  0  0  0  0  0  0  0  0  0  0
   -0.9497   -7.7264    3.0008 C   0  0  0  0  0  0  0  0  0  0  0  0
   -0.4075   -8.1925    4.1954 C   0  0  0  0  0  0  0  0  0  0  0  0
    0.1782   -7.3025    5.0914 C   0  0  0  0  0  0  0  0  0  0  0  0
    0.2286   -5.9594    4.7957 C   0  0  0  0  0  0  0  0  0  0  0  0
   -0.4516   -9.5497    4.4944 N   0  0  0  0  0  0  0  0  0  0  0  0
    1.1228    1.7753   -0.2311 H   0  0  0  0  0  0  0  0  0  0  0  0
   -0.3953    1.7194   -1.1586 H   0  0  0  0  0  0  0  0  0  0  0  0
   -0.4388    1.9392    0.6072 H   0  0  0  0  0  0  0  0  0  0  0  0
    0.4455   -0.5574   -0.9059 H   0  0  0  0  0  0  0  0  0  0  0  0
    0.5971   -0.3457    0.8550 H   0  0  0  0  0  0  0  0  0  0  0  0
   -1.9958    0.8109   -1.3904 H   0  0  0  0  0  0  0  0  0  0  0  0
   -1.7294   -0.8761   -1.8915 H   0  0  0  0  0  0  0  0  0  0  0  0
   -3.7314   -1.6000   -0.6980 H   0  0  0  0  0  0  0  0  0  0  0  0
   -3.9590    0.0285   -0.0166 H   0  0  0  0  0  0  0  0  0  0  0  0
   -4.1656   -0.2421   -1.7637 H   0  0  0  0  0  0  0  0  0  0  0  0
   -2.4588   -2.2488    0.4968 H   0  0  0  0  0  0  0  0  0  0  0  0
   -0.8905   -2.4782   -0.3132 H   0  0  0  0  0  0  0  0  0  0  0  0
    0.2820   -1.8343    1.7748 H   0  0  0  0  0  0  0  0  0  0  0  0
   -1.2864   -1.6049    2.5847 H   0  0  0  0  0  0  0  0  0  0  0  0
   -1.2144   -4.2146    1.5073 H   0  0  0  0  0  0  0  0  0  0  0  0
   -1.3294   -6.0227    1.7757 H   0  0  0  0  0  0  0  0  0  0  0  0
   -1.4037   -8.4193    2.3079 H   0  0  0  0  0  0  0  0  0  0  0  0
    0.5976   -7.6670    6.0175 H   0  0  0  0  0  0  0  0  0  0  0  0
    0.6874   -5.2701    5.4891 H   0  0  0  0  0  0  0  0  0  0  0  0
   -0.8598  -10.1707    3.8709 H   0  0  0  0  0  0  0  0  0  0  0  0
   -0.0742   -9.8755    5.3264 H   0  0  0  0  0  0  0  0  0  0  0  0
   -1.7925    0.0392    0.8955 H   0  0  0  0  0  0  0  0  0  0  0  0
  1  2  1  0  0  0  0
  1 18  1  0  0  0  0
  1 19  1  0  0  0  0
  1 20  1  0  0  0  0
  2  3  1  0  0  0  0
  2 21  1  0  0  0  0
  2 22  1  0  0  0  0
  3  4  1  0  0  0  0
  3  6  1  0  0  0  0
  3 39  1  0  0  0  0
  4  5  1  0  0  0  0
  4 23  1  0  0  0  0
  4 24  1  0  0  0  0
  5 25  1  0  0  0  0
  5 26  1  0  0  0  0
  5 27  1  0  0  0  0
  6  7  1  0  0  0  0
  6 28  1  0  0  0  0
  6 29  1  0  0  0  0
  7  8  1  0  0  0  0
  7 30  1  0  0  0  0
  7 31  1  0  0  0  0
  8  9  1  0  0  0  0
  8 32  1  0  0  0  0
  9 10  2  0  0  0  0
  9 11  1  0  0  0  0
 11 16  2  0  0  0  0
 11 12  1  0  0  0  0
 12 13  2  0  0  0  0
 12 33  1  0  0  0  0
 13 14  1  0  0  0  0
 13 34  1  0  0  0  0
 14 15  2  0  0  0  0
 14 17  1  0  0  0  0
 15 16  1  0  0  0  0
 15 35  1  0  0  0  0
 16 36  1  0  0  0  0
 17 37  1  0  0  0  0
 17 38  1  0  0  0  0
M  CHG  1   3   1
M  END
$$$$
