ZINC00002272
 OpenBabel08292219463D

 32 33  0  0  1  0  0  0  0  0999 V2000
    0.1060    0.7764   -0.6172 C   0  0  0  0  0  0  0  0  0  0  0  0
    0.3971   -0.7015   -0.3489 C   0  0  2  0  0  0  0  0  0  0  0  0
   -0.5231   -1.2771   -0.4492 H   0  0  0  0  0  0  0  0  0  0  0  0
    0.9397   -0.8611    1.0479 C   0  0  0  0  0  0  0  0  0  0  0  0
    2.1066   -0.2129    1.4136 C   0  0  0  0  0  0  0  0  0  0  0  0
    2.6120   -0.3538    2.6939 C   0  0  0  0  0  0  0  0  0  0  0  0
    1.9549   -1.1424    3.6154 C   0  0  0  0  0  0  0  0  0  0  0  0
    0.7766   -1.7992    3.2534 C   0  0  0  0  0  0  0  0  0  0  0  0
    0.2693   -1.6482    1.9606 C   0  0  0  0  0  0  0  0  0  0  0  0
    0.0673   -2.6456    4.2349 C   0  0  0  0  0  0  0  0  0  0  0  0
    0.4288   -2.6639    5.3952 O   0  0  0  0  0  0  0  0  0  0  0  0
   -1.0815   -3.4698    3.8059 C   0  0  0  0  0  0  0  0  0  0  0  0
   -1.1036   -4.0311    2.5270 C   0  0  0  0  0  0  0  0  0  0  0  0
   -2.1789   -4.7998    2.1333 C   0  0  0  0  0  0  0  0  0  0  0  0
   -3.2346   -5.0151    3.0019 C   0  0  0  0  0  0  0  0  0  0  0  0
   -3.2193   -4.4620    4.2704 C   0  0  0  0  0  0  0  0  0  0  0  0
   -2.1478   -3.6960    4.6794 C   0  0  0  0  0  0  0  0  0  0  0  0
    1.4134   -1.2018   -1.3428 C   0  0  0  0  0  0  0  0  0  0  0  0
    1.8632   -0.4463   -2.1874 O   0  0  0  0  0  0  0  0  0  0  0  0
    1.7858   -2.3621   -1.3023 O   0  0  0  0  0  1  0  0  0  0  0  0
    1.0261    1.3520   -0.5169 H   0  0  0  0  0  0  0  0  0  0  0  0
   -0.2865    0.8918   -1.6275 H   0  0  0  0  0  0  0  0  0  0  0  0
   -0.6291    1.1382    0.1017 H   0  0  0  0  0  0  0  0  0  0  0  0
    2.6254    0.4056    0.6961 H   0  0  0  0  0  0  0  0  0  0  0  0
    3.5232    0.1547    2.9724 H   0  0  0  0  0  0  0  0  0  0  0  0
    2.3508   -1.2521    4.6142 H   0  0  0  0  0  0  0  0  0  0  0  0
   -0.6435   -2.1499    1.6753 H   0  0  0  0  0  0  0  0  0  0  0  0
   -0.2807   -3.8632    1.8479 H   0  0  0  0  0  0  0  0  0  0  0  0
   -2.1973   -5.2344    1.1448 H   0  0  0  0  0  0  0  0  0  0  0  0
   -4.0744   -5.6172    2.6882 H   0  0  0  0  0  0  0  0  0  0  0  0
   -4.0467   -4.6338    4.9430 H   0  0  0  0  0  0  0  0  0  0  0  0
   -2.1350   -3.2687    5.6711 H   0  0  0  0  0  0  0  0  0  0  0  0
  1  2  1  0  0  0  0
  1 21  1  0  0  0  0
  1 22  1  0  0  0  0
  1 23  1  0  0  0  0
  2  3  1  6  0  0  0
  2  4  1  0  0  0  0
  2 18  1  0  0  0  0
  4  9  2  0  0  0  0
  4  5  1  0  0  0  0
  5  6  2  0  0  0  0
  5 24  1  0  0  0  0
  6  7  1  0  0  0  0
  6 25  1  0  0  0  0
  7  8  2  0  0  0  0
  7 26  1  0  0  0  0
  8  9  1  0  0  0  0
  8 10  1  0  0  0  0
  9 27  1  0  0  0  0
 10 11  2  0  0  0  0
 10 12  1  0  0  0  0
 12 17  2  0  0  0  0
 12 13  1  0  0  0  0
 13 14  2  0  0  0  0
 13 28  1  0  0  0  0
 14 15  1  0  0  0  0
 14 29  1  0  0  0  0
 15 16  2  0  0  0  0
 15 30  1  0  0  0  0
 16 17  1  0  0  0  0
 16 31  1  0  0  0  0
 17 32  1  0  0  0  0
 18 19  2  0  0  0  0
 18 20  1  0  0  0  0
M  END
$$$$
