ZINC19156872
 OpenBabel08292219463D

 43 45  0  0  0  0  0  0  0  0999 V2000
    2.0149    1.3726   -1.7209 C   0  0  0  0  0  0  0  0  0  0  0  0
    2.0644   -0.0892   -1.5842 N   0  3  0  0  0  0  0  0  0  0  0  0
    2.7258   -0.4404   -0.3206 C   0  0  0  0  0  0  0  0  0  0  0  0
    2.7945   -1.9632   -0.1865 C   0  0  0  0  0  0  0  0  0  0  0  0
    1.4333   -2.5167   -0.2173 N   0  0  0  0  0  0  0  0  0  0  0  0
    0.7497   -2.1522   -1.4662 C   0  0  0  0  0  0  0  0  0  0  0  0
    0.6979   -0.6278   -1.5897 C   0  0  0  0  0  0  0  0  0  0  0  0
    1.4533   -3.9741   -0.0341 C   0  0  0  0  0  0  0  0  0  0  0  0
    2.1408   -4.3077    1.2649 C   0  0  0  0  0  0  0  0  0  0  0  0
    1.8525   -3.5821    2.4057 C   0  0  0  0  0  0  0  0  0  0  0  0
    2.4830   -3.8881    3.5971 C   0  0  0  0  0  0  0  0  0  0  0  0
    3.4015   -4.9200    3.6480 C   0  0  0  0  0  0  0  0  0  0  0  0
    3.6891   -5.6461    2.5074 C   0  0  0  0  0  0  0  0  0  0  0  0
    3.0554   -5.3429    1.3169 C   0  0  0  0  0  0  0  0  0  0  0  0
    0.0399   -4.4959   -0.0029 C   0  0  0  0  0  0  0  0  0  0  0  0
   -0.9245   -3.8356    0.7351 C   0  0  0  0  0  0  0  0  0  0  0  0
   -2.2210   -4.3143    0.7637 C   0  0  0  0  0  0  0  0  0  0  0  0
   -2.5532   -5.4530    0.0540 C   0  0  0  0  0  0  0  0  0  0  0  0
   -1.5889   -6.1129   -0.6848 C   0  0  0  0  0  0  0  0  0  0  0  0
   -0.2934   -5.6317   -0.7168 C   0  0  0  0  0  0  0  0  0  0  0  0
    1.4538    1.7966   -0.8882 H   0  0  0  0  0  0  0  0  0  0  0  0
    3.0289    1.7724   -1.7169 H   0  0  0  0  0  0  0  0  0  0  0  0
    1.5253    1.6333   -2.6592 H   0  0  0  0  0  0  0  0  0  0  0  0
    3.7352   -0.0290   -0.3123 H   0  0  0  0  0  0  0  0  0  0  0  0
    2.1584   -0.0274    0.5135 H   0  0  0  0  0  0  0  0  0  0  0  0
    3.3734   -2.3753   -1.0130 H   0  0  0  0  0  0  0  0  0  0  0  0
    3.2719   -2.2240    0.7580 H   0  0  0  0  0  0  0  0  0  0  0  0
    1.2949   -2.5674   -2.3138 H   0  0  0  0  0  0  0  0  0  0  0  0
   -0.2647   -2.5508   -1.4553 H   0  0  0  0  0  0  0  0  0  0  0  0
    0.1409   -0.2139   -0.7492 H   0  0  0  0  0  0  0  0  0  0  0  0
    0.2038   -0.3554   -2.5224 H   0  0  0  0  0  0  0  0  0  0  0  0
    1.9933   -4.4367   -0.8602 H   0  0  0  0  0  0  0  0  0  0  0  0
    1.1349   -2.7760    2.3660 H   0  0  0  0  0  0  0  0  0  0  0  0
    2.2584   -3.3208    4.4882 H   0  0  0  0  0  0  0  0  0  0  0  0
    3.8947   -5.1586    4.5787 H   0  0  0  0  0  0  0  0  0  0  0  0
    4.4069   -6.4521    2.5470 H   0  0  0  0  0  0  0  0  0  0  0  0
    3.2773   -5.9126    0.4266 H   0  0  0  0  0  0  0  0  0  0  0  0
   -0.6650   -2.9459    1.2896 H   0  0  0  0  0  0  0  0  0  0  0  0
   -2.9744   -3.7987    1.3409 H   0  0  0  0  0  0  0  0  0  0  0  0
   -3.5660   -5.8274    0.0769 H   0  0  0  0  0  0  0  0  0  0  0  0
   -1.8484   -7.0027   -1.2390 H   0  0  0  0  0  0  0  0  0  0  0  0
    0.4591   -6.1451   -1.2970 H   0  0  0  0  0  0  0  0  0  0  0  0
    2.5835   -0.4816   -2.3554 H   0  0  0  0  0  0  0  0  0  0  0  0
  1  2  1  0  0  0  0
  1 21  1  0  0  0  0
  1 22  1  0  0  0  0
  1 23  1  0  0  0  0
  2  7  1  0  0  0  0
  2  3  1  0  0  0  0
  2 43  1  0  0  0  0
  3  4  1  0  0  0  0
  3 24  1  0  0  0  0
  3 25  1  0  0  0  0
  4  5  1  0  0  0  0
  4 26  1  0  0  0  0
  4 27  1  0  0  0  0
  5  6  1  0  0  0  0
  5  8  1  0  0  0  0
  6  7  1  0  0  0  0
  6 28  1  0  0  0  0
  6 29  1  0  0  0  0
  7 30  1  0  0  0  0
  7 31  1  0  0  0  0
  8  9  1  0  0  0  0
  8 15  1  0  0  0  0
  8 32  1  0  0  0  0
  9 14  2  0  0  0  0
  9 10  1  0  0  0  0
 10 11  2  0  0  0  0
 10 33  1  0  0  0  0
 11 12  1  0  0  0  0
 11 34  1  0  0  0  0
 12 13  2  0  0  0  0
 12 35  1  0  0  0  0
 13 14  1  0  0  0  0
 13 36  1  0  0  0  0
 14 37  1  0  0  0  0
 15 20  2  0  0  0  0
 15 16  1  0  0  0  0
 16 17  2  0  0  0  0
 16 38  1  0  0  0  0
 17 18  1  0  0  0  0
 17 39  1  0  0  0  0
 18 19  2  0  0  0  0
 18 40  1  0  0  0  0
 19 20  1  0  0  0  0
 19 41  1  0  0  0  0
 20 42  1  0  0  0  0
M  CHG  1   2   1
M  END
$$$$
