ZINC18099446
 OpenBabel08292219463D

 23 23  0  0  0  0  0  0  0  0999 V2000
    0.1301    0.3218   -1.7400 C   0  0  0  0  0  0  0  0  0  0  0  0
   -0.0399   -0.0587   -0.3355 N   0  0  0  0  0  0  0  0  0  0  0  0
    1.0042    0.2604    0.6414 C   0  0  0  0  0  0  0  0  0  0  0  0
   -1.2008   -0.7278    0.0734 N   0  0  0  0  0  0  0  0  0  0  0  0
   -2.3238   -0.0955    0.1297 N   0  0  0  0  0  0  0  0  0  0  0  0
   -2.3573    1.2500   -0.0672 C   0  0  0  0  0  0  0  0  0  0  0  0
   -3.4907    2.0522   -0.1713 C   0  0  0  0  0  0  0  0  0  0  0  0
   -3.0679    3.3213   -0.3615 N   0  0  0  0  0  0  0  0  0  0  0  0
   -1.7676    3.3476   -0.3803 C   0  0  0  0  0  0  0  0  0  0  0  0
   -1.2827    2.0898   -0.1969 N   0  0  0  0  0  0  0  0  0  0  0  0
   -0.3475    1.8341   -0.1655 H   0  0  0  0  0  0  0  0  0  0  0  0
   -4.8858    1.6024   -0.0900 C   0  0  0  0  0  0  0  0  0  0  0  0
   -5.1361    0.4244    0.0845 O   0  0  0  0  0  0  0  0  0  0  0  0
   -5.8893    2.4942   -0.2087 N   0  0  0  0  0  0  0  0  0  0  0  0
    1.0411    0.9101   -1.8493 H   0  0  0  0  0  0  0  0  0  0  0  0
    0.2017   -0.5763   -2.3536 H   0  0  0  0  0  0  0  0  0  0  0  0
   -0.7261    0.9145   -2.0620 H   0  0  0  0  0  0  0  0  0  0  0  0
    0.8098    1.2421    1.0733 H   0  0  0  0  0  0  0  0  0  0  0  0
    1.0044   -0.4905    1.4314 H   0  0  0  0  0  0  0  0  0  0  0  0
    1.9752    0.2672    0.1462 H   0  0  0  0  0  0  0  0  0  0  0  0
   -1.1649    4.2334   -0.5166 H   0  0  0  0  0  0  0  0  0  0  0  0
   -5.6898    3.4332   -0.3478 H   0  0  0  0  0  0  0  0  0  0  0  0
   -6.8111    2.1970   -0.1550 H   0  0  0  0  0  0  0  0  0  0  0  0
  1  2  1  0  0  0  0
  1 15  1  0  0  0  0
  1 16  1  0  0  0  0
  1 17  1  0  0  0  0
  2  3  1  0  0  0  0
  2  4  1  0  0  0  0
  3 18  1  0  0  0  0
  3 19  1  0  0  0  0
  3 20  1  0  0  0  0
  4  5  2  0  0  0  0
  5  6  1  0  0  0  0
  6 10  1  0  0  0  0
  6  7  2  0  0  0  0
  7  8  1  0  0  0  0
  7 12  1  0  0  0  0
  8  9  2  0  0  0  0
  9 10  1  0  0  0  0
  9 21  1  0  0  0  0
 10 11  1  0  0  0  0
 12 13  2  0  0  0  0
 12 14  1  0  0  0  0
 14 22  1  0  0  0  0
 14 23  1  0  0  0  0
M  END
$$$$
