ZINC34781704
 OpenBabel08292219463D

 37 39  0  0  1  0  0  0  0  0999 V2000
   -0.1849    1.4577   -0.2319 C   0  0  0  0  0  0  0  0  0  0  0  0
   -0.2691    0.0328   -0.2992 O   0  0  0  0  0  0  0  0  0  0  0  0
    0.6812   -0.6012   -1.0041 C   0  0  0  0  0  0  0  0  0  0  0  0
    1.5554    0.0327   -1.5461 O   0  0  0  0  0  0  0  0  0  0  0  0
    0.6575   -2.1036   -1.1196 C   0  0  2  0  0  0  0  0  0  0  0  0
   -0.3726   -2.4558   -1.0676 H   0  0  0  0  0  0  0  0  0  0  0  0
    1.4524   -2.7068    0.0097 C   0  0  0  0  0  0  0  0  0  0  0  0
    2.7812   -3.0374   -0.1797 C   0  0  0  0  0  0  0  0  0  0  0  0
    3.5104   -3.5907    0.8561 C   0  0  0  0  0  0  0  0  0  0  0  0
    2.9113   -3.8136    2.0820 C   0  0  0  0  0  0  0  0  0  0  0  0
    1.5829   -3.4835    2.2726 C   0  0  0  0  0  0  0  0  0  0  0  0
    0.8540   -2.9243    1.2378 C   0  0  0  0  0  0  0  0  0  0  0  0
   -0.8129   -2.5032    1.4783 Cl  0  0  0  0  0  0  0  0  0  0  0  0
    1.2481   -2.5053   -2.4033 N   0  0  0  0  0  0  0  0  0  0  0  0
    0.5972   -1.8104   -3.5230 C   0  0  0  0  0  0  0  0  0  0  0  0
    1.4908   -1.9330   -4.7690 C   0  0  0  0  0  0  0  0  0  0  0  0
    1.9199   -3.3595   -4.8824 C   0  0  0  0  0  0  0  0  0  0  0  0
    1.8162   -4.3192   -3.9209 C   0  0  0  0  0  0  0  0  0  0  0  0
    2.2823   -5.5883   -4.2557 C   0  0  0  0  0  0  0  0  0  0  0  0
    2.8070   -5.8147   -5.4827 C   0  0  0  0  0  0  0  0  0  0  0  0
    2.6644   -4.2059   -6.2475 S   0  0  0  0  0  0  0  0  0  0  0  0
    1.2137   -3.9645   -2.5647 C   0  0  0  0  0  0  0  0  0  0  0  0
    0.7610    1.7445    0.2276 H   0  0  0  0  0  0  0  0  0  0  0  0
   -0.2407    1.8729   -1.2382 H   0  0  0  0  0  0  0  0  0  0  0  0
   -1.0109    1.8426    0.3662 H   0  0  0  0  0  0  0  0  0  0  0  0
    3.2496   -2.8638   -1.1372 H   0  0  0  0  0  0  0  0  0  0  0  0
    4.5484   -3.8492    0.7075 H   0  0  0  0  0  0  0  0  0  0  0  0
    3.4814   -4.2463    2.8908 H   0  0  0  0  0  0  0  0  0  0  0  0
    1.1150   -3.6580    3.2301 H   0  0  0  0  0  0  0  0  0  0  0  0
   -0.3722   -2.2670   -3.7223 H   0  0  0  0  0  0  0  0  0  0  0  0
    0.4631   -0.7583   -3.2717 H   0  0  0  0  0  0  0  0  0  0  0  0
    0.9280   -1.6448   -5.6569 H   0  0  0  0  0  0  0  0  0  0  0  0
    2.3654   -1.2916   -4.6608 H   0  0  0  0  0  0  0  0  0  0  0  0
    2.2255   -6.3916   -3.5361 H   0  0  0  0  0  0  0  0  0  0  0  0
    3.2074   -6.7300   -5.8930 H   0  0  0  0  0  0  0  0  0  0  0  0
    1.7958   -4.4340   -1.7717 H   0  0  0  0  0  0  0  0  0  0  0  0
    0.1820   -4.3132   -2.5202 H   0  0  0  0  0  0  0  0  0  0  0  0
  1  2  1  0  0  0  0
  1 23  1  0  0  0  0
  1 24  1  0  0  0  0
  1 25  1  0  0  0  0
  2  3  1  0  0  0  0
  3  4  2  0  0  0  0
  3  5  1  0  0  0  0
  5  6  1  1  0  0  0
  5  7  1  0  0  0  0
  5 14  1  0  0  0  0
  7 12  2  0  0  0  0
  7  8  1  0  0  0  0
  8  9  2  0  0  0  0
  8 26  1  0  0  0  0
  9 10  1  0  0  0  0
  9 27  1  0  0  0  0
 10 11  2  0  0  0  0
 10 28  1  0  0  0  0
 11 12  1  0  0  0  0
 11 29  1  0  0  0  0
 12 13  1  0  0  0  0
 14 22  1  0  0  0  0
 14 15  1  0  0  0  0
 15 16  1  0  0  0  0
 15 30  1  0  0  0  0
 15 31  1  0  0  0  0
 16 17  1  0  0  0  0
 16 32  1  0  0  0  0
 16 33  1  0  0  0  0
 17 21  1  0  0  0  0
 17 18  2  0  0  0  0
 18 19  1  0  0  0  0
 18 22  1  0  0  0  0
 19 20  2  0  0  0  0
 19 34  1  0  0  0  0
 20 21  1  0  0  0  0
 20 35  1  0  0  0  0
 22 36  1  0  0  0  0
 22 37  1  0  0  0  0
M  END
$$$$
