ZINC04097343
 OpenBabel08292219463D

 87 93  0  0  1  0  0  0  0  0999 V2000
    4.1679   -0.8173    1.3405 C   0  0  0  0  0  0  0  0  0  0  0  0
    3.6502   -0.4775    2.7396 C   0  0  0  0  0  0  0  0  0  0  0  0
    3.4116    1.0303    2.8428 C   0  0  1  0  0  0  0  0  0  0  0  0
    2.7428    1.3479    2.0429 H   0  0  0  0  0  0  0  0  0  0  0  0
    2.7775    1.3548    4.1969 C   0  0  0  0  0  0  0  0  0  0  0  0
    4.6894    1.7364    2.7202 N   0  0  0  0  0  0  0  0  0  0  0  0
    5.0145    2.6429    1.7751 C   0  0  0  0  0  0  0  0  0  0  0  0
    4.2993    3.0247    0.8658 O   0  0  0  0  0  0  0  0  0  0  0  0
    6.2765    3.0479    2.0217 N   0  0  0  0  0  0  0  0  0  0  0  0
    6.7345    2.3815    3.1338 C   0  0  0  0  0  0  0  0  0  0  0  0
    5.7983    1.5997    3.5666 N   0  0  0  0  0  0  0  0  0  0  0  0
    6.9992    3.9887    1.2716 C   0  0  0  0  0  0  0  0  0  0  0  0
    6.4173    4.5863    0.1618 C   0  0  0  0  0  0  0  0  0  0  0  0
    7.1260    5.5153   -0.5734 C   0  0  0  0  0  0  0  0  0  0  0  0
    8.4255    5.8439   -0.2091 C   0  0  0  0  0  0  0  0  0  0  0  0
    9.0093    5.2419    0.8981 C   0  0  0  0  0  0  0  0  0  0  0  0
    8.2978    4.3172    1.6362 C   0  0  0  0  0  0  0  0  0  0  0  0
    9.1457    6.7809   -0.9568 N   0  0  0  0  0  0  0  0  0  0  0  0
    9.6162    7.8835   -0.1068 C   0  0  0  0  0  0  0  0  0  0  0  0
   10.4646    8.8435   -0.9441 C   0  0  0  0  0  0  0  0  0  0  0  0
    9.6619    9.3521   -2.0651 N   0  0  0  0  0  0  0  0  0  0  0  0
    9.1914    8.2495   -2.9151 C   0  0  0  0  0  0  0  0  0  0  0  0
    8.3430    7.2896   -2.0778 C   0  0  0  0  0  0  0  0  0  0  0  0
   10.3826   10.2897   -2.8132 C   0  0  0  0  0  0  0  0  0  0  0  0
   10.5706   10.0953   -4.1752 C   0  0  0  0  0  0  0  0  0  0  0  0
   11.2763   11.0246   -4.9141 C   0  0  0  0  0  0  0  0  0  0  0  0
   11.8081   12.1453   -4.2936 C   0  0  0  0  0  0  0  0  0  0  0  0
   11.6261   12.3371   -2.9320 C   0  0  0  0  0  0  0  0  0  0  0  0
   10.9150   11.4122   -2.1929 C   0  0  0  0  0  0  0  0  0  0  0  0
   12.5081   13.0568   -5.0208 O   0  0  0  0  0  0  0  0  0  0  0  0
   12.6569   12.7960   -6.4179 C   0  0  0  0  0  0  0  0  0  0  0  0
   13.4667   13.9221   -7.0635 C   0  0  1  0  0  0  0  0  0  0  0  0
   14.4328   14.0314   -6.5707 H   0  0  0  0  0  0  0  0  0  0  0  0
   13.6476   13.6660   -8.5806 C   0  0  0  0  0  0  0  0  0  0  0  0
   13.8205   15.0112   -9.0874 O   0  0  0  0  0  0  0  0  0  0  0  0
   12.9489   15.8223   -8.2819 C   0  0  2  0  0  0  0  0  0  0  0  0
   12.7329   15.1628   -7.0274 O   0  0  0  0  0  0  0  0  0  0  0  0
   11.6115   16.0102   -9.0009 C   0  0  0  0  0  0  0  0  0  0  0  0
   10.7492   16.8886   -8.2065 N   0  0  0  0  0  0  0  0  0  0  0  0
   10.1882   18.0430   -8.6061 C   0  0  0  0  0  0  0  0  0  0  0  0
    9.4922   18.5231   -7.6077 N   0  0  0  0  0  0  0  0  0  0  0  0
    9.5844   17.7068   -6.5586 C   0  0  0  0  0  0  0  0  0  0  0  0
   10.3394   16.6888   -6.8781 N   0  0  0  0  0  0  0  0  0  0  0  0
   13.5856   17.1673   -8.0439 C   0  0  0  0  0  0  0  0  0  0  0  0
   13.7073   17.6562   -6.7565 C   0  0  0  0  0  0  0  0  0  0  0  0
   14.2915   18.8893   -6.5374 C   0  0  0  0  0  0  0  0  0  0  0  0
   14.7549   19.6355   -7.6066 C   0  0  0  0  0  0  0  0  0  0  0  0
   14.6335   19.1469   -8.8948 C   0  0  0  0  0  0  0  0  0  0  0  0
   14.0533   17.9100   -9.1131 C   0  0  0  0  0  0  0  0  0  0  0  0
   13.9064   17.2930  -10.7291 Cl  0  0  0  0  0  0  0  0  0  0  0  0
   15.4882   21.1848   -7.3312 Cl  0  0  0  0  0  0  0  0  0  0  0  0
    4.3378   -1.8915    1.2670 H   0  0  0  0  0  0  0  0  0  0  0  0
    5.1038   -0.2882    1.1609 H   0  0  0  0  0  0  0  0  0  0  0  0
    3.4308   -0.5143    0.5969 H   0  0  0  0  0  0  0  0  0  0  0  0
    2.7143   -1.0065    2.9191 H   0  0  0  0  0  0  0  0  0  0  0  0
    4.3873   -0.7805    3.4832 H   0  0  0  0  0  0  0  0  0  0  0  0
    3.4463    1.0371    4.9968 H   0  0  0  0  0  0  0  0  0  0  0  0
    2.6075    2.4289    4.2704 H   0  0  0  0  0  0  0  0  0  0  0  0
    1.8268    0.8294    4.2881 H   0  0  0  0  0  0  0  0  0  0  0  0
    7.7130    2.4956    3.5764 H   0  0  0  0  0  0  0  0  0  0  0  0
    5.4086    4.3272   -0.1242 H   0  0  0  0  0  0  0  0  0  0  0  0
    6.6717    5.9834   -1.4341 H   0  0  0  0  0  0  0  0  0  0  0  0
   10.0198    5.4969    1.1814 H   0  0  0  0  0  0  0  0  0  0  0  0
    8.7517    3.8491    2.4972 H   0  0  0  0  0  0  0  0  0  0  0  0
    8.7592    8.4183    0.3026 H   0  0  0  0  0  0  0  0  0  0  0  0
   10.2184    7.4827    0.7086 H   0  0  0  0  0  0  0  0  0  0  0  0
   11.3362    8.3154   -1.3311 H   0  0  0  0  0  0  0  0  0  0  0  0
   10.7907    9.6773   -0.3225 H   0  0  0  0  0  0  0  0  0  0  0  0
   10.0485    7.7147   -3.3245 H   0  0  0  0  0  0  0  0  0  0  0  0
    8.5892    8.6503   -3.7304 H   0  0  0  0  0  0  0  0  0  0  0  0
    8.0169    6.4557   -2.6994 H   0  0  0  0  0  0  0  0  0  0  0  0
    7.4713    7.8173   -1.6908 H   0  0  0  0  0  0  0  0  0  0  0  0
   10.1610    9.2201   -4.6575 H   0  0  0  0  0  0  0  0  0  0  0  0
   11.4182   10.8761   -5.9744 H   0  0  0  0  0  0  0  0  0  0  0  0
   12.0402   13.2102   -2.4498 H   0  0  0  0  0  0  0  0  0  0  0  0
   10.7727   11.5621   -1.1329 H   0  0  0  0  0  0  0  0  0  0  0  0
   13.1771   11.8483   -6.5572 H   0  0  0  0  0  0  0  0  0  0  0  0
   11.6731   12.7424   -6.8842 H   0  0  0  0  0  0  0  0  0  0  0  0
   14.5336   13.0603   -8.7711 H   0  0  0  0  0  0  0  0  0  0  0  0
   12.7591   13.1998   -9.0063 H   0  0  0  0  0  0  0  0  0  0  0  0
   11.7847   16.4589   -9.9790 H   0  0  0  0  0  0  0  0  0  0  0  0
   11.1271   15.0418   -9.1260 H   0  0  0  0  0  0  0  0  0  0  0  0
   10.2941   18.4955   -9.5809 H   0  0  0  0  0  0  0  0  0  0  0  0
    9.1088   17.8594   -5.6010 H   0  0  0  0  0  0  0  0  0  0  0  0
   13.3454   17.0743   -5.9217 H   0  0  0  0  0  0  0  0  0  0  0  0
   14.3866   19.2706   -5.5314 H   0  0  0  0  0  0  0  0  0  0  0  0
   14.9947   19.7291   -9.7297 H   0  0  0  0  0  0  0  0  0  0  0  0
  1  2  1  0  0  0  0
  1 52  1  0  0  0  0
  1 53  1  0  0  0  0
  1 54  1  0  0  0  0
  2  3  1  0  0  0  0
  2 55  1  0  0  0  0
  2 56  1  0  0  0  0
  3  4  1  6  0  0  0
  3  5  1  0  0  0  0
  3  6  1  0  0  0  0
  5 57  1  0  0  0  0
  5 58  1  0  0  0  0
  5 59  1  0  0  0  0
  6 11  1  0  0  0  0
  6  7  1  0  0  0  0
  7  8  2  0  0  0  0
  7  9  1  0  0  0  0
  9 10  1  0  0  0  0
  9 12  1  0  0  0  0
 10 11  2  0  0  0  0
 10 60  1  0  0  0  0
 12 17  2  0  0  0  0
 12 13  1  0  0  0  0
 13 14  2  0  0  0  0
 13 61  1  0  0  0  0
 14 15  1  0  0  0  0
 14 62  1  0  0  0  0
 15 16  2  0  0  0  0
 15 18  1  0  0  0  0
 16 17  1  0  0  0  0
 16 63  1  0  0  0  0
 17 64  1  0  0  0  0
 18 23  1  0  0  0  0
 18 19  1  0  0  0  0
 19 20  1  0  0  0  0
 19 65  1  0  0  0  0
 19 66  1  0  0  0  0
 20 21  1  0  0  0  0
 20 67  1  0  0  0  0
 20 68  1  0  0  0  0
 21 22  1  0  0  0  0
 21 24  1  0  0  0  0
 22 23  1  0  0  0  0
 22 69  1  0  0  0  0
 22 70  1  0  0  0  0
 23 71  1  0  0  0  0
 23 72  1  0  0  0  0
 24 29  2  0  0  0  0
 24 25  1  0  0  0  0
 25 26  2  0  0  0  0
 25 73  1  0  0  0  0
 26 27  1  0  0  0  0
 26 74  1  0  0  0  0
 27 28  2  0  0  0  0
 27 30  1  0  0  0  0
 28 29  1  0  0  0  0
 28 75  1  0  0  0  0
 29 76  1  0  0  0  0
 30 31  1  0  0  0  0
 31 32  1  0  0  0  0
 31 77  1  0  0  0  0
 31 78  1  0  0  0  0
 32 33  1  1  0  0  0
 32 37  1  0  0  0  0
 32 34  1  0  0  0  0
 34 35  1  0  0  0  0
 34 79  1  0  0  0  0
 34 80  1  0  0  0  0
 35 36  1  0  0  0  0
 36 37  1  0  0  0  0
 36 38  1  6  0  0  0
 36 44  1  0  0  0  0
 38 39  1  0  0  0  0
 38 81  1  0  0  0  0
 38 82  1  0  0  0  0
 39 43  1  0  0  0  0
 39 40  1  0  0  0  0
 40 41  2  0  0  0  0
 40 83  1  0  0  0  0
 41 42  1  0  0  0  0
 42 43  2  0  0  0  0
 42 84  1  0  0  0  0
 44 49  2  0  0  0  0
 44 45  1  0  0  0  0
 45 46  2  0  0  0  0
 45 85  1  0  0  0  0
 46 47  1  0  0  0  0
 46 86  1  0  0  0  0
 47 48  2  0  0  0  0
 47 51  1  0  0  0  0
 48 49  1  0  0  0  0
 48 87  1  0  0  0  0
 49 50  1  0  0  0  0
M  END
$$$$
