ZINC00622123
 OpenBabel08292219463D

 41 43  0  0  1  0  0  0  0  0999 V2000
   -0.0187    1.5258    0.0104 C   0  0  0  0  0  0  0  0  0  0  0  0
    0.0021   -0.0041    0.0020 C   0  0  2  0  0  0  0  0  0  0  0  0
    0.5120   -0.3575   -0.8942 H   0  0  0  0  0  0  0  0  0  0  0  0
   -1.4345   -0.5371    0.0193 C   0  0  0  0  0  0  0  0  0  0  0  0
   -2.0987   -0.1228    1.3067 C   0  0  0  0  0  0  0  0  0  0  0  0
   -3.3016    0.0448    1.3353 O   0  0  0  0  0  0  0  0  0  0  0  0
   -1.3435    0.0720    2.4722 C   0  0  0  0  0  0  0  0  0  0  0  0
   -0.0084   -0.0999    2.4855 C   0  0  0  0  0  0  0  0  0  0  0  0
    0.7357   -0.5134    1.2434 C   0  0  2  0  0  0  0  0  0  0  0  0
    2.1431    0.0380    1.2689 C   0  0  0  0  0  0  0  0  0  0  0  0
    2.4841    1.2018    1.3195 O   0  0  0  0  0  0  0  0  0  0  0  0
    3.0036   -1.1476    1.2192 C   0  0  0  0  0  0  0  0  0  0  0  0
    4.4025   -1.2898    1.2112 C   0  0  0  0  0  0  0  0  0  0  0  0
    4.9634   -2.5519    1.1578 C   0  0  0  0  0  0  0  0  0  0  0  0
    4.1444   -3.6735    1.1128 C   0  0  0  0  0  0  0  0  0  0  0  0
    2.7628   -3.5412    1.1209 C   0  0  0  0  0  0  0  0  0  0  0  0
    2.1770   -2.2833    1.1738 C   0  0  0  0  0  0  0  0  0  0  0  0
    0.8682   -1.9324    1.1905 O   0  0  0  0  0  0  0  0  0  0  0  0
    1.7606   -4.9576    1.0640 Cl  0  0  0  0  0  0  0  0  0  0  0  0
    4.7007   -4.9101    1.0601 O   0  0  0  0  0  0  0  0  0  0  0  0
    6.1280   -4.9796    1.0541 C   0  0  0  0  0  0  0  0  0  0  0  0
    5.1985   -0.1925    1.2552 O   0  0  0  0  0  0  0  0  0  0  0  0
    6.6102   -0.4142    1.2438 C   0  0  0  0  0  0  0  0  0  0  0  0
    0.6741    0.1024    3.6284 O   0  0  0  0  0  0  0  0  0  0  0  0
   -0.0828    0.4946    4.7753 C   0  0  0  0  0  0  0  0  0  0  0  0
    1.0039    1.9031    0.0027 H   0  0  0  0  0  0  0  0  0  0  0  0
   -0.5459    1.8868   -0.8726 H   0  0  0  0  0  0  0  0  0  0  0  0
   -0.5289    1.8773    0.9072 H   0  0  0  0  0  0  0  0  0  0  0  0
   -1.9866   -0.1243   -0.8249 H   0  0  0  0  0  0  0  0  0  0  0  0
   -1.4204   -1.6248   -0.0499 H   0  0  0  0  0  0  0  0  0  0  0  0
   -1.8455    0.3669    3.3818 H   0  0  0  0  0  0  0  0  0  0  0  0
    6.0373   -2.6662    1.1507 H   0  0  0  0  0  0  0  0  0  0  0  0
    6.4408   -6.0228    1.0099 H   0  0  0  0  0  0  0  0  0  0  0  0
    6.5140   -4.4474    0.1846 H   0  0  0  0  0  0  0  0  0  0  0  0
    6.5179   -4.5216    1.9630 H   0  0  0  0  0  0  0  0  0  0  0  0
    6.8907   -1.0144    2.1094 H   0  0  0  0  0  0  0  0  0  0  0  0
    6.8879   -0.9410    0.3309 H   0  0  0  0  0  0  0  0  0  0  0  0
    7.1287    0.5438    1.2825 H   0  0  0  0  0  0  0  0  0  0  0  0
    0.5867    0.6239    5.6257 H   0  0  0  0  0  0  0  0  0  0  0  0
   -0.5939    1.4350    4.5691 H   0  0  0  0  0  0  0  0  0  0  0  0
   -0.8185   -0.2759    5.0059 H   0  0  0  0  0  0  0  0  0  0  0  0
  1  2  1  0  0  0  0
  1 26  1  0  0  0  0
  1 27  1  0  0  0  0
  1 28  1  0  0  0  0
  2  3  1  6  0  0  0
  2  9  1  0  0  0  0
  2  4  1  0  0  0  0
  4  5  1  0  0  0  0
  4 29  1  0  0  0  0
  4 30  1  0  0  0  0
  5  6  2  0  0  0  0
  5  7  1  0  0  0  0
  7  8  2  0  0  0  0
  7 31  1  0  0  0  0
  8 24  1  0  0  0  0
  9  8  1  1  0  0  0
  9 18  1  0  0  0  0
  9 10  1  0  0  0  0
 10 11  2  0  0  0  0
 10 12  1  0  0  0  0
 12 17  2  0  0  0  0
 12 13  1  0  0  0  0
 13 14  2  0  0  0  0
 13 22  1  0  0  0  0
 14 15  1  0  0  0  0
 14 32  1  0  0  0  0
 15 16  2  0  0  0  0
 15 20  1  0  0  0  0
 16 17  1  0  0  0  0
 16 19  1  0  0  0  0
 17 18  1  0  0  0  0
 20 21  1  0  0  0  0
 21 33  1  0  0  0  0
 21 34  1  0  0  0  0
 21 35  1  0  0  0  0
 22 23  1  0  0  0  0
 23 36  1  0  0  0  0
 23 37  1  0  0  0  0
 23 38  1  0  0  0  0
 24 25  1  0  0  0  0
 25 39  1  0  0  0  0
 25 40  1  0  0  0  0
 25 41  1  0  0  0  0
M  END
$$$$
