ZINC22446966
 OpenBabel08292219463D

 64 64  0  0  1  0  0  0  0  0999 V2000
   -1.9757    7.4777   -0.6343 C   0  0  0  0  0  0  0  0  0  0  0  0
   -1.2842    7.0242    0.6529 C   0  0  0  0  0  0  0  0  0  0  0  0
   -0.2440    6.0388    0.3290 N   0  3  1  0  0  0  0  0  0  0  0  0
   -0.4090    4.8172    1.1281 C   0  0  0  0  0  0  0  0  0  0  0  0
   -0.3596    3.5956    0.2083 C   0  0  0  0  0  0  0  0  0  0  0  0
   -1.5861    2.8051    0.3778 N   0  0  0  0  0  0  0  0  0  0  0  0
   -2.2676    2.6083   -0.9086 C   0  0  0  0  0  0  0  0  0  0  0  0
   -3.7309    3.0366   -0.7812 C   0  0  0  0  0  0  0  0  0  0  0  0
   -4.0488    4.0124   -1.8323 N   0  3  1  0  0  0  0  0  0  0  0  0
   -4.6638    5.2186   -1.2622 C   0  0  0  0  0  0  0  0  0  0  0  0
   -3.8832    6.4531   -1.7180 C   0  0  0  0  0  0  0  0  0  0  0  0
   -3.4149    7.1981   -0.5417 N   0  0  0  0  0  0  0  0  0  0  0  0
   -4.1818    8.4384   -0.3645 C   0  0  0  0  0  0  0  0  0  0  0  0
   -5.6119    8.1012   -0.0293 C   0  0  0  0  0  0  0  0  0  0  0  0
   -5.9568    6.9462    0.0535 O   0  0  0  0  0  0  0  0  0  0  0  0
   -6.5024    9.0841    0.1773 O   0  0  0  0  0  1  0  0  0  0  0  0
   -2.8529    4.3511   -2.6153 C   0  0  0  0  0  0  0  0  0  0  0  0
   -3.2609    5.1053   -3.8546 C   0  0  0  0  0  0  0  0  0  0  0  0
   -4.4281    5.3370   -4.0639 O   0  0  0  0  0  0  0  0  0  0  0  0
   -2.3276    5.5197   -4.7257 O   0  0  0  0  0  1  0  0  0  0  0  0
   -1.2974    1.5173    1.0230 C   0  0  2  0  0  0  0  0  0  0  0  0
   -0.3935    1.1088    0.5475 H   0  0  0  0  0  0  0  0  0  0  0  0
   -2.4830    0.5706    0.8251 C   0  0  0  0  0  0  0  0  0  0  0  0
   -3.6024    1.0459    1.5755 O   0  0  0  0  0  0  0  0  0  0  0  0
   -1.0646    1.7372    2.5191 C   0  0  1  0  0  0  0  0  0  0  0  0
   -1.1730    0.7983    3.0819 H   0  0  0  0  0  0  0  0  0  0  0  0
    0.3177    2.3567    2.7344 C   0  0  0  0  0  0  0  0  0  0  0  0
    0.6379    2.3347    4.1269 O   0  0  0  0  0  0  0  0  0  0  0  0
   -2.0663    2.6175    3.0327 O   0  0  0  0  0  0  0  0  0  0  0  0
   -0.2390    5.7315   -1.1075 C   0  0  0  0  0  0  0  0  0  0  0  0
    1.0390    5.0168   -1.4638 C   0  0  0  0  0  0  0  0  0  0  0  0
    1.8612    4.7870   -0.6089 O   0  0  0  0  0  0  0  0  0  0  0  0
    1.2638    4.6355   -2.7310 O   0  0  0  0  0  1  0  0  0  0  0  0
   -1.5507    6.9330   -1.4903 H   0  0  0  0  0  0  0  0  0  0  0  0
   -1.8202    8.5578   -0.7731 H   0  0  0  0  0  0  0  0  0  0  0  0
   -0.8252    7.8926    1.1480 H   0  0  0  0  0  0  0  0  0  0  0  0
   -2.0250    6.5676    1.3258 H   0  0  0  0  0  0  0  0  0  0  0  0
    0.4015    4.7514    1.8689 H   0  0  0  0  0  0  0  0  0  0  0  0
   -1.3785    4.8466    1.6469 H   0  0  0  0  0  0  0  0  0  0  0  0
   -0.2786    3.9271   -0.8374 H   0  0  0  0  0  0  0  0  0  0  0  0
    0.5133    2.9778    0.4658 H   0  0  0  0  0  0  0  0  0  0  0  0
   -1.7738    3.2153   -1.6817 H   0  0  0  0  0  0  0  0  0  0  0  0
   -2.2196    1.5461   -1.1903 H   0  0  0  0  0  0  0  0  0  0  0  0
   -4.3814    2.1562   -0.8894 H   0  0  0  0  0  0  0  0  0  0  0  0
   -3.8944    3.4943    0.2056 H   0  0  0  0  0  0  0  0  0  0  0  0
   -5.7059    5.2962   -1.6057 H   0  0  0  0  0  0  0  0  0  0  0  0
   -4.6434    5.1566   -0.1641 H   0  0  0  0  0  0  0  0  0  0  0  0
   -3.0186    6.1383   -2.3208 H   0  0  0  0  0  0  0  0  0  0  0  0
   -4.5373    7.0975   -2.3237 H   0  0  0  0  0  0  0  0  0  0  0  0
   -3.7424    9.0274    0.4540 H   0  0  0  0  0  0  0  0  0  0  0  0
   -4.1516    9.0243   -1.2950 H   0  0  0  0  0  0  0  0  0  0  0  0
   -2.1828    4.9779   -2.0086 H   0  0  0  0  0  0  0  0  0  0  0  0
   -2.3297    3.4275   -2.9037 H   0  0  0  0  0  0  0  0  0  0  0  0
   -2.7468    0.5315   -0.2421 H   0  0  0  0  0  0  0  0  0  0  0  0
   -2.2098   -0.4368    1.1724 H   0  0  0  0  0  0  0  0  0  0  0  0
   -4.5524    0.4917    1.5568 H   0  0  0  0  0  0  0  0  0  0  0  0
    1.0693    1.7792    2.1762 H   0  0  0  0  0  0  0  0  0  0  0  0
    0.3135    3.3965    2.3755 H   0  0  0  0  0  0  0  0  0  0  0  0
    1.5985    2.7405    4.4768 H   0  0  0  0  0  0  0  0  0  0  0  0
   -2.0620    2.8941    4.0974 H   0  0  0  0  0  0  0  0  0  0  0  0
   -1.0982    5.0881   -1.3478 H   0  0  0  0  0  0  0  0  0  0  0  0
   -0.3089    6.6665   -1.6827 H   0  0  0  0  0  0  0  0  0  0  0  0
   -4.7788    3.5502   -2.5131 H   0  0  0  0  0  0  0  0  0  0  0  0
    0.7308    6.4802    0.5836 H   0  0  0  0  0  0  0  0  0  0  0  0
  1 12  1  0  0  0  0
  1  2  1  0  0  0  0
  1 34  1  0  0  0  0
  1 35  1  0  0  0  0
  2  3  1  0  0  0  0
  2 36  1  0  0  0  0
  2 37  1  0  0  0  0
  3  4  1  0  0  0  0
  3 30  1  0  0  0  0
  3 64  1  1  0  0  0
  4  5  1  0  0  0  0
  4 38  1  0  0  0  0
  4 39  1  0  0  0  0
  5  6  1  0  0  0  0
  5 40  1  0  0  0  0
  5 41  1  0  0  0  0
  6  7  1  0  0  0  0
  6 21  1  0  0  0  0
  7  8  1  0  0  0  0
  7 42  1  0  0  0  0
  7 43  1  0  0  0  0
  8  9  1  0  0  0  0
  8 44  1  0  0  0  0
  8 45  1  0  0  0  0
  9 10  1  0  0  0  0
  9 17  1  0  0  0  0
  9 63  1  6  0  0  0
 10 11  1  0  0  0  0
 10 46  1  0  0  0  0
 10 47  1  0  0  0  0
 11 12  1  0  0  0  0
 11 48  1  0  0  0  0
 11 49  1  0  0  0  0
 12 13  1  0  0  0  0
 13 14  1  0  0  0  0
 13 50  1  0  0  0  0
 13 51  1  0  0  0  0
 14 15  2  0  0  0  0
 14 16  1  0  0  0  0
 17 18  1  0  0  0  0
 17 52  1  0  0  0  0
 17 53  1  0  0  0  0
 18 19  2  0  0  0  0
 18 20  1  0  0  0  0
 21 22  1  6  0  0  0
 21 23  1  0  0  0  0
 21 25  1  0  0  0  0
 23 24  1  0  0  0  0
 23 54  1  0  0  0  0
 23 55  1  0  0  0  0
 24 56  1  0  0  0  0
 25 26  1  1  0  0  0
 25 27  1  0  0  0  0
 25 29  1  0  0  0  0
 27 28  1  0  0  0  0
 27 57  1  0  0  0  0
 27 58  1  0  0  0  0
 28 59  1  0  0  0  0
 29 60  1  0  0  0  0
 30 31  1  0  0  0  0
 30 61  1  0  0  0  0
 30 62  1  0  0  0  0
 31 32  2  0  0  0  0
 31 33  1  0  0  0  0
M  CHG  2   3   1   9   1
M  END
$$$$
