ZINC13454202
 OpenBabel08292219463D

 52 53  0  0  1  0  0  0  0  0999 V2000
   -0.9011    1.3558    0.7956 C   0  0  0  0  0  0  0  0  0  0  0  0
   -0.5910   -0.0972    0.4304 C   0  0  0  0  0  0  0  0  0  0  0  0
    0.2183   -0.7444    1.5560 C   0  0  0  0  0  0  0  0  0  0  0  0
    0.5284   -2.1975    1.1908 C   0  0  0  0  0  0  0  0  0  0  0  0
    1.4421   -2.2313   -0.0359 C   0  0  0  0  0  0  0  0  0  0  0  0
    1.6494   -3.6813   -0.4777 C   0  0  0  0  0  0  0  0  0  0  0  0
    2.4782   -3.7092   -1.7634 C   0  0  0  0  0  0  0  0  0  0  0  0
    1.2179   -2.8705    2.3495 C   0  0  0  0  0  0  0  0  0  0  0  0
    1.7192   -2.2042    3.2240 O   0  0  0  0  0  0  0  0  0  0  0  0
    1.2752   -4.2102    2.4102 O   0  0  0  0  0  0  0  0  0  0  0  0
    1.8531   -4.7823    3.5853 C   0  0  1  0  0  0  0  0  0  0  0  0
    0.7385   -5.2648    4.5180 C   0  0  0  0  0  0  0  0  0  0  0  0
   -0.0068   -6.4274    3.8431 C   0  0  1  0  0  0  0  0  0  0  0  0
   -0.8954   -6.7240    4.4003 H   0  0  0  0  0  0  0  0  0  0  0  0
   -0.3404   -5.9985    2.3957 C   0  0  0  0  0  0  0  0  0  0  0  0
    0.8906   -6.4181    1.5655 C   0  0  0  0  0  0  0  0  0  0  0  0
    1.8560   -7.0625    2.5867 C   0  0  1  0  0  0  0  0  0  0  0  0
    2.4404   -7.8713    2.1479 H   0  0  0  0  0  0  0  0  0  0  0  0
    2.7448   -5.9633    3.1912 C   0  0  0  0  0  0  0  0  0  0  0  0
    0.9629   -7.5450    3.6938 N   0  3  0  0  0  0  0  0  0  0  0  0
    1.7164   -7.7459    4.9388 C   0  0  0  0  0  0  0  0  0  0  0  0
    0.2721   -8.7800    3.2994 C   0  0  0  0  0  0  0  0  0  0  0  0
    0.0317    1.9028    0.9333 H   0  0  0  0  0  0  0  0  0  0  0  0
   -1.4777    1.8169   -0.0062 H   0  0  0  0  0  0  0  0  0  0  0  0
   -1.4780    1.3830    1.7200 H   0  0  0  0  0  0  0  0  0  0  0  0
   -1.5238   -0.6442    0.2928 H   0  0  0  0  0  0  0  0  0  0  0  0
   -0.0141   -0.1244   -0.4939 H   0  0  0  0  0  0  0  0  0  0  0  0
    1.1511   -0.1975    1.6937 H   0  0  0  0  0  0  0  0  0  0  0  0
   -0.3586   -0.7173    2.4804 H   0  0  0  0  0  0  0  0  0  0  0  0
   -0.4005   -2.7219    0.9665 H   0  0  0  0  0  0  0  0  0  0  0  0
    0.9825   -1.6665   -0.8470 H   0  0  0  0  0  0  0  0  0  0  0  0
    2.4051   -1.7870    0.2161 H   0  0  0  0  0  0  0  0  0  0  0  0
    2.1750   -4.2281    0.3053 H   0  0  0  0  0  0  0  0  0  0  0  0
    0.6812   -4.1478   -0.6593 H   0  0  0  0  0  0  0  0  0  0  0  0
    2.6259   -4.7423   -2.0782 H   0  0  0  0  0  0  0  0  0  0  0  0
    1.9527   -3.1625   -2.5464 H   0  0  0  0  0  0  0  0  0  0  0  0
    3.4465   -3.2428   -1.5818 H   0  0  0  0  0  0  0  0  0  0  0  0
    2.4531   -4.0301    4.0973 H   0  0  0  0  0  0  0  0  0  0  0  0
    1.1715   -5.6056    5.4585 H   0  0  0  0  0  0  0  0  0  0  0  0
    0.0432   -4.4474    4.7093 H   0  0  0  0  0  0  0  0  0  0  0  0
   -1.2313   -6.5175    2.0421 H   0  0  0  0  0  0  0  0  0  0  0  0
   -0.4832   -4.9191    2.3433 H   0  0  0  0  0  0  0  0  0  0  0  0
    0.6049   -7.1433    0.8036 H   0  0  0  0  0  0  0  0  0  0  0  0
    1.3530   -5.5451    1.1050 H   0  0  0  0  0  0  0  0  0  0  0  0
    3.4691   -5.6404    2.4435 H   0  0  0  0  0  0  0  0  0  0  0  0
    3.2679   -6.3356    4.0720 H   0  0  0  0  0  0  0  0  0  0  0  0
    1.0336   -8.0522    5.7313 H   0  0  0  0  0  0  0  0  0  0  0  0
    2.4682   -8.5204    4.7875 H   0  0  0  0  0  0  0  0  0  0  0  0
    2.2064   -6.8141    5.2213 H   0  0  0  0  0  0  0  0  0  0  0  0
   -0.2361   -8.6240    2.3478 H   0  0  0  0  0  0  0  0  0  0  0  0
    0.9989   -9.5856    3.1954 H   0  0  0  0  0  0  0  0  0  0  0  0
   -0.4593   -9.0467    4.0624 H   0  0  0  0  0  0  0  0  0  0  0  0
  1  2  1  0  0  0  0
  1 23  1  0  0  0  0
  1 24  1  0  0  0  0
  1 25  1  0  0  0  0
  2  3  1  0  0  0  0
  2 26  1  0  0  0  0
  2 27  1  0  0  0  0
  3  4  1  0  0  0  0
  3 28  1  0  0  0  0
  3 29  1  0  0  0  0
  4  5  1  0  0  0  0
  4  8  1  0  0  0  0
  4 30  1  0  0  0  0
  5  6  1  0  0  0  0
  5 31  1  0  0  0  0
  5 32  1  0  0  0  0
  6  7  1  0  0  0  0
  6 33  1  0  0  0  0
  6 34  1  0  0  0  0
  7 35  1  0  0  0  0
  7 36  1  0  0  0  0
  7 37  1  0  0  0  0
  8  9  2  0  0  0  0
  8 10  1  0  0  0  0
 10 11  1  0  0  0  0
 11 19  1  0  0  0  0
 11 12  1  0  0  0  0
 11 38  1  1  0  0  0
 12 13  1  0  0  0  0
 12 39  1  0  0  0  0
 12 40  1  0  0  0  0
 13 14  1  1  0  0  0
 13 20  1  0  0  0  0
 13 15  1  0  0  0  0
 15 16  1  0  0  0  0
 15 41  1  0  0  0  0
 15 42  1  0  0  0  0
 16 17  1  0  0  0  0
 16 43  1  0  0  0  0
 16 44  1  0  0  0  0
 17 18  1  6  0  0  0
 17 19  1  0  0  0  0
 17 20  1  0  0  0  0
 19 45  1  0  0  0  0
 19 46  1  0  0  0  0
 20 21  1  0  0  0  0
 20 22  1  0  0  0  0
 21 47  1  0  0  0  0
 21 48  1  0  0  0  0
 21 49  1  0  0  0  0
 22 50  1  0  0  0  0
 22 51  1  0  0  0  0
 22 52  1  0  0  0  0
M  CHG  1  20   1
M  END
$$$$
