ZINC00001290
 OpenBabel08292219463D

 40 41  0  0  0  0  0  0  0  0999 V2000
   -0.9774   -1.9680   -0.2509 C   0  0  0  0  0  0  0  0  0  0  0  0
   -0.3264   -0.5851   -0.3194 C   0  0  0  0  0  0  0  0  0  0  0  0
    0.7431   -0.5855   -1.3812 C   0  0  0  0  0  0  0  0  0  0  0  0
    2.0213   -0.8257   -1.0467 C   0  0  0  0  0  0  0  0  0  0  0  0
    3.0672   -0.9702   -2.1220 C   0  0  0  0  0  0  0  0  0  0  0  0
    3.2323   -2.4492   -2.4774 C   0  0  0  0  0  0  0  0  0  0  0  0
    2.4012   -0.9479    0.3717 C   0  0  0  0  0  0  0  0  0  0  0  0
    2.3805    0.1760    1.2024 C   0  0  0  0  0  0  0  0  0  0  0  0
    2.7367    0.0567    2.5283 C   0  0  0  0  0  0  0  0  0  0  0  0
    3.1158   -1.1779    3.0394 C   0  0  0  0  0  0  0  0  0  0  0  0
    3.1380   -2.2975    2.2179 C   0  0  0  0  0  0  0  0  0  0  0  0
    2.7780   -2.1893    0.8921 C   0  0  0  0  0  0  0  0  0  0  0  0
    3.4666   -1.2905    4.3472 O   0  0  0  0  0  0  0  0  0  0  0  0
    0.3862   -0.3222   -2.7864 C   0  0  0  0  0  0  0  0  0  0  0  0
    0.8071    0.8571   -3.4075 C   0  0  0  0  0  0  0  0  0  0  0  0
    0.4709    1.0988   -4.7219 C   0  0  0  0  0  0  0  0  0  0  0  0
   -0.2851    0.1729   -5.4292 C   0  0  0  0  0  0  0  0  0  0  0  0
   -0.7057   -1.0004   -4.8163 C   0  0  0  0  0  0  0  0  0  0  0  0
   -0.3695   -1.2537   -3.5041 C   0  0  0  0  0  0  0  0  0  0  0  0
   -0.6145    0.4158   -6.7247 O   0  0  0  0  0  0  0  0  0  0  0  0
   -1.5127   -2.1640   -1.1799 H   0  0  0  0  0  0  0  0  0  0  0  0
   -0.2069   -2.7257   -0.1087 H   0  0  0  0  0  0  0  0  0  0  0  0
   -1.6765   -1.9994    0.5848 H   0  0  0  0  0  0  0  0  0  0  0  0
   -1.0823    0.1606   -0.5654 H   0  0  0  0  0  0  0  0  0  0  0  0
    0.1199   -0.3454    0.6457 H   0  0  0  0  0  0  0  0  0  0  0  0
    2.7565   -0.4162   -3.0078 H   0  0  0  0  0  0  0  0  0  0  0  0
    4.0167   -0.5751   -1.7609 H   0  0  0  0  0  0  0  0  0  0  0  0
    3.9859   -2.5533   -3.2580 H   0  0  0  0  0  0  0  0  0  0  0  0
    3.5469   -3.0025   -1.5926 H   0  0  0  0  0  0  0  0  0  0  0  0
    2.2818   -2.8453   -2.8348 H   0  0  0  0  0  0  0  0  0  0  0  0
    2.0861    1.1364    0.8058 H   0  0  0  0  0  0  0  0  0  0  0  0
    2.7213    0.9246    3.1708 H   0  0  0  0  0  0  0  0  0  0  0  0
    3.4339   -3.2553    2.6197 H   0  0  0  0  0  0  0  0  0  0  0  0
    2.7912   -3.0614    0.2551 H   0  0  0  0  0  0  0  0  0  0  0  0
    2.7274   -1.4940    4.9365 H   0  0  0  0  0  0  0  0  0  0  0  0
    1.3947    1.5778   -2.8582 H   0  0  0  0  0  0  0  0  0  0  0  0
    0.7953    2.0099   -5.2026 H   0  0  0  0  0  0  0  0  0  0  0  0
   -1.2936   -1.7172   -5.3703 H   0  0  0  0  0  0  0  0  0  0  0  0
   -0.6932   -2.1683   -3.0297 H   0  0  0  0  0  0  0  0  0  0  0  0
    0.0306    0.0832   -7.3637 H   0  0  0  0  0  0  0  0  0  0  0  0
  1  2  1  0  0  0  0
  1 21  1  0  0  0  0
  1 22  1  0  0  0  0
  1 23  1  0  0  0  0
  2  3  1  0  0  0  0
  2 24  1  0  0  0  0
  2 25  1  0  0  0  0
  3  4  2  0  0  0  0
  3 14  1  0  0  0  0
  4  5  1  0  0  0  0
  4  7  1  0  0  0  0
  5  6  1  0  0  0  0
  5 26  1  0  0  0  0
  5 27  1  0  0  0  0
  6 28  1  0  0  0  0
  6 29  1  0  0  0  0
  6 30  1  0  0  0  0
  7 12  2  0  0  0  0
  7  8  1  0  0  0  0
  8  9  2  0  0  0  0
  8 31  1  0  0  0  0
  9 10  1  0  0  0  0
  9 32  1  0  0  0  0
 10 11  2  0  0  0  0
 10 13  1  0  0  0  0
 11 12  1  0  0  0  0
 11 33  1  0  0  0  0
 12 34  1  0  0  0  0
 13 35  1  0  0  0  0
 14 19  2  0  0  0  0
 14 15  1  0  0  0  0
 15 16  2  0  0  0  0
 15 36  1  0  0  0  0
 16 17  1  0  0  0  0
 16 37  1  0  0  0  0
 17 18  2  0  0  0  0
 17 20  1  0  0  0  0
 18 19  1  0  0  0  0
 18 38  1  0  0  0  0
 19 39  1  0  0  0  0
 20 40  1  0  0  0  0
M  END
$$$$
