ZINC12503087
 OpenBabel08292219463D

 38 38  0  0  1  0  0  0  0  0999 V2000
    1.9637    1.6088   -1.7614 C   0  0  0  0  0  0  0  0  0  0  0  0
    2.0906    0.0945   -1.5839 C   0  0  0  0  0  0  0  0  0  0  0  0
    0.7182   -0.4975   -1.2568 C   0  0  2  0  0  0  0  0  0  0  0  0
    0.0046   -0.2086   -2.0284 H   0  0  0  0  0  0  0  0  0  0  0  0
    0.2450    0.0307    0.0989 C   0  0  0  0  0  0  0  0  0  0  0  0
    0.8207   -2.0231   -1.2022 C   0  0  0  0  0  0  0  0  0  0  0  0
   -0.5862   -2.5901   -1.1792 C   0  0  0  0  0  0  0  0  0  0  0  0
   -1.3751   -2.3508   -2.0680 O   0  0  0  0  0  0  0  0  0  0  0  0
   -0.9269   -3.3715   -0.1324 N   0  0  0  0  0  0  0  0  0  0  0  0
   -0.0684   -3.6444    0.8568 C   0  0  0  0  0  0  0  0  0  0  0  0
   -0.4586   -4.3563    1.7606 O   0  0  0  0  0  0  0  0  0  0  0  0
    1.1886   -3.1910    0.9232 N   0  0  0  0  0  0  0  0  0  0  0  0
    1.7126   -2.3948   -0.0328 C   0  0  0  0  0  0  0  0  0  0  0  0
    2.8537   -1.9920    0.0404 O   0  0  0  0  0  0  0  0  0  0  0  0
    2.0214   -3.5702    2.0672 C   0  0  0  0  0  0  0  0  0  0  0  0
   -2.2773   -3.9367   -0.0774 C   0  0  0  0  0  0  0  0  0  0  0  0
    1.4997   -2.4976   -2.4885 C   0  0  0  0  0  0  0  0  0  0  0  0
    1.6178   -3.9999   -2.4695 C   0  0  0  0  0  0  0  0  0  0  0  0
    1.1275   -4.7080   -3.4565 C   0  0  0  0  0  0  0  0  0  0  0  0
    1.2722    1.8224   -2.5765 H   0  0  0  0  0  0  0  0  0  0  0  0
    1.5870    2.0524   -0.8397 H   0  0  0  0  0  0  0  0  0  0  0  0
    2.9414    2.0305   -1.9945 H   0  0  0  0  0  0  0  0  0  0  0  0
    2.4673   -0.3491   -2.5056 H   0  0  0  0  0  0  0  0  0  0  0  0
    2.7821   -0.1192   -0.7689 H   0  0  0  0  0  0  0  0  0  0  0  0
    0.0683    1.1040    0.0292 H   0  0  0  0  0  0  0  0  0  0  0  0
   -0.6797   -0.4721    0.3821 H   0  0  0  0  0  0  0  0  0  0  0  0
    1.0093   -0.1635    0.8514 H   0  0  0  0  0  0  0  0  0  0  0  0
    1.9020   -2.8350    2.8631 H   0  0  0  0  0  0  0  0  0  0  0  0
    1.7152   -4.5514    2.4301 H   0  0  0  0  0  0  0  0  0  0  0  0
    3.0665   -3.6064    1.7598 H   0  0  0  0  0  0  0  0  0  0  0  0
   -2.3836   -4.5365    0.8265 H   0  0  0  0  0  0  0  0  0  0  0  0
   -3.0091   -3.1289   -0.0656 H   0  0  0  0  0  0  0  0  0  0  0  0
   -2.4441   -4.5652   -0.9522 H   0  0  0  0  0  0  0  0  0  0  0  0
    0.9041   -2.1909   -3.3483 H   0  0  0  0  0  0  0  0  0  0  0  0
    2.4937   -2.0559   -2.5589 H   0  0  0  0  0  0  0  0  0  0  0  0
    2.1067   -4.4926   -1.6421 H   0  0  0  0  0  0  0  0  0  0  0  0
    0.6387   -4.2152   -4.2839 H   0  0  0  0  0  0  0  0  0  0  0  0
    1.2122   -5.7846   -3.4429 H   0  0  0  0  0  0  0  0  0  0  0  0
  1  2  1  0  0  0  0
  1 20  1  0  0  0  0
  1 21  1  0  0  0  0
  1 22  1  0  0  0  0
  2  3  1  0  0  0  0
  2 23  1  0  0  0  0
  2 24  1  0  0  0  0
  3  4  1  6  0  0  0
  3  5  1  0  0  0  0
  3  6  1  0  0  0  0
  5 25  1  0  0  0  0
  5 26  1  0  0  0  0
  5 27  1  0  0  0  0
  6 13  1  0  0  0  0
  6  7  1  0  0  0  0
  6 17  1  0  0  0  0
  7  8  2  0  0  0  0
  7  9  1  0  0  0  0
  9 10  1  0  0  0  0
  9 16  1  0  0  0  0
 10 11  2  0  0  0  0
 10 12  1  0  0  0  0
 12 13  1  0  0  0  0
 12 15  1  0  0  0  0
 13 14  2  0  0  0  0
 15 28  1  0  0  0  0
 15 29  1  0  0  0  0
 15 30  1  0  0  0  0
 16 31  1  0  0  0  0
 16 32  1  0  0  0  0
 16 33  1  0  0  0  0
 17 18  1  0  0  0  0
 17 34  1  0  0  0  0
 17 35  1  0  0  0  0
 18 19  2  0  0  0  0
 18 36  1  0  0  0  0
 19 37  1  0  0  0  0
 19 38  1  0  0  0  0
M  END
$$$$
