ZINC21297660
 OpenBabel08292219463D

 62 64  0  0  0  0  0  0  0  0999 V2000
    0.1770   -8.1936   -0.4318 C   0  0  0  0  0  0  0  0  0  0  0  0
    0.0066   -7.5328    0.9118 C   0  0  0  0  0  0  0  0  0  0  0  0
   -0.3048   -8.2886    2.0125 C   0  0  0  0  0  0  0  0  0  0  0  0
   -0.4651   -7.6827    3.2653 C   0  0  0  0  0  0  0  0  0  0  0  0
   -0.3049   -6.2944    3.3868 C   0  0  0  0  0  0  0  0  0  0  0  0
    0.0092   -5.5403    2.2690 C   0  0  0  0  0  0  0  0  0  0  0  0
    0.1713   -6.1549    1.0358 C   0  0  0  0  0  0  0  0  0  0  0  0
    0.4850   -5.4106   -0.0546 O   0  0  0  0  0  0  0  0  0  0  0  0
   -0.6038   -4.8851   -0.8165 C   0  0  0  0  0  0  0  0  0  0  0  0
    0.1825   -4.0485    2.3935 C   0  0  0  0  0  0  0  0  0  0  0  0
    1.6240   -3.7341    2.7005 C   0  0  0  0  0  0  0  0  0  0  0  0
    1.9289   -3.0269    3.7602 C   0  0  0  0  0  0  0  0  0  0  0  0
    0.8355   -2.4201    4.6012 C   0  0  0  0  0  0  0  0  0  0  0  0
    3.3730   -2.8201    4.1382 C   0  0  0  0  0  0  0  0  0  0  0  0
    3.8665   -1.4924    3.5600 C   0  0  0  0  0  0  0  0  0  0  0  0
    5.3106   -1.2856    3.9380 C   0  0  0  0  0  0  0  0  0  0  0  0
    5.8860   -2.1151    4.6018 O   0  0  0  0  0  0  0  0  0  0  0  0
    5.9575   -0.1799    3.5372 O   0  0  0  0  0  0  0  0  0  0  0  0
    7.3247   -0.0493    3.9318 C   0  0  0  0  0  0  0  0  0  0  0  0
    7.8898    1.2637    3.3864 C   0  0  0  0  0  0  0  0  0  0  0  0
    7.2130    2.3949    4.0346 N   0  0  0  0  0  0  0  0  0  0  0  0
    7.3887    3.6300    3.2568 C   0  0  0  0  0  0  0  0  0  0  0  0
    6.6198    4.7672    3.9346 C   0  0  0  0  0  0  0  0  0  0  0  0
    7.0757    4.9070    5.2829 O   0  0  0  0  0  0  0  0  0  0  0  0
    6.9189    3.7228    6.0693 C   0  0  0  0  0  0  0  0  0  0  0  0
    7.6908    2.5750    5.4132 C   0  0  0  0  0  0  0  0  0  0  0  0
   -0.4574   -5.6936    4.5934 O   0  0  0  0  0  0  0  0  0  0  0  0
   -0.7907   -8.7385    4.2326 C   0  0  0  0  0  0  0  0  0  0  0  0
   -0.9946   -8.5586    5.4172 O   0  0  0  0  0  0  0  0  0  0  0  0
   -0.8308   -9.9327    3.6173 O   0  0  0  0  0  0  0  0  0  0  0  0
   -0.5413   -9.7622    2.2271 C   0  0  0  0  0  0  0  0  0  0  0  0
    1.2179   -8.4899   -0.5616 H   0  0  0  0  0  0  0  0  0  0  0  0
   -0.4613   -9.0755   -0.4865 H   0  0  0  0  0  0  0  0  0  0  0  0
   -0.1023   -7.4935   -1.2191 H   0  0  0  0  0  0  0  0  0  0  0  0
   -1.2165   -5.7061   -1.1888 H   0  0  0  0  0  0  0  0  0  0  0  0
   -1.2103   -4.2369   -0.1841 H   0  0  0  0  0  0  0  0  0  0  0  0
   -0.2150   -4.3114   -1.6579 H   0  0  0  0  0  0  0  0  0  0  0  0
   -0.1021   -3.5702    1.4564 H   0  0  0  0  0  0  0  0  0  0  0  0
   -0.4502   -3.6752    3.1988 H   0  0  0  0  0  0  0  0  0  0  0  0
    2.4058   -4.0919    2.0468 H   0  0  0  0  0  0  0  0  0  0  0  0
    0.4774   -3.1580    5.3191 H   0  0  0  0  0  0  0  0  0  0  0  0
    1.2262   -1.5537    5.1350 H   0  0  0  0  0  0  0  0  0  0  0  0
    0.0122   -2.1096    3.9579 H   0  0  0  0  0  0  0  0  0  0  0  0
    3.4650   -2.8001    5.2242 H   0  0  0  0  0  0  0  0  0  0  0  0
    3.9739   -3.6366    3.7377 H   0  0  0  0  0  0  0  0  0  0  0  0
    3.7745   -1.5125    2.4740 H   0  0  0  0  0  0  0  0  0  0  0  0
    3.2656   -0.6759    3.9605 H   0  0  0  0  0  0  0  0  0  0  0  0
    7.3905   -0.0490    5.0199 H   0  0  0  0  0  0  0  0  0  0  0  0
    7.8994   -0.8855    3.5334 H   0  0  0  0  0  0  0  0  0  0  0  0
    8.9589    1.3130    3.5933 H   0  0  0  0  0  0  0  0  0  0  0  0
    7.7256    1.3105    2.3098 H   0  0  0  0  0  0  0  0  0  0  0  0
    8.4478    3.8835    3.2108 H   0  0  0  0  0  0  0  0  0  0  0  0
    7.0049    3.4821    2.2474 H   0  0  0  0  0  0  0  0  0  0  0  0
    6.7936    5.6973    3.3933 H   0  0  0  0  0  0  0  0  0  0  0  0
    5.5542    4.5379    3.9326 H   0  0  0  0  0  0  0  0  0  0  0  0
    7.3091    3.8975    7.0720 H   0  0  0  0  0  0  0  0  0  0  0  0
    5.8620    3.4631    6.1294 H   0  0  0  0  0  0  0  0  0  0  0  0
    7.5276    1.6570    5.9778 H   0  0  0  0  0  0  0  0  0  0  0  0
    8.7548    2.8116    5.4016 H   0  0  0  0  0  0  0  0  0  0  0  0
    0.3587   -5.6332    5.1086 H   0  0  0  0  0  0  0  0  0  0  0  0
   -1.3872  -10.0959    1.6261 H   0  0  0  0  0  0  0  0  0  0  0  0
    0.3524  -10.3264    1.9601 H   0  0  0  0  0  0  0  0  0  0  0  0
  1  2  1  0  0  0  0
  1 32  1  0  0  0  0
  1 33  1  0  0  0  0
  1 34  1  0  0  0  0
  2  7  2  0  0  0  0
  2  3  1  0  0  0  0
  3 31  1  0  0  0  0
  3  4  2  0  0  0  0
  4  5  1  0  0  0  0
  4 28  1  0  0  0  0
  5  6  2  0  0  0  0
  5 27  1  0  0  0  0
  6  7  1  0  0  0  0
  6 10  1  0  0  0  0
  7  8  1  0  0  0  0
  8  9  1  0  0  0  0
  9 35  1  0  0  0  0
  9 36  1  0  0  0  0
  9 37  1  0  0  0  0
 10 11  1  0  0  0  0
 10 38  1  0  0  0  0
 10 39  1  0  0  0  0
 11 12  2  0  0  0  0
 11 40  1  0  0  0  0
 12 13  1  0  0  0  0
 12 14  1  0  0  0  0
 13 41  1  0  0  0  0
 13 42  1  0  0  0  0
 13 43  1  0  0  0  0
 14 15  1  0  0  0  0
 14 44  1  0  0  0  0
 14 45  1  0  0  0  0
 15 16  1  0  0  0  0
 15 46  1  0  0  0  0
 15 47  1  0  0  0  0
 16 17  2  0  0  0  0
 16 18  1  0  0  0  0
 18 19  1  0  0  0  0
 19 20  1  0  0  0  0
 19 48  1  0  0  0  0
 19 49  1  0  0  0  0
 20 21  1  0  0  0  0
 20 50  1  0  0  0  0
 20 51  1  0  0  0  0
 21 26  1  0  0  0  0
 21 22  1  0  0  0  0
 22 23  1  0  0  0  0
 22 52  1  0  0  0  0
 22 53  1  0  0  0  0
 23 24  1  0  0  0  0
 23 54  1  0  0  0  0
 23 55  1  0  0  0  0
 24 25  1  0  0  0  0
 25 26  1  0  0  0  0
 25 56  1  0  0  0  0
 25 57  1  0  0  0  0
 26 58  1  0  0  0  0
 26 59  1  0  0  0  0
 27 60  1  0  0  0  0
 28 29  2  0  0  0  0
 28 30  1  0  0  0  0
 30 31  1  0  0  0  0
 31 61  1  0  0  0  0
 31 62  1  0  0  0  0
M  END
$$$$
