ZINC00538275
 OpenBabel08292219463D

 62 66  0  0  0  0  0  0  0  0999 V2000
   -1.0560   -3.6471   -2.9834 C   0  0  0  0  0  0  0  0  0  0  0  0
   -0.5292   -3.8209   -4.2441 C   0  0  0  0  0  0  0  0  0  0  0  0
   -0.2617   -2.7179   -5.0458 C   0  0  0  0  0  0  0  0  0  0  0  0
   -0.5240   -1.4352   -4.5802 C   0  0  0  0  0  0  0  0  0  0  0  0
   -1.0507   -1.2517   -3.3208 C   0  0  0  0  0  0  0  0  0  0  0  0
   -1.3215   -2.3585   -2.5107 C   0  0  0  0  0  0  0  0  0  0  0  0
   -1.8857   -2.1673   -1.1621 C   0  0  0  0  0  0  0  0  0  0  0  0
   -1.4781   -2.7470    0.0324 C   0  0  0  0  0  0  0  0  0  0  0  0
   -2.2084   -2.3914    1.2518 C   0  0  0  0  0  0  0  0  0  0  0  0
   -1.9811   -2.8478    2.5699 C   0  0  0  0  0  0  0  0  0  0  0  0
   -2.7636   -2.4131    3.6070 C   0  0  0  0  0  0  0  0  0  0  0  0
   -3.8034   -1.5118    3.3971 C   0  0  0  0  0  0  0  0  0  0  0  0
   -4.0502   -1.0462    2.1156 C   0  0  0  0  0  0  0  0  0  0  0  0
   -3.2654   -1.4805    1.0680 C   0  0  0  0  0  0  0  0  0  0  0  0
   -3.2496   -1.1310   -0.6716 S   0  0  0  0  0  0  0  0  0  0  0  0
   -4.5695   -1.0928    4.4389 O   0  0  0  0  0  0  0  0  0  0  0  0
   -0.3552   -3.6836    0.0717 C   0  0  0  0  0  0  0  0  0  0  0  0
   -0.5599   -4.8828    0.0108 O   0  0  0  0  0  0  0  0  0  0  0  0
    1.0269   -3.1752    0.1852 C   0  0  0  0  0  0  0  0  0  0  0  0
    1.2584   -1.8082    0.3588 C   0  0  0  0  0  0  0  0  0  0  0  0
    2.5485   -1.3381    0.4641 C   0  0  0  0  0  0  0  0  0  0  0  0
    3.6196   -2.2215    0.3980 C   0  0  0  0  0  0  0  0  0  0  0  0
    3.3936   -3.5820    0.2249 C   0  0  0  0  0  0  0  0  0  0  0  0
    2.1062   -4.0607    0.1249 C   0  0  0  0  0  0  0  0  0  0  0  0
    4.8897   -1.7543    0.5022 O   0  0  0  0  0  0  0  0  0  0  0  0
    5.9433   -2.7167    0.4259 C   0  0  0  0  0  0  0  0  0  0  0  0
    7.2923   -2.0079    0.5623 C   0  0  0  0  0  0  0  0  0  0  0  0
    7.3928   -1.3985    1.8951 N   0  3  0  0  0  0  0  0  0  0  0  0
    8.6181   -0.5941    1.9726 C   0  0  0  0  0  0  0  0  0  0  0  0
    8.6868    0.1080    3.3305 C   0  0  0  0  0  0  0  0  0  0  0  0
    8.6938   -0.9442    4.4432 C   0  0  0  0  0  0  0  0  0  0  0  0
    7.4482   -1.8247    4.3075 C   0  0  0  0  0  0  0  0  0  0  0  0
    7.4253   -2.4551    2.9134 C   0  0  0  0  0  0  0  0  0  0  0  0
    0.2580   -2.8940   -6.2879 O   0  0  0  0  0  0  0  0  0  0  0  0
   -1.2677   -4.5052   -2.3627 H   0  0  0  0  0  0  0  0  0  0  0  0
   -0.3235   -4.8160   -4.6100 H   0  0  0  0  0  0  0  0  0  0  0  0
   -0.3141   -0.5808   -5.2066 H   0  0  0  0  0  0  0  0  0  0  0  0
   -1.2542   -0.2544   -2.9597 H   0  0  0  0  0  0  0  0  0  0  0  0
   -1.1813   -3.5477    2.7618 H   0  0  0  0  0  0  0  0  0  0  0  0
   -2.5705   -2.7766    4.6055 H   0  0  0  0  0  0  0  0  0  0  0  0
   -4.8538   -0.3469    1.9378 H   0  0  0  0  0  0  0  0  0  0  0  0
   -4.2357   -0.2987    4.8782 H   0  0  0  0  0  0  0  0  0  0  0  0
    0.4267   -1.1211    0.4099 H   0  0  0  0  0  0  0  0  0  0  0  0
    2.7283   -0.2816    0.5980 H   0  0  0  0  0  0  0  0  0  0  0  0
    4.2285   -4.2651    0.1733 H   0  0  0  0  0  0  0  0  0  0  0  0
    1.9312   -5.1186   -0.0043 H   0  0  0  0  0  0  0  0  0  0  0  0
    5.8313   -3.4427    1.2312 H   0  0  0  0  0  0  0  0  0  0  0  0
    5.8979   -3.2297   -0.5348 H   0  0  0  0  0  0  0  0  0  0  0  0
    8.0975   -2.7309    0.4318 H   0  0  0  0  0  0  0  0  0  0  0  0
    7.3737   -1.2321   -0.1990 H   0  0  0  0  0  0  0  0  0  0  0  0
    9.4861   -1.2428    1.8552 H   0  0  0  0  0  0  0  0  0  0  0  0
    8.6132    0.1521    1.1781 H   0  0  0  0  0  0  0  0  0  0  0  0
    9.5982    0.7032    3.3868 H   0  0  0  0  0  0  0  0  0  0  0  0
    7.8194    0.7572    3.4489 H   0  0  0  0  0  0  0  0  0  0  0  0
    9.5878   -1.5615    4.3556 H   0  0  0  0  0  0  0  0  0  0  0  0
    8.6856   -0.4483    5.4139 H   0  0  0  0  0  0  0  0  0  0  0  0
    7.4742   -2.6108    5.0621 H   0  0  0  0  0  0  0  0  0  0  0  0
    6.5550   -1.2155    4.4462 H   0  0  0  0  0  0  0  0  0  0  0  0
    6.5398   -3.0828    2.8135 H   0  0  0  0  0  0  0  0  0  0  0  0
    8.3188   -3.0642    2.7759 H   0  0  0  0  0  0  0  0  0  0  0  0
   -0.4076   -2.9906   -6.9827 H   0  0  0  0  0  0  0  0  0  0  0  0
    6.5925   -0.8047    2.0535 H   0  0  0  0  0  0  0  0  0  0  0  0
  1  6  2  0  0  0  0
  1  2  1  0  0  0  0
  1 35  1  0  0  0  0
  2  3  2  0  0  0  0
  2 36  1  0  0  0  0
  3  4  1  0  0  0  0
  3 34  1  0  0  0  0
  4  5  2  0  0  0  0
  4 37  1  0  0  0  0
  5  6  1  0  0  0  0
  5 38  1  0  0  0  0
  6  7  1  0  0  0  0
  7 15  1  0  0  0  0
  7  8  2  0  0  0  0
  8  9  1  0  0  0  0
  8 17  1  0  0  0  0
  9 14  2  0  0  0  0
  9 10  1  0  0  0  0
 10 11  2  0  0  0  0
 10 39  1  0  0  0  0
 11 12  1  0  0  0  0
 11 40  1  0  0  0  0
 12 13  2  0  0  0  0
 12 16  1  0  0  0  0
 13 14  1  0  0  0  0
 13 41  1  0  0  0  0
 14 15  1  0  0  0  0
 16 42  1  0  0  0  0
 17 18  2  0  0  0  0
 17 19  1  0  0  0  0
 19 24  2  0  0  0  0
 19 20  1  0  0  0  0
 20 21  2  0  0  0  0
 20 43  1  0  0  0  0
 21 22  1  0  0  0  0
 21 44  1  0  0  0  0
 22 23  2  0  0  0  0
 22 25  1  0  0  0  0
 23 24  1  0  0  0  0
 23 45  1  0  0  0  0
 24 46  1  0  0  0  0
 25 26  1  0  0  0  0
 26 27  1  0  0  0  0
 26 47  1  0  0  0  0
 26 48  1  0  0  0  0
 27 28  1  0  0  0  0
 27 49  1  0  0  0  0
 27 50  1  0  0  0  0
 28 33  1  0  0  0  0
 28 29  1  0  0  0  0
 28 62  1  0  0  0  0
 29 30  1  0  0  0  0
 29 51  1  0  0  0  0
 29 52  1  0  0  0  0
 30 31  1  0  0  0  0
 30 53  1  0  0  0  0
 30 54  1  0  0  0  0
 31 32  1  0  0  0  0
 31 55  1  0  0  0  0
 31 56  1  0  0  0  0
 32 33  1  0  0  0  0
 32 57  1  0  0  0  0
 32 58  1  0  0  0  0
 33 59  1  0  0  0  0
 33 60  1  0  0  0  0
 34 61  1  0  0  0  0
M  CHG  1  28   1
M  END
$$$$
