ZINC03812923
 OpenBabel08292219463D

 47 50  0  0  0  0  0  0  0  0999 V2000
    0.3807    1.4007   -0.0396 C   0  0  0  0  0  0  0  0  0  0  0  0
    0.2444   -0.0216   -0.0638 O   0  0  0  0  0  0  0  0  0  0  0  0
   -0.3722   -0.6008    1.0007 C   0  0  0  0  0  0  0  0  0  0  0  0
   -0.8403    0.1832    2.0417 C   0  0  0  0  0  0  0  0  0  0  0  0
   -1.4696   -0.4104    3.1278 C   0  0  0  0  0  0  0  0  0  0  0  0
   -1.6293   -1.7896    3.1706 C   0  0  0  0  0  0  0  0  0  0  0  0
   -1.1630   -2.5733    2.1329 C   0  0  0  0  0  0  0  0  0  0  0  0
   -0.5391   -1.9836    1.0428 C   0  0  0  0  0  0  0  0  0  0  0  0
   -0.0714   -2.7787   -0.0122 N   0  0  0  0  0  0  0  0  0  0  0  0
   -0.1230   -4.1518    0.0849 C   0  0  0  0  0  0  0  0  0  0  0  0
   -1.3030   -4.8599   -0.2199 C   0  0  0  0  0  0  0  0  0  0  0  0
   -2.4636   -4.1844   -0.6332 C   0  0  0  0  0  0  0  0  0  0  0  0
   -3.5891   -4.8929   -0.9216 C   0  0  0  0  0  0  0  0  0  0  0  0
   -3.6066   -6.2832   -0.8120 C   0  0  0  0  0  0  0  0  0  0  0  0
   -2.5031   -6.9707   -0.4154 C   0  0  0  0  0  0  0  0  0  0  0  0
   -1.3161   -6.2750   -0.1075 C   0  0  0  0  0  0  0  0  0  0  0  0
   -0.2278   -6.9373    0.2819 N   0  0  0  0  0  0  0  0  0  0  0  0
    0.9091   -6.3101    0.5801 C   0  0  0  0  0  3  0  0  0  0  0  0
    1.0041   -4.8967    0.4868 C   0  0  0  0  0  0  0  0  0  0  0  0
    2.2160   -4.2589    0.8013 C   0  0  0  0  0  0  0  0  0  0  0  0
    3.2885   -5.0024    1.1870 C   0  0  0  0  0  0  0  0  0  0  0  0
    3.2014   -6.3917    1.2742 C   0  0  0  0  0  0  0  0  0  0  0  0
    2.0423   -7.0424    0.9890 C   0  0  0  0  0  0  0  0  0  0  0  0
   -1.9427    0.3810    4.1799 N   0  0  0  0  0  2  0  0  0  0  0  0
   -2.6934   -0.3264    5.4755 S   0  0  0  0  0  0  0  0  0  0  0  0
   -3.8690   -0.9150    4.9364 O   0  0  0  0  0  0  0  0  0  0  0  0
   -1.6911   -1.1326    6.0794 O   0  0  0  0  0  0  0  0  0  0  0  0
   -3.1305    1.0520    6.5707 C   0  0  0  0  0  0  0  0  0  0  0  0
    0.8884    1.7325   -0.9453 H   0  0  0  0  0  0  0  0  0  0  0  0
   -0.6067    1.8595    0.0122 H   0  0  0  0  0  0  0  0  0  0  0  0
    0.9643    1.6950    0.8326 H   0  0  0  0  0  0  0  0  0  0  0  0
   -0.7157    1.2555    2.0091 H   0  0  0  0  0  0  0  0  0  0  0  0
   -2.1184   -2.2498    4.0163 H   0  0  0  0  0  0  0  0  0  0  0  0
   -1.2881   -3.6454    2.1681 H   0  0  0  0  0  0  0  0  0  0  0  0
    0.2887   -2.3622   -0.8108 H   0  0  0  0  0  0  0  0  0  0  0  0
   -2.4627   -3.1080   -0.7212 H   0  0  0  0  0  0  0  0  0  0  0  0
   -4.4803   -4.3719   -1.2391 H   0  0  0  0  0  0  0  0  0  0  0  0
   -4.5125   -6.8227   -1.0459 H   0  0  0  0  0  0  0  0  0  0  0  0
   -2.5357   -8.0473   -0.3360 H   0  0  0  0  0  0  0  0  0  0  0  0
    2.2960   -3.1838    0.7369 H   0  0  0  0  0  0  0  0  0  0  0  0
    4.2192   -4.5105    1.4284 H   0  0  0  0  0  0  0  0  0  0  0  0
    4.0669   -6.9595    1.5821 H   0  0  0  0  0  0  0  0  0  0  0  0
    1.9934   -8.1187    1.0633 H   0  0  0  0  0  0  0  0  0  0  0  0
   -3.7949    1.7374    6.0446 H   0  0  0  0  0  0  0  0  0  0  0  0
   -3.6342    0.6662    7.4570 H   0  0  0  0  0  0  0  0  0  0  0  0
   -2.2250    1.5806    6.8686 H   0  0  0  0  0  0  0  0  0  0  0  0
   -0.2642   -7.9042    0.3506 H   0  0  0  0  0  0  0  0  0  0  0  0
  1  2  1  0  0  0  0
  1 29  1  0  0  0  0
  1 30  1  0  0  0  0
  1 31  1  0  0  0  0
  2  3  1  0  0  0  0
  3  8  2  0  0  0  0
  3  4  1  0  0  0  0
  4  5  2  0  0  0  0
  4 32  1  0  0  0  0
  5  6  1  0  0  0  0
  5 24  1  0  0  0  0
  6  7  2  0  0  0  0
  6 33  1  0  0  0  0
  7  8  1  0  0  0  0
  7 34  1  0  0  0  0
  8  9  1  0  0  0  0
  9 10  1  0  0  0  0
  9 35  1  0  0  0  0
 10 19  2  0  0  0  0
 10 11  1  0  0  0  0
 11 16  2  0  0  0  0
 11 12  1  0  0  0  0
 12 13  2  0  0  0  0
 12 36  1  0  0  0  0
 13 14  1  0  0  0  0
 13 37  1  0  0  0  0
 14 15  2  0  0  0  0
 14 38  1  0  0  0  0
 15 16  1  0  0  0  0
 15 39  1  0  0  0  0
 16 17  1  0  0  0  0
 17 18  1  0  0  0  0
 17 47  1  0  0  0  0
 18 23  1  0  0  0  0
 18 19  1  0  0  0  0
 19 20  1  0  0  0  0
 20 21  2  0  0  0  0
 20 40  1  0  0  0  0
 21 22  1  0  0  0  0
 21 41  1  0  0  0  0
 22 23  2  0  0  0  0
 22 42  1  0  0  0  0
 23 43  1  0  0  0  0
 24 25  1  0  0  0  0
 25 26  2  0  0  0  0
 25 27  2  0  0  0  0
 25 28  1  0  0  0  0
 28 44  1  0  0  0  0
 28 45  1  0  0  0  0
 28 46  1  0  0  0  0
M  END
$$$$
