ZINC19796168
 OpenBabel08292219463D

 63 66  0  0  0  0  0  0  0  0999 V2000
   -0.0187    1.5258    0.0104 C   0  0  0  0  0  0  0  0  0  0  0  0
    0.0021   -0.0041    0.0020 C   0  0  0  0  0  0  0  0  0  0  0  0
    0.7182   -0.4975   -1.2568 C   0  0  0  0  0  0  0  0  0  0  0  0
    0.7386   -2.0043   -1.2651 C   0  0  0  0  0  0  0  0  0  0  0  0
    1.7436   -2.8145   -0.7017 C   0  0  0  0  0  0  0  0  0  0  0  0
    1.3716   -4.1454   -0.9309 C   0  0  0  0  0  0  0  0  0  0  0  0
    2.2155   -5.1793   -0.4631 C   0  0  0  0  0  0  0  0  0  0  0  0
    1.9272   -6.3498   -0.6430 O   0  0  0  0  0  0  0  0  0  0  0  0
    3.3497   -4.8379    0.1877 N   0  0  0  0  0  0  0  0  0  0  0  0
    3.9439   -5.5300    0.5176 H   0  0  0  0  0  0  0  0  0  0  0  0
    3.6639   -3.5203    0.3833 C   0  0  0  0  0  0  0  0  0  0  0  0
    2.8908   -2.5515   -0.0437 N   0  0  0  0  0  0  0  0  0  0  0  0
    4.9101   -3.1798    1.0980 C   0  0  0  0  0  0  0  0  0  0  0  0
    5.7536   -4.1922    1.5597 C   0  0  0  0  0  0  0  0  0  0  0  0
    6.9158   -3.8678    2.2265 C   0  0  0  0  0  0  0  0  0  0  0  0
    7.2508   -2.5412    2.4411 C   0  0  0  0  0  0  0  0  0  0  0  0
    6.4250   -1.5305    1.9894 C   0  0  0  0  0  0  0  0  0  0  0  0
    5.2556   -1.8391    1.3116 C   0  0  0  0  0  0  0  0  0  0  0  0
    4.4461   -0.8467    0.8623 O   0  0  0  0  0  0  0  0  0  0  0  0
    4.8632    0.4961    1.1168 C   0  0  0  0  0  0  0  0  0  0  0  0
    3.8319    1.4685    0.5407 C   0  0  0  0  0  0  0  0  0  0  0  0
    7.9793   -5.1464    2.8085 S   0  0  0  0  0  0  0  0  0  0  0  0
    8.7312   -4.5930    3.8798 O   0  0  0  0  0  0  0  0  0  0  0  0
    7.1730   -6.3063    2.9631 O   0  0  0  0  0  0  0  0  0  0  0  0
    9.0568   -5.4772    1.5953 N   0  0  0  0  0  0  0  0  0  0  0  0
    8.7556   -6.4921    0.5742 C   0  0  0  0  0  0  0  0  0  0  0  0
    8.9742   -5.8704   -0.8093 C   0  0  0  0  0  0  0  0  0  0  0  0
   10.3268   -5.3015   -0.8788 N   0  0  0  0  0  0  0  0  0  0  0  0
   10.4964   -4.2104    0.0900 C   0  0  0  0  0  0  0  0  0  0  0  0
   10.3376   -4.7598    1.5068 C   0  0  0  0  0  0  0  0  0  0  0  0
   10.6381   -4.8489   -2.2412 C   0  0  0  0  0  0  0  0  0  0  0  0
    0.1842   -4.1164   -1.6082 N   0  0  0  0  0  0  0  0  0  0  0  0
   -0.1751   -2.7746   -1.7907 N   0  0  0  0  0  0  0  0  0  0  0  0
   -0.5794   -5.2824   -2.0596 C   0  0  0  0  0  0  0  0  0  0  0  0
    1.0039    1.9031    0.0027 H   0  0  0  0  0  0  0  0  0  0  0  0
   -0.5459    1.8868   -0.8726 H   0  0  0  0  0  0  0  0  0  0  0  0
   -0.5289    1.8773    0.9072 H   0  0  0  0  0  0  0  0  0  0  0  0
    0.5293   -0.3651    0.8851 H   0  0  0  0  0  0  0  0  0  0  0  0
   -1.0205   -0.3814    0.0098 H   0  0  0  0  0  0  0  0  0  0  0  0
    0.1910   -0.1364   -2.1398 H   0  0  0  0  0  0  0  0  0  0  0  0
    1.7408   -0.1202   -1.2645 H   0  0  0  0  0  0  0  0  0  0  0  0
    5.4957   -5.2279    1.3950 H   0  0  0  0  0  0  0  0  0  0  0  0
    8.1628   -2.2958    2.9650 H   0  0  0  0  0  0  0  0  0  0  0  0
    6.6926   -0.4983    2.1608 H   0  0  0  0  0  0  0  0  0  0  0  0
    4.9489    0.6524    2.1922 H   0  0  0  0  0  0  0  0  0  0  0  0
    5.8306    0.6715    0.6460 H   0  0  0  0  0  0  0  0  0  0  0  0
    3.7463    1.3123   -0.5346 H   0  0  0  0  0  0  0  0  0  0  0  0
    2.8646    1.2931    1.0115 H   0  0  0  0  0  0  0  0  0  0  0  0
    4.1502    2.4927    0.7349 H   0  0  0  0  0  0  0  0  0  0  0  0
    9.4199   -7.3470    0.7005 H   0  0  0  0  0  0  0  0  0  0  0  0
    7.7185   -6.8131    0.6717 H   0  0  0  0  0  0  0  0  0  0  0  0
    8.8627   -6.6382   -1.5748 H   0  0  0  0  0  0  0  0  0  0  0  0
    8.2393   -5.0824   -0.9741 H   0  0  0  0  0  0  0  0  0  0  0  0
   11.4890   -3.7744   -0.0233 H   0  0  0  0  0  0  0  0  0  0  0  0
    9.7403   -3.4456   -0.0874 H   0  0  0  0  0  0  0  0  0  0  0  0
   10.3460   -3.9360    2.2206 H   0  0  0  0  0  0  0  0  0  0  0  0
   11.1569   -5.4449    1.7245 H   0  0  0  0  0  0  0  0  0  0  0  0
    9.9216   -4.0848   -2.5429 H   0  0  0  0  0  0  0  0  0  0  0  0
   11.6450   -4.4322   -2.2645 H   0  0  0  0  0  0  0  0  0  0  0  0
   10.5786   -5.6939   -2.9273 H   0  0  0  0  0  0  0  0  0  0  0  0
   -1.2781   -5.5834   -1.2791 H   0  0  0  0  0  0  0  0  0  0  0  0
   -1.1323   -5.0268   -2.9634 H   0  0  0  0  0  0  0  0  0  0  0  0
    0.1042   -6.1043   -2.2721 H   0  0  0  0  0  0  0  0  0  0  0  0
  1  2  1  0  0  0  0
  1 35  1  0  0  0  0
  1 36  1  0  0  0  0
  1 37  1  0  0  0  0
  2  3  1  0  0  0  0
  2 38  1  0  0  0  0
  2 39  1  0  0  0  0
  3  4  1  0  0  0  0
  3 40  1  0  0  0  0
  3 41  1  0  0  0  0
  4 33  2  0  0  0  0
  4  5  1  0  0  0  0
  5 12  1  0  0  0  0
  5  6  2  0  0  0  0
  6  7  1  0  0  0  0
  6 32  1  0  0  0  0
  7  8  2  0  0  0  0
  7  9  1  0  0  0  0
  9 10  1  0  0  0  0
  9 11  1  0  0  0  0
 11 12  2  0  0  0  0
 11 13  1  0  0  0  0
 13 18  2  0  0  0  0
 13 14  1  0  0  0  0
 14 15  2  0  0  0  0
 14 42  1  0  0  0  0
 15 16  1  0  0  0  0
 15 22  1  0  0  0  0
 16 17  2  0  0  0  0
 16 43  1  0  0  0  0
 17 18  1  0  0  0  0
 17 44  1  0  0  0  0
 18 19  1  0  0  0  0
 19 20  1  0  0  0  0
 20 21  1  0  0  0  0
 20 45  1  0  0  0  0
 20 46  1  0  0  0  0
 21 47  1  0  0  0  0
 21 48  1  0  0  0  0
 21 49  1  0  0  0  0
 22 23  2  0  0  0  0
 22 24  2  0  0  0  0
 22 25  1  0  0  0  0
 25 30  1  0  0  0  0
 25 26  1  0  0  0  0
 26 27  1  0  0  0  0
 26 50  1  0  0  0  0
 26 51  1  0  0  0  0
 27 28  1  0  0  0  0
 27 52  1  0  0  0  0
 27 53  1  0  0  0  0
 28 29  1  0  0  0  0
 28 31  1  0  0  0  0
 29 30  1  0  0  0  0
 29 54  1  0  0  0  0
 29 55  1  0  0  0  0
 30 56  1  0  0  0  0
 30 57  1  0  0  0  0
 31 58  1  0  0  0  0
 31 59  1  0  0  0  0
 31 60  1  0  0  0  0
 32 33  1  0  0  0  0
 32 34  1  0  0  0  0
 34 61  1  0  0  0  0
 34 62  1  0  0  0  0
 34 63  1  0  0  0  0
M  END
$$$$
