ZINC00125006
 OpenBabel08292219463D

 25 26  0  0  0  0  0  0  0  0999 V2000
   -0.0167    1.3781    0.0096 C   0  0  0  0  0  0  0  0  0  0  0  0
    1.1709    2.0855    0.0021 C   0  0  0  0  0  0  0  0  0  0  0  0
    2.3773    1.4107   -0.0130 C   0  0  0  0  0  0  0  0  0  0  0  0
    2.3960    0.0285   -0.0201 C   0  0  0  0  0  0  0  0  0  0  0  0
    1.2084   -0.6789   -0.0117 C   0  0  0  0  0  0  0  0  0  0  0  0
    0.0021   -0.0041    0.0020 C   0  0  0  0  0  0  0  0  0  0  0  0
    3.7112   -0.7071   -0.0376 C   0  0  0  0  0  0  0  0  0  0  0  0
    4.1644   -0.9594    1.3773 C   0  0  0  0  0  0  0  0  0  0  0  0
    4.9123   -0.1085    2.0398 N   0  0  0  0  0  4  0  0  0  0  0  0
    5.1803   -0.6420    3.3851 C   0  0  0  0  0  0  0  0  0  0  0  0
    4.4332   -1.9919    3.3837 C   0  0  0  0  0  0  0  0  0  0  0  0
    3.8358   -2.0437    2.0396 N   0  0  0  0  0  0  0  0  0  0  0  0
   -0.9591    1.9053    0.0259 H   0  0  0  0  0  0  0  0  0  0  0  0
    1.1563    3.1654    0.0076 H   0  0  0  0  0  0  0  0  0  0  0  0
    3.3051    1.9634   -0.0196 H   0  0  0  0  0  0  0  0  0  0  0  0
    1.2231   -1.7588   -0.0176 H   0  0  0  0  0  0  0  0  0  0  0  0
   -0.9258   -0.5567    0.0082 H   0  0  0  0  0  0  0  0  0  0  0  0
    3.5884   -1.6586   -0.5549 H   0  0  0  0  0  0  0  0  0  0  0  0
    4.4573   -0.1052   -0.5563 H   0  0  0  0  0  0  0  0  0  0  0  0
    6.2494   -0.7940    3.5328 H   0  0  0  0  0  0  0  0  0  0  0  0
    4.7755    0.0210    4.1497 H   0  0  0  0  0  0  0  0  0  0  0  0
    5.1298   -2.8173    3.5307 H   0  0  0  0  0  0  0  0  0  0  0  0
    3.6558   -2.0023    4.1476 H   0  0  0  0  0  0  0  0  0  0  0  0
    3.2870   -2.7663    1.6966 H   0  0  0  0  0  0  0  0  0  0  0  0
    5.2376    0.7385    1.6967 H   0  0  0  0  0  0  0  0  0  0  0  0
  1  6  2  0  0  0  0
  1  2  1  0  0  0  0
  1 13  1  0  0  0  0
  2  3  2  0  0  0  0
  2 14  1  0  0  0  0
  3  4  1  0  0  0  0
  3 15  1  0  0  0  0
  4  5  2  0  0  0  0
  4  7  1  0  0  0  0
  5  6  1  0  0  0  0
  5 16  1  0  0  0  0
  6 17  1  0  0  0  0
  7  8  1  0  0  0  0
  7 18  1  0  0  0  0
  7 19  1  0  0  0  0
  8 12  1  0  0  0  0
  8  9  2  0  0  0  0
  9 10  1  0  0  0  0
  9 25  1  0  0  0  0
 10 11  1  0  0  0  0
 10 20  1  0  0  0  0
 10 21  1  0  0  0  0
 11 12  1  0  0  0  0
 11 22  1  0  0  0  0
 11 23  1  0  0  0  0
 12 24  1  0  0  0  0
M  END
$$$$
