ZINC01530866
 OpenBabel08292219463D

 64 66  0  0  1  0  0  0  0  0999 V2000
   -4.3937    1.7853    1.5002 C   0  0  0  0  0  0  0  0  0  0  0  0
   -4.3539    0.2865    1.8054 C   0  0  0  0  0  0  0  0  0  0  0  0
   -3.6089   -0.4425    0.6854 C   0  0  0  0  0  0  0  0  0  0  0  0
   -3.5692   -1.9412    0.9906 C   0  0  0  0  0  0  0  0  0  0  0  0
   -2.8539   -2.6411   -0.0848 N   0  3  0  0  0  0  0  0  0  0  0  0
   -1.4496   -2.2102   -0.1001 C   0  0  0  0  0  0  0  0  0  0  0  0
   -0.7452   -2.8104   -1.3185 C   0  0  0  0  0  0  0  0  0  0  0  0
    0.7206   -2.3721   -1.3274 C   0  0  0  0  0  0  0  0  0  0  0  0
    1.4250   -2.9723   -2.5458 C   0  0  0  0  0  0  0  0  0  0  0  0
   -2.9190   -4.0904    0.1464 C   0  0  0  0  0  0  0  0  0  0  0  0
   -4.3698   -4.5612    0.0270 C   0  0  0  0  0  0  0  0  0  0  0  0
   -4.4263   -6.0827    0.1781 C   0  0  1  0  0  0  0  0  0  0  0  0
   -3.9509   -6.3726    1.1152 H   0  0  0  0  0  0  0  0  0  0  0  0
   -5.8641   -6.5339    0.1835 C   0  0  0  0  0  0  0  0  0  0  0  0
   -6.4290   -6.9510   -0.9679 C   0  0  0  0  0  0  0  0  0  0  0  0
   -7.7741   -7.3840   -1.0153 C   0  0  0  0  0  0  0  0  0  0  0  0
   -8.5542   -7.3851    0.1630 C   0  0  0  0  0  0  0  0  0  0  0  0
   -9.8826   -7.8121    0.1148 C   0  0  0  0  0  0  0  0  0  0  0  0
  -10.4202   -8.2285   -1.0824 C   0  0  0  0  0  0  0  0  0  0  0  0
   -9.6515   -8.2276   -2.2418 C   0  0  0  0  0  0  0  0  0  0  0  0
   -8.3509   -7.8147   -2.2198 C   0  0  0  0  0  0  0  0  0  0  0  0
   -7.4119   -7.8215   -3.6799 Cl  0  0  0  0  0  0  0  0  0  0  0  0
  -12.0716   -8.7600   -1.1456 Cl  0  0  0  0  0  0  0  0  0  0  0  0
   -7.9403   -6.9329    1.4146 C   0  0  0  0  0  0  0  0  0  0  0  0
   -6.5899   -6.5164    1.3968 C   0  0  0  0  0  0  0  0  0  0  0  0
   -5.9921   -6.0865    2.5901 C   0  0  0  0  0  0  0  0  0  0  0  0
   -6.7159   -6.0805    3.7461 C   0  0  0  0  0  0  0  0  0  0  0  0
   -8.0423   -6.4960    3.7604 C   0  0  0  0  0  0  0  0  0  0  0  0
   -8.6564   -6.9103    2.6130 C   0  0  0  0  0  0  0  0  0  0  0  0
   -8.8146   -6.4785    5.0543 C   0  0  0  0  0  0  0  0  0  0  0  0
   -7.9902   -6.0108    6.0832 F   0  0  0  0  0  0  0  0  0  0  0  0
   -9.9228   -5.6345    4.9245 F   0  0  0  0  0  0  0  0  0  0  0  0
   -9.2479   -7.7739    5.3563 F   0  0  0  0  0  0  0  0  0  0  0  0
   -3.7387   -6.6957   -0.9144 O   0  0  0  0  0  0  0  0  0  0  0  0
   -4.9244    2.3046    2.2981 H   0  0  0  0  0  0  0  0  0  0  0  0
   -3.3758    2.1691    1.4310 H   0  0  0  0  0  0  0  0  0  0  0  0
   -4.9091    1.9498    0.5540 H   0  0  0  0  0  0  0  0  0  0  0  0
   -3.8385    0.1220    2.7517 H   0  0  0  0  0  0  0  0  0  0  0  0
   -5.3717   -0.0973    1.8746 H   0  0  0  0  0  0  0  0  0  0  0  0
   -4.1244   -0.2779   -0.2608 H   0  0  0  0  0  0  0  0  0  0  0  0
   -2.5911   -0.0586    0.6162 H   0  0  0  0  0  0  0  0  0  0  0  0
   -3.0537   -2.1057    1.9369 H   0  0  0  0  0  0  0  0  0  0  0  0
   -4.5870   -2.3250    1.0598 H   0  0  0  0  0  0  0  0  0  0  0  0
   -1.4039   -1.1225   -0.1532 H   0  0  0  0  0  0  0  0  0  0  0  0
   -0.9552   -2.5507    0.8097 H   0  0  0  0  0  0  0  0  0  0  0  0
   -0.7990   -3.8980   -1.2700 H   0  0  0  0  0  0  0  0  0  0  0  0
   -1.2340   -2.4627   -2.2286 H   0  0  0  0  0  0  0  0  0  0  0  0
    0.7743   -1.2845   -1.3759 H   0  0  0  0  0  0  0  0  0  0  0  0
    1.2094   -2.7198   -0.4173 H   0  0  0  0  0  0  0  0  0  0  0  0
    2.4693   -2.6600   -2.5522 H   0  0  0  0  0  0  0  0  0  0  0  0
    1.3712   -4.0599   -2.4974 H   0  0  0  0  0  0  0  0  0  0  0  0
    0.9362   -2.6245   -3.4559 H   0  0  0  0  0  0  0  0  0  0  0  0
   -2.3079   -4.6044   -0.5956 H   0  0  0  0  0  0  0  0  0  0  0  0
   -2.5446   -4.3162    1.1448 H   0  0  0  0  0  0  0  0  0  0  0  0
   -4.9684   -4.0959    0.8100 H   0  0  0  0  0  0  0  0  0  0  0  0
   -4.7645   -4.2781   -0.9488 H   0  0  0  0  0  0  0  0  0  0  0  0
   -5.8410   -6.9539   -1.8739 H   0  0  0  0  0  0  0  0  0  0  0  0
  -10.4849   -7.8160    1.0113 H   0  0  0  0  0  0  0  0  0  0  0  0
  -10.0898   -8.5580   -3.1718 H   0  0  0  0  0  0  0  0  0  0  0  0
   -4.9621   -5.7616    2.5938 H   0  0  0  0  0  0  0  0  0  0  0  0
   -6.2520   -5.7487    4.6632 H   0  0  0  0  0  0  0  0  0  0  0  0
   -9.6879   -7.2296    2.6346 H   0  0  0  0  0  0  0  0  0  0  0  0
   -4.1084   -6.4813   -1.7818 H   0  0  0  0  0  0  0  0  0  0  0  0
   -3.2825   -2.4224   -0.9716 H   0  0  0  0  0  0  0  0  0  0  0  0
  1  2  1  0  0  0  0
  1 35  1  0  0  0  0
  1 36  1  0  0  0  0
  1 37  1  0  0  0  0
  2  3  1  0  0  0  0
  2 38  1  0  0  0  0
  2 39  1  0  0  0  0
  3  4  1  0  0  0  0
  3 40  1  0  0  0  0
  3 41  1  0  0  0  0
  4  5  1  0  0  0  0
  4 42  1  0  0  0  0
  4 43  1  0  0  0  0
  5  6  1  0  0  0  0
  5 10  1  0  0  0  0
  5 64  1  0  0  0  0
  6  7  1  0  0  0  0
  6 44  1  0  0  0  0
  6 45  1  0  0  0  0
  7  8  1  0  0  0  0
  7 46  1  0  0  0  0
  7 47  1  0  0  0  0
  8  9  1  0  0  0  0
  8 48  1  0  0  0  0
  8 49  1  0  0  0  0
  9 50  1  0  0  0  0
  9 51  1  0  0  0  0
  9 52  1  0  0  0  0
 10 11  1  0  0  0  0
 10 53  1  0  0  0  0
 10 54  1  0  0  0  0
 11 12  1  0  0  0  0
 11 55  1  0  0  0  0
 11 56  1  0  0  0  0
 12 13  1  1  0  0  0
 12 14  1  0  0  0  0
 12 34  1  0  0  0  0
 14 25  2  0  0  0  0
 14 15  1  0  0  0  0
 15 16  2  0  0  0  0
 15 57  1  0  0  0  0
 16 21  1  0  0  0  0
 16 17  1  0  0  0  0
 17 18  1  0  0  0  0
 17 24  2  0  0  0  0
 18 19  2  0  0  0  0
 18 58  1  0  0  0  0
 19 20  1  0  0  0  0
 19 23  1  0  0  0  0
 20 21  2  0  0  0  0
 20 59  1  0  0  0  0
 21 22  1  0  0  0  0
 24 29  1  0  0  0  0
 24 25  1  0  0  0  0
 25 26  1  0  0  0  0
 26 27  2  0  0  0  0
 26 60  1  0  0  0  0
 27 28  1  0  0  0  0
 27 61  1  0  0  0  0
 28 29  2  0  0  0  0
 28 30  1  0  0  0  0
 29 62  1  0  0  0  0
 30 31  1  0  0  0  0
 30 32  1  0  0  0  0
 30 33  1  0  0  0  0
 34 63  1  0  0  0  0
M  CHG  1   5   1
M  END
$$$$
