ZINC03830716
 OpenBabel08292219463D

 67 70  0  0  1  0  0  0  0  0999 V2000
    0.3059    1.9738   -1.1940 C   0  0  0  0  0  0  0  0  0  0  0  0
    0.3451    0.4557   -1.0080 C   0  0  0  0  0  0  0  0  0  0  0  0
    0.8869   -0.1541   -2.1813 O   0  0  0  0  0  0  0  0  0  0  0  0
    0.9901   -1.4925   -2.1803 C   0  0  0  0  0  0  0  0  0  0  0  0
    0.6322   -2.1252   -1.2152 O   0  0  0  0  0  0  0  0  0  0  0  0
    1.5524   -2.2058   -3.3828 C   0  0  2  0  0  0  0  0  0  0  0  0
    0.6803   -1.9115   -4.6068 C   0  0  0  0  0  0  0  0  0  0  0  0
   -0.7256   -2.4671   -4.3701 C   0  0  0  0  0  0  0  0  0  0  0  0
   -0.6529   -3.9175   -4.1566 N   0  3  1  0  0  0  0  0  0  0  0  0
    0.1221   -4.2041   -2.9434 C   0  0  0  0  0  0  0  0  0  0  0  0
    1.5607   -3.7153   -3.1252 C   0  0  0  0  0  0  0  0  0  0  0  0
   -2.0108   -4.4577   -4.0074 C   0  0  0  0  0  0  0  0  0  0  0  0
   -1.9450   -5.9831   -3.9096 C   0  0  0  0  0  0  0  0  0  0  0  0
   -3.3641   -6.5546   -3.8885 C   0  0  0  0  0  0  0  0  0  0  0  0
   -4.0844   -6.1241   -5.0979 C   0  0  0  0  0  0  0  0  0  0  0  0
   -4.6403   -5.7919   -6.0312 N   0  0  0  0  0  0  0  0  0  0  0  0
   -3.2991   -8.0597   -3.8516 C   0  0  0  0  0  0  0  0  0  0  0  0
   -2.0757   -8.6966   -3.7597 C   0  0  0  0  0  0  0  0  0  0  0  0
   -2.0160  -10.0773   -3.7258 C   0  0  0  0  0  0  0  0  0  0  0  0
   -3.1798  -10.8210   -3.7834 C   0  0  0  0  0  0  0  0  0  0  0  0
   -4.4033  -10.1841   -3.8743 C   0  0  0  0  0  0  0  0  0  0  0  0
   -4.4632   -8.8033   -3.9039 C   0  0  0  0  0  0  0  0  0  0  0  0
   -4.0895   -6.0530   -2.6665 C   0  0  0  0  0  0  0  0  0  0  0  0
   -5.1882   -5.2257   -2.8059 C   0  0  0  0  0  0  0  0  0  0  0  0
   -5.8536   -4.7656   -1.6850 C   0  0  0  0  0  0  0  0  0  0  0  0
   -5.4206   -5.1331   -0.4247 C   0  0  0  0  0  0  0  0  0  0  0  0
   -4.3225   -5.9611   -0.2853 C   0  0  0  0  0  0  0  0  0  0  0  0
   -3.6597   -6.4246   -1.4064 C   0  0  0  0  0  0  0  0  0  0  0  0
    2.9594   -1.7304   -3.6384 C   0  0  0  0  0  0  0  0  0  0  0  0
    4.0079   -2.6310   -3.6164 C   0  0  0  0  0  0  0  0  0  0  0  0
    5.2986   -2.1950   -3.8509 C   0  0  0  0  0  0  0  0  0  0  0  0
    5.5407   -0.8585   -4.1078 C   0  0  0  0  0  0  0  0  0  0  0  0
    4.4920    0.0419   -4.1308 C   0  0  0  0  0  0  0  0  0  0  0  0
    3.2008   -0.3948   -3.9005 C   0  0  0  0  0  0  0  0  0  0  0  0
    1.3166    2.3454   -1.3628 H   0  0  0  0  0  0  0  0  0  0  0  0
   -0.3194    2.2187   -2.0526 H   0  0  0  0  0  0  0  0  0  0  0  0
   -0.1074    2.4390   -0.2991 H   0  0  0  0  0  0  0  0  0  0  0  0
    0.9703    0.2108   -0.1494 H   0  0  0  0  0  0  0  0  0  0  0  0
   -0.6657    0.0841   -0.8392 H   0  0  0  0  0  0  0  0  0  0  0  0
    0.6244   -0.8343   -4.7633 H   0  0  0  0  0  0  0  0  0  0  0  0
    1.1158   -2.3856   -5.4864 H   0  0  0  0  0  0  0  0  0  0  0  0
   -1.1602   -1.9922   -3.4905 H   0  0  0  0  0  0  0  0  0  0  0  0
   -1.3492   -2.2592   -5.2396 H   0  0  0  0  0  0  0  0  0  0  0  0
   -0.3305   -3.6922   -2.0942 H   0  0  0  0  0  0  0  0  0  0  0  0
    0.1244   -5.2785   -2.7597 H   0  0  0  0  0  0  0  0  0  0  0  0
    2.0144   -4.2269   -3.9741 H   0  0  0  0  0  0  0  0  0  0  0  0
    2.1340   -3.9275   -2.2228 H   0  0  0  0  0  0  0  0  0  0  0  0
   -2.4647   -4.0548   -3.1020 H   0  0  0  0  0  0  0  0  0  0  0  0
   -2.6114   -4.1746   -4.8718 H   0  0  0  0  0  0  0  0  0  0  0  0
   -1.4064   -6.3795   -4.7704 H   0  0  0  0  0  0  0  0  0  0  0  0
   -1.4256   -6.2664   -2.9941 H   0  0  0  0  0  0  0  0  0  0  0  0
   -1.1664   -8.1156   -3.7147 H   0  0  0  0  0  0  0  0  0  0  0  0
   -1.0601  -10.5749   -3.6548 H   0  0  0  0  0  0  0  0  0  0  0  0
   -3.1332  -11.8997   -3.7576 H   0  0  0  0  0  0  0  0  0  0  0  0
   -5.3126  -10.7651   -3.9196 H   0  0  0  0  0  0  0  0  0  0  0  0
   -5.4193   -8.3056   -3.9712 H   0  0  0  0  0  0  0  0  0  0  0  0
   -5.5265   -4.9386   -3.7906 H   0  0  0  0  0  0  0  0  0  0  0  0
   -6.7116   -4.1188   -1.7939 H   0  0  0  0  0  0  0  0  0  0  0  0
   -5.9401   -4.7731    0.4510 H   0  0  0  0  0  0  0  0  0  0  0  0
   -3.9839   -6.2479    0.6993 H   0  0  0  0  0  0  0  0  0  0  0  0
   -2.8039   -7.0745   -1.2976 H   0  0  0  0  0  0  0  0  0  0  0  0
    3.8188   -3.6752   -3.4157 H   0  0  0  0  0  0  0  0  0  0  0  0
    6.1178   -2.8985   -3.8330 H   0  0  0  0  0  0  0  0  0  0  0  0
    6.5491   -0.5177   -4.2903 H   0  0  0  0  0  0  0  0  0  0  0  0
    4.6812    1.0862   -4.3312 H   0  0  0  0  0  0  0  0  0  0  0  0
    2.3811    0.3080   -3.9221 H   0  0  0  0  0  0  0  0  0  0  0  0
   -0.2059   -4.3513   -4.9503 H   0  0  0  0  0  0  0  0  0  0  0  0
  1  2  1  0  0  0  0
  1 35  1  0  0  0  0
  1 36  1  0  0  0  0
  1 37  1  0  0  0  0
  2  3  1  0  0  0  0
  2 38  1  0  0  0  0
  2 39  1  0  0  0  0
  3  4  1  0  0  0  0
  4  5  2  0  0  0  0
  6  4  1  1  0  0  0
  6 11  1  0  0  0  0
  6  7  1  0  0  0  0
  6 29  1  0  0  0  0
  7  8  1  0  0  0  0
  7 40  1  0  0  0  0
  7 41  1  0  0  0  0
  8  9  1  0  0  0  0
  8 42  1  0  0  0  0
  8 43  1  0  0  0  0
  9 10  1  0  0  0  0
  9 12  1  0  0  0  0
  9 67  1  6  0  0  0
 10 11  1  0  0  0  0
 10 44  1  0  0  0  0
 10 45  1  0  0  0  0
 11 46  1  0  0  0  0
 11 47  1  0  0  0  0
 12 13  1  0  0  0  0
 12 48  1  0  0  0  0
 12 49  1  0  0  0  0
 13 14  1  0  0  0  0
 13 50  1  0  0  0  0
 13 51  1  0  0  0  0
 14 15  1  0  0  0  0
 14 17  1  0  0  0  0
 14 23  1  0  0  0  0
 15 16  3  0  0  0  0
 17 22  2  0  0  0  0
 17 18  1  0  0  0  0
 18 19  2  0  0  0  0
 18 52  1  0  0  0  0
 19 20  1  0  0  0  0
 19 53  1  0  0  0  0
 20 21  2  0  0  0  0
 20 54  1  0  0  0  0
 21 22  1  0  0  0  0
 21 55  1  0  0  0  0
 22 56  1  0  0  0  0
 23 28  2  0  0  0  0
 23 24  1  0  0  0  0
 24 25  2  0  0  0  0
 24 57  1  0  0  0  0
 25 26  1  0  0  0  0
 25 58  1  0  0  0  0
 26 27  2  0  0  0  0
 26 59  1  0  0  0  0
 27 28  1  0  0  0  0
 27 60  1  0  0  0  0
 28 61  1  0  0  0  0
 29 34  2  0  0  0  0
 29 30  1  0  0  0  0
 30 31  2  0  0  0  0
 30 62  1  0  0  0  0
 31 32  1  0  0  0  0
 31 63  1  0  0  0  0
 32 33  2  0  0  0  0
 32 64  1  0  0  0  0
 33 34  1  0  0  0  0
 33 65  1  0  0  0  0
 34 66  1  0  0  0  0
M  CHG  1   9   1
M  END
$$$$
