ZINC08214470
 OpenBabel08292219463D

112120  0  0  1  0  0  0  0  0999 V2000
    0.9640   -9.0093   -4.7268 C   0  0  0  0  0  0  0  0  0  0  0  0
    1.2464   -7.9787   -3.6318 C   0  0  0  0  0  0  0  0  0  0  0  0
   -0.0787   -7.4074   -3.1136 C   0  0  2  0  0  0  0  0  0  0  0  0
    0.2379   -6.2860   -2.1057 C   0  0  0  0  0  0  0  0  0  0  0  0
   -1.0024   -6.0544   -1.2614 C   0  0  2  0  0  0  0  0  0  0  0  0
   -1.8276   -5.9288   -1.9589 H   0  0  0  0  0  0  0  0  0  0  0  0
   -1.0225   -5.0133   -0.1627 C   0  0  0  0  0  0  0  0  0  0  0  0
   -2.5388   -4.7690    0.1467 C   0  0  1  0  0  0  0  0  0  0  0  0
   -3.3981   -5.4049   -0.9272 C   0  0  0  0  0  0  0  0  0  0  0  0
   -3.9160   -6.6459   -1.0456 C   0  0  0  0  0  0  0  0  0  0  0  0
   -4.7515   -6.6508   -2.2467 C   0  0  0  0  0  0  0  0  0  0  0  0
   -5.5385   -7.6489   -2.8291 C   0  0  0  0  0  0  0  0  0  0  0  0
   -6.2275   -7.3032   -3.9661 C   0  0  0  0  0  0  0  0  0  0  0  0
   -6.1491   -6.0342   -4.5165 C   0  0  0  0  0  0  0  0  0  0  0  0
   -5.3655   -5.0351   -3.9645 C   0  0  0  0  0  0  0  0  0  0  0  0
   -4.6511   -5.3626   -2.8122 C   0  0  0  0  0  0  0  0  0  0  0  0
   -3.7972   -4.6555   -2.0271 N   0  0  0  0  0  0  0  0  0  0  0  0
   -3.5050   -3.7548   -2.2324 H   0  0  0  0  0  0  0  0  0  0  0  0
   -3.7784   -7.8805   -0.1752 C   0  0  0  0  0  0  0  0  0  0  0  0
   -2.8984   -8.9297   -0.9516 C   0  0  0  0  0  0  0  0  0  0  0  0
   -1.1446   -7.4223   -0.5115 C   0  0  0  0  0  0  0  0  0  0  0  0
   -0.9151   -8.5638   -2.5445 C   0  0  0  0  0  0  0  0  0  0  0  0
   -2.8950   -5.2807    1.5187 C   0  0  0  0  0  0  0  0  0  0  0  0
   -1.8961   -5.8038    2.3303 C   0  0  0  0  0  0  0  0  0  0  0  0
   -2.2735   -6.2599    3.5785 C   0  0  0  0  0  0  0  0  0  0  0  0
   -3.6010   -6.2149    4.0179 C   0  0  0  0  0  0  0  0  0  0  0  0
   -4.5978   -5.6819    3.1980 C   0  0  0  0  0  0  0  0  0  0  0  0
   -4.2102   -5.2146    1.9467 C   0  0  0  0  0  0  0  0  0  0  0  0
   -5.1487   -4.6837    1.1196 O   0  0  0  0  0  0  0  0  0  0  0  0
   -6.4914   -4.6377    1.6066 C   0  0  0  0  0  0  0  0  0  0  0  0
   -3.7284   -6.7553    5.2873 N   0  0  0  0  0  0  0  0  0  0  0  0
   -2.3738   -6.9008    5.8822 C   0  0  2  0  0  0  0  0  0  0  0  0
   -2.1661   -6.0869    6.5769 H   0  0  0  0  0  0  0  0  0  0  0  0
   -1.4345   -6.8408    4.6831 C   0  0  2  0  0  0  0  0  0  0  0  0
   -0.2850   -5.8402    4.9934 C   0  0  0  0  0  0  0  0  0  0  0  0
    0.9047   -6.4481    4.1872 C   0  0  0  0  0  0  0  0  0  0  0  0
   -0.7438   -8.1236    4.2868 C   0  0  2  0  0  0  0  0  0  0  0  0
   -0.9549   -8.1479    3.2177 H   0  0  0  0  0  0  0  0  0  0  0  0
   -1.2355   -9.4505    4.7328 C   0  0  1  0  0  0  0  0  0  0  0  0
   -0.2237  -10.2709    5.4719 C   0  0  0  0  0  0  0  0  0  0  0  0
    0.9412   -9.8103    5.8126 C   0  0  0  0  0  0  0  0  0  0  0  0
    1.3523   -8.4012    5.5056 C   0  0  0  0  0  0  0  0  0  0  0  0
   -2.5176   -9.3563    5.5608 C   0  0  2  0  0  0  0  0  0  0  0  0
   -3.3588   -9.1148    4.9111 H   0  0  0  0  0  0  0  0  0  0  0  0
   -2.3301   -8.2465    6.5990 C   0  0  2  0  0  0  0  0  0  0  0  0
   -3.4384   -8.3138    7.6179 C   0  0  0  0  0  0  0  0  0  0  0  0
   -4.5064   -8.8056    7.3205 O   0  0  0  0  0  0  0  0  0  0  0  0
   -3.2428   -7.8274    8.8595 N   0  0  0  0  0  0  0  0  0  0  0  0
   -1.0682   -8.4022    7.2513 O   0  0  0  0  0  0  0  0  0  0  0  0
   -2.7594  -10.6001    6.2216 O   0  0  0  0  0  0  0  0  0  0  0  0
   -1.5894  -10.2270    3.4628 C   0  0  0  0  0  0  0  0  0  0  0  0
   -2.0968  -11.6198    3.8414 C   0  0  0  0  0  0  0  0  0  0  0  0
   -4.5875   -5.9159    6.1330 C   0  0  0  0  0  0  0  0  0  0  0  0
   -2.7863   -3.2668    0.1560 C   0  0  0  0  0  0  0  0  0  0  0  0
   -1.8733   -2.5029   -0.0510 O   0  0  0  0  0  0  0  0  0  0  0  0
   -4.0186   -2.7911    0.3941 O   0  0  0  0  0  0  0  0  0  0  0  0
   -4.1808   -1.3482    0.3877 C   0  0  0  0  0  0  0  0  0  0  0  0
   -0.7844   -6.8382   -4.2213 O   0  0  0  0  0  0  0  0  0  0  0  0
    0.3555   -9.8161   -4.3182 H   0  0  0  0  0  0  0  0  0  0  0  0
    0.4293   -8.5306   -5.5471 H   0  0  0  0  0  0  0  0  0  0  0  0
    1.9060   -9.4155   -5.0951 H   0  0  0  0  0  0  0  0  0  0  0  0
    1.8549   -7.1720   -4.0403 H   0  0  0  0  0  0  0  0  0  0  0  0
    1.7811   -8.4575   -2.8114 H   0  0  0  0  0  0  0  0  0  0  0  0
    1.0663   -6.5825   -1.4665 H   0  0  0  0  0  0  0  0  0  0  0  0
    0.4870   -5.3702   -2.6406 H   0  0  0  0  0  0  0  0  0  0  0  0
   -0.5425   -4.0820   -0.4917 H   0  0  0  0  0  0  0  0  0  0  0  0
   -0.5019   -5.3754    0.7341 H   0  0  0  0  0  0  0  0  0  0  0  0
   -5.6010   -8.6409   -2.4082 H   0  0  0  0  0  0  0  0  0  0  0  0
   -6.8509   -8.0435   -4.4450 H   0  0  0  0  0  0  0  0  0  0  0  0
   -6.7201   -5.8161   -5.4069 H   0  0  0  0  0  0  0  0  0  0  0  0
   -5.3076   -4.0518   -4.4062 H   0  0  0  0  0  0  0  0  0  0  0  0
   -4.7777   -8.3123   -0.0207 H   0  0  0  0  0  0  0  0  0  0  0  0
   -3.3452   -7.6641    0.7885 H   0  0  0  0  0  0  0  0  0  0  0  0
   -3.5072   -9.4814   -1.6706 H   0  0  0  0  0  0  0  0  0  0  0  0
   -2.4212   -9.6193   -0.2525 H   0  0  0  0  0  0  0  0  0  0  0  0
   -1.6844   -7.3488    0.4151 H   0  0  0  0  0  0  0  0  0  0  0  0
   -0.1684   -7.8954   -0.3710 H   0  0  0  0  0  0  0  0  0  0  0  0
   -1.4018   -9.0903   -3.3693 H   0  0  0  0  0  0  0  0  0  0  0  0
   -0.2511   -9.2637   -2.0305 H   0  0  0  0  0  0  0  0  0  0  0  0
   -0.8691   -5.8521    1.9996 H   0  0  0  0  0  0  0  0  0  0  0  0
   -5.6263   -5.6307    3.5237 H   0  0  0  0  0  0  0  0  0  0  0  0
   -7.1372   -4.1922    0.8500 H   0  0  0  0  0  0  0  0  0  0  0  0
   -6.8331   -5.6491    1.8262 H   0  0  0  0  0  0  0  0  0  0  0  0
   -6.5279   -4.0365    2.5152 H   0  0  0  0  0  0  0  0  0  0  0  0
   -0.5368   -4.8410    4.6380 H   0  0  0  0  0  0  0  0  0  0  0  0
   -0.0648   -5.8244    6.0608 H   0  0  0  0  0  0  0  0  0  0  0  0
    1.8518   -6.1617    4.6444 H   0  0  0  0  0  0  0  0  0  0  0  0
    0.8678   -6.1229    3.1475 H   0  0  0  0  0  0  0  0  0  0  0  0
   -0.4740  -11.2886    5.7329 H   0  0  0  0  0  0  0  0  0  0  0  0
    1.6321  -10.4587    6.3309 H   0  0  0  0  0  0  0  0  0  0  0  0
    1.0685   -7.7560    6.3371 H   0  0  0  0  0  0  0  0  0  0  0  0
    2.4339   -8.3636    5.3761 H   0  0  0  0  0  0  0  0  0  0  0  0
   -2.3886   -7.4341    9.0973 H   0  0  0  0  0  0  0  0  0  0  0  0
   -3.9562   -7.8707    9.5153 H   0  0  0  0  0  0  0  0  0  0  0  0
   -0.9723   -9.2382    7.7277 H   0  0  0  0  0  0  0  0  0  0  0  0
   -3.5475  -10.6010    6.7820 H   0  0  0  0  0  0  0  0  0  0  0  0
   -2.3665   -9.6935    2.9155 H   0  0  0  0  0  0  0  0  0  0  0  0
   -0.7028  -10.3213    2.8357 H   0  0  0  0  0  0  0  0  0  0  0  0
   -2.3489  -12.1730    2.9367 H   0  0  0  0  0  0  0  0  0  0  0  0
   -1.3196  -12.1533    4.3888 H   0  0  0  0  0  0  0  0  0  0  0  0
   -2.9833  -11.5255    4.4686 H   0  0  0  0  0  0  0  0  0  0  0  0
   -5.6038   -5.9234    5.7392 H   0  0  0  0  0  0  0  0  0  0  0  0
   -4.5892   -6.3069    7.1505 H   0  0  0  0  0  0  0  0  0  0  0  0
   -4.2069   -4.8945    6.1369 H   0  0  0  0  0  0  0  0  0  0  0  0
   -3.5436   -0.9075    1.1544 H   0  0  0  0  0  0  0  0  0  0  0  0
   -3.8989   -0.9552   -0.5891 H   0  0  0  0  0  0  0  0  0  0  0  0
   -5.2219   -1.0987    0.5930 H   0  0  0  0  0  0  0  0  0  0  0  0
   -0.9885   -7.4701   -4.9242 H   0  0  0  0  0  0  0  0  0  0  0  0
   -1.9111   -7.9811   -1.5690 N   0  3  1  0  0  0  0  0  0  0  0  0
   -2.4398   -7.2451   -2.0518 H   0  0  0  0  0  0  0  0  0  0  0  0
    0.6983   -7.8866    4.2678 N   0  3  2  0  0  0  0  0  0  0  0  0
    1.1115   -8.3483    3.4490 H   0  0  0  0  0  0  0  0  0  0  0  0
  1  2  1  0  0  0  0
  1 59  1  0  0  0  0
  1 60  1  0  0  0  0
  1 61  1  0  0  0  0
  2  3  1  0  0  0  0
  2 62  1  0  0  0  0
  2 63  1  0  0  0  0
  3 22  1  0  0  0  0
  3  4  1  0  0  0  0
  3 58  1  6  0  0  0
  4  5  1  0  0  0  0
  4 64  1  0  0  0  0
  4 65  1  0  0  0  0
  5  6  1  6  0  0  0
  5 21  1  0  0  0  0
  5  7  1  0  0  0  0
  7  8  1  0  0  0  0
  7 66  1  0  0  0  0
  7 67  1  0  0  0  0
  8  9  1  0  0  0  0
  8 23  1  0  0  0  0
  8 54  1  6  0  0  0
  9 17  1  0  0  0  0
  9 10  2  0  0  0  0
 10 11  1  0  0  0  0
 10 19  1  0  0  0  0
 11 16  2  0  0  0  0
 11 12  1  0  0  0  0
 12 13  2  0  0  0  0
 12 68  1  0  0  0  0
 13 14  1  0  0  0  0
 13 69  1  0  0  0  0
 14 15  2  0  0  0  0
 14 70  1  0  0  0  0
 15 16  1  0  0  0  0
 15 71  1  0  0  0  0
 16 17  1  0  0  0  0
 17 18  1  0  0  0  0
 19 20  1  0  0  0  0
 19 72  1  0  0  0  0
 19 73  1  0  0  0  0
 20 74  1  0  0  0  0
 20 75  1  0  0  0  0
 20109  1  0  0  0  0
 21 76  1  0  0  0  0
 21 77  1  0  0  0  0
 21109  1  0  0  0  0
 22 78  1  0  0  0  0
 22 79  1  0  0  0  0
 22109  1  0  0  0  0
 23 28  2  0  0  0  0
 23 24  1  0  0  0  0
 24 25  2  0  0  0  0
 24 80  1  0  0  0  0
 25 26  1  0  0  0  0
 26 27  2  0  0  0  0
 26 31  1  0  0  0  0
 27 28  1  0  0  0  0
 27 81  1  0  0  0  0
 28 29  1  0  0  0  0
 29 30  1  0  0  0  0
 30 82  1  0  0  0  0
 30 83  1  0  0  0  0
 30 84  1  0  0  0  0
 31 32  1  0  0  0  0
 31 53  1  0  0  0  0
 32 33  1  1  0  0  0
 32 45  1  0  0  0  0
 32 34  1  0  0  0  0
 34 25  1  6  0  0  0
 34 37  1  0  0  0  0
 34 35  1  0  0  0  0
 35 36  1  0  0  0  0
 35 85  1  0  0  0  0
 35 86  1  0  0  0  0
 36 87  1  0  0  0  0
 36 88  1  0  0  0  0
 36111  1  0  0  0  0
 37 38  1  6  0  0  0
 37 39  1  0  0  0  0
 37111  1  0  0  0  0
 39 40  1  0  0  0  0
 39 43  1  0  0  0  0
 39 51  1  6  0  0  0
 40 41  2  0  0  0  0
 40 89  1  0  0  0  0
 41 42  1  0  0  0  0
 41 90  1  0  0  0  0
 42 91  1  0  0  0  0
 42 92  1  0  0  0  0
 42111  1  0  0  0  0
 43 44  1  6  0  0  0
 43 45  1  0  0  0  0
 43 50  1  0  0  0  0
 45 46  1  1  0  0  0
 45 49  1  0  0  0  0
 46 47  2  0  0  0  0
 46 48  1  0  0  0  0
 48 93  1  0  0  0  0
 48 94  1  0  0  0  0
 49 95  1  0  0  0  0
 50 96  1  0  0  0  0
 51 52  1  0  0  0  0
 51 97  1  0  0  0  0
 51 98  1  0  0  0  0
 52 99  1  0  0  0  0
 52100  1  0  0  0  0
 52101  1  0  0  0  0
 53102  1  0  0  0  0
 53103  1  0  0  0  0
 53104  1  0  0  0  0
 54 55  2  0  0  0  0
 54 56  1  0  0  0  0
 56 57  1  0  0  0  0
 57105  1  0  0  0  0
 57106  1  0  0  0  0
 57107  1  0  0  0  0
 58108  1  0  0  0  0
109110  1  6  0  0  0
111112  1  6  0  0  0
M  CHG  2 109   1 111   1
M  END
$$$$
