ZINC00001283
 OpenBabel08292219463D

 38 39  0  0  0  0  0  0  0  0999 V2000
   -0.0184    1.5028    0.0103 C   0  0  0  0  0  0  0  0  0  0  0  0
    0.0021   -0.0041    0.0020 C   0  0  0  0  0  0  0  0  0  0  0  0
    0.5814   -0.6603   -1.0115 C   0  0  0  0  0  0  0  0  0  0  0  0
    0.6015   -2.1421   -1.0197 C   0  0  0  0  0  0  0  0  0  0  0  0
    1.1808   -2.7984   -2.0333 C   0  0  0  0  0  0  0  0  0  0  0  0
    1.2013   -4.3052   -2.0415 C   0  0  0  0  0  0  0  0  0  0  0  0
   -0.0198   -2.8981    0.0943 C   0  0  0  0  0  0  0  0  0  0  0  0
   -1.3968   -2.8302    0.3023 C   0  0  0  0  0  0  0  0  0  0  0  0
   -1.9716   -3.5348    1.3388 C   0  0  0  0  0  0  0  0  0  0  0  0
   -1.1807   -4.3113    2.1750 C   0  0  0  0  0  0  0  0  0  0  0  0
    0.1908   -4.3811    1.9705 C   0  0  0  0  0  0  0  0  0  0  0  0
    0.7710   -3.6830    0.9325 C   0  0  0  0  0  0  0  0  0  0  0  0
   -1.7500   -5.0041    3.1958 O   0  0  0  0  0  0  0  0  0  0  0  0
    1.2027    0.0957   -2.1255 C   0  0  0  0  0  0  0  0  0  0  0  0
    0.6711    0.0078   -3.4115 C   0  0  0  0  0  0  0  0  0  0  0  0
    1.2509    0.7124   -4.4453 C   0  0  0  0  0  0  0  0  0  0  0  0
    2.3629    1.5089   -4.2067 C   0  0  0  0  0  0  0  0  0  0  0  0
    2.8946    1.5985   -2.9272 C   0  0  0  0  0  0  0  0  0  0  0  0
    2.3162    0.9005   -1.8882 C   0  0  0  0  0  0  0  0  0  0  0  0
    2.9322    2.2016   -5.2275 O   0  0  0  0  0  0  0  0  0  0  0  0
    1.0042    1.8801    0.0026 H   0  0  0  0  0  0  0  0  0  0  0  0
   -0.5455    1.8639   -0.8728 H   0  0  0  0  0  0  0  0  0  0  0  0
   -0.5286    1.8543    0.9071 H   0  0  0  0  0  0  0  0  0  0  0  0
   -0.4505   -0.5547    0.8134 H   0  0  0  0  0  0  0  0  0  0  0  0
    1.6334   -2.2477   -2.8447 H   0  0  0  0  0  0  0  0  0  0  0  0
    1.7115   -4.6567   -2.9383 H   0  0  0  0  0  0  0  0  0  0  0  0
    1.7284   -4.6663   -1.1585 H   0  0  0  0  0  0  0  0  0  0  0  0
    0.1787   -4.6825   -2.0338 H   0  0  0  0  0  0  0  0  0  0  0  0
   -2.0125   -2.2260   -0.3476 H   0  0  0  0  0  0  0  0  0  0  0  0
   -3.0381   -3.4823    1.5007 H   0  0  0  0  0  0  0  0  0  0  0  0
    0.8034   -4.9860    2.6227 H   0  0  0  0  0  0  0  0  0  0  0  0
    1.8373   -3.7412    0.7712 H   0  0  0  0  0  0  0  0  0  0  0  0
   -2.0301   -5.8981    2.9563 H   0  0  0  0  0  0  0  0  0  0  0  0
   -0.1936   -0.6119   -3.5978 H   0  0  0  0  0  0  0  0  0  0  0  0
    0.8398    0.6445   -5.4416 H   0  0  0  0  0  0  0  0  0  0  0  0
    3.7596    2.2189   -2.7448 H   0  0  0  0  0  0  0  0  0  0  0  0
    2.7276    0.9741   -0.8923 H   0  0  0  0  0  0  0  0  0  0  0  0
    2.5683    3.0889   -5.3517 H   0  0  0  0  0  0  0  0  0  0  0  0
  1  2  1  0  0  0  0
  1 21  1  0  0  0  0
  1 22  1  0  0  0  0
  1 23  1  0  0  0  0
  2  3  2  0  0  0  0
  2 24  1  0  0  0  0
  3  4  1  0  0  0  0
  3 14  1  0  0  0  0
  4  5  2  0  0  0  0
  4  7  1  0  0  0  0
  5  6  1  0  0  0  0
  5 25  1  0  0  0  0
  6 26  1  0  0  0  0
  6 27  1  0  0  0  0
  6 28  1  0  0  0  0
  7 12  2  0  0  0  0
  7  8  1  0  0  0  0
  8  9  2  0  0  0  0
  8 29  1  0  0  0  0
  9 10  1  0  0  0  0
  9 30  1  0  0  0  0
 10 11  2  0  0  0  0
 10 13  1  0  0  0  0
 11 12  1  0  0  0  0
 11 31  1  0  0  0  0
 12 32  1  0  0  0  0
 13 33  1  0  0  0  0
 14 19  2  0  0  0  0
 14 15  1  0  0  0  0
 15 16  2  0  0  0  0
 15 34  1  0  0  0  0
 16 17  1  0  0  0  0
 16 35  1  0  0  0  0
 17 18  2  0  0  0  0
 17 20  1  0  0  0  0
 18 19  1  0  0  0  0
 18 36  1  0  0  0  0
 19 37  1  0  0  0  0
 20 38  1  0  0  0  0
M  END
$$$$
