ZINC03823475
 OpenBabel08292219463D

 54 57  0  0  1  0  0  0  0  0999 V2000
   -0.4784   -0.6954    3.2798 C   0  0  0  0  0  0  0  0  0  0  0  0
   -0.4471   -1.1769    1.8923 N   0  3  2  0  0  0  0  0  0  0  0  0
    0.1050   -2.5479    1.8537 C   0  0  0  0  0  0  0  0  0  0  0  0
    0.9313   -2.6049    0.5447 C   0  0  0  0  0  0  0  0  0  0  0  0
    1.5424   -1.1797    0.4976 C   0  0  0  0  0  0  0  0  0  0  0  0
    0.4176   -0.2996    1.0820 C   0  0  2  0  0  0  0  0  0  0  0  0
   -0.1612    0.1476    0.2738 H   0  0  0  0  0  0  0  0  0  0  0  0
    1.0193    0.7965    1.9637 C   0  0  0  0  0  0  0  0  0  0  0  0
    1.8400    1.7313    1.1132 C   0  0  0  0  0  0  0  0  0  0  0  0
    3.1754    1.7223    0.9772 C   0  0  0  0  0  0  0  0  0  0  0  0
    3.5642    2.7182    0.1232 N   0  0  0  0  0  0  0  0  0  0  0  0
    4.4810    2.9085   -0.1304 H   0  0  0  0  0  0  0  0  0  0  0  0
    2.4604    3.4101   -0.3226 C   0  0  0  0  0  0  0  0  0  0  0  0
    1.3313    2.8182    0.2730 C   0  0  0  0  0  0  0  0  0  0  0  0
    0.0566    3.3149   -0.0044 C   0  0  0  0  0  0  0  0  0  0  0  0
   -0.0885    4.3728   -0.8573 C   0  0  0  0  0  0  0  0  0  0  0  0
    1.0216    4.9575   -1.4505 C   0  0  0  0  0  0  0  0  0  0  0  0
    2.2897    4.4891   -1.1834 C   0  0  0  0  0  0  0  0  0  0  0  0
   -1.4650    4.9085   -1.1563 C   0  0  0  0  0  0  0  0  0  0  0  0
   -1.8175    6.0017   -0.1457 C   0  0  0  0  0  0  0  0  0  0  0  0
   -3.4744    6.6465   -0.5057 S   0  0  0  0  0  0  0  0  0  0  0  0
   -3.4680    7.3510   -1.7397 O   0  0  0  0  0  0  0  0  0  0  0  0
   -4.4543    5.6510   -0.2450 O   0  0  0  0  0  0  0  0  0  0  0  0
   -3.7543    7.8839    0.7170 C   0  0  0  0  0  0  0  0  0  0  0  0
   -4.3371    7.5441    1.9236 C   0  0  0  0  0  0  0  0  0  0  0  0
   -4.5566    8.5149    2.8828 C   0  0  0  0  0  0  0  0  0  0  0  0
   -4.1930    9.8255    2.6357 C   0  0  0  0  0  0  0  0  0  0  0  0
   -3.6093   10.1652    1.4296 C   0  0  0  0  0  0  0  0  0  0  0  0
   -3.3858    9.1936    0.4720 C   0  0  0  0  0  0  0  0  0  0  0  0
   -0.9059    0.3069    3.3070 H   0  0  0  0  0  0  0  0  0  0  0  0
   -1.0883   -1.3671    3.8838 H   0  0  0  0  0  0  0  0  0  0  0  0
    0.5359   -0.6688    3.6781 H   0  0  0  0  0  0  0  0  0  0  0  0
    0.7480   -2.7224    2.7163 H   0  0  0  0  0  0  0  0  0  0  0  0
   -0.7012   -3.2810    1.8258 H   0  0  0  0  0  0  0  0  0  0  0  0
    1.7122   -3.3627    0.6086 H   0  0  0  0  0  0  0  0  0  0  0  0
    0.2869   -2.7821   -0.3164 H   0  0  0  0  0  0  0  0  0  0  0  0
    2.4373   -1.1234    1.1174 H   0  0  0  0  0  0  0  0  0  0  0  0
    1.7647   -0.8895   -0.5293 H   0  0  0  0  0  0  0  0  0  0  0  0
    0.2176    1.3546    2.4474 H   0  0  0  0  0  0  0  0  0  0  0  0
    1.6559    0.3430    2.7234 H   0  0  0  0  0  0  0  0  0  0  0  0
    3.8440    1.0315    1.4692 H   0  0  0  0  0  0  0  0  0  0  0  0
   -0.8119    2.8644    0.4530 H   0  0  0  0  0  0  0  0  0  0  0  0
    0.8908    5.7925   -2.1229 H   0  0  0  0  0  0  0  0  0  0  0  0
    3.1472    4.9501   -1.6510 H   0  0  0  0  0  0  0  0  0  0  0  0
   -1.4817    5.3255   -2.1633 H   0  0  0  0  0  0  0  0  0  0  0  0
   -2.1927    4.1001   -1.0858 H   0  0  0  0  0  0  0  0  0  0  0  0
   -1.8008    5.5846    0.8613 H   0  0  0  0  0  0  0  0  0  0  0  0
   -1.0898    6.8101   -0.2162 H   0  0  0  0  0  0  0  0  0  0  0  0
   -4.6212    6.5202    2.1166 H   0  0  0  0  0  0  0  0  0  0  0  0
   -5.0127    8.2496    3.8252 H   0  0  0  0  0  0  0  0  0  0  0  0
   -4.3651   10.5841    3.3849 H   0  0  0  0  0  0  0  0  0  0  0  0
   -3.3255   11.1891    1.2364 H   0  0  0  0  0  0  0  0  0  0  0  0
   -2.9264    9.4582   -0.4689 H   0  0  0  0  0  0  0  0  0  0  0  0
   -1.3815   -1.1784    1.5115 H   0  0  0  0  0  0  0  0  0  0  0  0
  1  2  1  0  0  0  0
  1 30  1  0  0  0  0
  1 31  1  0  0  0  0
  1 32  1  0  0  0  0
  2  6  1  0  0  0  0
  2  3  1  0  0  0  0
  2 54  1  6  0  0  0
  3  4  1  0  0  0  0
  3 33  1  0  0  0  0
  3 34  1  0  0  0  0
  4  5  1  0  0  0  0
  4 35  1  0  0  0  0
  4 36  1  0  0  0  0
  5  6  1  0  0  0  0
  5 37  1  0  0  0  0
  5 38  1  0  0  0  0
  6  7  1  6  0  0  0
  6  8  1  0  0  0  0
  8  9  1  0  0  0  0
  8 39  1  0  0  0  0
  8 40  1  0  0  0  0
  9 14  1  0  0  0  0
  9 10  2  0  0  0  0
 10 11  1  0  0  0  0
 10 41  1  0  0  0  0
 11 12  1  0  0  0  0
 11 13  1  0  0  0  0
 13 18  2  0  0  0  0
 13 14  1  0  0  0  0
 14 15  2  0  0  0  0
 15 16  1  0  0  0  0
 15 42  1  0  0  0  0
 16 17  2  0  0  0  0
 16 19  1  0  0  0  0
 17 18  1  0  0  0  0
 17 43  1  0  0  0  0
 18 44  1  0  0  0  0
 19 20  1  0  0  0  0
 19 45  1  0  0  0  0
 19 46  1  0  0  0  0
 20 21  1  0  0  0  0
 20 47  1  0  0  0  0
 20 48  1  0  0  0  0
 21 22  2  0  0  0  0
 21 23  2  0  0  0  0
 21 24  1  0  0  0  0
 24 29  2  0  0  0  0
 24 25  1  0  0  0  0
 25 26  2  0  0  0  0
 25 49  1  0  0  0  0
 26 27  1  0  0  0  0
 26 50  1  0  0  0  0
 27 28  2  0  0  0  0
 27 51  1  0  0  0  0
 28 29  1  0  0  0  0
 28 52  1  0  0  0  0
 29 53  1  0  0  0  0
M  CHG  1   2   1
M  END
$$$$
