ZINC05133329
 OpenBabel08292219463D

 13 13  0  0  0  0  0  0  0  0999 V2000
   -0.0167    1.3784    0.0096 C   0  0  0  0  0  0  0  0  0  0  0  0
    1.1698    2.0883    0.0021 C   0  0  0  0  0  0  0  0  0  0  0  0
    2.3773    1.4175   -0.0134 C   0  0  0  0  0  0  0  0  0  0  0  0
    2.3989    0.0304   -0.0210 C   0  0  0  0  0  0  0  0  0  0  0  0
    1.2070   -0.6796   -0.0130 C   0  0  0  0  0  0  0  0  0  0  0  0
    0.0021   -0.0041    0.0020 C   0  0  0  0  0  0  0  0  0  0  0  0
    3.5855   -0.6319   -0.0368 O   0  0  0  0  0  0  0  0  0  0  0  0
   -0.9596    1.9047    0.0260 H   0  0  0  0  0  0  0  0  0  0  0  0
    1.1525    3.1682    0.0080 H   0  0  0  0  0  0  0  0  0  0  0  0
    3.3038    1.9724   -0.0200 H   0  0  0  0  0  0  0  0  0  0  0  0
    1.2211   -1.7595   -0.0193 H   0  0  0  0  0  0  0  0  0  0  0  0
   -0.9260   -0.5563    0.0082 H   0  0  0  0  0  0  0  0  0  0  0  0
    3.9380   -0.8283    0.8420 H   0  0  0  0  0  0  0  0  0  0  0  0
  1  6  2  0  0  0  0
  1  2  1  0  0  0  0
  1  8  1  0  0  0  0
  2  3  2  0  0  0  0
  2  9  1  0  0  0  0
  3  4  1  0  0  0  0
  3 10  1  0  0  0  0
  4  5  2  0  0  0  0
  4  7  1  0  0  0  0
  5  6  1  0  0  0  0
  5 11  1  0  0  0  0
  6 12  1  0  0  0  0
  7 13  1  0  0  0  0
M  END
$$$$
