ZINC04212945
 OpenBabel08292219463D

 70 73  0  0  1  0  0  0  0  0999 V2000
    4.0442    2.7438    1.0506 C   0  0  0  0  0  0  0  0  0  0  0  0
    3.7331    1.2887    0.6946 C   0  0  0  0  0  0  0  0  0  0  0  0
    3.7383    0.4399    1.9675 C   0  0  0  0  0  0  0  0  0  0  0  0
    3.4319   -0.9934    1.6168 C   0  0  0  0  0  0  0  0  0  0  0  0
    3.2300   -1.3040    0.4667 O   0  0  0  0  0  0  0  0  0  0  0  0
    3.3832   -1.9248    2.5821 O   0  0  0  0  0  0  0  0  0  0  0  0
    2.9825   -3.2406    2.1943 C   0  0  2  0  0  0  0  0  0  0  0  0
    1.5681   -3.2069    1.5634 C   0  0  0  0  0  0  0  0  0  0  0  0
    0.6469   -4.0242    2.5097 C   0  0  0  0  0  0  0  0  0  0  0  0
    1.3776   -3.9429    3.8545 C   0  0  2  0  0  0  0  0  0  0  0  0
    1.2386   -2.9591    4.3027 H   0  0  0  0  0  0  0  0  0  0  0  0
    2.8555   -4.1375    3.4215 C   0  0  2  0  0  0  0  0  0  0  0  0
    3.7222   -3.7790    4.6133 C   0  0  0  0  0  0  0  0  0  0  0  0
    3.4229   -4.8058    5.7171 C   0  0  1  0  0  0  0  0  0  0  0  0
    4.0062   -4.5554    6.6033 H   0  0  0  0  0  0  0  0  0  0  0  0
    1.9422   -4.8225    6.0843 C   0  0  1  0  0  0  0  0  0  0  0  0
    1.0391   -5.0313    4.8568 C   0  0  1  0  0  0  0  0  0  0  0  0
    1.2450   -6.0092    4.4215 H   0  0  0  0  0  0  0  0  0  0  0  0
   -0.4325   -4.9255    5.2619 C   0  0  0  0  0  0  0  0  0  0  0  0
   -0.7798   -6.0489    6.2438 C   0  0  1  0  0  0  0  0  0  0  0  0
   -0.6831   -7.0145    5.7474 H   0  0  0  0  0  0  0  0  0  0  0  0
    0.1880   -5.9733    7.4097 C   0  0  0  0  0  0  0  0  0  0  0  0
   -0.2937   -5.9513    8.6446 C   0  0  0  0  0  0  0  0  0  0  0  0
    0.6127   -5.8576    9.7996 C   0  0  0  0  0  0  0  0  0  0  0  0
    0.1771   -5.8767   10.9356 O   0  0  0  0  0  0  0  0  0  0  0  0
    2.0593   -5.7407    9.5496 C   0  0  0  0  0  0  0  0  0  0  0  0
    2.5186   -5.7718    8.3084 C   0  0  0  0  0  0  0  0  0  0  0  0
    1.6824   -5.9476    7.0903 C   0  0  2  0  0  0  0  0  0  0  0  0
    2.0784   -7.2676    6.4257 C   0  0  0  0  0  0  0  0  0  0  0  0
   -2.0902   -5.8844    6.7053 F   0  0  0  0  0  0  0  0  0  0  0  0
    1.5980   -3.5973    6.6652 F   0  0  0  0  0  0  0  0  0  0  0  0
    3.8035   -6.1053    5.2607 O   0  0  0  0  0  0  0  0  0  0  0  0
    3.0919   -5.5961    3.0244 C   0  0  0  0  0  0  0  0  0  0  0  0
    3.9762   -3.8230    1.2225 C   0  0  0  0  0  0  0  0  0  0  0  0
    3.6070   -4.5981    0.3732 O   0  0  0  0  0  0  0  0  0  0  0  0
    5.4305   -3.4382    1.3104 C   0  0  0  0  0  0  0  0  0  0  0  0
    6.1454   -4.0254    0.2213 O   0  0  0  0  0  0  0  0  0  0  0  0
    7.4629   -3.7781    0.1532 C   0  0  0  0  0  0  0  0  0  0  0  0
    7.9918   -3.0860    0.9905 O   0  0  0  0  0  0  0  0  0  0  0  0
    8.2825   -4.3638   -0.9677 C   0  0  0  0  0  0  0  0  0  0  0  0
    5.0257    2.8008    1.5213 H   0  0  0  0  0  0  0  0  0  0  0  0
    4.0405    3.3485    0.1437 H   0  0  0  0  0  0  0  0  0  0  0  0
    3.2881    3.1187    1.7404 H   0  0  0  0  0  0  0  0  0  0  0  0
    2.7516    1.2317    0.2239 H   0  0  0  0  0  0  0  0  0  0  0  0
    4.4892    0.9138    0.0047 H   0  0  0  0  0  0  0  0  0  0  0  0
    4.7198    0.4969    2.4382 H   0  0  0  0  0  0  0  0  0  0  0  0
    2.9822    0.8148    2.6573 H   0  0  0  0  0  0  0  0  0  0  0  0
    1.2142   -2.1784    1.4931 H   0  0  0  0  0  0  0  0  0  0  0  0
    1.5887   -3.6644    0.5743 H   0  0  0  0  0  0  0  0  0  0  0  0
   -0.3396   -3.5656    2.5784 H   0  0  0  0  0  0  0  0  0  0  0  0
    0.5700   -5.0585    2.1745 H   0  0  0  0  0  0  0  0  0  0  0  0
    4.7750   -3.8290    4.3352 H   0  0  0  0  0  0  0  0  0  0  0  0
    3.4768   -2.7761    4.9626 H   0  0  0  0  0  0  0  0  0  0  0  0
   -0.6093   -3.9608    5.7373 H   0  0  0  0  0  0  0  0  0  0  0  0
   -1.0599   -5.0124    4.3748 H   0  0  0  0  0  0  0  0  0  0  0  0
   -1.3606   -6.0021    8.8041 H   0  0  0  0  0  0  0  0  0  0  0  0
    2.7441   -5.6294   10.3773 H   0  0  0  0  0  0  0  0  0  0  0  0
    3.5841   -5.6764    8.1598 H   0  0  0  0  0  0  0  0  0  0  0  0
    3.1624   -7.3783    6.4550 H   0  0  0  0  0  0  0  0  0  0  0  0
    1.6139   -8.0968    6.9594 H   0  0  0  0  0  0  0  0  0  0  0  0
    1.7410   -7.2681    5.3893 H   0  0  0  0  0  0  0  0  0  0  0  0
    4.7411   -6.1851    5.0380 H   0  0  0  0  0  0  0  0  0  0  0  0
    4.1610   -5.7713    2.9046 H   0  0  0  0  0  0  0  0  0  0  0  0
    2.7011   -6.2522    3.8021 H   0  0  0  0  0  0  0  0  0  0  0  0
    2.5820   -5.8037    2.0837 H   0  0  0  0  0  0  0  0  0  0  0  0
    5.5228   -2.3531    1.2627 H   0  0  0  0  0  0  0  0  0  0  0  0
    5.8450   -3.7970    2.2526 H   0  0  0  0  0  0  0  0  0  0  0  0
    7.6380   -4.9541   -1.6190 H   0  0  0  0  0  0  0  0  0  0  0  0
    8.7401   -3.5585   -1.5424 H   0  0  0  0  0  0  0  0  0  0  0  0
    9.0622   -5.0023   -0.5525 H   0  0  0  0  0  0  0  0  0  0  0  0
  1  2  1  0  0  0  0
  1 41  1  0  0  0  0
  1 42  1  0  0  0  0
  1 43  1  0  0  0  0
  2  3  1  0  0  0  0
  2 44  1  0  0  0  0
  2 45  1  0  0  0  0
  3  4  1  0  0  0  0
  3 46  1  0  0  0  0
  3 47  1  0  0  0  0
  4  5  2  0  0  0  0
  4  6  1  0  0  0  0
  7  6  1  1  0  0  0
  7 12  1  0  0  0  0
  7  8  1  0  0  0  0
  7 34  1  0  0  0  0
  8  9  1  0  0  0  0
  8 48  1  0  0  0  0
  8 49  1  0  0  0  0
  9 10  1  0  0  0  0
  9 50  1  0  0  0  0
  9 51  1  0  0  0  0
 10 11  1  1  0  0  0
 10 17  1  0  0  0  0
 10 12  1  0  0  0  0
 12 13  1  0  0  0  0
 12 33  1  6  0  0  0
 13 14  1  0  0  0  0
 13 52  1  0  0  0  0
 13 53  1  0  0  0  0
 14 15  1  1  0  0  0
 14 16  1  0  0  0  0
 14 32  1  0  0  0  0
 16 28  1  0  0  0  0
 16 17  1  0  0  0  0
 16 31  1  1  0  0  0
 17 18  1  6  0  0  0
 17 19  1  0  0  0  0
 19 20  1  0  0  0  0
 19 54  1  0  0  0  0
 19 55  1  0  0  0  0
 20 21  1  6  0  0  0
 20 22  1  0  0  0  0
 20 30  1  0  0  0  0
 22 28  1  0  0  0  0
 22 23  2  0  0  0  0
 23 24  1  0  0  0  0
 23 56  1  0  0  0  0
 24 25  2  0  0  0  0
 24 26  1  0  0  0  0
 26 27  2  0  0  0  0
 26 57  1  0  0  0  0
 27 28  1  0  0  0  0
 27 58  1  0  0  0  0
 28 29  1  6  0  0  0
 29 59  1  0  0  0  0
 29 60  1  0  0  0  0
 29 61  1  0  0  0  0
 32 62  1  0  0  0  0
 33 63  1  0  0  0  0
 33 64  1  0  0  0  0
 33 65  1  0  0  0  0
 34 35  2  0  0  0  0
 34 36  1  0  0  0  0
 36 37  1  0  0  0  0
 36 66  1  0  0  0  0
 36 67  1  0  0  0  0
 37 38  1  0  0  0  0
 38 39  2  0  0  0  0
 38 40  1  0  0  0  0
 40 68  1  0  0  0  0
 40 69  1  0  0  0  0
 40 70  1  0  0  0  0
M  END
$$$$
