ZINC04095858
 OpenBabel08292219463D

 81 82  0  0  1  0  0  0  0  0999 V2000
   -0.0184    1.5028    0.0103 C   0  0  0  0  0  0  0  0  0  0  0  0
    0.0021   -0.0041    0.0020 C   0  0  0  0  0  0  0  0  0  0  0  0
    0.0058   -0.6885   -1.1962 C   0  0  0  0  0  0  0  0  0  0  0  0
    0.0259   -2.0791   -1.2097 C   0  0  0  0  0  0  0  0  0  0  0  0
    0.0449   -2.7781   -0.0153 C   0  0  0  0  0  0  0  0  0  0  0  0
    0.0389   -2.0905    1.1864 C   0  0  0  0  0  0  0  0  0  0  0  0
    0.0230   -0.7049    1.1985 C   0  0  0  0  0  0  0  0  0  0  0  0
    0.0225   -0.0339    2.3812 O   0  0  0  0  0  0  0  0  0  0  0  0
    0.0545   -2.8521    2.4867 C   0  0  0  0  0  0  0  0  0  0  0  0
    0.0784   -4.2852    0.0124 C   0  0  0  0  0  0  0  0  0  0  0  0
   -0.3568   -4.8361   -1.3477 C   0  0  0  0  0  0  0  0  0  0  0  0
    0.4167   -4.0876   -2.4407 C   0  0  1  0  0  0  0  0  0  0  0  0
    0.0230   -2.7150   -2.4113 O   0  0  0  0  0  0  0  0  0  0  0  0
    1.9196   -4.1985   -2.1763 C   0  0  0  0  0  0  0  0  0  0  0  0
    0.0877   -4.6889   -3.8086 C   0  0  0  0  0  0  0  0  0  0  0  0
    0.9538   -4.0233   -4.8799 C   0  0  0  0  0  0  0  0  0  0  0  0
    0.6248   -4.6246   -6.2478 C   0  0  0  0  0  0  0  0  0  0  0  0
    1.4909   -3.9590   -7.3191 C   0  0  2  0  0  0  0  0  0  0  0  0
    2.5420   -4.0509   -7.0454 H   0  0  0  0  0  0  0  0  0  0  0  0
    1.1198   -2.4787   -7.4278 C   0  0  0  0  0  0  0  0  0  0  0  0
    1.2528   -4.6447   -8.6660 C   0  0  0  0  0  0  0  0  0  0  0  0
    2.2082   -4.0635   -9.7102 C   0  0  0  0  0  0  0  0  0  0  0  0
    1.9701   -4.7492  -11.0570 C   0  0  0  0  0  0  0  0  0  0  0  0
    2.9255   -4.1680  -12.1012 C   0  0  2  0  0  0  0  0  0  0  0  0
    3.9515   -4.2562  -11.7439 H   0  0  0  0  0  0  0  0  0  0  0  0
    2.5914   -2.6930  -12.3332 C   0  0  0  0  0  0  0  0  0  0  0  0
    2.7749   -4.9378  -13.4148 C   0  0  0  0  0  0  0  0  0  0  0  0
    3.8158   -4.4402  -14.4197 C   0  0  0  0  0  0  0  0  0  0  0  0
    3.6652   -5.2101  -15.7333 C   0  0  0  0  0  0  0  0  0  0  0  0
    4.7061   -4.7125  -16.7383 C   0  0  0  0  0  0  0  0  0  0  0  0
    4.6387   -5.5653  -18.0068 C   0  0  0  0  0  0  0  0  0  0  0  0
    4.4179   -3.2516  -17.0899 C   0  0  0  0  0  0  0  0  0  0  0  0
   -0.0125    0.0741   -2.4958 C   0  0  0  0  0  0  0  0  0  0  0  0
    1.0042    1.8801    0.0026 H   0  0  0  0  0  0  0  0  0  0  0  0
   -0.5455    1.8639   -0.8728 H   0  0  0  0  0  0  0  0  0  0  0  0
   -0.5286    1.8543    0.9071 H   0  0  0  0  0  0  0  0  0  0  0  0
   -0.8609    0.1466    2.7307 H   0  0  0  0  0  0  0  0  0  0  0  0
    1.0859   -3.0205    2.7967 H   0  0  0  0  0  0  0  0  0  0  0  0
   -0.4653   -2.2755    3.2518 H   0  0  0  0  0  0  0  0  0  0  0  0
   -0.4456   -3.8112    2.3521 H   0  0  0  0  0  0  0  0  0  0  0  0
    1.0917   -4.6215    0.2325 H   0  0  0  0  0  0  0  0  0  0  0  0
   -0.5994   -4.6489    0.7847 H   0  0  0  0  0  0  0  0  0  0  0  0
   -0.1314   -5.9011   -1.4019 H   0  0  0  0  0  0  0  0  0  0  0  0
   -1.4271   -4.6792   -1.4822 H   0  0  0  0  0  0  0  0  0  0  0  0
    2.2128   -5.2483   -2.1804 H   0  0  0  0  0  0  0  0  0  0  0  0
    2.4658   -3.6656   -2.9547 H   0  0  0  0  0  0  0  0  0  0  0  0
    2.1510   -3.7605   -1.2053 H   0  0  0  0  0  0  0  0  0  0  0  0
    0.2889   -5.7600   -3.7925 H   0  0  0  0  0  0  0  0  0  0  0  0
   -0.9649   -4.5203   -4.0359 H   0  0  0  0  0  0  0  0  0  0  0  0
    0.7526   -2.9521   -4.8960 H   0  0  0  0  0  0  0  0  0  0  0  0
    2.0064   -4.1919   -4.6526 H   0  0  0  0  0  0  0  0  0  0  0  0
    0.8260   -5.6957   -6.2318 H   0  0  0  0  0  0  0  0  0  0  0  0
   -0.4278   -4.4559   -6.4751 H   0  0  0  0  0  0  0  0  0  0  0  0
    1.7368   -2.0045   -8.1911 H   0  0  0  0  0  0  0  0  0  0  0  0
    0.0687   -2.3867   -7.7016 H   0  0  0  0  0  0  0  0  0  0  0  0
    1.2894   -1.9901   -6.4683 H   0  0  0  0  0  0  0  0  0  0  0  0
    1.4320   -5.7151   -8.5654 H   0  0  0  0  0  0  0  0  0  0  0  0
    0.2233   -4.4768   -8.9822 H   0  0  0  0  0  0  0  0  0  0  0  0
    2.0290   -2.9930   -9.8107 H   0  0  0  0  0  0  0  0  0  0  0  0
    3.2378   -4.2313   -9.3940 H   0  0  0  0  0  0  0  0  0  0  0  0
    2.1494   -5.8196  -10.9565 H   0  0  0  0  0  0  0  0  0  0  0  0
    0.9406   -4.5813  -11.3732 H   0  0  0  0  0  0  0  0  0  0  0  0
    3.2721   -2.2790  -13.0771 H   0  0  0  0  0  0  0  0  0  0  0  0
    1.5654   -2.6048  -12.6905 H   0  0  0  0  0  0  0  0  0  0  0  0
    2.6987   -2.1446  -11.3974 H   0  0  0  0  0  0  0  0  0  0  0  0
    2.9260   -6.0017  -13.2318 H   0  0  0  0  0  0  0  0  0  0  0  0
    1.7750   -4.7769  -13.8176 H   0  0  0  0  0  0  0  0  0  0  0  0
    3.6647   -3.3764  -14.6027 H   0  0  0  0  0  0  0  0  0  0  0  0
    4.8158   -4.6012  -14.0169 H   0  0  0  0  0  0  0  0  0  0  0  0
    3.8163   -6.2739  -15.5504 H   0  0  0  0  0  0  0  0  0  0  0  0
    2.6652   -5.0491  -16.1362 H   0  0  0  0  0  0  0  0  0  0  0  0
    5.7010   -4.7912  -16.3000 H   0  0  0  0  0  0  0  0  0  0  0  0
    3.6438   -5.4865  -18.4451 H   0  0  0  0  0  0  0  0  0  0  0  0
    5.3802   -5.2108  -18.7227 H   0  0  0  0  0  0  0  0  0  0  0  0
    4.8440   -6.6060  -17.7563 H   0  0  0  0  0  0  0  0  0  0  0  0
    4.4659   -2.6441  -16.1862 H   0  0  0  0  0  0  0  0  0  0  0  0
    5.1594   -2.8971  -17.8059 H   0  0  0  0  0  0  0  0  0  0  0  0
    3.4230   -3.1729  -17.5282 H   0  0  0  0  0  0  0  0  0  0  0  0
    1.0107    0.2732   -2.8147 H   0  0  0  0  0  0  0  0  0  0  0  0
   -0.5217   -0.5171   -3.2569 H   0  0  0  0  0  0  0  0  0  0  0  0
   -0.5396    1.0179   -2.3559 H   0  0  0  0  0  0  0  0  0  0  0  0
  1  2  1  0  0  0  0
  1 34  1  0  0  0  0
  1 35  1  0  0  0  0
  1 36  1  0  0  0  0
  2  7  2  0  0  0  0
  2  3  1  0  0  0  0
  3  4  2  0  0  0  0
  3 33  1  0  0  0  0
  4 13  1  0  0  0  0
  4  5  1  0  0  0  0
  5  6  2  0  0  0  0
  5 10  1  0  0  0  0
  6  7  1  0  0  0  0
  6  9  1  0  0  0  0
  7  8  1  0  0  0  0
  8 37  1  0  0  0  0
  9 38  1  0  0  0  0
  9 39  1  0  0  0  0
  9 40  1  0  0  0  0
 10 11  1  0  0  0  0
 10 41  1  0  0  0  0
 10 42  1  0  0  0  0
 11 12  1  0  0  0  0
 11 43  1  0  0  0  0
 11 44  1  0  0  0  0
 12 13  1  0  0  0  0
 12 14  1  1  0  0  0
 12 15  1  0  0  0  0
 14 45  1  0  0  0  0
 14 46  1  0  0  0  0
 14 47  1  0  0  0  0
 15 16  1  0  0  0  0
 15 48  1  0  0  0  0
 15 49  1  0  0  0  0
 16 17  1  0  0  0  0
 16 50  1  0  0  0  0
 16 51  1  0  0  0  0
 17 18  1  0  0  0  0
 17 52  1  0  0  0  0
 17 53  1  0  0  0  0
 18 19  1  1  0  0  0
 18 20  1  0  0  0  0
 18 21  1  0  0  0  0
 20 54  1  0  0  0  0
 20 55  1  0  0  0  0
 20 56  1  0  0  0  0
 21 22  1  0  0  0  0
 21 57  1  0  0  0  0
 21 58  1  0  0  0  0
 22 23  1  0  0  0  0
 22 59  1  0  0  0  0
 22 60  1  0  0  0  0
 23 24  1  0  0  0  0
 23 61  1  0  0  0  0
 23 62  1  0  0  0  0
 24 25  1  1  0  0  0
 24 26  1  0  0  0  0
 24 27  1  0  0  0  0
 26 63  1  0  0  0  0
 26 64  1  0  0  0  0
 26 65  1  0  0  0  0
 27 28  1  0  0  0  0
 27 66  1  0  0  0  0
 27 67  1  0  0  0  0
 28 29  1  0  0  0  0
 28 68  1  0  0  0  0
 28 69  1  0  0  0  0
 29 30  1  0  0  0  0
 29 70  1  0  0  0  0
 29 71  1  0  0  0  0
 30 31  1  0  0  0  0
 30 32  1  0  0  0  0
 30 72  1  0  0  0  0
 31 73  1  0  0  0  0
 31 74  1  0  0  0  0
 31 75  1  0  0  0  0
 32 76  1  0  0  0  0
 32 77  1  0  0  0  0
 32 78  1  0  0  0  0
 33 79  1  0  0  0  0
 33 80  1  0  0  0  0
 33 81  1  0  0  0  0
M  END
$$$$
