ZINC03920355
 OpenBabel08292219463D

 84 86  0  0  1  0  0  0  0  0999 V2000
    5.8721   -0.8218    4.5385 C   0  0  0  0  0  0  0  0  0  0  0  0
    4.3905   -0.9661    4.8921 C   0  0  0  0  0  0  0  0  0  0  0  0
    3.6324    0.2304    4.3775 C   0  0  0  0  0  0  0  0  0  0  0  0
    4.2171    1.1084    3.7884 O   0  0  0  0  0  0  0  0  0  0  0  0
    2.3076    0.3206    4.5737 O   0  0  0  0  0  0  0  0  0  0  0  0
    1.6427    1.5008    4.0508 C   0  0  2  0  0  0  0  0  0  0  0  0
    2.1802    2.3930    4.3720 H   0  0  0  0  0  0  0  0  0  0  0  0
    0.2072    1.5529    4.5776 C   0  0  0  0  0  0  0  0  0  0  0  0
   -0.5058    2.7749    3.9952 C   0  0  0  0  0  0  0  0  0  0  0  0
   -0.5357    0.2821    4.1605 C   0  0  0  0  0  0  0  0  0  0  0  0
    1.6243    1.4439    2.6230 O   0  0  0  0  0  0  0  0  0  0  0  0
    1.8772    2.7319    1.6908 P   0  0  1  0  0  0  0  0  0  0  0  0
    0.9236    3.8022    2.0590 O   0  0  0  0  0  0  0  0  0  0  0  0
    3.5829    3.3293    1.9294 C   0  0  0  0  0  0  0  0  0  0  0  0
    3.7380    3.8754    3.3502 C   0  0  0  0  0  0  0  0  0  0  0  0
    5.1223    4.5083    3.5050 C   0  0  0  0  0  0  0  0  0  0  0  0
    5.2773    5.0545    4.9258 C   0  0  0  0  0  0  0  0  0  0  0  0
    6.6409    5.6778    5.0783 C   0  0  0  0  0  0  0  0  0  0  0  0
    7.7069    4.9112    5.5106 C   0  0  0  0  0  0  0  0  0  0  0  0
    8.9587    5.4819    5.6459 C   0  0  0  0  0  0  0  0  0  0  0  0
    9.1422    6.8217    5.3590 C   0  0  0  0  0  0  0  0  0  0  0  0
    8.0750    7.5895    4.9317 C   0  0  0  0  0  0  0  0  0  0  0  0
    6.8244    7.0176    4.7914 C   0  0  0  0  0  0  0  0  0  0  0  0
    1.6324    2.2747   -0.0569 C   0  0  0  0  0  0  0  0  0  0  0  0
    0.1905    1.8977   -0.2802 C   0  0  0  0  0  0  0  0  0  0  0  0
   -0.6470    2.7629   -0.4257 O   0  0  0  0  0  0  0  0  0  0  0  0
   -0.1676    0.5992   -0.3239 N   0  0  0  0  0  0  0  0  0  0  0  0
    0.7438   -0.5491   -0.1687 C   0  0  0  0  0  0  0  0  0  0  0  0
   -0.1591   -1.7088    0.3208 C   0  0  1  0  0  0  0  0  0  0  0  0
   -0.3378   -1.6386    1.3938 H   0  0  0  0  0  0  0  0  0  0  0  0
   -1.4627   -1.4476   -0.4791 C   0  0  0  0  0  0  0  0  0  0  0  0
   -1.5329    0.0932   -0.5280 C   0  0  1  0  0  0  0  0  0  0  0  0
   -1.9059    0.4147   -1.5004 H   0  0  0  0  0  0  0  0  0  0  0  0
   -2.4369    0.6025    0.5648 C   0  0  0  0  0  0  0  0  0  0  0  0
   -1.9632    1.0232    1.5937 O   0  0  0  0  0  0  0  0  0  0  0  0
    0.4455   -3.0661   -0.0439 C   0  0  0  0  0  0  0  0  0  0  0  0
   -0.4901   -4.1831    0.4228 C   0  0  0  0  0  0  0  0  0  0  0  0
    0.1145   -5.5405    0.0581 C   0  0  0  0  0  0  0  0  0  0  0  0
    1.4737   -5.6940    0.7435 C   0  0  0  0  0  0  0  0  0  0  0  0
    2.4093   -4.5770    0.2769 C   0  0  0  0  0  0  0  0  0  0  0  0
    1.8047   -3.2197    0.6416 C   0  0  0  0  0  0  0  0  0  0  0  0
    6.4204   -1.6872    4.9106 H   0  0  0  0  0  0  0  0  0  0  0  0
    5.9828   -0.7596    3.4559 H   0  0  0  0  0  0  0  0  0  0  0  0
    6.2685    0.0842    4.9969 H   0  0  0  0  0  0  0  0  0  0  0  0
    4.2798   -1.0283    5.9747 H   0  0  0  0  0  0  0  0  0  0  0  0
    3.9941   -1.8721    4.4336 H   0  0  0  0  0  0  0  0  0  0  0  0
    0.2217    1.6249    5.6652 H   0  0  0  0  0  0  0  0  0  0  0  0
   -1.4831    2.8838    4.4654 H   0  0  0  0  0  0  0  0  0  0  0  0
    0.0901    3.6678    4.1846 H   0  0  0  0  0  0  0  0  0  0  0  0
   -0.6322    2.6438    2.9205 H   0  0  0  0  0  0  0  0  0  0  0  0
   -0.0277   -0.5885    4.5754 H   0  0  0  0  0  0  0  0  0  0  0  0
   -1.5583    0.3193    4.5358 H   0  0  0  0  0  0  0  0  0  0  0  0
   -0.5502    0.2102    3.0729 H   0  0  0  0  0  0  0  0  0  0  0  0
    4.2808    2.5056    1.7786 H   0  0  0  0  0  0  0  0  0  0  0  0
    3.7945    4.1210    1.2107 H   0  0  0  0  0  0  0  0  0  0  0  0
    2.9716    4.6280    3.5358 H   0  0  0  0  0  0  0  0  0  0  0  0
    3.6286    3.0611    4.0664 H   0  0  0  0  0  0  0  0  0  0  0  0
    5.8887    3.7558    3.3194 H   0  0  0  0  0  0  0  0  0  0  0  0
    5.2317    5.3226    2.7888 H   0  0  0  0  0  0  0  0  0  0  0  0
    4.5110    5.8070    5.1114 H   0  0  0  0  0  0  0  0  0  0  0  0
    5.1680    4.2401    5.6421 H   0  0  0  0  0  0  0  0  0  0  0  0
    7.5626    3.8656    5.7390 H   0  0  0  0  0  0  0  0  0  0  0  0
    9.7923    4.8821    5.9800 H   0  0  0  0  0  0  0  0  0  0  0  0
   10.1192    7.2686    5.4689 H   0  0  0  0  0  0  0  0  0  0  0  0
    8.2183    8.6363    4.7079 H   0  0  0  0  0  0  0  0  0  0  0  0
    5.9905    7.6175    4.4580 H   0  0  0  0  0  0  0  0  0  0  0  0
    2.2719    1.4272   -0.3037 H   0  0  0  0  0  0  0  0  0  0  0  0
    1.8894    3.1213   -0.6934 H   0  0  0  0  0  0  0  0  0  0  0  0
    1.2013   -0.8023   -1.1251 H   0  0  0  0  0  0  0  0  0  0  0  0
    1.5123   -0.3261    0.5714 H   0  0  0  0  0  0  0  0  0  0  0  0
   -1.3895   -1.8660   -1.4830 H   0  0  0  0  0  0  0  0  0  0  0  0
   -2.3258   -1.8569    0.0457 H   0  0  0  0  0  0  0  0  0  0  0  0
    0.5744   -3.1279   -1.1244 H   0  0  0  0  0  0  0  0  0  0  0  0
   -0.6191   -4.1213    1.5034 H   0  0  0  0  0  0  0  0  0  0  0  0
   -1.4585   -4.0737   -0.0655 H   0  0  0  0  0  0  0  0  0  0  0  0
    0.2434   -5.6022   -1.0225 H   0  0  0  0  0  0  0  0  0  0  0  0
   -0.5521   -6.3362    0.3906 H   0  0  0  0  0  0  0  0  0  0  0  0
    1.9045   -6.6610    0.4837 H   0  0  0  0  0  0  0  0  0  0  0  0
    1.3448   -5.6322    1.8241 H   0  0  0  0  0  0  0  0  0  0  0  0
    2.5383   -4.6388   -0.8037 H   0  0  0  0  0  0  0  0  0  0  0  0
    3.3777   -4.6864    0.7652 H   0  0  0  0  0  0  0  0  0  0  0  0
    2.4713   -2.4239    0.3091 H   0  0  0  0  0  0  0  0  0  0  0  0
    1.6758   -3.1579    1.7221 H   0  0  0  0  0  0  0  0  0  0  0  0
   -3.7684    0.5888    0.3953 O   0  0  0  0  0  1  0  0  0  0  0  0
  1  2  1  0  0  0  0
  1 42  1  0  0  0  0
  1 43  1  0  0  0  0
  1 44  1  0  0  0  0
  2  3  1  0  0  0  0
  2 45  1  0  0  0  0
  2 46  1  0  0  0  0
  3  4  2  0  0  0  0
  3  5  1  0  0  0  0
  5  6  1  0  0  0  0
  6  7  1  1  0  0  0
  6  8  1  0  0  0  0
  6 11  1  0  0  0  0
  8  9  1  0  0  0  0
  8 10  1  0  0  0  0
  8 47  1  0  0  0  0
  9 48  1  0  0  0  0
  9 49  1  0  0  0  0
  9 50  1  0  0  0  0
 10 51  1  0  0  0  0
 10 52  1  0  0  0  0
 10 53  1  0  0  0  0
 11 12  1  0  0  0  0
 12 13  2  1  0  0  0
 12 14  1  0  0  0  0
 12 24  1  0  0  0  0
 14 15  1  0  0  0  0
 14 54  1  0  0  0  0
 14 55  1  0  0  0  0
 15 16  1  0  0  0  0
 15 56  1  0  0  0  0
 15 57  1  0  0  0  0
 16 17  1  0  0  0  0
 16 58  1  0  0  0  0
 16 59  1  0  0  0  0
 17 18  1  0  0  0  0
 17 60  1  0  0  0  0
 17 61  1  0  0  0  0
 18 23  2  0  0  0  0
 18 19  1  0  0  0  0
 19 20  2  0  0  0  0
 19 62  1  0  0  0  0
 20 21  1  0  0  0  0
 20 63  1  0  0  0  0
 21 22  2  0  0  0  0
 21 64  1  0  0  0  0
 22 23  1  0  0  0  0
 22 65  1  0  0  0  0
 23 66  1  0  0  0  0
 24 25  1  0  0  0  0
 24 67  1  0  0  0  0
 24 68  1  0  0  0  0
 25 26  2  0  0  0  0
 25 27  1  0  0  0  0
 27 32  1  0  0  0  0
 27 28  1  0  0  0  0
 28 29  1  0  0  0  0
 28 69  1  0  0  0  0
 28 70  1  0  0  0  0
 29 30  1  1  0  0  0
 29 31  1  0  0  0  0
 29 36  1  0  0  0  0
 31 32  1  0  0  0  0
 31 71  1  0  0  0  0
 31 72  1  0  0  0  0
 32 33  1  6  0  0  0
 32 34  1  0  0  0  0
 34 35  2  0  0  0  0
 34 84  1  0  0  0  0
 36 41  1  0  0  0  0
 36 37  1  0  0  0  0
 36 73  1  0  0  0  0
 37 38  1  0  0  0  0
 37 74  1  0  0  0  0
 37 75  1  0  0  0  0
 38 39  1  0  0  0  0
 38 76  1  0  0  0  0
 38 77  1  0  0  0  0
 39 40  1  0  0  0  0
 39 78  1  0  0  0  0
 39 79  1  0  0  0  0
 40 41  1  0  0  0  0
 40 80  1  0  0  0  0
 40 81  1  0  0  0  0
 41 82  1  0  0  0  0
 41 83  1  0  0  0  0
M  END
$$$$
