ZINC04655029
 OpenBabel08292219463D

 69 73  0  0  1  0  0  0  0  0999 V2000
    1.9604    2.3577   -3.5144 C   0  0  0  0  0  0  0  0  0  0  0  0
    2.6915    4.4835   -4.4138 C   0  0  0  0  0  0  0  0  0  0  0  0
    3.0817    3.9566   -2.0830 C   0  0  0  0  0  0  0  0  0  0  0  0
    3.6199    2.8739   -1.1454 C   0  0  0  0  0  0  0  0  0  0  0  0
    3.6654    3.4147    0.2852 C   0  0  1  0  0  0  0  0  0  0  0  0
    2.2848    3.8534    0.7005 C   0  0  0  0  0  0  0  0  0  0  0  0
    2.0569    5.1466    1.0593 C   0  0  0  0  0  0  0  0  0  0  0  0
    0.7873    5.5707    1.4462 C   0  0  0  0  0  0  0  0  0  0  0  0
   -0.2623    4.7043    1.4757 C   0  0  0  0  0  0  0  0  0  0  0  0
   -0.0657    3.3616    1.1117 C   0  0  0  0  0  0  0  0  0  0  0  0
    1.2260    2.9301    0.7185 C   0  0  0  0  0  0  0  0  0  0  0  0
    1.4223    1.5870    0.3539 C   0  0  0  0  0  0  0  0  0  0  0  0
    0.3728    0.7211    0.3830 C   0  0  0  0  0  0  0  0  0  0  0  0
   -0.8984    1.1466    0.7645 C   0  0  0  0  0  0  0  0  0  0  0  0
   -1.1250    2.4380    1.1292 C   0  0  0  0  0  0  0  0  0  0  0  0
    4.1574    2.3165    1.2301 C   0  0  2  0  0  0  0  0  0  0  0  0
    3.4193    1.5156    1.2719 H   0  0  0  0  0  0  0  0  0  0  0  0
    4.3537    2.8913    2.6093 C   0  0  0  0  0  0  0  0  0  0  0  0
    5.2637    3.9124    2.8095 C   0  0  0  0  0  0  0  0  0  0  0  0
    5.4405    4.4426    4.0738 C   0  0  0  0  0  0  0  0  0  0  0  0
    4.7139    3.9456    5.1395 C   0  0  0  0  0  0  0  0  0  0  0  0
    3.8077    2.9209    4.9403 C   0  0  0  0  0  0  0  0  0  0  0  0
    3.6277    2.3936    3.6752 C   0  0  0  0  0  0  0  0  0  0  0  0
    5.4663    1.7674    0.7238 C   0  0  0  0  0  0  0  0  0  0  0  0
    6.5058    2.6106    0.4643 C   0  0  0  0  0  0  0  0  0  0  0  0
    7.7138    2.0561   -0.0034 C   0  0  0  0  0  0  0  0  0  0  0  0
    8.8261    2.8646   -0.2856 C   0  0  0  0  0  0  0  0  0  0  0  0
    9.9762    2.2930   -0.7408 C   0  0  0  0  0  0  0  0  0  0  0  0
   10.0627    0.9148   -0.9306 C   0  0  0  0  0  0  0  0  0  0  0  0
    9.0033    0.1023   -0.6663 C   0  0  0  0  0  0  0  0  0  0  0  0
    7.8000    0.6554   -0.1953 C   0  0  0  0  0  0  0  0  0  0  0  0
    6.7436   -0.1204    0.0722 N   0  0  0  0  0  0  0  0  0  0  0  0
    5.6150    0.3913    0.5137 C   0  0  0  0  0  0  0  0  0  0  0  0
    4.5704   -0.4338    0.7710 O   0  0  0  0  0  0  0  0  0  0  0  0
    4.7738   -1.8293    0.5401 C   0  0  0  0  0  0  0  0  0  0  0  0
   11.4738    3.3834   -1.1204 Br  0  0  0  0  0  0  0  0  0  0  0  0
    4.5576    4.5294    0.3448 O   0  0  0  0  0  0  0  0  0  0  0  0
    0.9917    2.7640   -3.2235 H   0  0  0  0  0  0  0  0  0  0  0  0
    1.9030    1.9755   -4.5336 H   0  0  0  0  0  0  0  0  0  0  0  0
    2.2329    1.5479   -2.8375 H   0  0  0  0  0  0  0  0  0  0  0  0
    3.4955    5.2193   -4.3908 H   0  0  0  0  0  0  0  0  0  0  0  0
    2.6186    4.0563   -5.4139 H   0  0  0  0  0  0  0  0  0  0  0  0
    1.7493    4.9668   -4.1555 H   0  0  0  0  0  0  0  0  0  0  0  0
    2.0971    4.2762   -1.7416 H   0  0  0  0  0  0  0  0  0  0  0  0
    3.7611    4.8089   -2.0816 H   0  0  0  0  0  0  0  0  0  0  0  0
    4.6244    2.5889   -1.4582 H   0  0  0  0  0  0  0  0  0  0  0  0
    2.9664    2.0024   -1.1837 H   0  0  0  0  0  0  0  0  0  0  0  0
    2.8726    5.8543    1.0446 H   0  0  0  0  0  0  0  0  0  0  0  0
    0.6335    6.6022    1.7265 H   0  0  0  0  0  0  0  0  0  0  0  0
   -1.2408    5.0472    1.7777 H   0  0  0  0  0  0  0  0  0  0  0  0
    2.4010    1.2438    0.0526 H   0  0  0  0  0  0  0  0  0  0  0  0
    0.5264   -0.3103    0.1020 H   0  0  0  0  0  0  0  0  0  0  0  0
   -1.7150    0.4399    0.7750 H   0  0  0  0  0  0  0  0  0  0  0  0
   -2.1146    2.7525    1.4262 H   0  0  0  0  0  0  0  0  0  0  0  0
    5.8341    4.2982    1.9775 H   0  0  0  0  0  0  0  0  0  0  0  0
    6.1483    5.2434    4.2294 H   0  0  0  0  0  0  0  0  0  0  0  0
    4.8540    4.3580    6.1278 H   0  0  0  0  0  0  0  0  0  0  0  0
    3.2400    2.5326    5.7730 H   0  0  0  0  0  0  0  0  0  0  0  0
    2.9197    1.5931    3.5195 H   0  0  0  0  0  0  0  0  0  0  0  0
    6.4070    3.6753    0.6166 H   0  0  0  0  0  0  0  0  0  0  0  0
    8.7707    3.9336   -0.1423 H   0  0  0  0  0  0  0  0  0  0  0  0
   10.9850    0.4849   -1.2924 H   0  0  0  0  0  0  0  0  0  0  0  0
    9.0866   -0.9636   -0.8186 H   0  0  0  0  0  0  0  0  0  0  0  0
    3.8624   -2.3747    0.7849 H   0  0  0  0  0  0  0  0  0  0  0  0
    5.0238   -1.9914   -0.5084 H   0  0  0  0  0  0  0  0  0  0  0  0
    5.5904   -2.1861    1.1677 H   0  0  0  0  0  0  0  0  0  0  0  0
    4.5164    5.0220    1.1759 H   0  0  0  0  0  0  0  0  0  0  0  0
    3.0016    3.4050   -3.4519 N   0  3  0  0  0  0  0  0  0  0  0  0
    3.9078    2.9894   -3.6976 H   0  0  0  0  0  0  0  0  0  0  0  0
  1 38  1  0  0  0  0
  1 39  1  0  0  0  0
  1 40  1  0  0  0  0
  1 68  1  0  0  0  0
  2 41  1  0  0  0  0
  2 42  1  0  0  0  0
  2 43  1  0  0  0  0
  2 68  1  0  0  0  0
  3  4  1  0  0  0  0
  3 44  1  0  0  0  0
  3 45  1  0  0  0  0
  3 68  1  0  0  0  0
  4  5  1  0  0  0  0
  4 46  1  0  0  0  0
  4 47  1  0  0  0  0
  5  6  1  0  0  0  0
  5 16  1  0  0  0  0
  5 37  1  1  0  0  0
  6 11  2  0  0  0  0
  6  7  1  0  0  0  0
  7  8  2  0  0  0  0
  7 48  1  0  0  0  0
  8  9  1  0  0  0  0
  8 49  1  0  0  0  0
  9 10  2  0  0  0  0
  9 50  1  0  0  0  0
 10 15  1  0  0  0  0
 10 11  1  0  0  0  0
 11 12  1  0  0  0  0
 12 13  2  0  0  0  0
 12 51  1  0  0  0  0
 13 14  1  0  0  0  0
 13 52  1  0  0  0  0
 14 15  2  0  0  0  0
 14 53  1  0  0  0  0
 15 54  1  0  0  0  0
 16 17  1  1  0  0  0
 16 18  1  0  0  0  0
 16 24  1  0  0  0  0
 18 23  2  0  0  0  0
 18 19  1  0  0  0  0
 19 20  2  0  0  0  0
 19 55  1  0  0  0  0
 20 21  1  0  0  0  0
 20 56  1  0  0  0  0
 21 22  2  0  0  0  0
 21 57  1  0  0  0  0
 22 23  1  0  0  0  0
 22 58  1  0  0  0  0
 23 59  1  0  0  0  0
 24 33  2  0  0  0  0
 24 25  1  0  0  0  0
 25 26  2  0  0  0  0
 25 60  1  0  0  0  0
 26 31  1  0  0  0  0
 26 27  1  0  0  0  0
 27 28  2  0  0  0  0
 27 61  1  0  0  0  0
 28 29  1  0  0  0  0
 28 36  1  0  0  0  0
 29 30  2  0  0  0  0
 29 62  1  0  0  0  0
 30 31  1  0  0  0  0
 30 63  1  0  0  0  0
 31 32  2  0  0  0  0
 32 33  1  0  0  0  0
 33 34  1  0  0  0  0
 34 35  1  0  0  0  0
 35 64  1  0  0  0  0
 35 65  1  0  0  0  0
 35 66  1  0  0  0  0
 37 67  1  0  0  0  0
 68 69  1  0  0  0  0
M  CHG  1  68   1
M  END
$$$$
