ZINC26892643
 OpenBabel08292219463D

 56 59  0  0  1  0  0  0  0  0999 V2000
    8.2999   -4.0450   -2.1454 C   0  0  0  0  0  0  0  0  0  0  0  0
    7.3485   -3.0628   -2.8316 C   0  0  1  0  0  0  0  0  0  0  0  0
    7.3275   -3.3291   -3.8987 H   0  0  0  0  0  0  0  0  0  0  0  0
    5.9378   -3.1492   -2.1879 C   0  0  0  0  0  0  0  0  0  0  0  0
    5.4607   -1.6927   -2.2095 C   0  0  1  0  0  0  0  0  0  0  0  0
    4.9992   -1.4635   -3.1813 H   0  0  0  0  0  0  0  0  0  0  0  0
    4.3837   -1.3367   -1.2012 C   0  0  2  0  0  0  0  0  0  0  0  0
    4.7267   -1.5995   -0.1896 H   0  0  0  0  0  0  0  0  0  0  0  0
    3.1049   -2.1187   -1.5077 C   0  0  0  0  0  0  0  0  0  0  0  0
    2.0451   -1.8079   -0.4460 C   0  0  0  0  0  0  0  0  0  0  0  0
    1.8516   -0.3039   -0.3978 C   0  0  0  0  0  0  0  0  0  0  0  0
    0.6233    0.1879   -0.4848 C   0  0  0  0  0  0  0  0  0  0  0  0
    0.3965    1.6412   -0.4629 C   0  0  0  0  0  0  0  0  0  0  0  0
   -0.7315    2.0956   -0.5064 O   0  0  0  0  0  0  0  0  0  0  0  0
    1.5657    2.5340   -0.3932 C   0  0  0  0  0  0  0  0  0  0  0  0
    2.7823    2.0205   -0.2991 C   0  0  0  0  0  0  0  0  0  0  0  0
    3.0692    0.5592   -0.2477 C   0  0  2  0  0  0  0  0  0  0  0  0
    4.1032    0.1708   -1.3087 C   0  0  1  0  0  0  0  0  0  0  0  0
    5.3767    0.9941   -1.1268 C   0  0  2  0  0  0  0  0  0  0  0  0
    5.1591    2.0575   -1.3049 H   0  0  0  0  0  0  0  0  0  0  0  0
    6.5077    0.5387   -2.0626 C   0  0  0  0  0  0  0  0  0  0  0  0
    6.7486   -0.9338   -1.7907 C   0  0  2  0  0  0  0  0  0  0  0  0
    7.8382   -1.6088   -2.6174 C   0  0  1  0  0  0  0  0  0  0  0  0
    9.1448   -1.6032   -1.8666 C   0  0  0  0  0  0  0  0  0  0  0  0
    9.2096   -2.0906   -0.7636 O   0  0  0  0  0  0  0  0  0  0  0  0
   10.3707   -0.9894   -2.4923 C   0  0  0  0  0  0  0  0  0  0  0  0
   11.7632   -1.1371   -1.3565 Cl  0  0  0  0  0  0  0  0  0  0  0  0
    7.9876   -0.9464   -3.8747 O   0  0  0  0  0  0  0  0  0  0  0  0
    7.0181   -1.1522   -0.3005 C   0  0  0  0  0  0  0  0  0  0  0  0
    5.8091    0.8562    0.2282 O   0  0  0  0  0  0  0  0  0  0  0  0
    3.5695    0.4513   -2.5711 F   0  0  0  0  0  0  0  0  0  0  0  0
    3.6802    0.2695    1.1248 C   0  0  0  0  0  0  0  0  0  0  0  0
    7.9425   -5.0732   -2.3041 H   0  0  0  0  0  0  0  0  0  0  0  0
    8.3330   -3.8306   -1.0670 H   0  0  0  0  0  0  0  0  0  0  0  0
    9.3082   -3.9374   -2.5718 H   0  0  0  0  0  0  0  0  0  0  0  0
    5.2999   -3.8125   -2.7904 H   0  0  0  0  0  0  0  0  0  0  0  0
    6.0243   -3.5511   -1.1676 H   0  0  0  0  0  0  0  0  0  0  0  0
    2.7258   -1.8278   -2.4985 H   0  0  0  0  0  0  0  0  0  0  0  0
    3.3238   -3.1967   -1.5009 H   0  0  0  0  0  0  0  0  0  0  0  0
    1.1003   -2.3028   -0.7152 H   0  0  0  0  0  0  0  0  0  0  0  0
    2.3867   -2.1772    0.5322 H   0  0  0  0  0  0  0  0  0  0  0  0
   -0.2365   -0.4924   -0.5742 H   0  0  0  0  0  0  0  0  0  0  0  0
    1.4298    3.6253   -0.4192 H   0  0  0  0  0  0  0  0  0  0  0  0
    3.6578    2.6850   -0.2539 H   0  0  0  0  0  0  0  0  0  0  0  0
    6.2036    0.6946   -3.1082 H   0  0  0  0  0  0  0  0  0  0  0  0
    7.4150    1.1245   -1.8534 H   0  0  0  0  0  0  0  0  0  0  0  0
   10.6053   -1.5140   -3.4303 H   0  0  0  0  0  0  0  0  0  0  0  0
   10.1813    0.0733   -2.7040 H   0  0  0  0  0  0  0  0  0  0  0  0
    8.3293    0.0986   -3.9086 H   0  0  0  0  0  0  0  0  0  0  0  0
    7.9314   -0.6123   -0.0101 H   0  0  0  0  0  0  0  0  0  0  0  0
    7.1496   -2.2267   -0.1053 H   0  0  0  0  0  0  0  0  0  0  0  0
    6.1670   -0.7746    0.2852 H   0  0  0  0  0  0  0  0  0  0  0  0
    6.7169    1.3742    0.5713 H   0  0  0  0  0  0  0  0  0  0  0  0
    4.5779    0.8896    1.2648 H   0  0  0  0  0  0  0  0  0  0  0  0
    3.9556   -0.7937    1.1865 H   0  0  0  0  0  0  0  0  0  0  0  0
    2.9463    0.5044    1.9098 H   0  0  0  0  0  0  0  0  0  0  0  0
  1  2  1  0  0  0  0
  1 33  1  0  0  0  0
  1 34  1  0  0  0  0
  1 35  1  0  0  0  0
  2  3  1  6  0  0  0
  2 23  1  0  0  0  0
  2  4  1  0  0  0  0
  4  5  1  0  0  0  0
  4 36  1  0  0  0  0
  4 37  1  0  0  0  0
  5  6  1  6  0  0  0
  5 22  1  0  0  0  0
  5  7  1  0  0  0  0
  7  8  1  1  0  0  0
  7 18  1  0  0  0  0
  7  9  1  0  0  0  0
  9 10  1  0  0  0  0
  9 38  1  0  0  0  0
  9 39  1  0  0  0  0
 10 11  1  0  0  0  0
 10 40  1  0  0  0  0
 10 41  1  0  0  0  0
 11 17  1  0  0  0  0
 11 12  2  0  0  0  0
 12 13  1  0  0  0  0
 12 42  1  0  0  0  0
 13 14  2  0  0  0  0
 13 15  1  0  0  0  0
 15 16  2  0  0  0  0
 15 43  1  0  0  0  0
 16 17  1  0  0  0  0
 16 44  1  0  0  0  0
 17 18  1  0  0  0  0
 17 32  1  1  0  0  0
 18 19  1  0  0  0  0
 18 31  1  6  0  0  0
 19 20  1  6  0  0  0
 19 21  1  0  0  0  0
 19 30  1  0  0  0  0
 21 22  1  0  0  0  0
 21 45  1  0  0  0  0
 21 46  1  0  0  0  0
 22 23  1  0  0  0  0
 22 29  1  1  0  0  0
 23 24  1  1  0  0  0
 23 28  1  0  0  0  0
 24 25  2  0  0  0  0
 24 26  1  0  0  0  0
 26 27  1  0  0  0  0
 26 47  1  0  0  0  0
 26 48  1  0  0  0  0
 28 49  1  0  0  0  0
 29 50  1  0  0  0  0
 29 51  1  0  0  0  0
 29 52  1  0  0  0  0
 30 53  1  0  0  0  0
 32 54  1  0  0  0  0
 32 55  1  0  0  0  0
 32 56  1  0  0  0  0
M  END
$$$$
