ZINC12496506
 OpenBabel08292219463D

 47 49  0  0  0  0  0  0  0  0999 V2000
   -0.0184    1.5028    0.0103 C   0  0  0  0  0  0  0  0  0  0  0  0
    0.0021   -0.0041    0.0020 C   0  0  0  0  0  0  0  0  0  0  0  0
    0.0060   -0.7034   -1.2025 C   0  0  0  0  0  0  0  0  0  0  0  0
    0.0256   -2.0950   -1.1580 C   0  0  0  0  0  0  0  0  0  0  0  0
    0.0403   -2.7269    0.0686 C   0  0  0  0  0  3  0  0  0  0  0  0
    0.0360   -2.0293    1.1886 N   0  0  0  0  0  0  0  0  0  0  0  0
    0.0229   -0.7096    1.1873 C   0  0  0  0  0  0  0  0  0  0  0  0
    0.0252    0.0359    2.4970 C   0  0  0  0  0  0  0  0  0  0  0  0
   -1.6840    0.3117    3.0387 S   0  0  1  0  0  0  0  0  0  0  0  0
   -2.2676   -0.9282    3.4146 O   0  0  0  0  0  0  0  0  0  0  0  0
   -1.5134    1.1816    4.5614 C   0  0  0  0  0  0  0  0  0  0  0  0
   -1.4141    0.5973    5.7859 N   0  0  0  0  0  0  0  0  0  0  0  0
   -1.4243   -0.3548    5.9711 H   0  0  0  0  0  0  0  0  0  0  0  0
   -1.2957    1.6105    6.7160 C   0  0  0  0  0  0  0  0  0  0  0  0
   -1.1633    1.6441    8.0976 C   0  0  0  0  0  0  0  0  0  0  0  0
   -1.0659    2.8573    8.7449 C   0  0  0  0  0  0  0  0  0  0  0  0
   -1.0998    4.0433    8.0250 C   0  0  0  0  0  0  0  0  0  0  0  0
   -1.2296    4.0296    6.6653 C   0  0  0  0  0  0  0  0  0  0  0  0
   -1.3296    2.8115    5.9876 C   0  0  0  0  0  0  0  0  0  0  0  0
   -1.4584    2.4763    4.6781 N   0  0  0  0  0  0  0  0  0  0  0  0
   -0.0093   -0.0452   -2.3895 O   0  0  0  0  0  0  0  0  0  0  0  0
   -0.0038   -0.8440   -3.5744 C   0  0  0  0  0  0  0  0  0  0  0  0
   -0.0230    0.0669   -4.8036 C   0  0  0  0  0  0  0  0  0  0  0  0
   -0.0171   -0.7883   -6.0723 C   0  0  0  0  0  0  0  0  0  0  0  0
   -0.0350    0.0624   -7.2203 O   0  0  0  0  0  0  0  0  0  0  0  0
   -0.0312   -0.6404   -8.4646 C   0  0  0  0  0  0  0  0  0  0  0  0
    1.0042    1.8801    0.0026 H   0  0  0  0  0  0  0  0  0  0  0  0
   -0.5455    1.8639   -0.8728 H   0  0  0  0  0  0  0  0  0  0  0  0
   -0.5286    1.8543    0.9071 H   0  0  0  0  0  0  0  0  0  0  0  0
    0.0289   -2.6719   -2.0710 H   0  0  0  0  0  0  0  0  0  0  0  0
    0.0552   -3.8059    0.1125 H   0  0  0  0  0  0  0  0  0  0  0  0
    0.5542   -0.5508    3.2481 H   0  0  0  0  0  0  0  0  0  0  0  0
    0.5247    0.9960    2.3677 H   0  0  0  0  0  0  0  0  0  0  0  0
   -1.1370    0.7241    8.6626 H   0  0  0  0  0  0  0  0  0  0  0  0
   -0.9628    2.8850    9.8196 H   0  0  0  0  0  0  0  0  0  0  0  0
   -1.0232    4.9867    8.5452 H   0  0  0  0  0  0  0  0  0  0  0  0
   -1.2553    4.9585    6.1149 H   0  0  0  0  0  0  0  0  0  0  0  0
    0.8950   -1.4604   -3.5929 H   0  0  0  0  0  0  0  0  0  0  0  0
   -0.8848   -1.4857   -3.5840 H   0  0  0  0  0  0  0  0  0  0  0  0
   -0.9217    0.6833   -4.7851 H   0  0  0  0  0  0  0  0  0  0  0  0
    0.8580    0.7087   -4.7940 H   0  0  0  0  0  0  0  0  0  0  0  0
    0.8817   -1.4047   -6.0908 H   0  0  0  0  0  0  0  0  0  0  0  0
   -0.8981   -1.4301   -6.0819 H   0  0  0  0  0  0  0  0  0  0  0  0
   -0.9124   -1.2791   -8.5238 H   0  0  0  0  0  0  0  0  0  0  0  0
   -0.0455    0.0757   -9.2863 H   0  0  0  0  0  0  0  0  0  0  0  0
    0.8673   -1.2537   -8.5327 H   0  0  0  0  0  0  0  0  0  0  0  0
    0.0466   -2.4996    2.0368 H   0  0  0  0  0  0  0  0  0  0  0  0
  1  2  1  0  0  0  0
  1 27  1  0  0  0  0
  1 28  1  0  0  0  0
  1 29  1  0  0  0  0
  2  7  2  0  0  0  0
  2  3  1  0  0  0  0
  3  4  2  0  0  0  0
  3 21  1  0  0  0  0
  4  5  1  0  0  0  0
  4 30  1  0  0  0  0
  5  6  1  0  0  0  0
  5 31  1  0  0  0  0
  6  7  1  0  0  0  0
  6 47  1  0  0  0  0
  7  8  1  0  0  0  0
  8  9  1  0  0  0  0
  8 32  1  0  0  0  0
  8 33  1  0  0  0  0
  9 10  2  1  0  0  0
  9 11  1  0  0  0  0
 11 20  2  0  0  0  0
 11 12  1  0  0  0  0
 12 13  1  0  0  0  0
 12 14  1  0  0  0  0
 14 19  2  0  0  0  0
 14 15  1  0  0  0  0
 15 16  2  0  0  0  0
 15 34  1  0  0  0  0
 16 17  1  0  0  0  0
 16 35  1  0  0  0  0
 17 18  2  0  0  0  0
 17 36  1  0  0  0  0
 18 19  1  0  0  0  0
 18 37  1  0  0  0  0
 19 20  1  0  0  0  0
 21 22  1  0  0  0  0
 22 23  1  0  0  0  0
 22 38  1  0  0  0  0
 22 39  1  0  0  0  0
 23 24  1  0  0  0  0
 23 40  1  0  0  0  0
 23 41  1  0  0  0  0
 24 25  1  0  0  0  0
 24 42  1  0  0  0  0
 24 43  1  0  0  0  0
 25 26  1  0  0  0  0
 26 44  1  0  0  0  0
 26 45  1  0  0  0  0
 26 46  1  0  0  0  0
M  END
$$$$
