ZINC01531036
 OpenBabel08292219463D

 27 26  0  0  0  0  0  0  0  0999 V2000
   -0.0187    1.5258    0.0104 C   0  0  0  0  0  0  0  0  0  0  0  0
    0.0021   -0.0041    0.0020 C   0  0  0  0  0  0  0  0  0  0  0  0
   -1.4333   -0.5336    0.0129 C   0  0  0  0  0  0  0  0  0  0  0  0
   -1.4126   -2.0635    0.0045 C   0  0  0  0  0  0  0  0  0  0  0  0
   -2.8264   -2.5851    0.0152 C   0  0  0  0  0  0  0  0  0  0  0  0
   -3.7637   -1.8055    0.0283 O   0  0  0  0  0  0  0  0  0  0  0  0
   -3.0329   -3.7867    0.0107 O   0  0  0  0  0  1  0  0  0  0  0  0
    1.4167    2.0553   -0.0004 C   0  0  0  0  0  0  0  0  0  0  0  0
    1.3960    3.5852    0.0080 C   0  0  0  0  0  0  0  0  0  0  0  0
    2.8313    4.1148   -0.0029 C   0  0  0  0  0  0  0  0  0  0  0  0
    2.8109    5.6216    0.0054 C   0  0  0  0  0  0  0  0  0  0  0  0
    1.7469    6.2168    0.0188 O   0  0  0  0  0  0  0  0  0  0  0  0
    3.8584    6.2455   -0.0012 O   0  0  0  0  0  1  0  0  0  0  0  0
   -0.5459    1.8868   -0.8726 H   0  0  0  0  0  0  0  0  0  0  0  0
   -0.5289    1.8773    0.9072 H   0  0  0  0  0  0  0  0  0  0  0  0
    0.5123   -0.3556   -0.8948 H   0  0  0  0  0  0  0  0  0  0  0  0
    0.5293   -0.3651    0.8851 H   0  0  0  0  0  0  0  0  0  0  0  0
   -1.9435   -0.1821    0.9097 H   0  0  0  0  0  0  0  0  0  0  0  0
   -1.9605   -0.1726   -0.8702 H   0  0  0  0  0  0  0  0  0  0  0  0
   -0.9024   -2.4150   -0.8923 H   0  0  0  0  0  0  0  0  0  0  0  0
   -0.8854   -2.4246    0.8875 H   0  0  0  0  0  0  0  0  0  0  0  0
    1.9439    1.6943    0.8826 H   0  0  0  0  0  0  0  0  0  0  0  0
    1.9269    1.7038   -0.8972 H   0  0  0  0  0  0  0  0  0  0  0  0
    0.8688    3.9463   -0.8751 H   0  0  0  0  0  0  0  0  0  0  0  0
    0.8858    3.9367    0.9048 H   0  0  0  0  0  0  0  0  0  0  0  0
    3.3585    3.7537    0.8802 H   0  0  0  0  0  0  0  0  0  0  0  0
    3.3415    3.7632   -0.8997 H   0  0  0  0  0  0  0  0  0  0  0  0
  1  2  1  0  0  0  0
  1  8  1  0  0  0  0
  1 14  1  0  0  0  0
  1 15  1  0  0  0  0
  2  3  1  0  0  0  0
  2 16  1  0  0  0  0
  2 17  1  0  0  0  0
  3  4  1  0  0  0  0
  3 18  1  0  0  0  0
  3 19  1  0  0  0  0
  4  5  1  0  0  0  0
  4 20  1  0  0  0  0
  4 21  1  0  0  0  0
  5  6  2  0  0  0  0
  5  7  1  0  0  0  0
  8  9  1  0  0  0  0
  8 22  1  0  0  0  0
  8 23  1  0  0  0  0
  9 10  1  0  0  0  0
  9 24  1  0  0  0  0
  9 25  1  0  0  0  0
 10 11  1  0  0  0  0
 10 26  1  0  0  0  0
 10 27  1  0  0  0  0
 11 12  2  0  0  0  0
 11 13  1  0  0  0  0
M  END
$$$$
