ZINC00001021
 OpenBabel08292219463D

 28 29  0  0  0  0  0  0  0  0999 V2000
   -0.0167    1.3781    0.0096 C   0  0  0  0  0  0  0  0  0  0  0  0
    1.1709    2.0855    0.0021 C   0  0  0  0  0  0  0  0  0  0  0  0
    2.3773    1.4107   -0.0130 C   0  0  0  0  0  0  0  0  0  0  0  0
    2.3960    0.0285   -0.0201 C   0  0  0  0  0  0  0  0  0  0  0  0
    1.2084   -0.6789   -0.0117 C   0  0  0  0  0  0  0  0  0  0  0  0
    0.0021   -0.0041    0.0020 C   0  0  0  0  0  0  0  0  0  0  0  0
    3.7112   -0.7071   -0.0376 C   0  0  0  0  0  0  0  0  0  0  0  0
    4.1410   -0.9464    1.3041 O   0  0  0  0  0  0  0  0  0  0  0  0
    5.3083   -1.5992    1.4651 C   0  0  0  0  0  0  0  0  0  0  0  0
    5.9439   -1.9556    0.4933 O   0  0  0  0  0  0  0  0  0  0  0  0
    5.8154   -1.8816    2.8236 C   0  0  0  0  0  0  0  0  0  0  0  0
    5.0844   -1.4784    3.9429 C   0  0  0  0  0  0  0  0  0  0  0  0
    5.5638   -1.7453    5.2085 C   0  0  0  0  0  0  0  0  0  0  0  0
    6.7659   -2.4110    5.3703 C   0  0  0  0  0  0  0  0  0  0  0  0
    7.4956   -2.8130    4.2654 C   0  0  0  0  0  0  0  0  0  0  0  0
    7.0249   -2.5580    2.9941 C   0  0  0  0  0  0  0  0  0  0  0  0
   -0.9591    1.9053    0.0259 H   0  0  0  0  0  0  0  0  0  0  0  0
    1.1563    3.1654    0.0076 H   0  0  0  0  0  0  0  0  0  0  0  0
    3.3051    1.9634   -0.0196 H   0  0  0  0  0  0  0  0  0  0  0  0
    1.2231   -1.7588   -0.0176 H   0  0  0  0  0  0  0  0  0  0  0  0
   -0.9258   -0.5567    0.0082 H   0  0  0  0  0  0  0  0  0  0  0  0
    3.5884   -1.6586   -0.5549 H   0  0  0  0  0  0  0  0  0  0  0  0
    4.4573   -0.1052   -0.5563 H   0  0  0  0  0  0  0  0  0  0  0  0
    4.1461   -0.9584    3.8180 H   0  0  0  0  0  0  0  0  0  0  0  0
    4.9996   -1.4337    6.0751 H   0  0  0  0  0  0  0  0  0  0  0  0
    7.1367   -2.6175    6.3634 H   0  0  0  0  0  0  0  0  0  0  0  0
    8.4335   -3.3316    4.3988 H   0  0  0  0  0  0  0  0  0  0  0  0
    7.5930   -2.8766    2.1326 H   0  0  0  0  0  0  0  0  0  0  0  0
  1  6  2  0  0  0  0
  1  2  1  0  0  0  0
  1 17  1  0  0  0  0
  2  3  2  0  0  0  0
  2 18  1  0  0  0  0
  3  4  1  0  0  0  0
  3 19  1  0  0  0  0
  4  5  2  0  0  0  0
  4  7  1  0  0  0  0
  5  6  1  0  0  0  0
  5 20  1  0  0  0  0
  6 21  1  0  0  0  0
  7  8  1  0  0  0  0
  7 22  1  0  0  0  0
  7 23  1  0  0  0  0
  8  9  1  0  0  0  0
  9 10  2  0  0  0  0
  9 11  1  0  0  0  0
 11 16  2  0  0  0  0
 11 12  1  0  0  0  0
 12 13  2  0  0  0  0
 12 24  1  0  0  0  0
 13 14  1  0  0  0  0
 13 25  1  0  0  0  0
 14 15  2  0  0  0  0
 14 26  1  0  0  0  0
 15 16  1  0  0  0  0
 15 27  1  0  0  0  0
 16 28  1  0  0  0  0
M  END
$$$$
