ZINC07997568
 OpenBabel08292219463D

 23 24  0  0  0  0  0  0  0  0999 V2000
   -0.0047    1.4431    0.3390 C   0  0  0  0  0  0  0  0  0  0  0  0
    1.2918    1.8486    0.2269 C   0  0  0  0  0  0  0  0  0  0  0  0
    2.0608    0.7305   -0.1060 C   0  0  0  0  0  0  0  0  0  0  0  0
    1.2819   -0.3504   -0.2029 O   0  0  0  0  0  0  0  0  0  0  0  0
   -0.0014   -0.0057    0.0543 C   0  0  0  0  0  0  0  0  0  0  0  0
   -1.0959   -0.8467    0.0520 C   0  0  0  0  0  0  0  0  0  0  0  0
   -0.9261   -2.1659   -0.1010 N   0  0  0  0  0  0  0  0  0  0  0  0
    0.2630   -2.6658   -0.1162 N   0  0  0  0  0  0  0  0  0  0  0  0
    0.9463   -3.2768   -1.2694 C   0  0  0  0  0  0  0  0  0  0  0  0
    2.2964   -3.6803   -0.7107 C   0  0  0  0  0  0  0  0  0  0  0  0
    3.2018   -4.2248   -1.3052 O   0  0  0  0  0  0  0  0  0  0  0  0
    2.2812   -3.3071    0.5842 N   0  0  0  0  0  0  0  0  0  0  0  0
    1.1231   -2.7254    0.9165 C   0  0  0  0  0  0  0  0  0  0  0  0
    0.8749   -2.3015    2.0269 O   0  0  0  0  0  0  0  0  0  0  0  0
    3.5322    0.7422   -0.3216 N   0  0  0  0  0  4  0  0  0  0  0  0
    4.2064    1.8671   -0.2011 O   0  0  0  0  0  0  0  0  0  0  0  0
    4.1609   -0.3723   -0.6331 O   0  5  0  0  0  0  0  0  0  0  0  0
   -0.8587    2.0551    0.5893 H   0  0  0  0  0  0  0  0  0  0  0  0
    1.6590    2.8542    0.3699 H   0  0  0  0  0  0  0  0  0  0  0  0
   -2.0892   -0.4406    0.1737 H   0  0  0  0  0  0  0  0  0  0  0  0
    0.3991   -4.1520   -1.6198 H   0  0  0  0  0  0  0  0  0  0  0  0
    1.0655   -2.5505   -2.0734 H   0  0  0  0  0  0  0  0  0  0  0  0
    3.0198   -3.4409    1.1985 H   0  0  0  0  0  0  0  0  0  0  0  0
  1  5  2  0  0  0  0
  1  2  1  0  0  0  0
  1 18  1  0  0  0  0
  2  3  2  0  0  0  0
  2 19  1  0  0  0  0
  3  4  1  0  0  0  0
  3 15  1  0  0  0  0
  4  5  1  0  0  0  0
  5  6  1  0  0  0  0
  6  7  2  0  0  0  0
  6 20  1  0  0  0  0
  7  8  1  0  0  0  0
  8 13  1  0  0  0  0
  8  9  1  0  0  0  0
  9 10  1  0  0  0  0
  9 21  1  0  0  0  0
  9 22  1  0  0  0  0
 10 11  2  0  0  0  0
 10 12  1  0  0  0  0
 12 13  1  0  0  0  0
 12 23  1  0  0  0  0
 13 14  2  0  0  0  0
 15 16  2  0  0  0  0
 15 17  1  0  0  0  0
M  CHG  1  17  -1
M  END
$$$$
