ZINC22007271
 OpenBabel08292219463D

 50 52  0  0  1  0  0  0  0  0999 V2000
    0.0770    1.9036    1.1201 C   0  0  0  0  0  0  0  0  0  0  0  0
   -0.0540    0.3882    0.9550 C   0  0  0  0  0  0  0  0  0  0  0  0
    0.8232   -0.2685    1.8722 O   0  0  0  0  0  0  0  0  0  0  0  0
    0.7782   -1.6949    1.7995 C   0  0  0  0  0  0  0  0  0  0  0  0
    1.7516   -2.2885    2.8198 C   0  0  0  0  0  0  0  0  0  0  0  0
    1.7055   -3.7509    2.7453 N   0  0  0  0  0  0  0  0  0  0  0  0
    0.8000   -4.5782    3.3894 C   0  0  0  0  0  0  0  0  0  0  0  0
   -0.2699   -4.3532    4.2423 C   0  0  0  0  0  0  0  0  0  0  0  0
   -0.9961   -5.4204    4.7292 C   0  0  0  0  0  0  0  0  0  0  0  0
   -0.6632   -6.7185    4.3713 C   0  0  0  0  0  0  0  0  0  0  0  0
    0.3963   -6.9603    3.5259 C   0  0  0  0  0  0  0  0  0  0  0  0
    1.1414   -5.8906    3.0238 C   0  0  0  0  0  0  0  0  0  0  0  0
    2.2139   -5.8081    2.1930 N   0  0  0  0  0  4  0  0  0  0  0  0
    2.5432   -4.5518    2.0234 C   0  0  0  0  0  0  0  0  0  0  0  0
    3.5831   -4.1048    1.2358 N   0  0  0  0  0  0  0  0  0  0  0  0
    4.9028   -3.8797    1.8594 C   0  0  0  0  0  0  0  0  0  0  0  0
    6.0379   -4.3871    0.9517 C   0  0  0  0  0  0  0  0  0  0  0  0
    5.6230   -5.6919    0.3085 C   0  0  0  0  0  0  0  0  0  0  0  0
    5.0262   -5.4177   -0.9967 N   0  3  2  0  0  0  0  0  0  0  0  0
    3.6369   -5.1631   -0.9746 C   0  0  0  0  0  0  0  0  0  0  0  0
    3.3435   -3.8786   -0.1747 C   0  0  0  0  0  0  0  0  0  0  0  0
    5.2717   -6.5728   -1.8705 C   0  0  0  0  0  0  0  0  0  0  0  0
    1.1051    2.2037    0.9177 H   0  0  0  0  0  0  0  0  0  0  0  0
   -0.5921    2.4045    0.4205 H   0  0  0  0  0  0  0  0  0  0  0  0
   -0.1888    2.1823    2.1399 H   0  0  0  0  0  0  0  0  0  0  0  0
   -1.0821    0.0882    1.1574 H   0  0  0  0  0  0  0  0  0  0  0  0
    0.2118    0.1096   -0.0648 H   0  0  0  0  0  0  0  0  0  0  0  0
   -0.2327   -2.0382    2.0195 H   0  0  0  0  0  0  0  0  0  0  0  0
    1.0612   -2.0168    0.7973 H   0  0  0  0  0  0  0  0  0  0  0  0
    2.7625   -1.9453    2.5998 H   0  0  0  0  0  0  0  0  0  0  0  0
    1.4686   -1.9667    3.8220 H   0  0  0  0  0  0  0  0  0  0  0  0
   -0.5340   -3.3449    4.5250 H   0  0  0  0  0  0  0  0  0  0  0  0
   -1.8290   -5.2440    5.3937 H   0  0  0  0  0  0  0  0  0  0  0  0
   -1.2392   -7.5458    4.7590 H   0  0  0  0  0  0  0  0  0  0  0  0
    0.6500   -7.9736    3.2514 H   0  0  0  0  0  0  0  0  0  0  0  0
    5.0370   -2.8127    2.0374 H   0  0  0  0  0  0  0  0  0  0  0  0
    4.9431   -4.4082    2.8119 H   0  0  0  0  0  0  0  0  0  0  0  0
    6.2412   -3.6483    0.1765 H   0  0  0  0  0  0  0  0  0  0  0  0
    6.9367   -4.5454    1.5477 H   0  0  0  0  0  0  0  0  0  0  0  0
    6.4979   -6.3296    0.1819 H   0  0  0  0  0  0  0  0  0  0  0  0
    4.8940   -6.1950    0.9436 H   0  0  0  0  0  0  0  0  0  0  0  0
    3.2752   -5.0444   -1.9960 H   0  0  0  0  0  0  0  0  0  0  0  0
    3.1232   -6.0034   -0.5076 H   0  0  0  0  0  0  0  0  0  0  0  0
    2.3020   -3.5937   -0.3241 H   0  0  0  0  0  0  0  0  0  0  0  0
    3.9916   -3.0767   -0.5282 H   0  0  0  0  0  0  0  0  0  0  0  0
    4.8188   -7.4624   -1.4326 H   0  0  0  0  0  0  0  0  0  0  0  0
    4.8330   -6.3867   -2.8507 H   0  0  0  0  0  0  0  0  0  0  0  0
    6.3456   -6.7265   -1.9763 H   0  0  0  0  0  0  0  0  0  0  0  0
    5.4903   -4.6163   -1.3971 H   0  0  0  0  0  0  0  0  0  0  0  0
    2.6640   -6.5641    1.7846 H   0  0  0  0  0  0  0  0  0  0  0  0
  1  2  1  0  0  0  0
  1 23  1  0  0  0  0
  1 24  1  0  0  0  0
  1 25  1  0  0  0  0
  2  3  1  0  0  0  0
  2 26  1  0  0  0  0
  2 27  1  0  0  0  0
  3  4  1  0  0  0  0
  4  5  1  0  0  0  0
  4 28  1  0  0  0  0
  4 29  1  0  0  0  0
  5  6  1  0  0  0  0
  5 30  1  0  0  0  0
  5 31  1  0  0  0  0
  6 14  1  0  0  0  0
  6  7  1  0  0  0  0
  7 12  2  0  0  0  0
  7  8  1  0  0  0  0
  8  9  2  0  0  0  0
  8 32  1  0  0  0  0
  9 10  1  0  0  0  0
  9 33  1  0  0  0  0
 10 11  2  0  0  0  0
 10 34  1  0  0  0  0
 11 12  1  0  0  0  0
 11 35  1  0  0  0  0
 12 13  1  0  0  0  0
 13 14  2  0  0  0  0
 13 50  1  0  0  0  0
 14 15  1  0  0  0  0
 15 21  1  0  0  0  0
 15 16  1  0  0  0  0
 16 17  1  0  0  0  0
 16 36  1  0  0  0  0
 16 37  1  0  0  0  0
 17 18  1  0  0  0  0
 17 38  1  0  0  0  0
 17 39  1  0  0  0  0
 18 19  1  0  0  0  0
 18 40  1  0  0  0  0
 18 41  1  0  0  0  0
 19 20  1  0  0  0  0
 19 22  1  0  0  0  0
 19 49  1  6  0  0  0
 20 21  1  0  0  0  0
 20 42  1  0  0  0  0
 20 43  1  0  0  0  0
 21 44  1  0  0  0  0
 21 45  1  0  0  0  0
 22 46  1  0  0  0  0
 22 47  1  0  0  0  0
 22 48  1  0  0  0  0
M  CHG  1  19   1
M  END
$$$$
