ZINC04097384
 OpenBabel08292219463D

 57 60  0  0  1  0  0  0  0  0999 V2000
    1.9915   -0.0567   -5.2566 C   0  0  0  0  0  0  0  0  0  0  0  0
    1.4224    1.2952   -4.8213 C   0  0  2  0  0  0  0  0  0  0  0  0
    2.0256    2.1051   -5.2315 H   0  0  0  0  0  0  0  0  0  0  0  0
    1.3911    1.3862   -3.2712 C   0  0  0  0  0  0  0  0  0  0  0  0
   -0.0411    0.9580   -2.9274 C   0  0  1  0  0  0  0  0  0  0  0  0
   -0.1549   -0.1223   -3.0172 H   0  0  0  0  0  0  0  0  0  0  0  0
   -0.5743    1.4350   -1.5887 C   0  0  2  0  0  0  0  0  0  0  0  0
   -0.5318    2.5224   -1.5268 H   0  0  0  0  0  0  0  0  0  0  0  0
    0.2472    0.8208   -0.4535 C   0  0  0  0  0  0  0  0  0  0  0  0
   -0.2683    1.3397    0.8926 C   0  0  1  0  0  0  0  0  0  0  0  0
   -0.1042    2.4152    0.9597 H   0  0  0  0  0  0  0  0  0  0  0  0
   -1.7530    1.0419    0.9769 C   0  0  0  0  0  0  0  0  0  0  0  0
   -2.1951    0.4207    2.0452 C   0  0  0  0  0  0  0  0  0  0  0  0
   -3.6185    0.0667    2.1582 C   0  0  0  0  0  0  0  0  0  0  0  0
   -4.0447   -0.4875    3.1541 O   0  0  0  0  0  0  0  0  0  0  0  0
   -4.5157    0.3979    1.0382 C   0  0  0  0  0  0  0  0  0  0  0  0
   -4.0425    1.0403   -0.0179 C   0  0  0  0  0  0  0  0  0  0  0  0
   -2.6249    1.4770   -0.1634 C   0  0  2  0  0  0  0  0  0  0  0  0
   -2.0339    0.9659   -1.4806 C   0  0  1  0  0  0  0  0  0  0  0  0
   -2.0620   -0.1237   -1.4874 H   0  0  0  0  0  0  0  0  0  0  0  0
   -2.8775    1.4780   -2.6444 C   0  0  2  0  0  0  0  0  0  0  0  0
   -3.8758    1.0455   -2.5771 H   0  0  0  0  0  0  0  0  0  0  0  0
   -2.2600    1.1047   -4.0014 C   0  0  0  0  0  0  0  0  0  0  0  0
   -0.8581    1.6829   -4.0306 C   0  0  2  0  0  0  0  0  0  0  0  0
   -0.0455    1.4320   -5.2968 C   0  0  1  0  0  0  0  0  0  0  0  0
   -0.1830    2.5956   -6.2445 C   0  0  0  0  0  0  0  0  0  0  0  0
    0.6214    3.4958   -6.2161 O   0  0  0  0  0  0  0  0  0  0  0  0
   -1.3244    2.6358   -7.2277 C   0  0  0  0  0  0  0  0  0  0  0  0
   -1.2380    3.8290   -8.0093 O   0  0  0  0  0  0  0  0  0  0  0  0
   -0.4754    0.2253   -5.9300 O   0  0  0  0  0  0  0  0  0  0  0  0
   -0.9099    3.1835   -3.7363 C   0  0  0  0  0  0  0  0  0  0  0  0
   -2.9793    2.9006   -2.5557 O   0  0  0  0  0  0  0  0  0  0  0  0
   -2.6083    3.0062   -0.2077 C   0  0  0  0  0  0  0  0  0  0  0  0
    0.4023    0.6928    1.9363 F   0  0  0  0  0  0  0  0  0  0  0  0
    1.9589   -0.1317   -6.3435 H   0  0  0  0  0  0  0  0  0  0  0  0
    3.0238   -0.1426   -4.9173 H   0  0  0  0  0  0  0  0  0  0  0  0
    1.3973   -0.8589   -4.8191 H   0  0  0  0  0  0  0  0  0  0  0  0
    2.1158    0.7019   -2.8299 H   0  0  0  0  0  0  0  0  0  0  0  0
    1.5739    2.4088   -2.9411 H   0  0  0  0  0  0  0  0  0  0  0  0
    0.1535   -0.2647   -0.4839 H   0  0  0  0  0  0  0  0  0  0  0  0
    1.2946    1.0982   -0.5723 H   0  0  0  0  0  0  0  0  0  0  0  0
   -1.5134    0.1586    2.8407 H   0  0  0  0  0  0  0  0  0  0  0  0
   -5.5578    0.1174    1.0788 H   0  0  0  0  0  0  0  0  0  0  0  0
   -4.7261    1.2621   -0.8241 H   0  0  0  0  0  0  0  0  0  0  0  0
   -2.2165    0.0204   -4.1037 H   0  0  0  0  0  0  0  0  0  0  0  0
   -2.8543    1.5311   -4.8095 H   0  0  0  0  0  0  0  0  0  0  0  0
   -1.2742    1.8387   -7.8295 H   0  0  0  0  0  0  0  0  0  0  0  0
   -2.2706    2.6236   -6.6866 H   0  0  0  0  0  0  0  0  0  0  0  0
   -1.9428    3.9216   -8.6649 H   0  0  0  0  0  0  0  0  0  0  0  0
    0.0062    0.0137   -6.7414 H   0  0  0  0  0  0  0  0  0  0  0  0
   -1.1837    3.3399   -2.6929 H   0  0  0  0  0  0  0  0  0  0  0  0
    0.0686    3.6248   -3.9253 H   0  0  0  0  0  0  0  0  0  0  0  0
   -1.6517    3.6547   -4.3811 H   0  0  0  0  0  0  0  0  0  0  0  0
   -3.5022    3.3023   -3.2630 H   0  0  0  0  0  0  0  0  0  0  0  0
   -3.4485    3.3616   -0.8042 H   0  0  0  0  0  0  0  0  0  0  0  0
   -2.6897    3.4000    0.8054 H   0  0  0  0  0  0  0  0  0  0  0  0
   -1.6748    3.3466   -0.6559 H   0  0  0  0  0  0  0  0  0  0  0  0
  1  2  1  0  0  0  0
  1 35  1  0  0  0  0
  1 36  1  0  0  0  0
  1 37  1  0  0  0  0
  2  3  1  6  0  0  0
  2 25  1  0  0  0  0
  2  4  1  0  0  0  0
  4  5  1  0  0  0  0
  4 38  1  0  0  0  0
  4 39  1  0  0  0  0
  5  6  1  6  0  0  0
  5 24  1  0  0  0  0
  5  7  1  0  0  0  0
  7  8  1  1  0  0  0
  7 19  1  0  0  0  0
  7  9  1  0  0  0  0
  9 10  1  0  0  0  0
  9 40  1  0  0  0  0
  9 41  1  0  0  0  0
 10 11  1  1  0  0  0
 10 12  1  0  0  0  0
 10 34  1  0  0  0  0
 12 18  1  0  0  0  0
 12 13  2  0  0  0  0
 13 14  1  0  0  0  0
 13 42  1  0  0  0  0
 14 15  2  0  0  0  0
 14 16  1  0  0  0  0
 16 17  2  0  0  0  0
 16 43  1  0  0  0  0
 17 18  1  0  0  0  0
 17 44  1  0  0  0  0
 18 19  1  0  0  0  0
 18 33  1  6  0  0  0
 19 20  1  1  0  0  0
 19 21  1  0  0  0  0
 21 22  1  1  0  0  0
 21 23  1  0  0  0  0
 21 32  1  0  0  0  0
 23 24  1  0  0  0  0
 23 45  1  0  0  0  0
 23 46  1  0  0  0  0
 24 25  1  0  0  0  0
 24 31  1  1  0  0  0
 25 26  1  6  0  0  0
 25 30  1  0  0  0  0
 26 27  2  0  0  0  0
 26 28  1  0  0  0  0
 28 29  1  0  0  0  0
 28 47  1  0  0  0  0
 28 48  1  0  0  0  0
 29 49  1  0  0  0  0
 30 50  1  0  0  0  0
 31 51  1  0  0  0  0
 31 52  1  0  0  0  0
 31 53  1  0  0  0  0
 32 54  1  0  0  0  0
 33 55  1  0  0  0  0
 33 56  1  0  0  0  0
 33 57  1  0  0  0  0
M  END
$$$$
