ZINC03830477
 OpenBabel08292219463D

 37 39  0  0  1  0  0  0  0  0999 V2000
   -6.4139   -0.0365    2.5219 C   0  0  0  0  0  0  0  0  0  0  0  0
   -5.1820    0.5907    2.1598 O   0  0  0  0  0  0  0  0  0  0  0  0
   -4.6283    1.4036    3.1784 N   0  0  0  0  0  0  0  0  0  0  0  0
   -3.5054    2.0313    2.9727 C   0  0  0  0  0  0  0  0  0  0  0  0
   -2.8684    2.7870    4.0726 C   0  0  0  0  0  0  0  0  0  0  0  0
   -3.5064    2.9299    5.2758 C   0  0  0  0  0  0  0  0  0  0  0  0
   -2.3034    3.8963    6.1786 S   0  0  0  0  0  0  0  0  0  0  0  0
   -1.0873    4.0197    4.8749 C   0  0  0  0  0  0  0  0  0  0  0  0
   -1.6691    3.3419    3.9036 N   0  0  0  0  0  0  0  0  0  0  0  0
    0.1414    4.6582    4.8821 N   0  0  0  0  0  0  0  0  0  0  0  0
   -2.8664    1.9880    1.6364 C   0  0  0  0  0  0  0  0  0  0  0  0
   -3.4350    1.4477    0.7083 O   0  0  0  0  0  0  0  0  0  0  0  0
   -1.6546    2.5478    1.4504 N   0  0  0  0  0  0  0  0  0  0  0  0
   -0.9710    2.4039    0.1626 C   0  0  1  0  0  0  0  0  0  0  0  0
   -1.6561    2.2804   -0.6761 H   0  0  0  0  0  0  0  0  0  0  0  0
    0.1118    3.4305   -0.0759 C   0  0  2  0  0  0  0  0  0  0  0  0
    0.1666    3.8058   -1.0977 H   0  0  0  0  0  0  0  0  0  0  0  0
    1.0836    2.3610    0.2605 N   0  0  0  0  0  0  0  0  0  0  0  0
    0.1603    1.4134    0.1786 C   0  0  0  0  0  0  0  0  0  0  0  0
    0.2097    0.2024    0.1296 O   0  0  0  0  0  0  0  0  0  0  0  0
    2.4234    2.5253    0.6577 C   0  0  0  0  0  0  0  0  0  0  0  0
    2.8674    3.7009    1.0605 C   0  0  0  0  0  0  0  0  0  0  0  0
    2.1148    4.9882    1.1586 C   0  0  0  0  0  0  0  0  0  0  0  0
    0.3155    4.7193    1.2008 S   0  0  0  0  0  0  0  0  0  0  0  0
    3.3537    1.3841    0.5873 C   0  0  0  0  0  0  0  0  0  0  0  0
    2.9628    0.3054    0.1871 O   0  0  0  0  0  0  0  0  0  0  0  0
   -6.2550   -0.6742    3.3915 H   0  0  0  0  0  0  0  0  0  0  0  0
   -7.1537    0.7272    2.7617 H   0  0  0  0  0  0  0  0  0  0  0  0
   -6.7725   -0.6410    1.6888 H   0  0  0  0  0  0  0  0  0  0  0  0
   -4.4702    2.5596    5.5927 H   0  0  0  0  0  0  0  0  0  0  0  0
    0.7016    4.6409    4.0904 H   0  0  0  0  0  0  0  0  0  0  0  0
    0.4419    5.1227    5.6788 H   0  0  0  0  0  0  0  0  0  0  0  0
   -1.2350    3.0460    2.1691 H   0  0  0  0  0  0  0  0  0  0  0  0
    3.9011    3.7345    1.3716 H   0  0  0  0  0  0  0  0  0  0  0  0
    2.3607    5.6096    0.2975 H   0  0  0  0  0  0  0  0  0  0  0  0
    2.4177    5.5067    2.0682 H   0  0  0  0  0  0  0  0  0  0  0  0
    4.6378    1.5370    0.9667 O   0  0  0  0  0  1  0  0  0  0  0  0
  1  2  1  0  0  0  0
  1 27  1  0  0  0  0
  1 28  1  0  0  0  0
  1 29  1  0  0  0  0
  2  3  1  0  0  0  0
  3  4  2  0  0  0  0
  4  5  1  0  0  0  0
  4 11  1  0  0  0  0
  5  9  1  0  0  0  0
  5  6  2  0  0  0  0
  6  7  1  0  0  0  0
  6 30  1  0  0  0  0
  7  8  1  0  0  0  0
  8  9  2  0  0  0  0
  8 10  1  0  0  0  0
 10 31  1  0  0  0  0
 10 32  1  0  0  0  0
 11 12  2  0  0  0  0
 11 13  1  0  0  0  0
 13 14  1  0  0  0  0
 13 33  1  0  0  0  0
 14 15  1  6  0  0  0
 14 19  1  0  0  0  0
 14 16  1  0  0  0  0
 16 17  1  6  0  0  0
 16 24  1  0  0  0  0
 16 18  1  0  0  0  0
 18 19  1  0  0  0  0
 18 21  1  0  0  0  0
 19 20  2  0  0  0  0
 21 22  2  0  0  0  0
 21 25  1  0  0  0  0
 22 23  1  0  0  0  0
 22 34  1  0  0  0  0
 23 24  1  0  0  0  0
 23 35  1  0  0  0  0
 23 36  1  0  0  0  0
 25 26  2  0  0  0  0
 25 37  1  0  0  0  0
M  END
$$$$
