ZINC03952881
 OpenBabel08292219463D

 39 40  0  0  0  0  0  0  0  0999 V2000
   -0.0169    1.3931    0.0097 C   0  0  0  0  0  0  0  0  0  0  0  0
    1.1651    2.0975    0.0022 C   0  0  0  0  0  0  0  0  0  0  0  0
    2.3856    1.4148   -0.0131 C   0  0  0  0  0  0  0  0  0  0  0  0
    2.4038    0.0164   -0.0208 C   0  0  0  0  0  0  0  0  0  0  0  0
    1.2211   -0.6868   -0.0133 C   0  0  0  0  0  0  0  0  0  0  0  0
    0.0021   -0.0041    0.0020 C   0  0  0  0  0  0  0  0  0  0  0  0
   -1.2676   -0.7599    0.0106 C   0  0  0  0  0  0  0  0  0  0  0  0
   -2.3283   -0.1662    0.0243 O   0  0  0  0  0  0  0  0  0  0  0  0
   -1.2497   -2.1075    0.0032 N   0  0  0  0  0  0  0  0  0  0  0  0
   -2.5085   -2.8569    0.0117 C   0  0  0  0  0  0  0  0  0  0  0  0
   -2.2090   -4.3573    0.0007 C   0  0  0  0  0  0  0  0  0  0  0  0
   -3.5039   -5.1281    0.0094 C   0  0  0  0  0  0  0  0  0  0  0  0
   -4.5677   -4.5327    0.0232 O   0  0  0  0  0  0  0  0  0  0  0  0
   -3.4877   -6.3472    0.0027 O   0  0  0  0  0  1  0  0  0  0  0  0
    3.5598    2.1138   -0.0211 N   0  0  0  0  0  0  0  0  0  0  0  0
    4.6854    1.4838   -0.0352 N   0  0  0  0  0  0  0  0  0  0  0  0
    5.8577    2.1817   -0.0431 C   0  0  0  0  0  0  0  0  0  0  0  0
    5.8393    3.5835   -0.0301 C   0  0  0  0  0  0  0  0  0  0  0  0
    7.0184    4.2924   -0.0384 C   0  0  0  0  0  0  0  0  0  0  0  0
    8.2373    3.6250   -0.0599 C   0  0  0  0  0  0  0  0  0  0  0  0
    8.2693    2.2204   -0.0732 C   0  0  0  0  0  0  0  0  0  0  0  0
    7.0745    1.5009   -0.0584 C   0  0  0  0  0  0  0  0  0  0  0  0
    9.5589    1.5108   -0.0969 C   0  0  0  0  0  0  0  0  0  0  0  0
    9.5841    0.2878   -0.1084 O   0  0  0  0  0  0  0  0  0  0  0  0
   10.6055    2.1442   -0.1051 O   0  0  0  0  0  1  0  0  0  0  0  0
    9.3948    4.3289   -0.0685 O   0  0  0  0  0  0  0  0  0  0  0  0
   -0.9594    1.9201    0.0260 H   0  0  0  0  0  0  0  0  0  0  0  0
    1.1503    3.1774    0.0078 H   0  0  0  0  0  0  0  0  0  0  0  0
    3.3460   -0.5114   -0.0331 H   0  0  0  0  0  0  0  0  0  0  0  0
    1.2350   -1.7667   -0.0193 H   0  0  0  0  0  0  0  0  0  0  0  0
   -0.4033   -2.5813   -0.0078 H   0  0  0  0  0  0  0  0  0  0  0  0
   -3.0747   -2.6060    0.9087 H   0  0  0  0  0  0  0  0  0  0  0  0
   -3.0924   -2.5965   -0.8711 H   0  0  0  0  0  0  0  0  0  0  0  0
   -1.6428   -4.6081   -0.8964 H   0  0  0  0  0  0  0  0  0  0  0  0
   -1.6251   -4.6177    0.8835 H   0  0  0  0  0  0  0  0  0  0  0  0
    4.8959    4.1089   -0.0137 H   0  0  0  0  0  0  0  0  0  0  0  0
    6.9967    5.3721   -0.0286 H   0  0  0  0  0  0  0  0  0  0  0  0
    7.0917    0.4210   -0.0636 H   0  0  0  0  0  0  0  0  0  0  0  0
    9.7421    4.5255    0.8123 H   0  0  0  0  0  0  0  0  0  0  0  0
  1  6  2  0  0  0  0
  1  2  1  0  0  0  0
  1 27  1  0  0  0  0
  2  3  2  0  0  0  0
  2 28  1  0  0  0  0
  3  4  1  0  0  0  0
  3 15  1  0  0  0  0
  4  5  2  0  0  0  0
  4 29  1  0  0  0  0
  5  6  1  0  0  0  0
  5 30  1  0  0  0  0
  6  7  1  0  0  0  0
  7  8  2  0  0  0  0
  7  9  1  0  0  0  0
  9 10  1  0  0  0  0
  9 31  1  0  0  0  0
 10 11  1  0  0  0  0
 10 32  1  0  0  0  0
 10 33  1  0  0  0  0
 11 12  1  0  0  0  0
 11 34  1  0  0  0  0
 11 35  1  0  0  0  0
 12 13  2  0  0  0  0
 12 14  1  0  0  0  0
 15 16  2  0  0  0  0
 16 17  1  0  0  0  0
 17 22  2  0  0  0  0
 17 18  1  0  0  0  0
 18 19  2  0  0  0  0
 18 36  1  0  0  0  0
 19 20  1  0  0  0  0
 19 37  1  0  0  0  0
 20 21  2  0  0  0  0
 20 26  1  0  0  0  0
 21 22  1  0  0  0  0
 21 23  1  0  0  0  0
 22 38  1  0  0  0  0
 23 24  2  0  0  0  0
 23 25  1  0  0  0  0
 26 39  1  0  0  0  0
M  END
$$$$
