ZINC05459684
 OpenBabel08292219463D

 61 64  0  0  1  0  0  0  0  0999 V2000
    4.4617    5.1177   -2.7250 C   0  0  0  0  0  0  0  0  0  0  0  0
    3.3866    4.2059   -2.1303 C   0  0  0  0  0  0  0  0  0  0  0  0
    3.4325    2.8633   -2.8133 C   0  0  0  0  0  0  0  0  0  0  0  0
    4.1732    2.6878   -3.7508 O   0  0  0  0  0  0  0  0  0  0  0  0
    2.5496    1.7338   -2.3237 C   0  0  1  0  0  0  0  0  0  0  0  0
    2.7452    0.5100   -3.2419 C   0  0  1  0  0  0  0  0  0  0  0  0
    3.5269    0.7274   -3.9762 H   0  0  0  0  0  0  0  0  0  0  0  0
    3.1761   -0.6685   -2.3526 C   0  0  0  0  0  0  0  0  0  0  0  0
    2.9018   -0.2317   -0.8909 C   0  0  1  0  0  0  0  0  0  0  0  0
    3.6500   -0.6587   -0.2004 H   0  0  0  0  0  0  0  0  0  0  0  0
    3.0066    1.2971   -0.9329 C   0  0  2  0  0  0  0  0  0  0  0  0
    2.3430    1.9943    0.2196 C   0  0  0  0  0  0  0  0  0  0  0  0
    1.0080    1.4375    0.6828 C   0  0  1  0  0  0  0  0  0  0  0  0
    0.2048    1.7645    0.0210 H   0  0  0  0  0  0  0  0  0  0  0  0
    1.0187   -0.0823    0.7814 C   0  0  2  0  0  0  0  0  0  0  0  0
    1.7263   -0.3688    1.5677 H   0  0  0  0  0  0  0  0  0  0  0  0
    1.4993   -0.7061   -0.5211 C   0  0  2  0  0  0  0  0  0  0  0  0
    0.7960   -0.4820   -1.3174 H   0  0  0  0  0  0  0  0  0  0  0  0
    1.5509   -2.2307   -0.3067 C   0  0  0  0  0  0  0  0  0  0  0  0
    0.1152   -2.7467   -0.3239 C   0  0  0  0  0  0  0  0  0  0  0  0
   -0.7674   -1.8914    0.5441 C   0  0  0  0  0  0  0  0  0  0  0  0
   -2.0108   -2.3518    0.7793 C   0  0  0  0  0  0  0  0  0  0  0  0
   -3.0032   -1.4279    1.3726 C   0  0  0  0  0  0  0  0  0  0  0  0
   -4.0370   -1.8484    1.8838 O   0  0  0  0  0  0  0  0  0  0  0  0
   -2.7030    0.0204    1.3291 C   0  0  0  0  0  0  0  0  0  0  0  0
   -1.4189    0.4071    1.2158 C   0  0  0  0  0  0  0  0  0  0  0  0
   -0.3338   -0.6208    1.1866 C   0  0  2  0  0  0  0  0  0  0  0  0
   -0.1362   -1.0036    2.6617 C   0  0  0  0  0  0  0  0  0  0  0  0
    0.7447    1.9860    1.9917 O   0  0  0  0  0  0  0  0  0  0  0  0
    4.5152    1.6403   -0.8395 C   0  0  0  0  0  0  0  0  0  0  0  0
    1.4413    0.1848   -3.9742 C   0  0  0  0  0  0  0  0  0  0  0  0
    1.0919    2.1837   -2.3608 C   0  0  0  0  0  0  0  0  0  0  0  0
    5.4431    4.6675   -2.5756 H   0  0  0  0  0  0  0  0  0  0  0  0
    4.2796    5.2463   -3.7919 H   0  0  0  0  0  0  0  0  0  0  0  0
    4.4285    6.0887   -2.2310 H   0  0  0  0  0  0  0  0  0  0  0  0
    2.4862    4.6189   -2.2673 H   0  0  0  0  0  0  0  0  0  0  0  0
    3.5687    4.0773   -1.0634 H   0  0  0  0  0  0  0  0  0  0  0  0
    4.2410   -0.8829   -2.4948 H   0  0  0  0  0  0  0  0  0  0  0  0
    2.5982   -1.5632   -2.6020 H   0  0  0  0  0  0  0  0  0  0  0  0
    2.2224    3.0582   -0.0192 H   0  0  0  0  0  0  0  0  0  0  0  0
    3.0382    1.9612    1.0778 H   0  0  0  0  0  0  0  0  0  0  0  0
    2.1262   -2.6961   -1.1052 H   0  0  0  0  0  0  0  0  0  0  0  0
    2.0142   -2.4472    0.6562 H   0  0  0  0  0  0  0  0  0  0  0  0
   -0.2657   -2.7253   -1.3468 H   0  0  0  0  0  0  0  0  0  0  0  0
    0.0903   -3.7719    0.0442 H   0  0  0  0  0  0  0  0  0  0  0  0
   -2.3085   -3.3468    0.4452 H   0  0  0  0  0  0  0  0  0  0  0  0
   -3.4913    0.7661    1.4330 H   0  0  0  0  0  0  0  0  0  0  0  0
   -1.2020    1.4705    1.1419 H   0  0  0  0  0  0  0  0  0  0  0  0
    0.1471   -0.1189    3.2319 H   0  0  0  0  0  0  0  0  0  0  0  0
   -1.0662   -1.4098    3.0594 H   0  0  0  0  0  0  0  0  0  0  0  0
    0.6507   -1.7538    2.7401 H   0  0  0  0  0  0  0  0  0  0  0  0
    0.7212    2.9524    2.0158 H   0  0  0  0  0  0  0  0  0  0  0  0
    5.0232    1.2928   -1.7391 H   0  0  0  0  0  0  0  0  0  0  0  0
    4.6373    2.7195   -0.7472 H   0  0  0  0  0  0  0  0  0  0  0  0
    4.9460    1.1499    0.0334 H   0  0  0  0  0  0  0  0  0  0  0  0
    1.1413    1.0404   -4.5793 H   0  0  0  0  0  0  0  0  0  0  0  0
    1.5929   -0.6809   -4.6190 H   0  0  0  0  0  0  0  0  0  0  0  0
    0.6611   -0.0367   -3.2460 H   0  0  0  0  0  0  0  0  0  0  0  0
    0.9555    3.0300   -1.6876 H   0  0  0  0  0  0  0  0  0  0  0  0
    0.8292    2.4810   -3.3761 H   0  0  0  0  0  0  0  0  0  0  0  0
    0.4497    1.3613   -2.0454 H   0  0  0  0  0  0  0  0  0  0  0  0
  1  2  1  0  0  0  0
  1 33  1  0  0  0  0
  1 34  1  0  0  0  0
  1 35  1  0  0  0  0
  2  3  1  0  0  0  0
  2 36  1  0  0  0  0
  2 37  1  0  0  0  0
  3  4  2  0  0  0  0
  5  3  1  6  0  0  0
  5 11  1  0  0  0  0
  5  6  1  0  0  0  0
  5 32  1  0  0  0  0
  6  7  1  6  0  0  0
  6  8  1  0  0  0  0
  6 31  1  0  0  0  0
  8  9  1  0  0  0  0
  8 38  1  0  0  0  0
  8 39  1  0  0  0  0
  9 10  1  1  0  0  0
  9 17  1  0  0  0  0
  9 11  1  0  0  0  0
 11 12  1  0  0  0  0
 11 30  1  1  0  0  0
 12 13  1  0  0  0  0
 12 40  1  0  0  0  0
 12 41  1  0  0  0  0
 13 14  1  6  0  0  0
 13 15  1  0  0  0  0
 13 29  1  0  0  0  0
 15 16  1  1  0  0  0
 15 27  1  0  0  0  0
 15 17  1  0  0  0  0
 17 18  1  6  0  0  0
 17 19  1  0  0  0  0
 19 20  1  0  0  0  0
 19 42  1  0  0  0  0
 19 43  1  0  0  0  0
 20 21  1  0  0  0  0
 20 44  1  0  0  0  0
 20 45  1  0  0  0  0
 21 27  1  0  0  0  0
 21 22  2  0  0  0  0
 22 23  1  0  0  0  0
 22 46  1  0  0  0  0
 23 24  2  0  0  0  0
 23 25  1  0  0  0  0
 25 26  2  0  0  0  0
 25 47  1  0  0  0  0
 26 27  1  0  0  0  0
 26 48  1  0  0  0  0
 27 28  1  1  0  0  0
 28 49  1  0  0  0  0
 28 50  1  0  0  0  0
 28 51  1  0  0  0  0
 29 52  1  0  0  0  0
 30 53  1  0  0  0  0
 30 54  1  0  0  0  0
 30 55  1  0  0  0  0
 31 56  1  0  0  0  0
 31 57  1  0  0  0  0
 31 58  1  0  0  0  0
 32 59  1  0  0  0  0
 32 60  1  0  0  0  0
 32 61  1  0  0  0  0
M  END
$$$$
