ZINC21992285
 OpenBabel08292219463D

 27 26  0  0  0  0  0  0  0  0999 V2000
   -0.0187    1.5258    0.0104 C   0  0  0  0  0  0  0  0  0  0  0  0
    0.0021   -0.0041    0.0020 C   0  0  0  0  0  0  0  0  0  0  0  0
   -1.3761   -0.5125    0.0124 N   0  3  0  0  0  0  0  0  0  0  0  0
    1.4167    2.0553   -0.0004 C   0  0  0  0  0  0  0  0  0  0  0  0
    1.3968    3.5242    0.0076 N   0  3  0  0  0  0  0  0  0  0  0  0
    2.7749    4.0327   -0.0028 C   0  0  0  0  0  0  0  0  0  0  0  0
    2.7542    5.5625    0.0056 C   0  0  0  0  0  0  0  0  0  0  0  0
    4.4560    6.1904   -0.0072 S   0  0  0  0  0  0  0  0  0  0  0  0
    5.1025    5.8791   -2.0021 P   0  0  0  0  0  0  0  0  0  0  0  0
    5.0345    4.3509   -2.3407 O   0  0  0  0  0  0  0  0  0  0  0  0
    4.1730    6.6729   -2.9822 O   0  0  0  0  0  1  0  0  0  0  0  0
    6.5775    6.3834   -2.1578 O   0  0  0  0  0  1  0  0  0  0  0  0
   -0.5459    1.8868   -0.8726 H   0  0  0  0  0  0  0  0  0  0  0  0
   -0.5289    1.8773    0.9072 H   0  0  0  0  0  0  0  0  0  0  0  0
    0.5123   -0.3556   -0.8948 H   0  0  0  0  0  0  0  0  0  0  0  0
    0.5293   -0.3651    0.8851 H   0  0  0  0  0  0  0  0  0  0  0  0
   -1.8641   -0.1783   -0.8050 H   0  0  0  0  0  0  0  0  0  0  0  0
   -1.3624   -1.5214    0.0069 H   0  0  0  0  0  0  0  0  0  0  0  0
    1.9439    1.6943    0.8826 H   0  0  0  0  0  0  0  0  0  0  0  0
    1.9269    1.7038   -0.8972 H   0  0  0  0  0  0  0  0  0  0  0  0
    0.9088    3.8584   -0.8098 H   0  0  0  0  0  0  0  0  0  0  0  0
    3.3021    3.6716    0.8803 H   0  0  0  0  0  0  0  0  0  0  0  0
    3.2851    3.6811   -0.8996 H   0  0  0  0  0  0  0  0  0  0  0  0
    2.2270    5.9236   -0.8774 H   0  0  0  0  0  0  0  0  0  0  0  0
    2.2440    5.9140    0.9024 H   0  0  0  0  0  0  0  0  0  0  0  0
   -1.8484   -0.1871    0.8426 H   0  0  0  0  0  0  0  0  0  0  0  0
    0.9245    3.8496    0.8378 H   0  0  0  0  0  0  0  0  0  0  0  0
  1  2  1  0  0  0  0
  1  4  1  0  0  0  0
  1 13  1  0  0  0  0
  1 14  1  0  0  0  0
  2  3  1  0  0  0  0
  2 15  1  0  0  0  0
  2 16  1  0  0  0  0
  3 17  1  0  0  0  0
  3 18  1  0  0  0  0
  3 26  1  0  0  0  0
  4  5  1  0  0  0  0
  4 19  1  0  0  0  0
  4 20  1  0  0  0  0
  5  6  1  0  0  0  0
  5 21  1  0  0  0  0
  5 27  1  0  0  0  0
  6  7  1  0  0  0  0
  6 22  1  0  0  0  0
  6 23  1  0  0  0  0
  7  8  1  0  0  0  0
  7 24  1  0  0  0  0
  7 25  1  0  0  0  0
  8  9  1  0  0  0  0
  9 10  2  0  0  0  0
  9 11  1  0  0  0  0
  9 12  1  0  0  0  0
M  CHG  2   3   1   5   1
M  END
$$$$
