ZINC01849548
 OpenBabel08292219463D

 22 23  0  0  1  0  0  0  0  0999 V2000
   -0.0175    1.4390    0.0100 C   0  0  0  0  0  0  0  0  0  0  0  0
    1.4700    1.8538   -0.0020 C   0  0  1  0  0  0  0  0  0  0  0  0
    1.8280    2.0196    1.0141 H   0  0  0  0  0  0  0  0  0  0  0  0
    2.1936    0.6490   -0.6397 C   0  0  2  0  0  0  0  0  0  0  0  0
    2.7092    0.9307   -1.5579 H   0  0  0  0  0  0  0  0  0  0  0  0
    1.0555   -0.3736   -0.9118 C   0  0  2  0  0  0  0  0  0  0  0  0
    0.7423   -0.4068   -1.9553 H   0  0  0  0  0  0  0  0  0  0  0  0
    0.0021   -0.0041    0.0020 O   0  0  0  0  0  0  0  0  0  0  0  0
    1.6816   -1.7038   -0.4164 C   0  0  1  0  0  0  0  0  0  0  0  0
    2.2872   -2.1661   -1.1960 H   0  0  0  0  0  0  0  0  0  0  0  0
    2.5660   -1.2051    0.7530 C   0  0  0  0  0  0  0  0  0  0  0  0
    3.0927    0.0746    0.3124 O   0  0  0  0  0  0  0  0  0  0  0  0
    0.6738   -2.6040    0.0485 O   0  0  0  0  0  0  0  0  0  0  0  0
    1.0475   -3.9684   -0.0130 N   0  0  0  0  0  4  0  0  0  0  0  0
    2.1384   -4.2781   -0.4323 O   0  0  0  0  0  0  0  0  0  0  0  0
    0.2758   -4.8237    0.3539 O   0  5  0  0  0  0  0  0  0  0  0  0
    1.6553    3.0285   -0.7943 O   0  0  0  0  0  0  0  0  0  0  0  0
   -0.5068    1.8069    0.9118 H   0  0  0  0  0  0  0  0  0  0  0  0
   -0.5239    1.8165   -0.8784 H   0  0  0  0  0  0  0  0  0  0  0  0
    1.9667   -1.0819    1.6551 H   0  0  0  0  0  0  0  0  0  0  0  0
    3.3839   -1.9027    0.9333 H   0  0  0  0  0  0  0  0  0  0  0  0
    1.1746    3.8020   -0.4692 H   0  0  0  0  0  0  0  0  0  0  0  0
  1  8  1  0  0  0  0
  1  2  1  0  0  0  0
  1 18  1  0  0  0  0
  1 19  1  0  0  0  0
  2  3  1  1  0  0  0
  2  4  1  0  0  0  0
  2 17  1  0  0  0  0
  4  5  1  6  0  0  0
  4 12  1  0  0  0  0
  4  6  1  0  0  0  0
  6  7  1  6  0  0  0
  6  8  1  0  0  0  0
  6  9  1  0  0  0  0
  9 10  1  6  0  0  0
  9 11  1  0  0  0  0
  9 13  1  0  0  0  0
 11 12  1  0  0  0  0
 11 20  1  0  0  0  0
 11 21  1  0  0  0  0
 13 14  1  0  0  0  0
 14 15  2  0  0  0  0
 14 16  1  0  0  0  0
 17 22  1  0  0  0  0
M  CHG  1  16  -1
M  END
$$$$
