ZINC22448097
 OpenBabel08292219463D

 67 67  0  0  1  0  0  0  0  0999 V2000
    3.9533    0.3238    0.3025 C   0  0  0  0  0  0  0  0  0  0  0  0
    3.3831   -1.0960    0.3023 C   0  0  0  0  0  0  0  0  0  0  0  0
    2.0183   -1.0612   -0.1197 O   0  0  0  0  0  0  0  0  0  0  0  0
    1.3593   -2.2484   -0.1756 C   0  0  0  0  0  0  0  0  0  0  0  0
    2.0111   -3.4220    0.1742 C   0  0  0  0  0  0  0  0  0  0  0  0
    1.3389   -4.6275    0.1170 C   0  0  0  0  0  0  0  0  0  0  0  0
    0.0177   -4.6650   -0.2889 C   0  0  0  0  0  0  0  0  0  0  0  0
   -0.6340   -3.4968   -0.6385 C   0  0  0  0  0  0  0  0  0  0  0  0
    0.0319   -2.2880   -0.5771 C   0  0  0  0  0  0  0  0  0  0  0  0
   -0.7131   -5.9815   -0.3509 C   0  0  0  0  0  0  0  0  0  0  0  0
   -1.5666   -6.1508    0.9076 C   0  0  1  0  0  0  0  0  0  0  0  0
   -2.2394   -5.2991    1.0076 H   0  0  0  0  0  0  0  0  0  0  0  0
   -2.3862   -7.4381    0.7987 C   0  0  0  0  0  0  0  0  0  0  0  0
   -3.1976   -7.6062    2.0117 N   0  0  0  0  0  0  0  0  0  0  0  0
   -3.6959   -8.9834    2.1251 C   0  0  0  0  0  0  0  0  0  0  0  0
   -4.4433   -9.3624    0.8451 C   0  0  0  0  0  0  0  0  0  0  0  0
   -5.0164  -10.7070    0.9925 N   0  3  0  0  0  0  0  0  0  0  0  0
   -6.0562  -10.6850    2.0300 C   0  0  0  0  0  0  0  0  0  0  0  0
   -6.5581  -12.0859    2.2679 C   0  0  0  0  0  0  0  0  0  0  0  0
   -6.0928  -13.0164    1.6321 O   0  0  0  0  0  0  0  0  0  0  0  0
   -7.4295  -12.2888    3.0961 O   0  0  0  0  0  1  0  0  0  0  0  0
   -5.6073  -11.1301   -0.2841 C   0  0  0  0  0  0  0  0  0  0  0  0
   -4.5155  -11.3155   -1.3061 C   0  0  0  0  0  0  0  0  0  0  0  0
   -3.3462  -11.2324   -0.9708 O   0  0  0  0  0  0  0  0  0  0  0  0
   -4.8014  -11.5486   -2.4682 O   0  0  0  0  0  1  0  0  0  0  0  0
   -4.3050   -6.6415    2.0421 C   0  0  0  0  0  0  0  0  0  0  0  0
   -4.8687   -6.5677    3.4378 C   0  0  0  0  0  0  0  0  0  0  0  0
   -4.4336   -7.2995    4.3105 O   0  0  0  0  0  0  0  0  0  0  0  0
   -5.7599   -5.7761    3.6942 O   0  0  0  0  0  1  0  0  0  0  0  0
   -0.6923   -6.2252    2.0858 N   0  0  0  0  0  0  0  0  0  0  0  0
    0.5018   -7.0334    1.8051 C   0  0  0  0  0  0  0  0  0  0  0  0
    0.1617   -8.4954    1.9386 C   0  0  0  0  0  0  0  0  0  0  0  0
   -0.9321   -8.8308    2.3602 O   0  0  0  0  0  0  0  0  0  0  0  0
    0.9802   -9.3428    1.6250 O   0  0  0  0  0  1  0  0  0  0  0  0
   -0.3215   -4.8823    2.5519 C   0  0  0  0  0  0  0  0  0  0  0  0
   -1.4752   -4.2772    3.3095 C   0  0  0  0  0  0  0  0  0  0  0  0
   -2.5067   -4.8940    3.4331 O   0  0  0  0  0  0  0  0  0  0  0  0
   -1.3567   -3.0530    3.8471 O   0  0  0  0  0  0  0  0  0  0  0  0
    4.9944    0.2972    0.6244 H   0  0  0  0  0  0  0  0  0  0  0  0
    3.8946    0.7390   -0.7037 H   0  0  0  0  0  0  0  0  0  0  0  0
    3.3772    0.9466    0.9867 H   0  0  0  0  0  0  0  0  0  0  0  0
    3.9593   -1.7189   -0.3819 H   0  0  0  0  0  0  0  0  0  0  0  0
    3.4418   -1.5112    1.3084 H   0  0  0  0  0  0  0  0  0  0  0  0
    3.0433   -3.3933    0.4906 H   0  0  0  0  0  0  0  0  0  0  0  0
    1.8458   -5.5414    0.3892 H   0  0  0  0  0  0  0  0  0  0  0  0
   -1.6660   -3.5288   -0.9556 H   0  0  0  0  0  0  0  0  0  0  0  0
   -0.4789   -1.3752   -0.8460 H   0  0  0  0  0  0  0  0  0  0  0  0
   -1.3560   -5.9992   -1.2309 H   0  0  0  0  0  0  0  0  0  0  0  0
    0.0092   -6.7955   -0.4122 H   0  0  0  0  0  0  0  0  0  0  0  0
   -3.0407   -7.3796   -0.0710 H   0  0  0  0  0  0  0  0  0  0  0  0
   -1.7136   -8.2890    0.6907 H   0  0  0  0  0  0  0  0  0  0  0  0
   -2.8560   -9.6629    2.2701 H   0  0  0  0  0  0  0  0  0  0  0  0
   -4.3730   -9.0559    2.9762 H   0  0  0  0  0  0  0  0  0  0  0  0
   -5.2433   -8.6442    0.6653 H   0  0  0  0  0  0  0  0  0  0  0  0
   -3.7507   -9.3530    0.0035 H   0  0  0  0  0  0  0  0  0  0  0  0
   -5.6385  -10.2868    2.9547 H   0  0  0  0  0  0  0  0  0  0  0  0
   -6.8824  -10.0537    1.7031 H   0  0  0  0  0  0  0  0  0  0  0  0
   -6.1380  -12.0719   -0.1444 H   0  0  0  0  0  0  0  0  0  0  0  0
   -6.3049  -10.3681   -0.6318 H   0  0  0  0  0  0  0  0  0  0  0  0
   -3.9389   -5.6586    1.7457 H   0  0  0  0  0  0  0  0  0  0  0  0
   -5.0852   -6.9620    1.3517 H   0  0  0  0  0  0  0  0  0  0  0  0
    0.8468   -6.8317    0.7910 H   0  0  0  0  0  0  0  0  0  0  0  0
    1.2889   -6.7772    2.5143 H   0  0  0  0  0  0  0  0  0  0  0  0
    0.5468   -4.9520    3.2070 H   0  0  0  0  0  0  0  0  0  0  0  0
   -0.0804   -4.2539    1.6945 H   0  0  0  0  0  0  0  0  0  0  0  0
   -2.1478   -2.7499    4.3132 H   0  0  0  0  0  0  0  0  0  0  0  0
   -4.2900  -11.3549    1.2581 H   0  0  0  0  0  0  0  0  0  0  0  0
  1  2  1  0  0  0  0
  1 39  1  0  0  0  0
  1 40  1  0  0  0  0
  1 41  1  0  0  0  0
  2  3  1  0  0  0  0
  2 42  1  0  0  0  0
  2 43  1  0  0  0  0
  3  4  1  0  0  0  0
  4  9  2  0  0  0  0
  4  5  1  0  0  0  0
  5  6  2  0  0  0  0
  5 44  1  0  0  0  0
  6  7  1  0  0  0  0
  6 45  1  0  0  0  0
  7  8  2  0  0  0  0
  7 10  1  0  0  0  0
  8  9  1  0  0  0  0
  8 46  1  0  0  0  0
  9 47  1  0  0  0  0
 10 11  1  0  0  0  0
 10 48  1  0  0  0  0
 10 49  1  0  0  0  0
 11 12  1  1  0  0  0
 11 13  1  0  0  0  0
 11 30  1  0  0  0  0
 13 14  1  0  0  0  0
 13 50  1  0  0  0  0
 13 51  1  0  0  0  0
 14 15  1  0  0  0  0
 14 26  1  0  0  0  0
 15 16  1  0  0  0  0
 15 52  1  0  0  0  0
 15 53  1  0  0  0  0
 16 17  1  0  0  0  0
 16 54  1  0  0  0  0
 16 55  1  0  0  0  0
 17 18  1  0  0  0  0
 17 22  1  0  0  0  0
 17 67  1  0  0  0  0
 18 19  1  0  0  0  0
 18 56  1  0  0  0  0
 18 57  1  0  0  0  0
 19 20  2  0  0  0  0
 19 21  1  0  0  0  0
 22 23  1  0  0  0  0
 22 58  1  0  0  0  0
 22 59  1  0  0  0  0
 23 24  2  0  0  0  0
 23 25  1  0  0  0  0
 26 27  1  0  0  0  0
 26 60  1  0  0  0  0
 26 61  1  0  0  0  0
 27 28  2  0  0  0  0
 27 29  1  0  0  0  0
 30 31  1  0  0  0  0
 30 35  1  0  0  0  0
 31 32  1  0  0  0  0
 31 62  1  0  0  0  0
 31 63  1  0  0  0  0
 32 33  2  0  0  0  0
 32 34  1  0  0  0  0
 35 36  1  0  0  0  0
 35 64  1  0  0  0  0
 35 65  1  0  0  0  0
 36 37  2  0  0  0  0
 36 38  1  0  0  0  0
 38 66  1  0  0  0  0
M  CHG  1  17   1
M  END
$$$$
