ZINC00000023
 OpenBabel08292219463D

 42 42  0  0  1  0  0  0  0  0999 V2000
   -0.0187    1.5258    0.0104 C   0  0  0  0  0  0  0  0  0  0  0  0
    0.0021   -0.0041    0.0020 C   0  0  0  0  0  0  0  0  0  0  0  0
   -1.4333   -0.5336    0.0129 C   0  0  0  0  0  0  0  0  0  0  0  0
    0.6897   -0.4778   -1.2066 N   0  3  0  0  0  0  0  0  0  0  0  0
    2.1002   -0.0703   -1.1590 C   0  0  0  0  0  0  0  0  0  0  0  0
    2.8163   -0.5637   -2.4178 C   0  0  2  0  0  0  0  0  0  0  0  0
    2.6781   -1.6404   -2.5160 H   0  0  0  0  0  0  0  0  0  0  0  0
    4.3098   -0.2489   -2.3115 C   0  0  0  0  0  0  0  0  0  0  0  0
    4.9962   -0.8116   -3.4314 O   0  0  0  0  0  0  0  0  0  0  0  0
    6.3406   -0.6217   -3.4901 C   0  0  0  0  0  0  0  0  0  0  0  0
    6.9868    0.0868   -2.4873 C   0  0  0  0  0  0  0  0  0  0  0  0
    8.3533    0.2781   -2.5491 C   0  0  0  0  0  0  0  0  0  0  0  0
    9.0774   -0.2360   -3.6092 C   0  0  0  0  0  0  0  0  0  0  0  0
    8.4358   -0.9419   -4.6098 C   0  0  0  0  0  0  0  0  0  0  0  0
    7.0699   -1.1408   -4.5497 C   0  0  0  0  0  0  0  0  0  0  0  0
    6.3721   -1.9158   -5.6376 C   0  0  0  0  0  0  0  0  0  0  0  0
    5.8306   -0.9586   -6.6680 C   0  0  0  0  0  0  0  0  0  0  0  0
    6.1568   -1.1001   -7.9288 C   0  0  0  0  0  0  0  0  0  0  0  0
    2.2715    0.0930   -3.5641 O   0  0  0  0  0  0  0  0  0  0  0  0
    1.0039    1.9031    0.0027 H   0  0  0  0  0  0  0  0  0  0  0  0
   -0.5459    1.8868   -0.8726 H   0  0  0  0  0  0  0  0  0  0  0  0
   -0.5289    1.8773    0.9072 H   0  0  0  0  0  0  0  0  0  0  0  0
    0.5293   -0.3651    0.8851 H   0  0  0  0  0  0  0  0  0  0  0  0
   -1.9605   -0.1726   -0.8702 H   0  0  0  0  0  0  0  0  0  0  0  0
   -1.4185   -1.6235    0.0069 H   0  0  0  0  0  0  0  0  0  0  0  0
   -1.9435   -0.1821    0.9097 H   0  0  0  0  0  0  0  0  0  0  0  0
    0.6317   -1.4840   -1.2540 H   0  0  0  0  0  0  0  0  0  0  0  0
    2.1628    1.0167   -1.1079 H   0  0  0  0  0  0  0  0  0  0  0  0
    2.5740   -0.5034   -0.2781 H   0  0  0  0  0  0  0  0  0  0  0  0
    4.4536    0.8316   -2.3027 H   0  0  0  0  0  0  0  0  0  0  0  0
    4.7064   -0.6757   -1.3903 H   0  0  0  0  0  0  0  0  0  0  0  0
    6.4217    0.4888   -1.6594 H   0  0  0  0  0  0  0  0  0  0  0  0
    8.8567    0.8298   -1.7690 H   0  0  0  0  0  0  0  0  0  0  0  0
   10.1458   -0.0853   -3.6557 H   0  0  0  0  0  0  0  0  0  0  0  0
    9.0035   -1.3420   -5.4369 H   0  0  0  0  0  0  0  0  0  0  0  0
    7.0803   -2.5962   -6.1105 H   0  0  0  0  0  0  0  0  0  0  0  0
    5.5508   -2.4882   -5.2064 H   0  0  0  0  0  0  0  0  0  0  0  0
    5.1735   -0.1561   -6.3669 H   0  0  0  0  0  0  0  0  0  0  0  0
    6.8138   -1.9026   -8.2298 H   0  0  0  0  0  0  0  0  0  0  0  0
    5.7687   -0.4141   -8.6672 H   0  0  0  0  0  0  0  0  0  0  0  0
    2.3595    1.0558   -3.5447 H   0  0  0  0  0  0  0  0  0  0  0  0
    0.2511   -0.0769   -2.0221 H   0  0  0  0  0  0  0  0  0  0  0  0
  1  2  1  0  0  0  0
  1 20  1  0  0  0  0
  1 21  1  0  0  0  0
  1 22  1  0  0  0  0
  2  3  1  0  0  0  0
  2  4  1  0  0  0  0
  2 23  1  0  0  0  0
  3 24  1  0  0  0  0
  3 25  1  0  0  0  0
  3 26  1  0  0  0  0
  4  5  1  0  0  0  0
  4 27  1  0  0  0  0
  4 42  1  0  0  0  0
  5  6  1  0  0  0  0
  5 28  1  0  0  0  0
  5 29  1  0  0  0  0
  6  7  1  6  0  0  0
  6  8  1  0  0  0  0
  6 19  1  0  0  0  0
  8  9  1  0  0  0  0
  8 30  1  0  0  0  0
  8 31  1  0  0  0  0
  9 10  1  0  0  0  0
 10 15  2  0  0  0  0
 10 11  1  0  0  0  0
 11 12  2  0  0  0  0
 11 32  1  0  0  0  0
 12 13  1  0  0  0  0
 12 33  1  0  0  0  0
 13 14  2  0  0  0  0
 13 34  1  0  0  0  0
 14 15  1  0  0  0  0
 14 35  1  0  0  0  0
 15 16  1  0  0  0  0
 16 17  1  0  0  0  0
 16 36  1  0  0  0  0
 16 37  1  0  0  0  0
 17 18  2  0  0  0  0
 17 38  1  0  0  0  0
 18 39  1  0  0  0  0
 18 40  1  0  0  0  0
 19 41  1  0  0  0  0
M  CHG  1   4   1
M  END
$$$$
