ZINC00643138
 OpenBabel08292219463D

 65 69  0  0  1  0  0  0  0  0999 V2000
    1.6079    1.9820    1.9526 H   0  0  0  0  0  0  0  0  0  0  0  0
    1.9730    1.5011    1.0451 C   0  0  0  0  0  0  0  0  0  0  0  0
    2.1165   -0.0071    1.2838 C   0  0  0  0  0  0  0  0  0  0  0  0
    0.7741   -0.5946    1.3963 N   0  0  0  0  0  0  0  0  0  0  0  0
   -0.1862   -0.3812    0.3044 C   0  0  0  0  0  0  0  0  0  0  0  0
   -0.3297    1.1270    0.0658 C   0  0  0  0  0  0  0  0  0  0  0  0
    1.0127    1.7145   -0.0467 N   0  0  0  0  0  0  0  0  0  0  0  0
    1.3700    2.4640   -1.1731 C   0  0  0  0  0  0  0  0  0  0  0  0
    0.4180    2.7640   -2.1385 C   0  0  0  0  0  0  0  0  0  0  0  0
    0.7714    3.5042   -3.2497 C   0  0  0  0  0  0  0  0  0  0  0  0
    2.0767    3.9479   -3.4015 C   0  0  0  0  0  0  0  0  0  0  0  0
    3.0283    3.6483   -2.4379 C   0  0  0  0  0  0  0  0  0  0  0  0
    2.6753    2.9131   -1.3233 C   0  0  0  0  0  0  0  0  0  0  0  0
    2.4238    4.6768   -4.4960 O   0  0  0  0  0  0  0  0  0  0  0  0
    3.7853    5.1010   -4.5878 C   0  0  0  0  0  0  0  0  0  0  0  0
    3.9841    5.9018   -5.8762 C   0  0  1  0  0  0  0  0  0  0  0  0
    3.2697    6.7231   -5.9318 H   0  0  0  0  0  0  0  0  0  0  0  0
    5.4365    6.4322   -5.9725 C   0  0  0  0  0  0  0  0  0  0  0  0
    5.6082    6.5610   -7.4044 O   0  0  0  0  0  0  0  0  0  0  0  0
    4.8830    5.4525   -7.9627 C   0  0  2  0  0  0  0  0  0  0  0  0
    3.8680    5.0463   -7.0310 O   0  0  0  0  0  0  0  0  0  0  0  0
    5.8420    4.2889   -8.2219 C   0  0  0  0  0  0  0  0  0  0  0  0
    6.4757    3.8887   -6.9631 N   0  0  0  0  0  0  0  0  0  0  0  0
    7.6416    4.3862   -6.4467 C   0  0  0  0  0  0  0  0  0  0  0  0
    7.8564    3.7456   -5.2817 C   0  0  0  0  0  0  0  0  0  0  0  0
    6.8490    2.8806   -5.0920 N   0  0  0  0  0  4  0  0  0  0  0  0
    6.0155    2.9645   -6.0927 C   0  0  0  0  0  0  0  0  0  0  0  0
    4.2377    5.8710   -9.2587 C   0  0  0  0  0  0  0  0  0  0  0  0
    4.5460    5.2057  -10.4306 C   0  0  0  0  0  0  0  0  0  0  0  0
    3.9547    5.5889  -11.6195 C   0  0  0  0  0  0  0  0  0  0  0  0
    3.0531    6.6385  -11.6374 C   0  0  0  0  0  0  0  0  0  0  0  0
    2.7439    7.3042  -10.4651 C   0  0  0  0  0  0  0  0  0  0  0  0
    3.3326    6.9170   -9.2744 C   0  0  0  0  0  0  0  0  0  0  0  0
    2.9404    7.7480   -7.8016 Cl  0  0  0  0  0  0  0  0  0  0  0  0
    2.3108    7.1201  -13.1310 Cl  0  0  0  0  0  0  0  0  0  0  0  0
   -0.8834    1.3003   -0.8570 H   0  0  0  0  0  0  0  0  0  0  0  0
   -0.8588    1.5812    0.9035 H   0  0  0  0  0  0  0  0  0  0  0  0
    0.1789   -0.8621   -0.6031 H   0  0  0  0  0  0  0  0  0  0  0  0
   -1.1533   -0.8016    0.5805 H   0  0  0  0  0  0  0  0  0  0  0  0
    0.4300   -1.3165    2.4812 C   0  0  0  0  0  0  0  0  0  0  0  0
    1.2581   -1.5654    3.3316 O   0  0  0  0  0  0  0  0  0  0  0  0
   -0.9838   -1.8144    2.6375 C   0  0  0  0  0  0  0  0  0  0  0  0
    2.6456   -0.4613    0.4460 H   0  0  0  0  0  0  0  0  0  0  0  0
    2.6702   -0.1804    2.2066 H   0  0  0  0  0  0  0  0  0  0  0  0
    2.9392    1.9241    0.7704 H   0  0  0  0  0  0  0  0  0  0  0  0
   -0.5984    2.4183   -2.0207 H   0  0  0  0  0  0  0  0  0  0  0  0
    0.0312    3.7373   -4.0008 H   0  0  0  0  0  0  0  0  0  0  0  0
    4.0446    3.9939   -2.5571 H   0  0  0  0  0  0  0  0  0  0  0  0
    3.4153    2.6840   -0.5708 H   0  0  0  0  0  0  0  0  0  0  0  0
    4.0295    5.7270   -3.7295 H   0  0  0  0  0  0  0  0  0  0  0  0
    4.4380    4.2281   -4.5982 H   0  0  0  0  0  0  0  0  0  0  0  0
    5.5321    7.3996   -5.4795 H   0  0  0  0  0  0  0  0  0  0  0  0
    6.1428    5.7130   -5.5579 H   0  0  0  0  0  0  0  0  0  0  0  0
    5.2873    3.4457   -8.6335 H   0  0  0  0  0  0  0  0  0  0  0  0
    6.6084    4.6008   -8.9314 H   0  0  0  0  0  0  0  0  0  0  0  0
    8.2690    5.1460   -6.8887 H   0  0  0  0  0  0  0  0  0  0  0  0
    8.6931    3.9010   -4.6168 H   0  0  0  0  0  0  0  0  0  0  0  0
    5.1093    2.3882   -6.2070 H   0  0  0  0  0  0  0  0  0  0  0  0
    5.2496    4.3864  -10.4172 H   0  0  0  0  0  0  0  0  0  0  0  0
    4.1965    5.0692  -12.5349 H   0  0  0  0  0  0  0  0  0  0  0  0
    2.0403    8.1235  -10.4786 H   0  0  0  0  0  0  0  0  0  0  0  0
   -1.5536   -1.5784    1.7388 H   0  0  0  0  0  0  0  0  0  0  0  0
   -0.9742   -2.8938    2.7886 H   0  0  0  0  0  0  0  0  0  0  0  0
   -1.4461   -1.3311    3.4982 H   0  0  0  0  0  0  0  0  0  0  0  0
    6.7531    2.2888   -4.3295 H   0  0  0  0  0  0  0  0  0  0  0  0
  1  2  1  0  0  0  0
  2  7  1  0  0  0  0
  2  3  1  0  0  0  0
  2 45  1  0  0  0  0
  3  4  1  0  0  0  0
  3 43  1  0  0  0  0
  3 44  1  0  0  0  0
  4  5  1  0  0  0  0
  4 40  1  0  0  0  0
  5  6  1  0  0  0  0
  5 38  1  0  0  0  0
  5 39  1  0  0  0  0
  6  7  1  0  0  0  0
  6 36  1  0  0  0  0
  6 37  1  0  0  0  0
  7  8  1  0  0  0  0
  8 13  2  0  0  0  0
  8  9  1  0  0  0  0
  9 10  2  0  0  0  0
  9 46  1  0  0  0  0
 10 11  1  0  0  0  0
 10 47  1  0  0  0  0
 11 12  2  0  0  0  0
 11 14  1  0  0  0  0
 12 13  1  0  0  0  0
 12 48  1  0  0  0  0
 13 49  1  0  0  0  0
 14 15  1  0  0  0  0
 15 16  1  0  0  0  0
 15 50  1  0  0  0  0
 15 51  1  0  0  0  0
 16 17  1  6  0  0  0
 16 21  1  0  0  0  0
 16 18  1  0  0  0  0
 18 19  1  0  0  0  0
 18 52  1  0  0  0  0
 18 53  1  0  0  0  0
 19 20  1  0  0  0  0
 20 21  1  0  0  0  0
 20 22  1  6  0  0  0
 20 28  1  0  0  0  0
 22 23  1  0  0  0  0
 22 54  1  0  0  0  0
 22 55  1  0  0  0  0
 23 27  1  0  0  0  0
 23 24  1  0  0  0  0
 24 25  2  0  0  0  0
 24 56  1  0  0  0  0
 25 26  1  0  0  0  0
 25 57  1  0  0  0  0
 26 27  2  0  0  0  0
 26 65  1  0  0  0  0
 27 58  1  0  0  0  0
 28 33  2  0  0  0  0
 28 29  1  0  0  0  0
 29 30  2  0  0  0  0
 29 59  1  0  0  0  0
 30 31  1  0  0  0  0
 30 60  1  0  0  0  0
 31 32  2  0  0  0  0
 31 35  1  0  0  0  0
 32 33  1  0  0  0  0
 32 61  1  0  0  0  0
 33 34  1  0  0  0  0
 40 41  2  0  0  0  0
 40 42  1  0  0  0  0
 42 62  1  0  0  0  0
 42 63  1  0  0  0  0
 42 64  1  0  0  0  0
M  END
$$$$
