ZINC08101115
 OpenBabel08292219463D

 81 83  0  0  1  0  0  0  0  0999 V2000
    1.2879   -2.9232   -4.3272 C   0  0  0  0  0  0  0  0  0  0  0  0
    1.9240   -2.7240   -5.7043 C   0  0  2  0  0  0  0  0  0  0  0  0
    2.6964   -3.4771   -5.8601 H   0  0  0  0  0  0  0  0  0  0  0  0
    2.5486   -1.3294   -5.7807 C   0  0  2  0  0  0  0  0  0  0  0  0
    2.9268   -1.1552   -6.7881 H   0  0  0  0  0  0  0  0  0  0  0  0
    3.7015   -1.2308   -4.7784 C   0  0  0  0  0  0  0  0  0  0  0  0
    4.2824    0.1860   -4.8180 C   0  0  0  0  0  0  0  0  0  0  0  0
    3.1663    1.1921   -4.5209 C   0  0  1  0  0  0  0  0  0  0  0  0
    3.5587    2.2058   -4.6015 H   0  0  0  0  0  0  0  0  0  0  0  0
    2.0340    0.9999   -5.5332 C   0  0  1  0  0  0  0  0  0  0  0  0
    2.4054    1.2048   -6.5373 H   0  0  0  0  0  0  0  0  0  0  0  0
    1.5601   -0.3466   -5.4662 O   0  0  0  0  0  0  0  0  0  0  0  0
    0.9647    1.8975   -5.2283 O   0  0  0  0  0  0  0  0  0  0  0  0
   -0.1131    1.8573   -6.1658 C   0  0  2  0  0  0  0  0  0  0  0  0
   -0.1878    0.8564   -6.5909 H   0  0  0  0  0  0  0  0  0  0  0  0
    0.1460    2.8685   -7.2844 C   0  0  1  0  0  0  0  0  0  0  0  0
   -0.6761    2.8378   -7.9995 H   0  0  0  0  0  0  0  0  0  0  0  0
    0.2509    4.2734   -6.6877 C   0  0  0  0  0  0  0  0  0  0  0  0
   -1.0574    4.6242   -5.9761 C   0  0  1  0  0  0  0  0  0  0  0  0
   -1.8795    4.5936   -6.6912 H   0  0  0  0  0  0  0  0  0  0  0  0
   -1.3165    3.6131   -4.8575 C   0  0  1  0  0  0  0  0  0  0  0  0
   -2.2485    3.8630   -4.3505 H   0  0  0  0  0  0  0  0  0  0  0  0
   -1.4213    2.2081   -5.4542 C   0  0  2  0  0  0  0  0  0  0  0  0
   -2.2434    2.1775   -6.1692 H   0  0  0  0  0  0  0  0  0  0  0  0
   -1.6634    1.2637   -4.4094 O   0  0  0  0  0  0  0  0  0  0  0  0
   -0.2387    3.6532   -3.9200 O   0  0  0  0  0  0  0  0  0  0  0  0
   -0.6550    3.8126   -2.5623 C   0  0  2  0  0  0  0  0  0  0  0  0
   -1.4354    4.5717   -2.5081 H   0  0  0  0  0  0  0  0  0  0  0  0
    0.5400    4.2471   -1.7096 C   0  0  1  0  0  0  0  0  0  0  0  0
    0.9012    5.2156   -2.0554 H   0  0  0  0  0  0  0  0  0  0  0  0
    0.1000    4.3575   -0.2465 C   0  0  1  0  0  0  0  0  0  0  0  0
   -0.6619    5.1313   -0.1522 H   0  0  0  0  0  0  0  0  0  0  0  0
   -0.4774    3.0123    0.2044 C   0  0  1  0  0  0  0  0  0  0  0  0
   -1.6331    2.6255   -0.7222 C   0  0  0  0  0  0  0  0  0  0  0  0
   -1.1631    2.5708   -2.0707 O   0  0  0  0  0  0  0  0  0  0  0  0
    0.6121    1.9401    0.1379 C   0  0  0  0  0  0  0  0  0  0  0  0
   -0.9577    3.1242    1.5456 O   0  0  0  0  0  0  0  0  0  0  0  0
    1.2572    4.7027    0.5899 N   0  3  0  0  0  0  0  0  0  0  0  0
    1.7407    6.0419    0.2283 C   0  0  0  0  0  0  0  0  0  0  0  0
    1.5850    3.2792   -1.8236 O   0  0  0  0  0  0  0  0  0  0  0  0
   -0.9567    5.9731   -5.4032 N   0  3  0  0  0  0  0  0  0  0  0  0
    1.4021    2.5317   -7.9676 N   0  3  0  0  0  0  0  0  0  0  0  0
    2.6544    0.9704   -3.1620 N   0  3  0  0  0  0  0  0  0  0  0  0
    0.8939   -2.8568   -6.7433 N   0  3  0  0  0  0  0  0  0  0  0  0
    0.3783   -4.2323   -6.7486 C   0  0  0  0  0  0  0  0  0  0  0  0
    2.0598   -2.8703   -3.5594 H   0  0  0  0  0  0  0  0  0  0  0  0
    0.5476   -2.1424   -4.1525 H   0  0  0  0  0  0  0  0  0  0  0  0
    0.8031   -3.8987   -4.2885 H   0  0  0  0  0  0  0  0  0  0  0  0
    3.3318   -1.4450   -3.7756 H   0  0  0  0  0  0  0  0  0  0  0  0
    4.4768   -1.9498   -5.0430 H   0  0  0  0  0  0  0  0  0  0  0  0
    5.0670    0.2796   -4.0671 H   0  0  0  0  0  0  0  0  0  0  0  0
    4.6970    0.3827   -5.8067 H   0  0  0  0  0  0  0  0  0  0  0  0
    1.0729    4.3040   -5.9726 H   0  0  0  0  0  0  0  0  0  0  0  0
    0.4355    4.9938   -7.4846 H   0  0  0  0  0  0  0  0  0  0  0  0
   -2.4783    1.4250   -3.9144 H   0  0  0  0  0  0  0  0  0  0  0  0
   -2.0201    1.6486   -0.4323 H   0  0  0  0  0  0  0  0  0  0  0  0
   -2.4263    3.3689   -0.6438 H   0  0  0  0  0  0  0  0  0  0  0  0
    1.5349    2.3329    0.5647 H   0  0  0  0  0  0  0  0  0  0  0  0
    0.2945    1.0638    0.7030 H   0  0  0  0  0  0  0  0  0  0  0  0
    0.7830    1.6598   -0.9015 H   0  0  0  0  0  0  0  0  0  0  0  0
   -1.3379    2.3073    1.8967 H   0  0  0  0  0  0  0  0  0  0  0  0
    0.9845    4.6945    1.5613 H   0  0  0  0  0  0  0  0  0  0  0  0
    2.5994    6.2980    0.8489 H   0  0  0  0  0  0  0  0  0  0  0  0
    2.0353    6.0507   -0.8211 H   0  0  0  0  0  0  0  0  0  0  0  0
    0.9461    6.7706    0.3887 H   0  0  0  0  0  0  0  0  0  0  0  0
    1.9914    3.2405   -2.7002 H   0  0  0  0  0  0  0  0  0  0  0  0
   -0.7858    6.6400   -6.1409 H   0  0  0  0  0  0  0  0  0  0  0  0
   -1.8195    6.2045   -4.9339 H   0  0  0  0  0  0  0  0  0  0  0  0
    1.3713    1.5706   -8.2735 H   0  0  0  0  0  0  0  0  0  0  0  0
    1.5225    3.1354   -8.7670 H   0  0  0  0  0  0  0  0  0  0  0  0
    3.3620    1.2268   -2.4900 H   0  0  0  0  0  0  0  0  0  0  0  0
    1.8315    1.5358   -3.0161 H   0  0  0  0  0  0  0  0  0  0  0  0
    0.1389   -2.2153   -6.5523 H   0  0  0  0  0  0  0  0  0  0  0  0
    1.1939   -4.9253   -6.9550 H   0  0  0  0  0  0  0  0  0  0  0  0
   -0.0557   -4.4614   -5.7754 H   0  0  0  0  0  0  0  0  0  0  0  0
   -0.3860   -4.3308   -7.5195 H   0  0  0  0  0  0  0  0  0  0  0  0
    1.2957   -2.6447   -7.6442 H   0  0  0  0  0  0  0  0  0  0  0  0
   -0.1957    6.0015   -4.7413 H   0  0  0  0  0  0  0  0  0  0  0  0
    2.4180   -0.0037   -3.0464 H   0  0  0  0  0  0  0  0  0  0  0  0
    1.9927    4.0281    0.4414 H   0  0  0  0  0  0  0  0  0  0  0  0
    2.1752    2.6576   -7.3316 H   0  0  0  0  0  0  0  0  0  0  0  0
  1  2  1  0  0  0  0
  1 46  1  0  0  0  0
  1 47  1  0  0  0  0
  1 48  1  0  0  0  0
  2  3  1  6  0  0  0
  2  4  1  0  0  0  0
  2 44  1  0  0  0  0
  4  5  1  6  0  0  0
  4 12  1  0  0  0  0
  4  6  1  0  0  0  0
  6  7  1  0  0  0  0
  6 49  1  0  0  0  0
  6 50  1  0  0  0  0
  7  8  1  0  0  0  0
  7 51  1  0  0  0  0
  7 52  1  0  0  0  0
  8  9  1  6  0  0  0
  8 10  1  0  0  0  0
  8 43  1  0  0  0  0
 10 11  1  6  0  0  0
 10 12  1  0  0  0  0
 10 13  1  0  0  0  0
 13 14  1  0  0  0  0
 14 15  1  6  0  0  0
 14 23  1  0  0  0  0
 14 16  1  0  0  0  0
 16 17  1  6  0  0  0
 16 18  1  0  0  0  0
 16 42  1  0  0  0  0
 18 19  1  0  0  0  0
 18 53  1  0  0  0  0
 18 54  1  0  0  0  0
 19 20  1  6  0  0  0
 19 21  1  0  0  0  0
 19 41  1  0  0  0  0
 21 22  1  1  0  0  0
 21 23  1  0  0  0  0
 21 26  1  0  0  0  0
 23 24  1  6  0  0  0
 23 25  1  0  0  0  0
 25 55  1  0  0  0  0
 26 27  1  0  0  0  0
 27 28  1  1  0  0  0
 27 35  1  0  0  0  0
 27 29  1  0  0  0  0
 29 30  1  6  0  0  0
 29 31  1  0  0  0  0
 29 40  1  0  0  0  0
 31 32  1  1  0  0  0
 31 33  1  0  0  0  0
 31 38  1  0  0  0  0
 33 34  1  0  0  0  0
 33 36  1  0  0  0  0
 33 37  1  1  0  0  0
 34 35  1  0  0  0  0
 34 56  1  0  0  0  0
 34 57  1  0  0  0  0
 36 58  1  0  0  0  0
 36 59  1  0  0  0  0
 36 60  1  0  0  0  0
 37 61  1  0  0  0  0
 38 39  1  0  0  0  0
 38 62  1  0  0  0  0
 38 80  1  0  0  0  0
 39 63  1  0  0  0  0
 39 64  1  0  0  0  0
 39 65  1  0  0  0  0
 40 66  1  0  0  0  0
 41 67  1  0  0  0  0
 41 68  1  0  0  0  0
 41 78  1  0  0  0  0
 42 69  1  0  0  0  0
 42 70  1  0  0  0  0
 42 81  1  0  0  0  0
 43 71  1  0  0  0  0
 43 72  1  0  0  0  0
 43 79  1  0  0  0  0
 44 45  1  0  0  0  0
 44 73  1  0  0  0  0
 44 77  1  0  0  0  0
 45 74  1  0  0  0  0
 45 75  1  0  0  0  0
 45 76  1  0  0  0  0
M  CHG  5  38   1  41   1  42   1  43   1  44   1
M  END
$$$$
