ZINC00000856
 OpenBabel08292219463D

 50 51  0  0  1  0  0  0  0  0999 V2000
   -0.0421    1.5005    0.0465 C   0  0  0  0  0  0  0  0  0  0  0  0
   -0.0159   -0.0292    0.0268 C   0  0  1  0  0  0  0  0  0  0  0  0
    0.4971   -0.3722   -0.8716 H   0  0  0  0  0  0  0  0  0  0  0  0
    0.7235   -0.5426    1.2639 C   0  0  0  0  0  0  0  0  0  0  0  0
    0.8568   -2.0416    1.1834 C   0  0  0  0  0  0  0  0  0  0  0  0
   -0.1296   -2.8517    1.7147 C   0  0  0  0  0  0  0  0  0  0  0  0
   -0.0096   -4.2260    1.6425 C   0  0  0  0  0  0  0  0  0  0  0  0
    1.1018   -4.7932    1.0360 C   0  0  0  0  0  0  0  0  0  0  0  0
    2.0900   -3.9781    0.5033 C   0  0  0  0  0  0  0  0  0  0  0  0
    1.9627   -2.6043    0.5734 C   0  0  0  0  0  0  0  0  0  0  0  0
    1.2224   -6.1449    0.9641 O   0  0  0  0  0  0  0  0  0  0  0  0
    2.3930   -6.6587    0.3256 C   0  0  0  0  0  0  0  0  0  0  0  0
   -1.3923   -0.5425    0.0309 N   0  3  0  0  0  0  0  0  0  0  0  0
   -2.0653   -0.1492   -1.2143 C   0  0  0  0  0  0  0  0  0  0  0  0
   -3.4988   -0.6839   -1.2101 C   0  0  2  0  0  0  0  0  0  0  0  0
   -3.4843   -1.7613   -1.0455 H   0  0  0  0  0  0  0  0  0  0  0  0
   -4.1496   -0.3871   -2.5365 C   0  0  0  0  0  0  0  0  0  0  0  0
   -4.6516    0.8759   -2.7912 C   0  0  0  0  0  0  0  0  0  0  0  0
   -5.2501    1.1539   -4.0060 C   0  0  0  0  0  0  0  0  0  0  0  0
   -5.3481    0.1660   -4.9725 C   0  0  0  0  0  0  0  0  0  0  0  0
   -4.8422   -1.1063   -4.7168 C   0  0  0  0  0  0  0  0  0  0  0  0
   -4.2380   -1.3763   -3.4975 C   0  0  0  0  0  0  0  0  0  0  0  0
   -4.9385   -2.1094   -5.6905 N   0  0  0  0  0  0  0  0  0  0  0  0
   -3.9536   -3.0204   -5.8192 C   0  0  0  0  0  0  0  0  0  0  0  0
   -3.0233   -3.0218   -5.0409 O   0  0  0  0  0  0  0  0  0  0  0  0
   -5.9373    0.4378   -6.1675 O   0  0  0  0  0  0  0  0  0  0  0  0
   -4.2397   -0.0522   -0.1641 O   0  0  0  0  0  0  0  0  0  0  0  0
    0.9792    1.8814    0.0435 H   0  0  0  0  0  0  0  0  0  0  0  0
   -0.5689    1.8663   -0.8348 H   0  0  0  0  0  0  0  0  0  0  0  0
   -0.5552    1.8435    0.9450 H   0  0  0  0  0  0  0  0  0  0  0  0
    1.7148   -0.0915    1.3080 H   0  0  0  0  0  0  0  0  0  0  0  0
    0.1626   -0.2753    2.1595 H   0  0  0  0  0  0  0  0  0  0  0  0
   -0.9946   -2.4097    2.1868 H   0  0  0  0  0  0  0  0  0  0  0  0
   -0.7801   -4.8584    2.0583 H   0  0  0  0  0  0  0  0  0  0  0  0
    2.9561   -4.4172    0.0306 H   0  0  0  0  0  0  0  0  0  0  0  0
    2.7296   -1.9693    0.1549 H   0  0  0  0  0  0  0  0  0  0  0  0
    2.3641   -7.7483    0.3363 H   0  0  0  0  0  0  0  0  0  0  0  0
    2.4290   -6.3063   -0.7052 H   0  0  0  0  0  0  0  0  0  0  0  0
    3.2789   -6.3135    0.8587 H   0  0  0  0  0  0  0  0  0  0  0  0
   -1.3757   -1.5490    0.1008 H   0  0  0  0  0  0  0  0  0  0  0  0
   -2.0832    0.9380   -1.2898 H   0  0  0  0  0  0  0  0  0  0  0  0
   -1.5254   -0.5638   -2.0657 H   0  0  0  0  0  0  0  0  0  0  0  0
   -4.5764    1.6471   -2.0389 H   0  0  0  0  0  0  0  0  0  0  0  0
   -5.6415    2.1413   -4.2015 H   0  0  0  0  0  0  0  0  0  0  0  0
   -3.8407   -2.3605   -3.2978 H   0  0  0  0  0  0  0  0  0  0  0  0
   -5.7139   -2.1481   -6.2719 H   0  0  0  0  0  0  0  0  0  0  0  0
   -3.9927   -3.7491   -6.6153 H   0  0  0  0  0  0  0  0  0  0  0  0
   -5.3257    0.7614   -6.8429 H   0  0  0  0  0  0  0  0  0  0  0  0
   -4.2942    0.9097   -0.2463 H   0  0  0  0  0  0  0  0  0  0  0  0
   -1.8921   -0.1588    0.8190 H   0  0  0  0  0  0  0  0  0  0  0  0
  1  2  1  0  0  0  0
  1 28  1  0  0  0  0
  1 29  1  0  0  0  0
  1 30  1  0  0  0  0
  2  3  1  6  0  0  0
  2  4  1  0  0  0  0
  2 13  1  0  0  0  0
  4  5  1  0  0  0  0
  4 31  1  0  0  0  0
  4 32  1  0  0  0  0
  5 10  2  0  0  0  0
  5  6  1  0  0  0  0
  6  7  2  0  0  0  0
  6 33  1  0  0  0  0
  7  8  1  0  0  0  0
  7 34  1  0  0  0  0
  8  9  2  0  0  0  0
  8 11  1  0  0  0  0
  9 10  1  0  0  0  0
  9 35  1  0  0  0  0
 10 36  1  0  0  0  0
 11 12  1  0  0  0  0
 12 37  1  0  0  0  0
 12 38  1  0  0  0  0
 12 39  1  0  0  0  0
 13 14  1  0  0  0  0
 13 40  1  0  0  0  0
 13 50  1  0  0  0  0
 14 15  1  0  0  0  0
 14 41  1  0  0  0  0
 14 42  1  0  0  0  0
 15 16  1  1  0  0  0
 15 17  1  0  0  0  0
 15 27  1  0  0  0  0
 17 22  2  0  0  0  0
 17 18  1  0  0  0  0
 18 19  2  0  0  0  0
 18 43  1  0  0  0  0
 19 20  1  0  0  0  0
 19 44  1  0  0  0  0
 20 21  2  0  0  0  0
 20 26  1  0  0  0  0
 21 22  1  0  0  0  0
 21 23  1  0  0  0  0
 22 45  1  0  0  0  0
 23 24  1  0  0  0  0
 23 46  1  0  0  0  0
 24 25  2  0  0  0  0
 24 47  1  0  0  0  0
 26 48  1  0  0  0  0
 27 49  1  0  0  0  0
M  CHG  1  13   1
M  END
$$$$
