ZINC19364230
 OpenBabel08292219463D

 52 54  0  0  1  0  0  0  0  0999 V2000
    7.1006    1.9749    1.2595 C   0  0  0  0  0  0  0  0  0  0  0  0
    7.1296    1.6479   -0.0833 C   0  0  0  0  0  0  0  0  0  0  0  0
    6.2125    0.7495   -0.5959 C   0  0  0  0  0  0  0  0  0  0  0  0
    5.2666    0.1778    0.2344 C   0  0  0  0  0  0  0  0  0  0  0  0
    5.2381    0.5042    1.5774 C   0  0  0  0  0  0  0  0  0  0  0  0
    6.1544    1.4036    2.0897 C   0  0  0  0  0  0  0  0  0  0  0  0
    4.2661   -0.8007   -0.3246 C   0  0  2  0  0  0  0  0  0  0  0  0
    4.5900   -1.1267   -1.3130 H   0  0  0  0  0  0  0  0  0  0  0  0
    2.9183   -0.1352   -0.4318 C   0  0  0  0  0  0  0  0  0  0  0  0
    2.1639    0.0845    0.7056 C   0  0  0  0  0  0  0  0  0  0  0  0
    0.9276    0.6948    0.6080 C   0  0  0  0  0  0  0  0  0  0  0  0
    0.4453    1.0860   -0.6283 C   0  0  0  0  0  0  0  0  0  0  0  0
    1.2008    0.8659   -1.7663 C   0  0  0  0  0  0  0  0  0  0  0  0
    2.4394    0.2606   -1.6667 C   0  0  0  0  0  0  0  0  0  0  0  0
   -1.1076    1.8522   -0.7518 Cl  0  0  0  0  0  0  0  0  0  0  0  0
    4.1683   -1.9641    0.5670 N   0  0  0  0  0  0  0  0  0  0  0  0
    3.1882   -2.9351    0.0603 C   0  0  0  0  0  0  0  0  0  0  0  0
    3.0729   -4.1004    1.0454 C   0  0  0  0  0  0  0  0  0  0  0  0
    4.3856   -4.7404    1.2028 N   0  3  1  0  0  0  0  0  0  0  0  0
    5.3475   -3.7650    1.7327 C   0  0  0  0  0  0  0  0  0  0  0  0
    5.4817   -2.5969    0.7532 C   0  0  0  0  0  0  0  0  0  0  0  0
    4.2706   -5.8702    2.1347 C   0  0  0  0  0  0  0  0  0  0  0  0
    3.3954   -6.9590    1.5106 C   0  0  0  0  0  0  0  0  0  0  0  0
    4.0336   -7.4696    0.3384 O   0  0  0  0  0  0  0  0  0  0  0  0
    3.2950   -8.4977   -0.3245 C   0  0  0  0  0  0  0  0  0  0  0  0
    4.0570   -8.9597   -1.5398 C   0  0  0  0  0  0  0  0  0  0  0  0
    5.1328   -8.4552   -1.8129 O   0  0  0  0  0  0  0  0  0  0  0  0
    3.5976   -9.8378   -2.2499 O   0  0  0  0  0  1  0  0  0  0  0  0
    7.8199    2.6733    1.6609 H   0  0  0  0  0  0  0  0  0  0  0  0
    7.8686    2.0945   -0.7320 H   0  0  0  0  0  0  0  0  0  0  0  0
    6.2347    0.4946   -1.6451 H   0  0  0  0  0  0  0  0  0  0  0  0
    4.4989    0.0578    2.2260 H   0  0  0  0  0  0  0  0  0  0  0  0
    6.1319    1.6588    3.1389 H   0  0  0  0  0  0  0  0  0  0  0  0
    2.5403   -0.2213    1.6706 H   0  0  0  0  0  0  0  0  0  0  0  0
    0.3381    0.8661    1.4966 H   0  0  0  0  0  0  0  0  0  0  0  0
    0.8247    1.1708   -2.7316 H   0  0  0  0  0  0  0  0  0  0  0  0
    3.0314    0.0930   -2.5543 H   0  0  0  0  0  0  0  0  0  0  0  0
    2.2175   -2.4507   -0.0453 H   0  0  0  0  0  0  0  0  0  0  0  0
    3.5155   -3.3098   -0.9096 H   0  0  0  0  0  0  0  0  0  0  0  0
    2.7325   -3.7272    2.0113 H   0  0  0  0  0  0  0  0  0  0  0  0
    2.3569   -4.8287    0.6645 H   0  0  0  0  0  0  0  0  0  0  0  0
    4.9954   -3.3935    2.6951 H   0  0  0  0  0  0  0  0  0  0  0  0
    6.3178   -4.2446    1.8613 H   0  0  0  0  0  0  0  0  0  0  0  0
    5.8467   -2.9661   -0.2052 H   0  0  0  0  0  0  0  0  0  0  0  0
    6.1842   -1.8658    1.1532 H   0  0  0  0  0  0  0  0  0  0  0  0
    5.2619   -6.2742    2.3400 H   0  0  0  0  0  0  0  0  0  0  0  0
    3.8174   -5.5288    3.0654 H   0  0  0  0  0  0  0  0  0  0  0  0
    3.2537   -7.7670    2.2283 H   0  0  0  0  0  0  0  0  0  0  0  0
    2.4267   -6.5372    1.2424 H   0  0  0  0  0  0  0  0  0  0  0  0
    3.1512   -9.3376    0.3552 H   0  0  0  0  0  0  0  0  0  0  0  0
    2.3243   -8.1078   -0.6308 H   0  0  0  0  0  0  0  0  0  0  0  0
    4.7058   -5.0755    0.3065 H   0  0  0  0  0  0  0  0  0  0  0  0
  1  6  2  0  0  0  0
  1  2  1  0  0  0  0
  1 29  1  0  0  0  0
  2  3  2  0  0  0  0
  2 30  1  0  0  0  0
  3  4  1  0  0  0  0
  3 31  1  0  0  0  0
  4  5  2  0  0  0  0
  4  7  1  0  0  0  0
  5  6  1  0  0  0  0
  5 32  1  0  0  0  0
  6 33  1  0  0  0  0
  7  8  1  6  0  0  0
  7  9  1  0  0  0  0
  7 16  1  0  0  0  0
  9 14  2  0  0  0  0
  9 10  1  0  0  0  0
 10 11  2  0  0  0  0
 10 34  1  0  0  0  0
 11 12  1  0  0  0  0
 11 35  1  0  0  0  0
 12 13  2  0  0  0  0
 12 15  1  0  0  0  0
 13 14  1  0  0  0  0
 13 36  1  0  0  0  0
 14 37  1  0  0  0  0
 16 21  1  0  0  0  0
 16 17  1  0  0  0  0
 17 18  1  0  0  0  0
 17 38  1  0  0  0  0
 17 39  1  0  0  0  0
 18 19  1  0  0  0  0
 18 40  1  0  0  0  0
 18 41  1  0  0  0  0
 19 20  1  0  0  0  0
 19 22  1  0  0  0  0
 19 52  1  6  0  0  0
 20 21  1  0  0  0  0
 20 42  1  0  0  0  0
 20 43  1  0  0  0  0
 21 44  1  0  0  0  0
 21 45  1  0  0  0  0
 22 23  1  0  0  0  0
 22 46  1  0  0  0  0
 22 47  1  0  0  0  0
 23 24  1  0  0  0  0
 23 48  1  0  0  0  0
 23 49  1  0  0  0  0
 24 25  1  0  0  0  0
 25 26  1  0  0  0  0
 25 50  1  0  0  0  0
 25 51  1  0  0  0  0
 26 27  2  0  0  0  0
 26 28  1  0  0  0  0
M  CHG  1  19   1
M  END
$$$$
