ZINC96006012
 OpenBabel08292219463D

123130  0  0  1  0  0  0  0  0999 V2000
    1.9817    4.3350    3.4464 C   0  0  0  0  0  0  0  0  0  0  0  0
    2.6348    4.3156    2.0629 C   0  0  2  0  0  0  0  0  0  0  0  0
    3.5020    4.9760    2.0610 H   0  0  0  0  0  0  0  0  0  0  0  0
    1.6261    4.7944    1.0155 C   0  0  2  0  0  0  0  0  0  0  0  0
    0.7411    4.1588    1.0449 H   0  0  0  0  0  0  0  0  0  0  0  0
    2.2674    4.7150   -0.3733 C   0  0  2  0  0  0  0  0  0  0  0  0
    1.5364    5.0013   -1.1294 H   0  0  0  0  0  0  0  0  0  0  0  0
    2.7318    3.2776   -0.6278 C   0  0  0  0  0  0  0  0  0  0  0  0
    3.6977    2.8574    0.4831 C   0  0  1  0  0  0  0  0  0  0  0  0
    4.5789    3.4986    0.4604 H   0  0  0  0  0  0  0  0  0  0  0  0
    3.0490    2.9842    1.7501 O   0  0  0  0  0  0  0  0  0  0  0  0
    4.0919    1.4985    0.2831 O   0  0  0  0  0  0  0  0  0  0  0  0
    5.1658    1.0748    1.1253 C   0  0  2  0  0  0  0  0  0  0  0  0
    5.7575    1.9401    1.4241 H   0  0  0  0  0  0  0  0  0  0  0  0
    6.0531    0.0862    0.3645 C   0  0  2  0  0  0  0  0  0  0  0  0
    5.4517   -0.7591    0.0300 H   0  0  0  0  0  0  0  0  0  0  0  0
    7.0927   -0.3802    1.2271 O   0  0  0  0  0  0  0  0  0  0  0  0
    6.6229   -1.0740    2.3847 C   0  0  2  0  0  0  0  0  0  0  0  0
    6.0289   -1.9345    2.0767 H   0  0  0  0  0  0  0  0  0  0  0  0
    5.7584   -0.1319    3.2267 C   0  0  0  0  0  0  0  0  0  0  0  0
    4.5987    0.3876    2.3713 C   0  0  2  0  0  0  0  0  0  0  0  0
    4.0117    1.1032    2.9471 H   0  0  0  0  0  0  0  0  0  0  0  0
    3.7688   -0.7071    1.9775 O   0  0  0  0  0  0  0  0  0  0  0  0
    7.7384   -1.5177    3.1597 O   0  0  0  0  0  0  0  0  0  0  0  0
    8.4834   -2.5757    2.5533 C   0  0  2  0  0  0  0  0  0  0  0  0
    7.8396   -3.1292    1.8697 H   0  0  0  0  0  0  0  0  0  0  0  0
    9.0083   -3.5193    3.6387 C   0  0  2  0  0  0  0  0  0  0  0  0
    9.6182   -2.9567    4.3455 H   0  0  0  0  0  0  0  0  0  0  0  0
    9.8010   -4.5436    3.0349 O   0  0  0  0  0  0  0  0  0  0  0  0
   10.9501   -4.0576    2.3381 C   0  0  2  0  0  0  0  0  0  0  0  0
   11.5854   -3.5020    3.0279 H   0  0  0  0  0  0  0  0  0  0  0  0
   10.5032   -3.1357    1.2005 C   0  0  0  0  0  0  0  0  0  0  0  0
    9.6679   -1.9893    1.7791 C   0  0  2  0  0  0  0  0  0  0  0  0
    9.2987   -1.3608    0.9688 H   0  0  0  0  0  0  0  0  0  0  0  0
   10.4763   -1.2085    2.6617 O   0  0  0  0  0  0  0  0  0  0  0  0
   11.6820   -5.1601    1.7988 O   0  0  0  0  0  0  0  0  0  0  0  0
   12.2422   -6.0255    2.7883 C   0  0  1  0  0  0  0  0  0  0  0  0
   12.4702   -5.4513    3.6863 H   0  0  0  0  0  0  0  0  0  0  0  0
   11.2379   -7.1283    3.1292 C   0  0  0  0  0  0  0  0  0  0  0  0
   10.9172   -7.9335    1.8684 C   0  0  0  0  0  0  0  0  0  0  0  0
   12.2008   -8.5627    1.3237 C   0  0  1  0  0  0  0  0  0  0  0  0
   13.2064   -7.4610    0.9851 C   0  0  1  0  0  0  0  0  0  0  0  0
   12.7797   -6.7991    0.2315 H   0  0  0  0  0  0  0  0  0  0  0  0
   13.5267   -6.6561    2.2463 C   0  0  0  0  0  0  0  0  0  0  0  0
   14.4906   -8.0908    0.4420 C   0  0  0  0  0  0  0  0  0  0  0  0
   15.0890   -9.0204    1.4998 C   0  0  0  0  0  0  0  0  0  0  0  0
   14.0831  -10.1234    1.8364 C   0  0  2  0  0  0  0  0  0  0  0  0
   13.8434  -10.6621    0.9197 H   0  0  0  0  0  0  0  0  0  0  0  0
   12.7992   -9.4968    2.3779 C   0  0  2  0  0  0  0  0  0  0  0  0
   13.0199   -8.9333    3.2845 H   0  0  0  0  0  0  0  0  0  0  0  0
   11.8018  -10.6205    2.6804 C   0  0  0  0  0  0  0  0  0  0  0  0
   12.3840  -11.5077    3.7772 C   0  0  0  0  0  0  0  0  0  0  0  0
   13.6836  -12.1672    3.3089 C   0  0  1  0  0  0  0  0  0  0  0  0
   14.6770  -11.0992    2.8220 C   0  0  2  0  0  0  0  0  0  0  0  0
   15.1534  -10.4186    4.1185 C   0  0  0  0  0  0  0  0  0  0  0  0
   15.2829  -11.5935    5.1153 C   0  0  0  0  0  0  0  0  0  0  0  0
   14.3779  -12.7324    4.5767 C   0  0  2  0  0  0  0  0  0  0  0  0
   13.6324  -12.9843    5.3310 H   0  0  0  0  0  0  0  0  0  0  0  0
   15.1890  -13.9521    4.2224 C   0  0  0  0  0  0  0  0  0  0  0  0
   14.9565  -15.2020    4.6174 C   0  0  0  0  0  0  0  0  0  0  0  0
   15.9814  -16.0817    4.0472 C   0  0  0  0  0  0  0  0  0  0  0  0
   16.0464  -17.2829    4.2203 O   0  0  0  0  0  0  0  0  0  0  0  0
   16.8389  -15.3595    3.3029 O   0  0  0  0  0  0  0  0  0  0  0  0
   16.4182  -13.9921    3.3454 C   0  0  0  0  0  0  0  0  0  0  0  0
   15.7937  -11.7552    2.2183 O   0  0  0  0  0  0  0  0  0  0  0  0
   13.4241  -13.2549    2.2646 C   0  0  0  0  0  0  0  0  0  0  0  0
   11.8794   -9.3617    0.0591 C   0  0  0  0  0  0  0  0  0  0  0  0
    7.8282   -4.1551    4.3763 C   0  0  0  0  0  0  0  0  0  0  0  0
    6.6712    0.7843   -0.8486 C   0  0  0  0  0  0  0  0  0  0  0  0
    3.3885    5.5990   -0.4334 O   0  0  0  0  0  0  0  0  0  0  0  0
    3.6810    6.1318   -1.6302 C   0  0  0  0  0  0  0  0  0  0  0  0
    3.0075    5.8566   -2.5949 O   0  0  0  0  0  0  0  0  0  0  0  0
    4.8495    7.0731   -1.7707 C   0  0  0  0  0  0  0  0  0  0  0  0
    1.2533    6.1454    1.2941 O   0  0  0  0  0  0  0  0  0  0  0  0
    2.6999    3.9937    4.1920 H   0  0  0  0  0  0  0  0  0  0  0  0
    1.6655    5.3505    3.6847 H   0  0  0  0  0  0  0  0  0  0  0  0
    1.1146    3.6746    3.4482 H   0  0  0  0  0  0  0  0  0  0  0  0
    1.8690    2.6114   -0.6316 H   0  0  0  0  0  0  0  0  0  0  0  0
    3.2389    3.2238   -1.5911 H   0  0  0  0  0  0  0  0  0  0  0  0
    5.3631   -0.6718    4.0871 H   0  0  0  0  0  0  0  0  0  0  0  0
    6.3624    0.7085    3.5689 H   0  0  0  0  0  0  0  0  0  0  0  0
    3.3755   -1.1887    2.7181 H   0  0  0  0  0  0  0  0  0  0  0  0
   11.3795   -2.7291    0.6956 H   0  0  0  0  0  0  0  0  0  0  0  0
    9.9011   -3.7007    0.4889 H   0  0  0  0  0  0  0  0  0  0  0  0
   11.2463   -0.8061    2.2371 H   0  0  0  0  0  0  0  0  0  0  0  0
   11.6657   -7.7890    3.8832 H   0  0  0  0  0  0  0  0  0  0  0  0
   10.3230   -6.6796    3.5162 H   0  0  0  0  0  0  0  0  0  0  0  0
   10.2022   -8.7195    2.1115 H   0  0  0  0  0  0  0  0  0  0  0  0
   10.4883   -7.2729    1.1148 H   0  0  0  0  0  0  0  0  0  0  0  0
   14.2428   -5.8708    2.0042 H   0  0  0  0  0  0  0  0  0  0  0  0
   13.9533   -7.3171    3.0006 H   0  0  0  0  0  0  0  0  0  0  0  0
   14.2627   -8.6627   -0.4574 H   0  0  0  0  0  0  0  0  0  0  0  0
   15.2070   -7.3053    0.2015 H   0  0  0  0  0  0  0  0  0  0  0  0
   16.0043   -9.4689    1.1135 H   0  0  0  0  0  0  0  0  0  0  0  0
   15.3160   -8.4487    2.3995 H   0  0  0  0  0  0  0  0  0  0  0  0
   10.8589  -10.1912    3.0192 H   0  0  0  0  0  0  0  0  0  0  0  0
   11.6345  -11.2130    1.7809 H   0  0  0  0  0  0  0  0  0  0  0  0
   12.5873  -10.9008    4.6595 H   0  0  0  0  0  0  0  0  0  0  0  0
   11.6610  -12.2819    4.0340 H   0  0  0  0  0  0  0  0  0  0  0  0
   16.1189   -9.9361    3.9664 H   0  0  0  0  0  0  0  0  0  0  0  0
   14.4138   -9.6983    4.4681 H   0  0  0  0  0  0  0  0  0  0  0  0
   16.3151  -11.9418    5.1500 H   0  0  0  0  0  0  0  0  0  0  0  0
   14.9611  -11.2782    6.1079 H   0  0  0  0  0  0  0  0  0  0  0  0
   14.1438  -15.5171    5.2552 H   0  0  0  0  0  0  0  0  0  0  0  0
   16.1738  -13.6423    2.3424 H   0  0  0  0  0  0  0  0  0  0  0  0
   17.2057  -13.3738    3.7764 H   0  0  0  0  0  0  0  0  0  0  0  0
   16.4967  -11.1547    1.9351 H   0  0  0  0  0  0  0  0  0  0  0  0
   13.0138  -12.8017    1.3622 H   0  0  0  0  0  0  0  0  0  0  0  0
   14.3604  -13.7589    2.0247 H   0  0  0  0  0  0  0  0  0  0  0  0
   12.7135  -13.9790    2.6630 H   0  0  0  0  0  0  0  0  0  0  0  0
   11.4532   -8.6969   -0.6922 H   0  0  0  0  0  0  0  0  0  0  0  0
   12.7937   -9.8103   -0.3295 H   0  0  0  0  0  0  0  0  0  0  0  0
   11.1624  -10.1472    0.2980 H   0  0  0  0  0  0  0  0  0  0  0  0
    7.2682   -4.7883    3.6882 H   0  0  0  0  0  0  0  0  0  0  0  0
    8.1999   -4.7584    5.2045 H   0  0  0  0  0  0  0  0  0  0  0  0
    7.1758   -3.3715    4.7617 H   0  0  0  0  0  0  0  0  0  0  0  0
    7.3417    1.5744   -0.5105 H   0  0  0  0  0  0  0  0  0  0  0  0
    7.2322    0.0593   -1.4383 H   0  0  0  0  0  0  0  0  0  0  0  0
    5.8800    1.2166   -1.4611 H   0  0  0  0  0  0  0  0  0  0  0  0
    5.7481    6.5038   -2.0083 H   0  0  0  0  0  0  0  0  0  0  0  0
    4.6482    7.7851   -2.5711 H   0  0  0  0  0  0  0  0  0  0  0  0
    4.9972    7.6112   -0.8344 H   0  0  0  0  0  0  0  0  0  0  0  0
    0.8440    6.2696    2.1614 H   0  0  0  0  0  0  0  0  0  0  0  0
  1  2  1  0  0  0  0
  1 75  1  0  0  0  0
  1 76  1  0  0  0  0
  1 77  1  0  0  0  0
  2  3  1  6  0  0  0
  2 11  1  0  0  0  0
  2  4  1  0  0  0  0
  4  5  1  1  0  0  0
  4  6  1  0  0  0  0
  4 74  1  0  0  0  0
  6  7  1  6  0  0  0
  6  8  1  0  0  0  0
  6 70  1  0  0  0  0
  8  9  1  0  0  0  0
  8 78  1  0  0  0  0
  8 79  1  0  0  0  0
  9 10  1  6  0  0  0
  9 11  1  0  0  0  0
  9 12  1  0  0  0  0
 12 13  1  0  0  0  0
 13 14  1  1  0  0  0
 13 21  1  0  0  0  0
 13 15  1  0  0  0  0
 15 16  1  6  0  0  0
 15 17  1  0  0  0  0
 15 69  1  0  0  0  0
 17 18  1  0  0  0  0
 18 19  1  6  0  0  0
 18 20  1  0  0  0  0
 18 24  1  0  0  0  0
 20 21  1  0  0  0  0
 20 80  1  0  0  0  0
 20 81  1  0  0  0  0
 21 22  1  1  0  0  0
 21 23  1  0  0  0  0
 23 82  1  0  0  0  0
 24 25  1  0  0  0  0
 25 26  1  6  0  0  0
 25 33  1  0  0  0  0
 25 27  1  0  0  0  0
 27 28  1  1  0  0  0
 27 29  1  0  0  0  0
 27 68  1  0  0  0  0
 29 30  1  0  0  0  0
 30 31  1  1  0  0  0
 30 32  1  0  0  0  0
 30 36  1  0  0  0  0
 32 33  1  0  0  0  0
 32 83  1  0  0  0  0
 32 84  1  0  0  0  0
 33 34  1  6  0  0  0
 33 35  1  0  0  0  0
 35 85  1  0  0  0  0
 36 37  1  0  0  0  0
 37 38  1  1  0  0  0
 37 44  1  0  0  0  0
 37 39  1  0  0  0  0
 39 40  1  0  0  0  0
 39 86  1  0  0  0  0
 39 87  1  0  0  0  0
 40 41  1  0  0  0  0
 40 88  1  0  0  0  0
 40 89  1  0  0  0  0
 41 49  1  0  0  0  0
 41 42  1  0  0  0  0
 41 67  1  6  0  0  0
 42 43  1  6  0  0  0
 42 44  1  0  0  0  0
 42 45  1  0  0  0  0
 44 90  1  0  0  0  0
 44 91  1  0  0  0  0
 45 46  1  0  0  0  0
 45 92  1  0  0  0  0
 45 93  1  0  0  0  0
 46 47  1  0  0  0  0
 46 94  1  0  0  0  0
 46 95  1  0  0  0  0
 47 48  1  6  0  0  0
 47 54  1  0  0  0  0
 47 49  1  0  0  0  0
 49 50  1  1  0  0  0
 49 51  1  0  0  0  0
 51 52  1  0  0  0  0
 51 96  1  0  0  0  0
 51 97  1  0  0  0  0
 52 53  1  0  0  0  0
 52 98  1  0  0  0  0
 52 99  1  0  0  0  0
 53 57  1  0  0  0  0
 53 54  1  0  0  0  0
 53 66  1  6  0  0  0
 54 55  1  0  0  0  0
 54 65  1  6  0  0  0
 55 56  1  0  0  0  0
 55100  1  0  0  0  0
 55101  1  0  0  0  0
 56 57  1  0  0  0  0
 56102  1  0  0  0  0
 56103  1  0  0  0  0
 57 58  1  1  0  0  0
 57 59  1  0  0  0  0
 59 64  1  0  0  0  0
 59 60  2  0  0  0  0
 60 61  1  0  0  0  0
 60104  1  0  0  0  0
 61 62  2  0  0  0  0
 61 63  1  0  0  0  0
 63 64  1  0  0  0  0
 64105  1  0  0  0  0
 64106  1  0  0  0  0
 65107  1  0  0  0  0
 66108  1  0  0  0  0
 66109  1  0  0  0  0
 66110  1  0  0  0  0
 67111  1  0  0  0  0
 67112  1  0  0  0  0
 67113  1  0  0  0  0
 68114  1  0  0  0  0
 68115  1  0  0  0  0
 68116  1  0  0  0  0
 69117  1  0  0  0  0
 69118  1  0  0  0  0
 69119  1  0  0  0  0
 70 71  1  0  0  0  0
 71 72  2  0  0  0  0
 71 73  1  0  0  0  0
 73120  1  0  0  0  0
 73121  1  0  0  0  0
 73122  1  0  0  0  0
 74123  1  0  0  0  0
M  END
$$$$
