ZINC01530652
 OpenBabel08292219463D

 51 52  0  0  1  0  0  0  0  0999 V2000
    0.1141    1.3486   -0.1091 C   0  0  0  0  0  0  0  0  0  0  0  0
    0.0422   -0.1788   -0.0549 C   0  0  0  0  0  0  0  0  0  0  0  0
   -1.3570   -0.5978    0.1027 N   0  3  2  0  0  0  0  0  0  0  0  0
   -1.4136   -2.0531    0.2949 C   0  0  0  0  0  0  0  0  0  0  0  0
   -0.7301   -2.4203    1.6136 C   0  0  0  0  0  0  0  0  0  0  0  0
   -0.7891   -3.9360    1.8137 C   0  0  0  0  0  0  0  0  0  0  0  0
   -0.1056   -4.3033    3.1324 C   0  0  1  0  0  0  0  0  0  0  0  0
   -0.5604   -3.7393    3.9468 H   0  0  0  0  0  0  0  0  0  0  0  0
   -0.2731   -5.8015    3.3937 C   0  0  0  0  0  0  0  0  0  0  0  0
    1.3206   -3.9784    3.0502 N   0  0  0  0  0  0  0  0  0  0  0  0
    2.0409   -3.7220    4.2068 C   0  0  0  0  0  0  0  0  0  0  0  0
    1.4349   -3.7727    5.4527 C   0  0  0  0  0  0  0  0  0  0  0  0
    2.1828   -3.5116    6.5921 C   0  0  0  0  0  0  0  0  0  0  0  0
    3.4602   -3.2145    6.5296 N   0  0  0  0  0  0  0  0  0  0  0  0
    4.1095   -3.1473    5.3618 C   0  0  0  0  0  3  0  0  0  0  0  0
    3.4192   -3.4060    4.1534 C   0  0  0  0  0  0  0  0  0  0  0  0
    4.1057   -3.3397    2.9328 C   0  0  0  0  0  0  0  0  0  0  0  0
    5.4326   -3.0319    2.9219 C   0  0  0  0  0  0  0  0  0  0  0  0
    6.1174   -2.7823    4.1102 C   0  0  0  0  0  0  0  0  0  0  0  0
    5.4769   -2.8270    5.3120 C   0  0  0  0  0  0  0  0  0  0  0  0
    7.8086   -2.3943    4.0569 Cl  0  0  0  0  0  0  0  0  0  0  0  0
   -2.1159   -0.2329   -1.1010 C   0  0  0  0  0  0  0  0  0  0  0  0
   -3.5996   -0.5333   -0.8789 C   0  0  0  0  0  0  0  0  0  0  0  0
   -4.0993    0.2897    0.1772 O   0  0  0  0  0  0  0  0  0  0  0  0
    1.1577    1.6630   -0.1196 H   0  0  0  0  0  0  0  0  0  0  0  0
   -0.3815    1.7038   -1.0126 H   0  0  0  0  0  0  0  0  0  0  0  0
   -0.3826    1.7670    0.7663 H   0  0  0  0  0  0  0  0  0  0  0  0
    0.4441   -0.5945   -0.9789 H   0  0  0  0  0  0  0  0  0  0  0  0
    0.6272   -0.5403    0.7908 H   0  0  0  0  0  0  0  0  0  0  0  0
   -2.4544   -2.3756    0.3230 H   0  0  0  0  0  0  0  0  0  0  0  0
   -0.9017   -2.5487   -0.5300 H   0  0  0  0  0  0  0  0  0  0  0  0
    0.3107   -2.0978    1.5855 H   0  0  0  0  0  0  0  0  0  0  0  0
   -1.2419   -1.9247    2.4385 H   0  0  0  0  0  0  0  0  0  0  0  0
   -1.8299   -4.2586    1.8418 H   0  0  0  0  0  0  0  0  0  0  0  0
   -0.2772   -4.4317    0.9888 H   0  0  0  0  0  0  0  0  0  0  0  0
    0.1817   -6.3654    2.5793 H   0  0  0  0  0  0  0  0  0  0  0  0
    0.2138   -6.0631    4.3331 H   0  0  0  0  0  0  0  0  0  0  0  0
   -1.3342   -6.0432    3.4548 H   0  0  0  0  0  0  0  0  0  0  0  0
    1.7609   -3.9427    2.1867 H   0  0  0  0  0  0  0  0  0  0  0  0
    0.3855   -4.0141    5.5361 H   0  0  0  0  0  0  0  0  0  0  0  0
    1.7004   -3.5536    7.5575 H   0  0  0  0  0  0  0  0  0  0  0  0
    3.5854   -3.5319    2.0062 H   0  0  0  0  0  0  0  0  0  0  0  0
    5.9607   -2.9810    1.9812 H   0  0  0  0  0  0  0  0  0  0  0  0
    6.0211   -2.6305    6.2239 H   0  0  0  0  0  0  0  0  0  0  0  0
   -1.9868    0.8303   -1.3035 H   0  0  0  0  0  0  0  0  0  0  0  0
   -1.7512   -0.8115   -1.9497 H   0  0  0  0  0  0  0  0  0  0  0  0
   -4.1534   -0.3255   -1.7944 H   0  0  0  0  0  0  0  0  0  0  0  0
   -3.7217   -1.5826   -0.6106 H   0  0  0  0  0  0  0  0  0  0  0  0
   -5.0146    0.0994    0.4245 H   0  0  0  0  0  0  0  0  0  0  0  0
   -1.7578   -0.1367    0.9057 H   0  0  0  0  0  0  0  0  0  0  0  0
    3.9454   -3.0390    7.3510 H   0  0  0  0  0  0  0  0  0  0  0  0
  1  2  1  0  0  0  0
  1 25  1  0  0  0  0
  1 26  1  0  0  0  0
  1 27  1  0  0  0  0
  2  3  1  0  0  0  0
  2 28  1  0  0  0  0
  2 29  1  0  0  0  0
  3  4  1  0  0  0  0
  3 22  1  0  0  0  0
  3 50  1  1  0  0  0
  4  5  1  0  0  0  0
  4 30  1  0  0  0  0
  4 31  1  0  0  0  0
  5  6  1  0  0  0  0
  5 32  1  0  0  0  0
  5 33  1  0  0  0  0
  6  7  1  0  0  0  0
  6 34  1  0  0  0  0
  6 35  1  0  0  0  0
  7  8  1  1  0  0  0
  7  9  1  0  0  0  0
  7 10  1  0  0  0  0
  9 36  1  0  0  0  0
  9 37  1  0  0  0  0
  9 38  1  0  0  0  0
 10 11  1  0  0  0  0
 10 39  1  0  0  0  0
 11 16  2  0  0  0  0
 11 12  1  0  0  0  0
 12 13  2  0  0  0  0
 12 40  1  0  0  0  0
 13 14  1  0  0  0  0
 13 41  1  0  0  0  0
 14 15  1  0  0  0  0
 14 51  1  0  0  0  0
 15 20  1  0  0  0  0
 15 16  1  0  0  0  0
 16 17  1  0  0  0  0
 17 18  2  0  0  0  0
 17 42  1  0  0  0  0
 18 19  1  0  0  0  0
 18 43  1  0  0  0  0
 19 20  2  0  0  0  0
 19 21  1  0  0  0  0
 20 44  1  0  0  0  0
 22 23  1  0  0  0  0
 22 45  1  0  0  0  0
 22 46  1  0  0  0  0
 23 24  1  0  0  0  0
 23 47  1  0  0  0  0
 23 48  1  0  0  0  0
 24 49  1  0  0  0  0
M  CHG  1   3   1
M  END
$$$$
