ZINC03875336
 OpenBabel08292219463D

 44 46  0  0  1  0  0  0  0  0999 V2000
    1.4196   -2.0055   -4.7920 C   0  0  0  0  0  0  0  0  0  0  0  0
   -0.6157   -2.6623   -3.6251 C   0  0  1  0  0  0  0  0  0  0  0  0
   -1.1334   -2.5091   -4.5720 H   0  0  0  0  0  0  0  0  0  0  0  0
   -0.1785   -4.1302   -3.4141 C   0  0  0  0  0  0  0  0  0  0  0  0
    1.1368   -4.0395   -2.6127 C   0  0  0  0  0  0  0  0  0  0  0  0
    1.3747   -2.5251   -2.4122 C   0  0  2  0  0  0  0  0  0  0  0  0
    2.4327   -2.2632   -2.3988 H   0  0  0  0  0  0  0  0  0  0  0  0
    0.6575   -2.1036   -1.1196 C   0  0  2  0  0  0  0  0  0  0  0  0
    1.1982   -2.4922   -0.2567 H   0  0  0  0  0  0  0  0  0  0  0  0
   -0.7640   -2.6728   -1.1332 C   0  0  2  0  0  0  0  0  0  0  0  0
   -0.7195   -3.7607   -1.0833 H   0  0  0  0  0  0  0  0  0  0  0  0
   -1.4776   -2.2507   -2.4208 C   0  0  0  0  0  0  0  0  0  0  0  0
   -1.4980   -2.1664    0.0127 O   0  0  0  0  0  0  0  0  0  0  0  0
   -2.4603   -2.9598    0.5218 C   0  0  0  0  0  0  0  0  0  0  0  0
   -2.6803   -4.0449    0.0222 O   0  0  0  0  0  0  0  0  0  0  0  0
   -3.2481   -2.5101    1.6878 C   0  0  0  0  0  0  0  0  0  0  0  0
   -2.9940   -1.2659    2.2682 C   0  0  0  0  0  0  0  0  0  0  0  0
   -3.7369   -0.8500    3.3536 C   0  0  0  0  0  0  0  0  0  0  0  0
   -4.7246   -1.6675    3.8740 C   0  0  0  0  0  0  0  0  0  0  0  0
   -4.9778   -2.9041    3.3072 C   0  0  0  0  0  0  0  0  0  0  0  0
   -4.2463   -3.3300    2.2180 C   0  0  0  0  0  0  0  0  0  0  0  0
    0.5984   -0.5997   -1.0427 C   0  0  0  0  0  0  0  0  0  0  0  0
    1.0877    0.0699   -1.9214 O   0  0  0  0  0  0  0  0  0  0  0  0
    0.0021   -0.0041    0.0020 O   0  0  0  0  0  0  0  0  0  0  0  0
   -0.0176    1.4478    0.0100 C   0  0  0  0  0  0  0  0  0  0  0  0
    0.8275   -1.6181   -5.6211 H   0  0  0  0  0  0  0  0  0  0  0  0
    2.3425   -1.4320   -4.7055 H   0  0  0  0  0  0  0  0  0  0  0  0
    1.6586   -3.0532   -4.9745 H   0  0  0  0  0  0  0  0  0  0  0  0
   -0.9331   -4.6726   -2.8445 H   0  0  0  0  0  0  0  0  0  0  0  0
   -0.0049   -4.6160   -4.3743 H   0  0  0  0  0  0  0  0  0  0  0  0
    1.9571   -4.4807   -3.1788 H   0  0  0  0  0  0  0  0  0  0  0  0
    1.0308   -4.5377   -1.6490 H   0  0  0  0  0  0  0  0  0  0  0  0
   -2.4472   -2.7452   -2.4797 H   0  0  0  0  0  0  0  0  0  0  0  0
   -1.6183   -1.1698   -2.4227 H   0  0  0  0  0  0  0  0  0  0  0  0
   -2.2203   -0.6288    1.8658 H   0  0  0  0  0  0  0  0  0  0  0  0
   -3.5444    0.1140    3.8007 H   0  0  0  0  0  0  0  0  0  0  0  0
   -5.3003   -1.3389    4.7266 H   0  0  0  0  0  0  0  0  0  0  0  0
   -5.7502   -3.5372    3.7184 H   0  0  0  0  0  0  0  0  0  0  0  0
   -4.4449   -4.2954    1.7766 H   0  0  0  0  0  0  0  0  0  0  0  0
    1.0050    1.8251    0.0023 H   0  0  0  0  0  0  0  0  0  0  0  0
   -0.5448    1.8089   -0.8731 H   0  0  0  0  0  0  0  0  0  0  0  0
   -0.5278    1.7993    0.9068 H   0  0  0  0  0  0  0  0  0  0  0  0
    0.6401   -1.9148   -3.5148 N   0  3  1  0  0  0  0  0  0  0  0  0
    0.4473   -0.9281   -3.3066 H   0  0  0  0  0  0  0  0  0  0  0  0
  1 26  1  0  0  0  0
  1 27  1  0  0  0  0
  1 28  1  0  0  0  0
  1 43  1  0  0  0  0
  2  3  1  6  0  0  0
  2 12  1  0  0  0  0
  2  4  1  0  0  0  0
  2 43  1  0  0  0  0
  4  5  1  0  0  0  0
  4 29  1  0  0  0  0
  4 30  1  0  0  0  0
  5  6  1  0  0  0  0
  5 31  1  0  0  0  0
  5 32  1  0  0  0  0
  6  7  1  6  0  0  0
  6  8  1  0  0  0  0
  6 43  1  0  0  0  0
  8  9  1  1  0  0  0
  8 10  1  0  0  0  0
  8 22  1  0  0  0  0
 10 11  1  1  0  0  0
 10 12  1  0  0  0  0
 10 13  1  0  0  0  0
 12 33  1  0  0  0  0
 12 34  1  0  0  0  0
 13 14  1  0  0  0  0
 14 15  2  0  0  0  0
 14 16  1  0  0  0  0
 16 21  2  0  0  0  0
 16 17  1  0  0  0  0
 17 18  2  0  0  0  0
 17 35  1  0  0  0  0
 18 19  1  0  0  0  0
 18 36  1  0  0  0  0
 19 20  2  0  0  0  0
 19 37  1  0  0  0  0
 20 21  1  0  0  0  0
 20 38  1  0  0  0  0
 21 39  1  0  0  0  0
 22 23  2  0  0  0  0
 22 24  1  0  0  0  0
 24 25  1  0  0  0  0
 25 40  1  0  0  0  0
 25 41  1  0  0  0  0
 25 42  1  0  0  0  0
 43 44  1  1  0  0  0
M  CHG  1  43   1
M  END
$$$$
