ZINC03812960
 OpenBabel08292219463D

 12 11  0  0  1  0  0  0  0  0999 V2000
   -0.0127    1.0858    0.0080 C   0  0  1  0  0  0  0  0  0  0  0  0
    0.0021   -0.0041    0.0020 H   0  0  0  0  0  0  0  0  0  0  0  0
    1.4227    1.6154   -0.0028 C   0  0  0  0  0  0  0  0  0  0  0  0
    2.0993    1.1520    1.1305 F   0  0  0  0  0  0  0  0  0  0  0  0
    2.0775    1.1642   -1.1539 F   0  0  0  0  0  0  0  0  0  0  0  0
    1.4037    3.0142    0.0048 F   0  0  0  0  0  0  0  0  0  0  0  0
   -0.6816    1.5467    1.1837 O   0  0  0  0  0  0  0  0  0  0  0  0
   -2.0366    1.1060    1.2920 C   0  0  0  0  0  0  0  0  0  0  0  0
   -2.7671    1.5700    0.1928 F   0  0  0  0  0  0  0  0  0  0  0  0
   -2.0715   -0.2923    1.3185 F   0  0  0  0  0  0  0  0  0  0  0  0
   -0.8847    1.6831   -1.4527 Cl  0  0  0  0  0  0  0  0  0  0  0  0
   -2.4738    1.4978    2.2104 H   0  0  0  0  0  0  0  0  0  0  0  0
  1  2  1  6  0  0  0
  1  3  1  0  0  0  0
  1  7  1  0  0  0  0
  1 11  1  0  0  0  0
  3  4  1  0  0  0  0
  3  5  1  0  0  0  0
  3  6  1  0  0  0  0
  7  8  1  0  0  0  0
  8  9  1  0  0  0  0
  8 10  1  0  0  0  0
  8 12  1  0  0  0  0
M  END
$$$$
