ZINC00075126
 OpenBabel08292219463D

 42 45  0  0  1  0  0  0  0  0999 V2000
   -0.0184    1.5028    0.0103 C   0  0  0  0  0  0  0  0  0  0  0  0
    0.0021   -0.0041    0.0020 C   0  0  0  0  0  0  0  0  0  0  0  0
    0.0080   -0.7588   -1.0626 N   0  0  0  0  0  4  0  0  0  0  0  0
    0.0275   -2.0475   -0.6911 C   0  0  0  0  0  0  0  0  0  0  0  0
    0.0339   -2.0930    0.6548 C   0  0  0  0  0  0  0  0  0  0  0  0
    0.0232   -0.7970    1.0950 N   0  0  0  0  0  0  0  0  0  0  0  0
    0.0304   -0.3529    2.4910 C   0  0  0  0  0  0  0  0  0  0  0  0
   -1.4059   -0.0982    2.9525 C   0  0  2  0  0  0  0  0  0  0  0  0
   -1.8841    0.6077    2.2734 H   0  0  0  0  0  0  0  0  0  0  0  0
   -1.3885    0.4885    4.3640 C   0  0  0  0  0  0  0  0  0  0  0  0
   -2.8183    0.7509    4.8527 C   0  0  0  0  0  0  0  0  0  0  0  0
   -3.5900   -0.5440    4.7622 C   0  0  0  0  0  0  0  0  0  0  0  0
   -3.2525   -1.5391    3.8511 C   0  0  0  0  0  0  0  0  0  0  0  0
   -4.1973   -2.6242    4.0575 C   0  0  0  0  0  0  0  0  0  0  0  0
   -4.3599   -3.8715    3.4560 C   0  0  0  0  0  0  0  0  0  0  0  0
   -5.3958   -4.6619    3.9235 C   0  0  0  0  0  0  0  0  0  0  0  0
   -6.2353   -4.2398    4.9399 C   0  0  0  0  0  0  0  0  0  0  0  0
   -6.0913   -3.0056    5.5500 C   0  0  0  0  0  0  0  0  0  0  0  0
   -5.0557   -2.1905    5.0985 C   0  0  0  0  0  0  0  0  0  0  0  0
   -4.6518   -0.9388    5.4840 N   0  0  0  0  0  0  0  0  0  0  0  0
   -5.2885   -0.1432    6.5366 C   0  0  0  0  0  0  0  0  0  0  0  0
   -2.1743   -1.4014    2.9445 C   0  0  0  0  0  0  0  0  0  0  0  0
   -1.8781   -2.2996    2.1833 O   0  0  0  0  0  0  0  0  0  0  0  0
    1.0042    1.8801    0.0026 H   0  0  0  0  0  0  0  0  0  0  0  0
   -0.5455    1.8639   -0.8728 H   0  0  0  0  0  0  0  0  0  0  0  0
   -0.5286    1.8543    0.9071 H   0  0  0  0  0  0  0  0  0  0  0  0
    0.0365   -2.8993   -1.3550 H   0  0  0  0  0  0  0  0  0  0  0  0
    0.0489   -2.9814    1.2688 H   0  0  0  0  0  0  0  0  0  0  0  0
    0.4812   -1.1244    3.1154 H   0  0  0  0  0  0  0  0  0  0  0  0
    0.6082    0.5674    2.5767 H   0  0  0  0  0  0  0  0  0  0  0  0
   -0.8997   -0.2132    5.0399 H   0  0  0  0  0  0  0  0  0  0  0  0
   -0.8320    1.4257    4.3579 H   0  0  0  0  0  0  0  0  0  0  0  0
   -2.7965    1.0950    5.8867 H   0  0  0  0  0  0  0  0  0  0  0  0
   -3.2899    1.5053    4.2230 H   0  0  0  0  0  0  0  0  0  0  0  0
   -3.7083   -4.2053    2.6621 H   0  0  0  0  0  0  0  0  0  0  0  0
   -5.5535   -5.6351    3.4825 H   0  0  0  0  0  0  0  0  0  0  0  0
   -7.0290   -4.8948    5.2675 H   0  0  0  0  0  0  0  0  0  0  0  0
   -6.7537   -2.6880    6.3417 H   0  0  0  0  0  0  0  0  0  0  0  0
   -6.0755    0.4723    6.1009 H   0  0  0  0  0  0  0  0  0  0  0  0
   -5.7197   -0.8087    7.2844 H   0  0  0  0  0  0  0  0  0  0  0  0
   -4.5439    0.4986    7.0075 H   0  0  0  0  0  0  0  0  0  0  0  0
   -0.0004   -0.4384   -1.9781 H   0  0  0  0  0  0  0  0  0  0  0  0
  1  2  1  0  0  0  0
  1 24  1  0  0  0  0
  1 25  1  0  0  0  0
  1 26  1  0  0  0  0
  2  6  1  0  0  0  0
  2  3  2  0  0  0  0
  3  4  1  0  0  0  0
  3 42  1  0  0  0  0
  4  5  2  0  0  0  0
  4 27  1  0  0  0  0
  5  6  1  0  0  0  0
  5 28  1  0  0  0  0
  6  7  1  0  0  0  0
  7  8  1  0  0  0  0
  7 29  1  0  0  0  0
  7 30  1  0  0  0  0
  8  9  1  6  0  0  0
  8 22  1  0  0  0  0
  8 10  1  0  0  0  0
 10 11  1  0  0  0  0
 10 31  1  0  0  0  0
 10 32  1  0  0  0  0
 11 12  1  0  0  0  0
 11 33  1  0  0  0  0
 11 34  1  0  0  0  0
 12 20  1  0  0  0  0
 12 13  2  0  0  0  0
 13 14  1  0  0  0  0
 13 22  1  0  0  0  0
 14 19  2  0  0  0  0
 14 15  1  0  0  0  0
 15 16  2  0  0  0  0
 15 35  1  0  0  0  0
 16 17  1  0  0  0  0
 16 36  1  0  0  0  0
 17 18  2  0  0  0  0
 17 37  1  0  0  0  0
 18 19  1  0  0  0  0
 18 38  1  0  0  0  0
 19 20  1  0  0  0  0
 20 21  1  0  0  0  0
 21 39  1  0  0  0  0
 21 40  1  0  0  0  0
 21 41  1  0  0  0  0
 22 23  2  0  0  0  0
M  END
$$$$
