ZINC00057408
 OpenBabel08292219463D

 33 33  0  0  1  0  0  0  0  0999 V2000
   -0.0187    1.5258    0.0104 C   0  0  0  0  0  0  0  0  0  0  0  0
    0.0021   -0.0041    0.0020 C   0  0  1  0  0  0  0  0  0  0  0  0
   -1.0205   -0.3814    0.0098 H   0  0  0  0  0  0  0  0  0  0  0  0
    0.7182   -0.4975   -1.2568 C   0  0  2  0  0  0  0  0  0  0  0  0
    0.1910   -0.1364   -2.1398 H   0  0  0  0  0  0  0  0  0  0  0  0
    0.7387   -2.0043   -1.2651 C   0  0  0  0  0  0  0  0  0  0  0  0
    1.8346   -2.6830   -0.7683 C   0  0  0  0  0  0  0  0  0  0  0  0
    1.8532   -4.0696   -0.7755 C   0  0  0  0  0  0  0  0  0  0  0  0
    0.7714   -4.7752   -1.2815 C   0  0  0  0  0  0  0  0  0  0  0  0
   -0.3243   -4.0967   -1.7781 C   0  0  0  0  0  0  0  0  0  0  0  0
   -0.3451   -2.7097   -1.7661 C   0  0  0  0  0  0  0  0  0  0  0  0
   -1.4262   -2.0417   -2.2499 O   0  0  0  0  0  0  0  0  0  0  0  0
   -2.5065   -2.8320   -2.7504 C   0  0  0  0  0  0  0  0  0  0  0  0
    2.9322   -4.7377   -0.2869 O   0  0  0  0  0  0  0  0  0  0  0  0
    2.8834   -6.1653   -0.3256 C   0  0  0  0  0  0  0  0  0  0  0  0
    2.0588   -0.0029   -1.2669 O   0  0  0  0  0  0  0  0  0  0  0  0
    0.7126   -0.4907    1.1921 N   0  3  0  0  0  0  0  0  0  0  0  0
    1.0039    1.9031    0.0027 H   0  0  0  0  0  0  0  0  0  0  0  0
   -0.5459    1.8868   -0.8726 H   0  0  0  0  0  0  0  0  0  0  0  0
   -0.5289    1.8773    0.9072 H   0  0  0  0  0  0  0  0  0  0  0  0
    2.6771   -2.1337   -0.3747 H   0  0  0  0  0  0  0  0  0  0  0  0
    0.7860   -5.8551   -1.2874 H   0  0  0  0  0  0  0  0  0  0  0  0
   -1.1662   -4.6460   -2.1727 H   0  0  0  0  0  0  0  0  0  0  0  0
   -3.3024   -2.1768   -3.1046 H   0  0  0  0  0  0  0  0  0  0  0  0
   -2.1523   -3.4516   -3.5742 H   0  0  0  0  0  0  0  0  0  0  0  0
   -2.8890   -3.4705   -1.9540 H   0  0  0  0  0  0  0  0  0  0  0  0
    2.0327   -6.5158    0.2589 H   0  0  0  0  0  0  0  0  0  0  0  0
    2.7763   -6.4974   -1.3582 H   0  0  0  0  0  0  0  0  0  0  0  0
    3.8040   -6.5718    0.0932 H   0  0  0  0  0  0  0  0  0  0  0  0
    2.5734   -0.2770   -2.0384 H   0  0  0  0  0  0  0  0  0  0  0  0
    0.2403   -0.1653    2.0223 H   0  0  0  0  0  0  0  0  0  0  0  0
    0.7262   -1.4996    1.1866 H   0  0  0  0  0  0  0  0  0  0  0  0
    1.6592   -0.1414    1.1850 H   0  0  0  0  0  0  0  0  0  0  0  0
  1  2  1  0  0  0  0
  1 18  1  0  0  0  0
  1 19  1  0  0  0  0
  1 20  1  0  0  0  0
  2  3  1  1  0  0  0
  2  4  1  0  0  0  0
  2 17  1  0  0  0  0
  4  5  1  6  0  0  0
  4  6  1  0  0  0  0
  4 16  1  0  0  0  0
  6 11  2  0  0  0  0
  6  7  1  0  0  0  0
  7  8  2  0  0  0  0
  7 21  1  0  0  0  0
  8  9  1  0  0  0  0
  8 14  1  0  0  0  0
  9 10  2  0  0  0  0
  9 22  1  0  0  0  0
 10 11  1  0  0  0  0
 10 23  1  0  0  0  0
 11 12  1  0  0  0  0
 12 13  1  0  0  0  0
 13 24  1  0  0  0  0
 13 25  1  0  0  0  0
 13 26  1  0  0  0  0
 14 15  1  0  0  0  0
 15 27  1  0  0  0  0
 15 28  1  0  0  0  0
 15 29  1  0  0  0  0
 16 30  1  0  0  0  0
 17 31  1  0  0  0  0
 17 32  1  0  0  0  0
 17 33  1  0  0  0  0
M  CHG  1  17   1
M  END
$$$$
