ZINC12503073
 OpenBabel08292219463D

 35 36  0  0  1  0  0  0  0  0999 V2000
    0.0721    0.3750   -1.6708 C   0  0  0  0  0  0  0  0  0  0  0  0
   -0.2824    1.1729   -0.4144 C   0  0  0  0  0  0  0  0  0  0  0  0
   -1.7039    0.8203    0.0291 C   0  0  0  0  0  0  0  0  0  0  0  0
   -2.6844    1.1526   -1.0928 C   0  0  0  0  0  0  0  0  0  0  0  0
   -2.3305    0.3724   -2.3563 C   0  0  0  0  0  0  0  0  0  0  0  0
   -0.9068    0.7261   -2.7930 C   0  0  0  0  0  0  0  0  0  0  0  0
   -2.6652    2.5615   -1.3621 O   0  0  0  0  0  0  0  0  0  0  0  0
   -4.0148    2.9476   -1.6822 C   0  0  0  0  0  0  0  0  0  0  0  0
   -4.8462    1.6527   -1.5457 C   0  0  1  0  0  0  0  0  0  0  0  0
   -4.9801    1.1763   -2.5168 H   0  0  0  0  0  0  0  0  0  0  0  0
   -4.0259    0.8300   -0.6798 O   0  0  0  0  0  0  0  0  0  0  0  0
   -6.1989    1.9444   -0.8930 C   0  0  0  0  0  0  0  0  0  0  0  0
   -7.3395    0.1501    0.3497 C   0  0  0  0  0  0  0  0  0  0  0  0
   -7.1307    0.8102    1.5375 N   0  0  0  0  0  0  0  0  0  0  0  0
   -7.9417   -1.0858    0.3468 N   0  0  0  0  0  0  0  0  0  0  0  0
    0.0084   -0.6912   -1.4538 H   0  0  0  0  0  0  0  0  0  0  0  0
    1.0867    0.6219   -1.9836 H   0  0  0  0  0  0  0  0  0  0  0  0
    0.4186    0.9257    0.3828 H   0  0  0  0  0  0  0  0  0  0  0  0
   -0.2236    2.2392   -0.6325 H   0  0  0  0  0  0  0  0  0  0  0  0
   -1.9604    1.3961    0.9183 H   0  0  0  0  0  0  0  0  0  0  0  0
   -1.7599   -0.2442    0.2570 H   0  0  0  0  0  0  0  0  0  0  0  0
   -3.0295    0.6320   -3.1513 H   0  0  0  0  0  0  0  0  0  0  0  0
   -2.3930   -0.6967   -2.1525 H   0  0  0  0  0  0  0  0  0  0  0  0
   -0.8469    1.7931   -3.0070 H   0  0  0  0  0  0  0  0  0  0  0  0
   -0.6504    0.1608   -3.6890 H   0  0  0  0  0  0  0  0  0  0  0  0
   -4.3698    3.7012   -0.9793 H   0  0  0  0  0  0  0  0  0  0  0  0
   -4.0682    3.3259   -2.7031 H   0  0  0  0  0  0  0  0  0  0  0  0
   -6.0401    2.3671    0.0991 H   0  0  0  0  0  0  0  0  0  0  0  0
   -6.7525    2.6553   -1.5063 H   0  0  0  0  0  0  0  0  0  0  0  0
   -6.8393    1.7354    1.5334 H   0  0  0  0  0  0  0  0  0  0  0  0
   -7.2749    0.3509    2.3796 H   0  0  0  0  0  0  0  0  0  0  0  0
   -8.0890   -1.5515   -0.4912 H   0  0  0  0  0  0  0  0  0  0  0  0
   -8.2194   -1.4919    1.1827 H   0  0  0  0  0  0  0  0  0  0  0  0
   -6.9839    0.6635   -0.8343 N   0  0  0  0  0  4  0  0  0  0  0  0
   -7.2473    0.1825   -1.7023 H   0  0  0  0  0  0  0  0  0  0  0  0
  1  6  1  0  0  0  0
  1  2  1  0  0  0  0
  1 16  1  0  0  0  0
  1 17  1  0  0  0  0
  2  3  1  0  0  0  0
  2 18  1  0  0  0  0
  2 19  1  0  0  0  0
  3  4  1  0  0  0  0
  3 20  1  0  0  0  0
  3 21  1  0  0  0  0
  4 11  1  0  0  0  0
  4  5  1  0  0  0  0
  4  7  1  0  0  0  0
  5  6  1  0  0  0  0
  5 22  1  0  0  0  0
  5 23  1  0  0  0  0
  6 24  1  0  0  0  0
  6 25  1  0  0  0  0
  7  8  1  0  0  0  0
  8  9  1  0  0  0  0
  8 26  1  0  0  0  0
  8 27  1  0  0  0  0
  9 10  1  6  0  0  0
  9 11  1  0  0  0  0
  9 12  1  0  0  0  0
 12 28  1  0  0  0  0
 12 29  1  0  0  0  0
 12 34  1  0  0  0  0
 13 14  1  0  0  0  0
 13 15  1  0  0  0  0
 13 34  2  0  0  0  0
 14 30  1  0  0  0  0
 14 31  1  0  0  0  0
 15 32  1  0  0  0  0
 15 33  1  0  0  0  0
 34 35  1  0  0  0  0
M  END
$$$$
