ZINC03872566
 OpenBabel08292219463D

 76 79  0  0  1  0  0  0  0  0999 V2000
   -0.5065   -6.9356    3.2145 C   0  0  0  0  0  0  0  0  0  0  0  0
   -1.2015   -8.2228    2.7661 C   0  0  0  0  0  0  0  0  0  0  0  0
   -1.1416   -9.2545    3.8943 C   0  0  0  0  0  0  0  0  0  0  0  0
   -2.6409   -7.9264    2.4323 C   0  0  0  0  0  0  0  0  0  0  0  0
   -3.1270   -6.6379    2.5523 C   0  0  0  0  0  0  0  0  0  0  0  0
   -4.4473   -6.3660    2.2461 C   0  0  0  0  0  0  0  0  0  0  0  0
   -5.2814   -7.3825    1.8196 C   0  0  0  0  0  0  0  0  0  0  0  0
   -4.7950   -8.6708    1.6987 C   0  0  0  0  0  0  0  0  0  0  0  0
   -3.4736   -8.9419    2.0008 C   0  0  0  0  0  0  0  0  0  0  0  0
   -6.7210   -7.0863    1.4867 C   0  0  1  0  0  0  0  0  0  0  0  0
   -7.0185   -6.1509    1.9607 H   0  0  0  0  0  0  0  0  0  0  0  0
   -6.8787   -6.9622   -0.0300 C   0  0  0  0  0  0  0  0  0  0  0  0
   -8.3114   -6.5392   -0.3609 C   0  0  0  0  0  0  0  0  0  0  0  0
   -8.4690   -6.4151   -1.8777 C   0  0  0  0  0  0  0  0  0  0  0  0
   -9.8446   -6.0090   -2.1954 N   0  3  1  0  0  0  0  0  0  0  0  0
  -10.0925   -4.6651   -1.6596 C   0  0  0  0  0  0  0  0  0  0  0  0
  -11.5482   -4.2699   -1.9168 C   0  0  0  0  0  0  0  0  0  0  0  0
  -11.8146   -4.2770   -3.4248 C   0  0  1  0  0  0  0  0  0  0  0  0
  -11.4816   -5.6626   -3.9856 C   0  0  0  0  0  0  0  0  0  0  0  0
  -10.0283   -6.0062   -3.6517 C   0  0  0  0  0  0  0  0  0  0  0  0
  -13.2885   -3.9602   -3.6856 C   0  0  0  0  0  0  0  0  0  0  0  0
  -13.5989   -2.5710   -3.1906 C   0  0  0  0  0  0  0  0  0  0  0  0
  -12.7991   -1.5083   -3.5672 C   0  0  0  0  0  0  0  0  0  0  0  0
  -13.0838   -0.2341   -3.1133 C   0  0  0  0  0  0  0  0  0  0  0  0
  -14.1686   -0.0224   -2.2831 C   0  0  0  0  0  0  0  0  0  0  0  0
  -14.9690   -1.0850   -1.9072 C   0  0  0  0  0  0  0  0  0  0  0  0
  -14.6868   -2.3586   -2.3646 C   0  0  0  0  0  0  0  0  0  0  0  0
  -13.5654   -4.0400   -5.1647 C   0  0  0  0  0  0  0  0  0  0  0  0
  -12.7403   -3.3838   -6.0588 C   0  0  0  0  0  0  0  0  0  0  0  0
  -12.9943   -3.4571   -7.4156 C   0  0  0  0  0  0  0  0  0  0  0  0
  -14.0732   -4.1869   -7.8784 C   0  0  0  0  0  0  0  0  0  0  0  0
  -14.8979   -4.8438   -6.9844 C   0  0  0  0  0  0  0  0  0  0  0  0
  -14.6413   -4.7741   -5.6279 C   0  0  0  0  0  0  0  0  0  0  0  0
  -14.1082   -4.9058   -2.9957 O   0  0  0  0  0  0  0  0  0  0  0  0
   -7.5489   -8.1477    1.9664 O   0  0  0  0  0  0  0  0  0  0  0  0
   -0.5057   -8.7708    1.5468 C   0  0  0  0  0  0  0  0  0  0  0  0
   -0.4926   -9.9724    1.3409 O   0  0  0  0  0  0  0  0  0  0  0  0
    0.0442   -8.0125    0.7663 O   0  0  0  0  0  1  0  0  0  0  0  0
    0.5346   -7.1500    3.4559 H   0  0  0  0  0  0  0  0  0  0  0  0
   -0.5492   -6.2006    2.4108 H   0  0  0  0  0  0  0  0  0  0  0  0
   -1.0098   -6.5393    4.0964 H   0  0  0  0  0  0  0  0  0  0  0  0
   -1.6449   -8.8581    4.7762 H   0  0  0  0  0  0  0  0  0  0  0  0
   -1.6367  -10.1715    3.5748 H   0  0  0  0  0  0  0  0  0  0  0  0
   -0.1005   -9.4688    4.1357 H   0  0  0  0  0  0  0  0  0  0  0  0
   -2.4754   -5.8437    2.8855 H   0  0  0  0  0  0  0  0  0  0  0  0
   -4.8273   -5.3595    2.3405 H   0  0  0  0  0  0  0  0  0  0  0  0
   -5.4467   -9.4651    1.3658 H   0  0  0  0  0  0  0  0  0  0  0  0
   -3.0926   -9.9477    1.9028 H   0  0  0  0  0  0  0  0  0  0  0  0
   -6.1824   -6.2135   -0.4077 H   0  0  0  0  0  0  0  0  0  0  0  0
   -6.6667   -7.9239   -0.4973 H   0  0  0  0  0  0  0  0  0  0  0  0
   -9.0077   -7.2880    0.0167 H   0  0  0  0  0  0  0  0  0  0  0  0
   -8.5233   -5.5775    0.1063 H   0  0  0  0  0  0  0  0  0  0  0  0
   -7.7727   -5.6663   -2.2553 H   0  0  0  0  0  0  0  0  0  0  0  0
   -8.2570   -7.3768   -2.3450 H   0  0  0  0  0  0  0  0  0  0  0  0
   -9.8995   -4.6609   -0.5868 H   0  0  0  0  0  0  0  0  0  0  0  0
   -9.4306   -3.9512   -2.1497 H   0  0  0  0  0  0  0  0  0  0  0  0
  -12.2110   -4.9832   -1.4268 H   0  0  0  0  0  0  0  0  0  0  0  0
  -11.7298   -3.2712   -1.5197 H   0  0  0  0  0  0  0  0  0  0  0  0
  -11.1883   -3.5277   -3.9090 H   0  0  0  0  0  0  0  0  0  0  0  0
  -12.1430   -6.4047   -3.5385 H   0  0  0  0  0  0  0  0  0  0  0  0
  -11.6156   -5.6593   -5.0673 H   0  0  0  0  0  0  0  0  0  0  0  0
   -9.3678   -5.2637   -4.0994 H   0  0  0  0  0  0  0  0  0  0  0  0
   -9.7879   -6.9921   -4.0497 H   0  0  0  0  0  0  0  0  0  0  0  0
  -11.9515   -1.6737   -4.2159 H   0  0  0  0  0  0  0  0  0  0  0  0
  -12.4585    0.5961   -3.4069 H   0  0  0  0  0  0  0  0  0  0  0  0
  -14.3907    0.9730   -1.9278 H   0  0  0  0  0  0  0  0  0  0  0  0
  -15.8164   -0.9197   -1.2583 H   0  0  0  0  0  0  0  0  0  0  0  0
  -15.3143   -3.1881   -2.0740 H   0  0  0  0  0  0  0  0  0  0  0  0
  -11.8973   -2.8136   -5.6972 H   0  0  0  0  0  0  0  0  0  0  0  0
  -12.3500   -2.9438   -8.1141 H   0  0  0  0  0  0  0  0  0  0  0  0
  -14.2721   -4.2435   -8.9384 H   0  0  0  0  0  0  0  0  0  0  0  0
  -15.7410   -5.4137   -7.3459 H   0  0  0  0  0  0  0  0  0  0  0  0
  -15.2834   -5.2904   -4.9296 H   0  0  0  0  0  0  0  0  0  0  0  0
  -13.9617   -5.8232   -3.2644 H   0  0  0  0  0  0  0  0  0  0  0  0
   -7.3402   -9.0119    1.5862 H   0  0  0  0  0  0  0  0  0  0  0  0
  -10.4916   -6.6604   -1.7770 H   0  0  0  0  0  0  0  0  0  0  0  0
  1  2  1  0  0  0  0
  1 39  1  0  0  0  0
  1 40  1  0  0  0  0
  1 41  1  0  0  0  0
  2  3  1  0  0  0  0
  2  4  1  0  0  0  0
  2 36  1  0  0  0  0
  3 42  1  0  0  0  0
  3 43  1  0  0  0  0
  3 44  1  0  0  0  0
  4  9  2  0  0  0  0
  4  5  1  0  0  0  0
  5  6  2  0  0  0  0
  5 45  1  0  0  0  0
  6  7  1  0  0  0  0
  6 46  1  0  0  0  0
  7  8  2  0  0  0  0
  7 10  1  0  0  0  0
  8  9  1  0  0  0  0
  8 47  1  0  0  0  0
  9 48  1  0  0  0  0
 10 11  1  1  0  0  0
 10 12  1  0  0  0  0
 10 35  1  0  0  0  0
 12 13  1  0  0  0  0
 12 49  1  0  0  0  0
 12 50  1  0  0  0  0
 13 14  1  0  0  0  0
 13 51  1  0  0  0  0
 13 52  1  0  0  0  0
 14 15  1  0  0  0  0
 14 53  1  0  0  0  0
 14 54  1  0  0  0  0
 15 20  1  0  0  0  0
 15 16  1  0  0  0  0
 15 76  1  1  0  0  0
 16 17  1  0  0  0  0
 16 55  1  0  0  0  0
 16 56  1  0  0  0  0
 17 18  1  0  0  0  0
 17 57  1  0  0  0  0
 17 58  1  0  0  0  0
 18 19  1  0  0  0  0
 18 21  1  0  0  0  0
 18 59  1  6  0  0  0
 19 20  1  0  0  0  0
 19 60  1  0  0  0  0
 19 61  1  0  0  0  0
 20 62  1  0  0  0  0
 20 63  1  0  0  0  0
 21 22  1  0  0  0  0
 21 28  1  0  0  0  0
 21 34  1  0  0  0  0
 22 27  2  0  0  0  0
 22 23  1  0  0  0  0
 23 24  2  0  0  0  0
 23 64  1  0  0  0  0
 24 25  1  0  0  0  0
 24 65  1  0  0  0  0
 25 26  2  0  0  0  0
 25 66  1  0  0  0  0
 26 27  1  0  0  0  0
 26 67  1  0  0  0  0
 27 68  1  0  0  0  0
 28 33  2  0  0  0  0
 28 29  1  0  0  0  0
 29 30  2  0  0  0  0
 29 69  1  0  0  0  0
 30 31  1  0  0  0  0
 30 70  1  0  0  0  0
 31 32  2  0  0  0  0
 31 71  1  0  0  0  0
 32 33  1  0  0  0  0
 32 72  1  0  0  0  0
 33 73  1  0  0  0  0
 34 74  1  0  0  0  0
 35 75  1  0  0  0  0
 36 37  2  0  0  0  0
 36 38  1  0  0  0  0
M  CHG  1  15   1
M  END
$$$$
