ZINC01554588
 OpenBabel08292219463D

 21 20  0  0  0  0  0  0  0  0999 V2000
   -0.0184    1.5028    0.0103 C   0  0  0  0  0  0  0  0  0  0  0  0
    0.0021   -0.0041    0.0020 C   0  0  0  0  0  0  0  0  0  0  0  0
    1.0605   -0.5961   -0.0113 O   0  0  0  0  0  0  0  0  0  0  0  0
   -1.1558   -0.6938    0.0094 N   0  0  0  0  0  0  0  0  0  0  0  0
   -1.1360   -2.1586    0.0013 C   0  0  0  0  0  0  0  0  0  0  0  0
   -2.5713   -2.6882    0.0122 C   0  0  0  0  0  0  0  0  0  0  0  0
   -2.5506   -4.2180    0.0038 C   0  0  0  0  0  0  0  0  0  0  0  0
   -4.2524   -4.8459    0.0166 S   0  0  0  0  0  0  0  0  0  0  0  0
   -4.2115   -6.3000    0.0084 O   0  0  0  0  0  0  0  0  0  0  0  0
   -4.9156   -4.3666    1.2193 O   0  0  0  0  0  0  0  0  0  0  0  0
   -4.9384   -4.3538   -1.1680 O   0  0  0  0  0  1  0  0  0  0  0  0
    1.0042    1.8801    0.0026 H   0  0  0  0  0  0  0  0  0  0  0  0
   -0.5455    1.8639   -0.8728 H   0  0  0  0  0  0  0  0  0  0  0  0
   -0.5286    1.8543    0.9071 H   0  0  0  0  0  0  0  0  0  0  0  0
   -2.0023   -0.2203    0.0200 H   0  0  0  0  0  0  0  0  0  0  0  0
   -0.6258   -2.5101   -0.8955 H   0  0  0  0  0  0  0  0  0  0  0  0
   -0.6088   -2.5197    0.8844 H   0  0  0  0  0  0  0  0  0  0  0  0
   -3.0815   -2.3367    0.9090 H   0  0  0  0  0  0  0  0  0  0  0  0
   -3.0985   -2.3271   -0.8709 H   0  0  0  0  0  0  0  0  0  0  0  0
   -2.0404   -4.5695   -0.8930 H   0  0  0  0  0  0  0  0  0  0  0  0
   -2.0234   -4.5791    0.8868 H   0  0  0  0  0  0  0  0  0  0  0  0
  1  2  1  0  0  0  0
  1 12  1  0  0  0  0
  1 13  1  0  0  0  0
  1 14  1  0  0  0  0
  2  3  2  0  0  0  0
  2  4  1  0  0  0  0
  4  5  1  0  0  0  0
  4 15  1  0  0  0  0
  5  6  1  0  0  0  0
  5 16  1  0  0  0  0
  5 17  1  0  0  0  0
  6  7  1  0  0  0  0
  6 18  1  0  0  0  0
  6 19  1  0  0  0  0
  7  8  1  0  0  0  0
  7 20  1  0  0  0  0
  7 21  1  0  0  0  0
  8  9  2  0  0  0  0
  8 10  2  0  0  0  0
  8 11  1  0  0  0  0
M  END
$$$$
