ZINC04097426
 OpenBabel08292219463D

 32 32  0  0  1  0  0  0  0  0999 V2000
    0.0582    1.4326   -0.0932 C   0  0  0  0  0  0  0  0  0  0  0  0
    1.4600    2.0177   -0.2786 C   0  0  1  0  0  0  0  0  0  0  0  0
    2.0720    1.7790    0.5912 H   0  0  0  0  0  0  0  0  0  0  0  0
    2.0972    1.4141   -1.5335 C   0  0  2  0  0  0  0  0  0  0  0  0
    1.5136    1.6954   -2.4100 H   0  0  0  0  0  0  0  0  0  0  0  0
    2.1180   -0.1114   -1.4002 C   0  0  1  0  0  0  0  0  0  0  0  0
    2.7437   -0.3942   -0.5536 H   0  0  0  0  0  0  0  0  0  0  0  0
    0.6919   -0.6176   -1.1732 C   0  0  2  0  0  0  0  0  0  0  0  0
    0.0672   -0.3344   -2.0203 H   0  0  0  0  0  0  0  0  0  0  0  0
    0.1481   -0.0250    0.0547 N   0  3  2  0  0  0  0  0  0  0  0  0
   -1.1906   -0.5733    0.3100 C   0  0  0  0  0  0  0  0  0  0  0  0
   -1.6812   -0.1033    1.6809 C   0  0  0  0  0  0  0  0  0  0  0  0
   -1.9530    1.2988    1.6346 O   0  0  0  0  0  0  0  0  0  0  0  0
    0.7077   -2.1416   -1.0388 C   0  0  0  0  0  0  0  0  0  0  0  0
    1.5849   -2.5169    0.0250 O   0  0  0  0  0  0  0  0  0  0  0  0
    2.6451   -0.6878   -2.5968 O   0  0  0  0  0  0  0  0  0  0  0  0
    3.4334    1.9014   -1.6725 O   0  0  0  0  0  0  0  0  0  0  0  0
    1.3695    3.4364   -0.4236 O   0  0  0  0  0  0  0  0  0  0  0  0
   -0.3984    1.8604    0.7993 H   0  0  0  0  0  0  0  0  0  0  0  0
   -0.5530    1.6721   -0.9634 H   0  0  0  0  0  0  0  0  0  0  0  0
   -1.8785   -0.2259   -0.4608 H   0  0  0  0  0  0  0  0  0  0  0  0
   -1.1464   -1.6622    0.2936 H   0  0  0  0  0  0  0  0  0  0  0  0
   -2.5916   -0.6414    1.9450 H   0  0  0  0  0  0  0  0  0  0  0  0
   -0.9130   -0.3000    2.4287 H   0  0  0  0  0  0  0  0  0  0  0  0
   -2.2689    1.6661    2.4715 H   0  0  0  0  0  0  0  0  0  0  0  0
   -0.2994   -2.4977   -0.8221 H   0  0  0  0  0  0  0  0  0  0  0  0
    1.0571   -2.5849   -1.9713 H   0  0  0  0  0  0  0  0  0  0  0  0
    1.6442   -3.4715    0.1676 H   0  0  0  0  0  0  0  0  0  0  0  0
    3.5471   -0.4075   -2.8042 H   0  0  0  0  0  0  0  0  0  0  0  0
    3.4946    2.8628   -1.7564 H   0  0  0  0  0  0  0  0  0  0  0  0
    2.2229    3.8746   -0.5453 H   0  0  0  0  0  0  0  0  0  0  0  0
    0.7538   -0.2466    0.8307 H   0  0  0  0  0  0  0  0  0  0  0  0
  1 10  1  0  0  0  0
  1  2  1  0  0  0  0
  1 19  1  0  0  0  0
  1 20  1  0  0  0  0
  2  3  1  1  0  0  0
  2  4  1  0  0  0  0
  2 18  1  0  0  0  0
  4  5  1  6  0  0  0
  4  6  1  0  0  0  0
  4 17  1  0  0  0  0
  6  7  1  1  0  0  0
  6  8  1  0  0  0  0
  6 16  1  0  0  0  0
  8  9  1  6  0  0  0
  8 10  1  0  0  0  0
  8 14  1  0  0  0  0
 10 11  1  0  0  0  0
 10 32  1  1  0  0  0
 11 12  1  0  0  0  0
 11 21  1  0  0  0  0
 11 22  1  0  0  0  0
 12 13  1  0  0  0  0
 12 23  1  0  0  0  0
 12 24  1  0  0  0  0
 13 25  1  0  0  0  0
 14 15  1  0  0  0  0
 14 26  1  0  0  0  0
 14 27  1  0  0  0  0
 15 28  1  0  0  0  0
 16 29  1  0  0  0  0
 17 30  1  0  0  0  0
 18 31  1  0  0  0  0
M  CHG  1  10   1
M  END
$$$$
