ZINC04081771
 OpenBabel08292219463D

 46 49  0  0  1  0  0  0  0  0999 V2000
   -0.0187    1.5258    0.0104 C   0  0  0  0  0  0  0  0  0  0  0  0
    0.0021   -0.0041    0.0020 C   0  0  2  0  0  0  0  0  0  0  0  0
   -1.4324   -0.5357    0.0220 C   0  0  0  0  0  0  0  0  0  0  0  0
   -2.1404   -0.0223    1.2769 C   0  0  0  0  0  0  0  0  0  0  0  0
   -1.4010   -0.5088    2.5256 C   0  0  1  0  0  0  0  0  0  0  0  0
   -1.4077   -1.5985    2.5520 H   0  0  0  0  0  0  0  0  0  0  0  0
    0.0445   -0.0061    2.4985 C   0  0  2  0  0  0  0  0  0  0  0  0
    0.0502    1.0839    2.4943 H   0  0  0  0  0  0  0  0  0  0  0  0
    0.7420   -0.5131    1.2414 C   0  0  2  0  0  0  0  0  0  0  0  0
    0.7396   -1.6031    1.2431 H   0  0  0  0  0  0  0  0  0  0  0  0
    2.1874   -0.0089    1.2105 C   0  0  0  0  0  0  0  0  0  0  0  0
    2.8647   -0.5317   -0.0634 C   0  0  0  0  0  0  0  0  0  0  0  0
    1.9885   -0.1833   -1.2465 C   0  0  0  0  0  0  0  0  0  0  0  0
    2.4542    0.3404   -2.2308 O   0  0  0  0  0  0  0  0  0  0  0  0
    0.6764   -0.4676   -1.1725 O   0  0  0  0  0  0  0  0  0  0  0  0
    0.7989   -0.5157    3.7287 C   0  0  0  0  0  0  0  0  0  0  0  0
    0.1631    0.0554    4.9997 C   0  0  0  0  0  0  0  0  0  0  0  0
   -1.3117   -0.3003    4.9894 C   0  0  0  0  0  0  0  0  0  0  0  0
   -1.8380   -0.8935    6.0516 C   0  0  0  0  0  0  0  0  0  0  0  0
   -3.2591   -1.2735    6.0683 C   0  0  0  0  0  0  0  0  0  0  0  0
   -3.7551   -1.7838    7.0554 O   0  0  0  0  0  0  0  0  0  0  0  0
   -4.0680   -1.0220    4.8636 C   0  0  0  0  0  0  0  0  0  0  0  0
   -3.5233   -0.4205    3.8178 C   0  0  0  0  0  0  0  0  0  0  0  0
   -2.1124    0.0384    3.7670 C   0  0  2  0  0  0  0  0  0  0  0  0
   -2.1496    1.5634    3.6485 C   0  0  0  0  0  0  0  0  0  0  0  0
    1.0039    1.9031    0.0027 H   0  0  0  0  0  0  0  0  0  0  0  0
   -0.5459    1.8868   -0.8726 H   0  0  0  0  0  0  0  0  0  0  0  0
   -0.5289    1.8773    0.9072 H   0  0  0  0  0  0  0  0  0  0  0  0
   -1.9626   -0.1866   -0.8640 H   0  0  0  0  0  0  0  0  0  0  0  0
   -1.4169   -1.6255    0.0326 H   0  0  0  0  0  0  0  0  0  0  0  0
   -2.1534    1.0676    1.2652 H   0  0  0  0  0  0  0  0  0  0  0  0
   -3.1643   -0.3956    1.2936 H   0  0  0  0  0  0  0  0  0  0  0  0
    2.1943    1.0811    1.2072 H   0  0  0  0  0  0  0  0  0  0  0  0
    2.7218   -0.3773    2.0862 H   0  0  0  0  0  0  0  0  0  0  0  0
    3.8416   -0.0622   -0.1790 H   0  0  0  0  0  0  0  0  0  0  0  0
    2.9820   -1.6135    0.0007 H   0  0  0  0  0  0  0  0  0  0  0  0
    0.7518   -1.6043    3.7575 H   0  0  0  0  0  0  0  0  0  0  0  0
    1.8407   -0.2003    3.6713 H   0  0  0  0  0  0  0  0  0  0  0  0
    0.6405   -0.3797    5.8777 H   0  0  0  0  0  0  0  0  0  0  0  0
    0.2803    1.1390    5.0151 H   0  0  0  0  0  0  0  0  0  0  0  0
   -1.2183   -1.0998    6.9117 H   0  0  0  0  0  0  0  0  0  0  0  0
   -5.1034   -1.3278    4.8334 H   0  0  0  0  0  0  0  0  0  0  0  0
   -4.1423   -0.2574    2.9479 H   0  0  0  0  0  0  0  0  0  0  0  0
   -2.6924    1.8446    2.7461 H   0  0  0  0  0  0  0  0  0  0  0  0
   -2.6515    1.9834    4.5202 H   0  0  0  0  0  0  0  0  0  0  0  0
   -1.1313    1.9485    3.5949 H   0  0  0  0  0  0  0  0  0  0  0  0
  1 26  1  0  0  0  0
  1 27  1  0  0  0  0
  1 28  1  0  0  0  0
  2  1  1  1  0  0  0
  2  9  1  0  0  0  0
  2 15  1  0  0  0  0
  2  3  1  0  0  0  0
  3  4  1  0  0  0  0
  3 29  1  0  0  0  0
  3 30  1  0  0  0  0
  4  5  1  0  0  0  0
  4 31  1  0  0  0  0
  4 32  1  0  0  0  0
  5  6  1  1  0  0  0
  5 24  1  0  0  0  0
  5  7  1  0  0  0  0
  7  8  1  1  0  0  0
  7  9  1  0  0  0  0
  7 16  1  0  0  0  0
  9 10  1  1  0  0  0
  9 11  1  0  0  0  0
 11 12  1  0  0  0  0
 11 33  1  0  0  0  0
 11 34  1  0  0  0  0
 12 13  1  0  0  0  0
 12 35  1  0  0  0  0
 12 36  1  0  0  0  0
 13 14  2  0  0  0  0
 13 15  1  0  0  0  0
 16 17  1  0  0  0  0
 16 37  1  0  0  0  0
 16 38  1  0  0  0  0
 17 18  1  0  0  0  0
 17 39  1  0  0  0  0
 17 40  1  0  0  0  0
 18 24  1  0  0  0  0
 18 19  2  0  0  0  0
 19 20  1  0  0  0  0
 19 41  1  0  0  0  0
 20 21  2  0  0  0  0
 20 22  1  0  0  0  0
 22 23  2  0  0  0  0
 22 42  1  0  0  0  0
 23 24  1  0  0  0  0
 23 43  1  0  0  0  0
 24 25  1  6  0  0  0
 25 44  1  0  0  0  0
 25 45  1  0  0  0  0
 25 46  1  0  0  0  0
M  END
$$$$
