ZINC01846079
 OpenBabel08292219463D

 27 27  0  0  1  0  0  0  0  0999 V2000
    1.7262   -2.6712   -0.1124 C   0  0  0  0  0  0  0  0  0  0  0  0
    0.6055   -2.1713   -1.0263 C   0  0  1  0  0  0  0  0  0  0  0  0
   -0.3518   -2.5497   -0.6677 H   0  0  0  0  0  0  0  0  0  0  0  0
    0.5851   -0.6645   -1.0180 C   0  0  0  0  0  0  0  0  0  0  0  0
    1.0933   -0.0461   -1.9292 O   0  0  0  0  0  0  0  0  0  0  0  0
    0.0021   -0.0041    0.0020 N   0  0  0  0  0  0  0  0  0  0  0  0
   -0.0178    1.4608    0.0101 C   0  0  0  0  0  0  0  0  0  0  0  0
   -0.7232    1.9468    1.2500 C   0  0  0  0  0  0  0  0  0  0  0  0
   -1.1640    1.1512    2.0453 O   0  0  0  0  0  0  0  0  0  0  0  0
    0.8939   -2.7616   -2.7129 S   0  0  0  0  0  0  0  0  0  0  0  0
    0.7210   -4.4972   -2.4634 C   0  0  0  0  0  0  0  0  0  0  0  0
    0.4724   -4.9309   -1.3533 O   0  0  0  0  0  0  0  0  0  0  0  0
    0.8765   -5.4191   -3.5926 C   0  0  0  0  0  0  0  0  0  0  0  0
    0.7813   -6.8016   -3.6111 C   0  0  0  0  0  0  0  0  0  0  0  0
    0.9727   -7.4254   -4.8190 C   0  0  0  0  0  0  0  0  0  0  0  0
    1.2412   -6.6737   -5.9185 C   0  0  0  0  0  0  0  0  0  0  0  0
    1.2297   -5.0532   -5.3026 S   0  0  0  0  0  0  0  0  0  0  0  0
    2.6834   -2.2929   -0.4710 H   0  0  0  0  0  0  0  0  0  0  0  0
    1.5525   -2.3158    0.9033 H   0  0  0  0  0  0  0  0  0  0  0  0
    1.7409   -3.7611   -0.1184 H   0  0  0  0  0  0  0  0  0  0  0  0
   -0.4044   -0.4986    0.7308 H   0  0  0  0  0  0  0  0  0  0  0  0
    1.0048    1.8381    0.0023 H   0  0  0  0  0  0  0  0  0  0  0  0
   -0.5450    1.8219   -0.8730 H   0  0  0  0  0  0  0  0  0  0  0  0
    0.5656   -7.3637   -2.7145 H   0  0  0  0  0  0  0  0  0  0  0  0
    0.9102   -8.5009   -4.8945 H   0  0  0  0  0  0  0  0  0  0  0  0
    1.4155   -7.0051   -6.9315 H   0  0  0  0  0  0  0  0  0  0  0  0
   -0.8617    3.2635    1.4708 O   0  0  0  0  0  1  0  0  0  0  0  0
  1  2  1  0  0  0  0
  1 18  1  0  0  0  0
  1 19  1  0  0  0  0
  1 20  1  0  0  0  0
  2  3  1  1  0  0  0
  2  4  1  0  0  0  0
  2 10  1  0  0  0  0
  4  5  2  0  0  0  0
  4  6  1  0  0  0  0
  6  7  1  0  0  0  0
  6 21  1  0  0  0  0
  7  8  1  0  0  0  0
  7 22  1  0  0  0  0
  7 23  1  0  0  0  0
  8  9  2  0  0  0  0
  8 27  1  0  0  0  0
 10 11  1  0  0  0  0
 11 12  2  0  0  0  0
 11 13  1  0  0  0  0
 13 17  1  0  0  0  0
 13 14  2  0  0  0  0
 14 15  1  0  0  0  0
 14 24  1  0  0  0  0
 15 16  2  0  0  0  0
 15 25  1  0  0  0  0
 16 17  1  0  0  0  0
 16 26  1  0  0  0  0
M  END
$$$$
