ZINC03915645
 OpenBabel08292219463D

 33 34  0  0  1  0  0  0  0  0999 V2000
   -5.0188    5.7186    1.5061 C   0  0  0  0  0  0  0  0  0  0  0  0
   -4.9371    5.2241    0.0605 C   0  0  2  0  0  0  0  0  0  0  0  0
   -4.0200    5.5945   -0.3975 H   0  0  0  0  0  0  0  0  0  0  0  0
   -6.1457    5.7402   -0.7292 C   0  0  0  0  0  0  0  0  0  0  0  0
   -7.3772    4.9859   -0.2928 C   0  0  0  0  0  0  0  0  0  0  0  0
   -8.4489    5.5510   -0.2315 O   0  0  0  0  0  0  0  0  0  0  0  0
   -7.2800    3.6819    0.0288 N   0  0  0  0  0  0  0  0  0  0  0  0
   -6.0358    3.0458    0.0464 N   0  0  0  0  0  0  0  0  0  0  0  0
   -4.9319    3.7184    0.0456 C   0  0  0  0  0  0  0  0  0  0  0  0
   -3.6458    2.9990    0.0361 C   0  0  0  0  0  0  0  0  0  0  0  0
   -3.6250    1.6012    0.0279 C   0  0  0  0  0  0  0  0  0  0  0  0
   -2.4215    0.9320    0.0186 C   0  0  0  0  0  0  0  0  0  0  0  0
   -1.2267    1.6458    0.0168 C   0  0  0  0  0  0  0  0  0  0  0  0
   -1.2437    3.0374    0.0303 C   0  0  0  0  0  0  0  0  0  0  0  0
   -2.4438    3.7128    0.0347 C   0  0  0  0  0  0  0  0  0  0  0  0
   -0.0111    0.9658    0.0074 N   0  0  0  0  0  0  0  0  0  0  0  0
    1.0972    1.6260    0.0003 N   0  0  0  0  0  0  0  0  0  0  0  0
    2.2458    0.9834   -0.0141 C   0  0  0  0  0  0  0  0  0  0  0  0
    2.2652   -0.4484   -0.0220 C   0  0  0  0  0  0  0  0  0  0  0  0
    2.2807   -1.5843   -0.0282 N   0  0  0  0  0  0  0  0  0  0  0  0
    3.4761    1.7162   -0.0219 C   0  0  0  0  0  0  0  0  0  0  0  0
    4.4521    2.2976   -0.0281 N   0  0  0  0  0  0  0  0  0  0  0  0
   -4.1574    5.3524    2.0646 H   0  0  0  0  0  0  0  0  0  0  0  0
   -5.0226    6.8086    1.5176 H   0  0  0  0  0  0  0  0  0  0  0  0
   -5.9346    5.3472    1.9660 H   0  0  0  0  0  0  0  0  0  0  0  0
   -5.9821    5.5846   -1.7956 H   0  0  0  0  0  0  0  0  0  0  0  0
   -6.2812    6.8038   -0.5328 H   0  0  0  0  0  0  0  0  0  0  0  0
   -8.0800    3.1801    0.2504 H   0  0  0  0  0  0  0  0  0  0  0  0
   -4.5518    1.0467    0.0286 H   0  0  0  0  0  0  0  0  0  0  0  0
   -2.4048   -0.1478    0.0123 H   0  0  0  0  0  0  0  0  0  0  0  0
   -0.3148    3.5883    0.0334 H   0  0  0  0  0  0  0  0  0  0  0  0
   -2.4563    4.7927    0.0407 H   0  0  0  0  0  0  0  0  0  0  0  0
    0.0021   -0.0041    0.0020 H   0  0  0  0  0  0  0  0  0  0  0  0
  1  2  1  0  0  0  0
  1 23  1  0  0  0  0
  1 24  1  0  0  0  0
  1 25  1  0  0  0  0
  2  3  1  6  0  0  0
  2  9  1  0  0  0  0
  2  4  1  0  0  0  0
  4  5  1  0  0  0  0
  4 26  1  0  0  0  0
  4 27  1  0  0  0  0
  5  6  2  0  0  0  0
  5  7  1  0  0  0  0
  7  8  1  0  0  0  0
  7 28  1  0  0  0  0
  8  9  2  0  0  0  0
  9 10  1  0  0  0  0
 10 15  2  0  0  0  0
 10 11  1  0  0  0  0
 11 12  2  0  0  0  0
 11 29  1  0  0  0  0
 12 13  1  0  0  0  0
 12 30  1  0  0  0  0
 13 14  2  0  0  0  0
 13 16  1  0  0  0  0
 14 15  1  0  0  0  0
 14 31  1  0  0  0  0
 15 32  1  0  0  0  0
 16 17  1  0  0  0  0
 16 33  1  0  0  0  0
 17 18  2  0  0  0  0
 18 19  1  0  0  0  0
 18 21  1  0  0  0  0
 19 20  3  0  0  0  0
 21 22  3  0  0  0  0
M  END
$$$$
