ZINC00001728
 OpenBabel08292219463D

 31 32  0  0  0  0  0  0  0  0999 V2000
    0.1641    1.5090   -0.3518 C   0  0  0  0  0  0  0  0  0  0  0  0
    0.0389    0.0397    0.0562 C   0  0  0  0  0  0  0  0  0  0  0  0
    0.9621   -0.2402    1.2438 C   0  0  0  0  0  0  0  0  0  0  0  0
   -1.3865   -0.2531    0.4481 C   0  0  0  0  0  0  0  0  0  0  0  0
   -1.9307    0.3125    1.5914 C   0  0  0  0  0  0  0  0  0  0  0  0
   -3.2459    0.0149    1.9129 C   0  0  0  0  0  0  0  0  0  0  0  0
   -3.9661   -0.8296    1.0890 C   0  0  0  0  0  0  0  0  0  0  0  0
   -3.4158   -1.3498    0.0096 N   0  0  0  0  0  0  0  0  0  0  0  0
   -2.1696   -1.0840   -0.3303 C   0  0  0  0  0  0  0  0  0  0  0  0
    0.4316   -0.8389   -1.1034 C   0  0  0  0  0  0  0  0  0  0  0  0
    0.6841   -0.3437   -2.1810 O   0  0  0  0  0  0  0  0  0  0  0  0
    0.5087   -2.2980   -0.9280 C   0  0  0  0  0  0  0  0  0  0  0  0
    1.0241   -3.1133   -1.9468 C   0  0  0  0  0  0  0  0  0  0  0  0
    1.0748   -4.4782   -1.7307 C   0  0  0  0  0  0  0  0  0  0  0  0
    0.6201   -4.9916   -0.5286 C   0  0  0  0  0  0  0  0  0  0  0  0
    0.1400   -4.2015    0.4129 N   0  0  0  0  0  0  0  0  0  0  0  0
    0.0750   -2.8957    0.2591 C   0  0  0  0  0  0  0  0  0  0  0  0
    1.2027    1.7307   -0.5970 H   0  0  0  0  0  0  0  0  0  0  0  0
   -0.4633    1.6989   -1.2227 H   0  0  0  0  0  0  0  0  0  0  0  0
   -0.1580    2.1440    0.4735 H   0  0  0  0  0  0  0  0  0  0  0  0
    0.5960    0.2919    2.1218 H   0  0  0  0  0  0  0  0  0  0  0  0
    0.9771   -1.3108    1.4478 H   0  0  0  0  0  0  0  0  0  0  0  0
    1.9707    0.0989    1.0077 H   0  0  0  0  0  0  0  0  0  0  0  0
   -1.3437    0.9689    2.2166 H   0  0  0  0  0  0  0  0  0  0  0  0
   -3.7020    0.4374    2.7960 H   0  0  0  0  0  0  0  0  0  0  0  0
   -4.9913   -1.0664    1.3325 H   0  0  0  0  0  0  0  0  0  0  0  0
   -1.7547   -1.5245   -1.2248 H   0  0  0  0  0  0  0  0  0  0  0  0
    1.3719   -2.6861   -2.8757 H   0  0  0  0  0  0  0  0  0  0  0  0
    1.4649   -5.1370   -2.4924 H   0  0  0  0  0  0  0  0  0  0  0  0
    0.6586   -6.0574   -0.3583 H   0  0  0  0  0  0  0  0  0  0  0  0
   -0.3202   -2.2816    1.0548 H   0  0  0  0  0  0  0  0  0  0  0  0
  1  2  1  0  0  0  0
  1 18  1  0  0  0  0
  1 19  1  0  0  0  0
  1 20  1  0  0  0  0
  2  3  1  0  0  0  0
  2  4  1  0  0  0  0
  2 10  1  0  0  0  0
  3 21  1  0  0  0  0
  3 22  1  0  0  0  0
  3 23  1  0  0  0  0
  4  9  2  0  0  0  0
  4  5  1  0  0  0  0
  5  6  2  0  0  0  0
  5 24  1  0  0  0  0
  6  7  1  0  0  0  0
  6 25  1  0  0  0  0
  7  8  2  0  0  0  0
  7 26  1  0  0  0  0
  8  9  1  0  0  0  0
  9 27  1  0  0  0  0
 10 11  2  0  0  0  0
 10 12  1  0  0  0  0
 12 17  2  0  0  0  0
 12 13  1  0  0  0  0
 13 14  2  0  0  0  0
 13 28  1  0  0  0  0
 14 15  1  0  0  0  0
 14 29  1  0  0  0  0
 15 16  2  0  0  0  0
 15 30  1  0  0  0  0
 16 17  1  0  0  0  0
 17 31  1  0  0  0  0
M  END
$$$$
