ZINC04467397
 OpenBabel08292219463D

 48 49  0  0  1  0  0  0  0  0999 V2000
   -9.4900    2.2667   -1.6381 C   0  0  0  0  0  0  0  0  0  0  0  0
   -8.2152    2.5745   -0.8501 C   0  0  0  0  0  0  0  0  0  0  0  0
   -7.4673    1.2715   -0.5609 C   0  0  0  0  0  0  0  0  0  0  0  0
   -8.5832    3.2551    0.4698 C   0  0  0  0  0  0  0  0  0  0  0  0
   -7.3540    3.4695   -1.6402 C   0  0  0  0  0  0  0  0  0  0  0  0
   -6.6673    4.1833   -2.2704 C   0  0  0  0  0  0  0  0  0  0  0  0
   -5.8295    5.0540   -3.0390 C   0  0  0  0  0  0  0  0  0  0  0  0
   -4.6619    5.4561   -2.5487 C   0  0  0  0  0  0  0  0  0  0  0  0
   -4.2192    4.9959   -1.1837 C   0  0  0  0  0  0  0  0  0  0  0  0
   -1.8733    5.3427   -1.6728 C   0  0  0  0  0  0  0  0  0  0  0  0
   -2.5362    3.6938   -0.0284 C   0  0  0  0  0  0  0  0  0  0  0  0
   -1.3970    2.7391   -0.2771 C   0  0  0  0  0  0  0  0  0  0  0  0
   -0.1389    3.0524    0.1377 C   0  0  0  0  0  0  0  0  0  0  0  0
    0.9277    2.1848   -0.0881 C   0  0  0  0  0  0  0  0  0  0  0  0
    0.7406    0.9933   -0.7194 C   0  0  0  0  0  0  0  0  0  0  0  0
   -0.5452    0.6325   -1.1562 C   0  0  0  0  0  0  0  0  0  0  0  0
   -1.6292    1.5178   -0.9317 C   0  0  0  0  0  0  0  0  0  0  0  0
   -2.9155    1.1565   -1.3679 C   0  0  0  0  0  0  0  0  0  0  0  0
   -3.1026   -0.0347   -1.9989 C   0  0  0  0  0  0  0  0  0  0  0  0
   -2.0367   -0.9052   -2.2196 C   0  0  0  0  0  0  0  0  0  0  0  0
   -0.7776   -0.5892   -1.8109 C   0  0  0  0  0  0  0  0  0  0  0  0
   -9.2278    1.7818   -2.5784 H   0  0  0  0  0  0  0  0  0  0  0  0
  -10.1277    1.6040   -1.0530 H   0  0  0  0  0  0  0  0  0  0  0  0
  -10.0228    3.1950   -1.8441 H   0  0  0  0  0  0  0  0  0  0  0  0
   -6.5590    1.4908    0.0005 H   0  0  0  0  0  0  0  0  0  0  0  0
   -8.1049    0.6088    0.0242 H   0  0  0  0  0  0  0  0  0  0  0  0
   -7.2051    0.7866   -1.5012 H   0  0  0  0  0  0  0  0  0  0  0  0
   -9.1160    4.1834    0.2637 H   0  0  0  0  0  0  0  0  0  0  0  0
   -9.2209    2.5924    1.0549 H   0  0  0  0  0  0  0  0  0  0  0  0
   -7.6750    3.4744    1.0312 H   0  0  0  0  0  0  0  0  0  0  0  0
   -6.1468    5.3838   -4.0173 H   0  0  0  0  0  0  0  0  0  0  0  0
   -4.0301    6.1127   -3.1284 H   0  0  0  0  0  0  0  0  0  0  0  0
   -4.9376    4.2756   -0.7924 H   0  0  0  0  0  0  0  0  0  0  0  0
   -4.1614    5.8527   -0.5124 H   0  0  0  0  0  0  0  0  0  0  0  0
   -0.9116    4.8405   -1.7779 H   0  0  0  0  0  0  0  0  0  0  0  0
   -2.1497    5.8006   -2.6226 H   0  0  0  0  0  0  0  0  0  0  0  0
   -1.7989    6.1135   -0.9058 H   0  0  0  0  0  0  0  0  0  0  0  0
   -3.3969    3.1418    0.3495 H   0  0  0  0  0  0  0  0  0  0  0  0
   -2.2317    4.4394    0.7061 H   0  0  0  0  0  0  0  0  0  0  0  0
    0.0360    3.9896    0.6451 H   0  0  0  0  0  0  0  0  0  0  0  0
    1.9171    2.4597    0.2466 H   0  0  0  0  0  0  0  0  0  0  0  0
    1.5760    0.3287   -0.8833 H   0  0  0  0  0  0  0  0  0  0  0  0
   -3.7510    1.8207   -1.2032 H   0  0  0  0  0  0  0  0  0  0  0  0
   -4.0920   -0.3097   -2.3334 H   0  0  0  0  0  0  0  0  0  0  0  0
   -2.2126   -1.8448   -2.7221 H   0  0  0  0  0  0  0  0  0  0  0  0
    0.0385   -1.2738   -1.9884 H   0  0  0  0  0  0  0  0  0  0  0  0
   -2.8986    4.3433   -1.3057 N   0  3  1  0  0  0  0  0  0  0  0  0
   -2.9464    3.6288   -2.0414 H   0  0  0  0  0  0  0  0  0  0  0  0
  1  2  1  0  0  0  0
  1 22  1  0  0  0  0
  1 23  1  0  0  0  0
  1 24  1  0  0  0  0
  2  3  1  0  0  0  0
  2  4  1  0  0  0  0
  2  5  1  0  0  0  0
  3 25  1  0  0  0  0
  3 26  1  0  0  0  0
  3 27  1  0  0  0  0
  4 28  1  0  0  0  0
  4 29  1  0  0  0  0
  4 30  1  0  0  0  0
  5  6  3  0  0  0  0
  6  7  1  0  0  0  0
  7  8  2  0  0  0  0
  7 31  1  0  0  0  0
  8  9  1  0  0  0  0
  8 32  1  0  0  0  0
  9 33  1  0  0  0  0
  9 34  1  0  0  0  0
  9 47  1  0  0  0  0
 10 35  1  0  0  0  0
 10 36  1  0  0  0  0
 10 37  1  0  0  0  0
 10 47  1  0  0  0  0
 11 12  1  0  0  0  0
 11 38  1  0  0  0  0
 11 39  1  0  0  0  0
 11 47  1  0  0  0  0
 12 17  2  0  0  0  0
 12 13  1  0  0  0  0
 13 14  2  0  0  0  0
 13 40  1  0  0  0  0
 14 15  1  0  0  0  0
 14 41  1  0  0  0  0
 15 16  2  0  0  0  0
 15 42  1  0  0  0  0
 16 21  1  0  0  0  0
 16 17  1  0  0  0  0
 17 18  1  0  0  0  0
 18 19  2  0  0  0  0
 18 43  1  0  0  0  0
 19 20  1  0  0  0  0
 19 44  1  0  0  0  0
 20 21  2  0  0  0  0
 20 45  1  0  0  0  0
 21 46  1  0  0  0  0
 47 48  1  6  0  0  0
M  CHG  1  47   1
M  END
$$$$
