ZINC05138064
 OpenBabel08292219463D

 62 66  0  0  1  0  0  0  0  0999 V2000
    7.9271    1.4218   -1.5942 C   0  0  0  0  0  0  0  0  0  0  0  0
    6.4725    1.0345   -1.5211 C   0  0  0  0  0  0  0  0  0  0  0  0
    6.0240    0.2226   -2.2954 O   0  0  0  0  0  0  0  0  0  0  0  0
    5.6753    1.5914   -0.5959 O   0  0  0  0  0  0  0  0  0  0  0  0
    4.2855    1.1710   -0.5840 C   0  0  1  0  0  0  0  0  0  0  0  0
    4.2137    0.1426   -0.9380 H   0  0  0  0  0  0  0  0  0  0  0  0
    3.7382    1.2593    0.8415 C   0  0  0  0  0  0  0  0  0  0  0  0
    2.3036    0.7288    0.8773 C   0  0  0  0  0  0  0  0  0  0  0  0
    1.4136    1.6111   -0.0028 C   0  0  2  0  0  0  0  0  0  0  0  0
   -0.0127    1.0858    0.0080 C   0  0  1  0  0  0  0  0  0  0  0  0
    0.0021   -0.0041    0.0020 H   0  0  0  0  0  0  0  0  0  0  0  0
   -0.7218    1.5798    1.2755 C   0  0  0  0  0  0  0  0  0  0  0  0
   -2.0996    0.9629    1.3371 C   0  0  0  0  0  0  0  0  0  0  0  0
   -2.9635    1.4063    0.1540 C   0  0  1  0  0  0  0  0  0  0  0  0
   -2.2350    1.1693   -1.1806 C   0  0  1  0  0  0  0  0  0  0  0  0
   -2.7722    1.6805   -1.9794 H   0  0  0  0  0  0  0  0  0  0  0  0
   -0.7905    1.5896   -1.2037 C   0  0  2  0  0  0  0  0  0  0  0  0
   -0.7542    2.6790   -1.2160 H   0  0  0  0  0  0  0  0  0  0  0  0
   -0.1094    1.0571   -2.4736 C   0  0  0  0  0  0  0  0  0  0  0  0
    1.3352    1.4621   -2.4696 C   0  0  0  0  0  0  0  0  0  0  0  0
    2.0029    1.6995   -1.3790 C   0  0  0  0  0  0  0  0  0  0  0  0
    3.4674    2.0853   -1.5013 C   0  0  0  0  0  0  0  0  0  0  0  0
   -2.4292   -0.3521   -1.3467 C   0  0  0  0  0  0  0  0  0  0  0  0
   -3.8200   -0.5666   -0.7703 C   0  0  0  0  0  0  0  0  0  0  0  0
   -4.1264    0.4190    0.0641 C   0  0  0  0  0  0  0  0  0  0  0  0
   -5.4034    0.5431    0.7981 C   0  0  0  0  0  0  0  0  0  0  0  0
   -6.6036    0.7487    0.1082 C   0  0  0  0  0  0  0  0  0  0  0  0
   -7.7721    0.8541    0.8418 C   0  0  0  0  0  0  0  0  0  0  0  0
   -7.7161    0.7635    2.2211 C   0  0  0  0  0  0  0  0  0  0  0  0
   -6.5694    0.5744    2.8449 N   0  0  0  0  0  0  0  0  0  0  0  0
   -5.4317    0.4630    2.1905 C   0  0  0  0  0  0  0  0  0  0  0  0
   -3.4400    2.8526    0.3017 C   0  0  0  0  0  0  0  0  0  0  0  0
    1.4074    3.0217    0.5899 C   0  0  0  0  0  0  0  0  0  0  0  0
    8.1456    2.1601   -0.8226 H   0  0  0  0  0  0  0  0  0  0  0  0
    8.5465    0.5387   -1.4379 H   0  0  0  0  0  0  0  0  0  0  0  0
    8.1411    1.8469   -2.5748 H   0  0  0  0  0  0  0  0  0  0  0  0
    3.7489    2.2984    1.1704 H   0  0  0  0  0  0  0  0  0  0  0  0
    4.3620    0.6626    1.5071 H   0  0  0  0  0  0  0  0  0  0  0  0
    1.9343    0.7480    1.9026 H   0  0  0  0  0  0  0  0  0  0  0  0
    2.2849   -0.2946    0.5028 H   0  0  0  0  0  0  0  0  0  0  0  0
   -0.1490    1.2840    2.1544 H   0  0  0  0  0  0  0  0  0  0  0  0
   -0.8145    2.6654    1.2437 H   0  0  0  0  0  0  0  0  0  0  0  0
   -2.5880    1.2548    2.2669 H   0  0  0  0  0  0  0  0  0  0  0  0
   -1.9909   -0.1214    1.3152 H   0  0  0  0  0  0  0  0  0  0  0  0
   -0.6018    1.4744   -3.3519 H   0  0  0  0  0  0  0  0  0  0  0  0
   -0.1822   -0.0302   -2.4980 H   0  0  0  0  0  0  0  0  0  0  0  0
    1.8444    1.5616   -3.4168 H   0  0  0  0  0  0  0  0  0  0  0  0
    3.6002    3.1237   -1.1978 H   0  0  0  0  0  0  0  0  0  0  0  0
    3.7960    1.9595   -2.5329 H   0  0  0  0  0  0  0  0  0  0  0  0
   -2.3979   -0.6343   -2.3990 H   0  0  0  0  0  0  0  0  0  0  0  0
   -1.6831   -0.9030   -0.7741 H   0  0  0  0  0  0  0  0  0  0  0  0
   -4.4650   -1.4002   -1.0059 H   0  0  0  0  0  0  0  0  0  0  0  0
   -6.6179    0.8198   -0.9694 H   0  0  0  0  0  0  0  0  0  0  0  0
   -8.7174    1.0094    0.3431 H   0  0  0  0  0  0  0  0  0  0  0  0
   -8.6260    0.8495    2.7965 H   0  0  0  0  0  0  0  0  0  0  0  0
   -4.5129    0.3086    2.7367 H   0  0  0  0  0  0  0  0  0  0  0  0
   -4.1291    3.0926   -0.5081 H   0  0  0  0  0  0  0  0  0  0  0  0
   -3.9482    2.9718    1.2586 H   0  0  0  0  0  0  0  0  0  0  0  0
   -2.5822    3.5239    0.2598 H   0  0  0  0  0  0  0  0  0  0  0  0
    1.0292    2.9848    1.6115 H   0  0  0  0  0  0  0  0  0  0  0  0
    2.4222    3.4193    0.5922 H   0  0  0  0  0  0  0  0  0  0  0  0
    0.7662    3.6658   -0.0119 H   0  0  0  0  0  0  0  0  0  0  0  0
  1  2  1  0  0  0  0
  1 34  1  0  0  0  0
  1 35  1  0  0  0  0
  1 36  1  0  0  0  0
  2  3  2  0  0  0  0
  2  4  1  0  0  0  0
  4  5  1  0  0  0  0
  5  6  1  6  0  0  0
  5 22  1  0  0  0  0
  5  7  1  0  0  0  0
  7  8  1  0  0  0  0
  7 37  1  0  0  0  0
  7 38  1  0  0  0  0
  8  9  1  0  0  0  0
  8 39  1  0  0  0  0
  8 40  1  0  0  0  0
  9 21  1  0  0  0  0
  9 10  1  0  0  0  0
  9 33  1  1  0  0  0
 10 11  1  6  0  0  0
 10 17  1  0  0  0  0
 10 12  1  0  0  0  0
 12 13  1  0  0  0  0
 12 41  1  0  0  0  0
 12 42  1  0  0  0  0
 13 14  1  0  0  0  0
 13 43  1  0  0  0  0
 13 44  1  0  0  0  0
 14 25  1  0  0  0  0
 14 15  1  0  0  0  0
 14 32  1  1  0  0  0
 15 16  1  6  0  0  0
 15 17  1  0  0  0  0
 15 23  1  0  0  0  0
 17 18  1  6  0  0  0
 17 19  1  0  0  0  0
 19 20  1  0  0  0  0
 19 45  1  0  0  0  0
 19 46  1  0  0  0  0
 20 21  2  0  0  0  0
 20 47  1  0  0  0  0
 21 22  1  0  0  0  0
 22 48  1  0  0  0  0
 22 49  1  0  0  0  0
 23 24  1  0  0  0  0
 23 50  1  0  0  0  0
 23 51  1  0  0  0  0
 24 25  2  0  0  0  0
 24 52  1  0  0  0  0
 25 26  1  0  0  0  0
 26 31  2  0  0  0  0
 26 27  1  0  0  0  0
 27 28  2  0  0  0  0
 27 53  1  0  0  0  0
 28 29  1  0  0  0  0
 28 54  1  0  0  0  0
 29 30  2  0  0  0  0
 29 55  1  0  0  0  0
 30 31  1  0  0  0  0
 31 56  1  0  0  0  0
 32 57  1  0  0  0  0
 32 58  1  0  0  0  0
 32 59  1  0  0  0  0
 33 60  1  0  0  0  0
 33 61  1  0  0  0  0
 33 62  1  0  0  0  0
M  END
$$$$
