ZINC00057320
 OpenBabel08292219463D

 44 45  0  0  1  0  0  0  0  0999 V2000
   -0.0187    1.5258    0.0104 C   0  0  0  0  0  0  0  0  0  0  0  0
    0.0021   -0.0041    0.0020 C   0  0  2  0  0  0  0  0  0  0  0  0
   -1.0205   -0.3814    0.0098 H   0  0  0  0  0  0  0  0  0  0  0  0
    0.7421   -0.5109    1.2415 C   0  0  0  0  0  0  0  0  0  0  0  0
    0.6567   -2.0144    1.2978 C   0  0  0  0  0  0  0  0  0  0  0  0
   -0.3968   -2.6218    1.9557 C   0  0  0  0  0  0  0  0  0  0  0  0
   -0.4771   -3.9998    2.0091 C   0  0  0  0  0  0  0  0  0  0  0  0
    0.5003   -4.7745    1.4014 C   0  0  0  0  0  0  0  0  0  0  0  0
    1.5561   -4.1627    0.7414 C   0  0  0  0  0  0  0  0  0  0  0  0
    1.6291   -2.7842    0.6865 C   0  0  0  0  0  0  0  0  0  0  0  0
    0.4238   -6.1304    1.4528 O   0  0  0  0  0  0  0  0  0  0  0  0
    0.6897   -0.4778   -1.2066 N   0  3  0  0  0  0  0  0  0  0  0  0
   -0.0856   -0.0931   -2.3936 C   0  0  0  0  0  0  0  0  0  0  0  0
    0.6305   -0.5866   -3.6524 C   0  0  1  0  0  0  0  0  0  0  0  0
    0.7239   -1.6719   -3.6155 H   0  0  0  0  0  0  0  0  0  0  0  0
   -0.1648   -0.1919   -4.8701 C   0  0  0  0  0  0  0  0  0  0  0  0
    0.0063    1.0598   -5.4298 C   0  0  0  0  0  0  0  0  0  0  0  0
   -0.7249    1.4255   -6.5511 C   0  0  0  0  0  0  0  0  0  0  0  0
   -1.6276    0.5339   -7.1098 C   0  0  0  0  0  0  0  0  0  0  0  0
   -1.7974   -0.7214   -6.5464 C   0  0  0  0  0  0  0  0  0  0  0  0
   -1.0597   -1.0844   -5.4284 C   0  0  0  0  0  0  0  0  0  0  0  0
   -2.6818   -1.5974   -7.0915 O   0  0  0  0  0  0  0  0  0  0  0  0
   -0.5565    2.6569   -7.1008 O   0  0  0  0  0  0  0  0  0  0  0  0
    1.9312    0.0013   -3.7219 O   0  0  0  0  0  0  0  0  0  0  0  0
    1.0039    1.9031    0.0027 H   0  0  0  0  0  0  0  0  0  0  0  0
   -0.5459    1.8868   -0.8726 H   0  0  0  0  0  0  0  0  0  0  0  0
   -0.5289    1.8773    0.9072 H   0  0  0  0  0  0  0  0  0  0  0  0
    1.7879   -0.2080    1.1895 H   0  0  0  0  0  0  0  0  0  0  0  0
    0.2852   -0.0874    2.1360 H   0  0  0  0  0  0  0  0  0  0  0  0
   -1.1575   -2.0183    2.4286 H   0  0  0  0  0  0  0  0  0  0  0  0
   -1.2999   -4.4738    2.5237 H   0  0  0  0  0  0  0  0  0  0  0  0
    2.3183   -4.7635    0.2676 H   0  0  0  0  0  0  0  0  0  0  0  0
    2.4485   -2.3075    0.1691 H   0  0  0  0  0  0  0  0  0  0  0  0
   -0.0660   -6.5248    0.7183 H   0  0  0  0  0  0  0  0  0  0  0  0
    1.6080   -0.0627   -1.2556 H   0  0  0  0  0  0  0  0  0  0  0  0
   -1.0777   -0.5415   -2.3406 H   0  0  0  0  0  0  0  0  0  0  0  0
   -0.1790    0.9922   -2.4305 H   0  0  0  0  0  0  0  0  0  0  0  0
    0.7094    1.7542   -4.9940 H   0  0  0  0  0  0  0  0  0  0  0  0
   -2.1978    0.8169   -7.9822 H   0  0  0  0  0  0  0  0  0  0  0  0
   -1.1885   -2.0638   -4.9918 H   0  0  0  0  0  0  0  0  0  0  0  0
   -2.2999   -2.1709   -7.7699 H   0  0  0  0  0  0  0  0  0  0  0  0
    0.1305    2.6937   -7.7804 H   0  0  0  0  0  0  0  0  0  0  0  0
    1.9246    0.9676   -3.7575 H   0  0  0  0  0  0  0  0  0  0  0  0
    0.7761   -1.4825   -1.1724 H   0  0  0  0  0  0  0  0  0  0  0  0
  1  2  1  0  0  0  0
  1 25  1  0  0  0  0
  1 26  1  0  0  0  0
  1 27  1  0  0  0  0
  2  3  1  1  0  0  0
  2  4  1  0  0  0  0
  2 12  1  0  0  0  0
  4  5  1  0  0  0  0
  4 28  1  0  0  0  0
  4 29  1  0  0  0  0
  5 10  2  0  0  0  0
  5  6  1  0  0  0  0
  6  7  2  0  0  0  0
  6 30  1  0  0  0  0
  7  8  1  0  0  0  0
  7 31  1  0  0  0  0
  8  9  2  0  0  0  0
  8 11  1  0  0  0  0
  9 10  1  0  0  0  0
  9 32  1  0  0  0  0
 10 33  1  0  0  0  0
 11 34  1  0  0  0  0
 12 13  1  0  0  0  0
 12 35  1  0  0  0  0
 12 44  1  0  0  0  0
 13 14  1  0  0  0  0
 13 36  1  0  0  0  0
 13 37  1  0  0  0  0
 14 15  1  1  0  0  0
 14 16  1  0  0  0  0
 14 24  1  0  0  0  0
 16 21  2  0  0  0  0
 16 17  1  0  0  0  0
 17 18  2  0  0  0  0
 17 38  1  0  0  0  0
 18 19  1  0  0  0  0
 18 23  1  0  0  0  0
 19 20  2  0  0  0  0
 19 39  1  0  0  0  0
 20 21  1  0  0  0  0
 20 22  1  0  0  0  0
 21 40  1  0  0  0  0
 22 41  1  0  0  0  0
 23 42  1  0  0  0  0
 24 43  1  0  0  0  0
M  CHG  1  12   1
M  END
$$$$
