ZINC00033882
 OpenBabel08292219463D

 23 23  0  0  0  0  0  0  0  0999 V2000
   -0.0167    1.3779    0.0096 C   0  0  0  0  0  0  0  0  0  0  0  0
    1.1696    2.0886    0.0021 C   0  0  0  0  0  0  0  0  0  0  0  0
    2.3802    1.4154   -0.0130 C   0  0  0  0  0  0  0  0  0  0  0  0
    2.3990    0.0236   -0.0206 C   0  0  0  0  0  0  0  0  0  0  0  0
    1.2071   -0.6822   -0.0130 C   0  0  0  0  0  0  0  0  0  0  0  0
    0.0021   -0.0041    0.0020 C   0  0  0  0  0  0  0  0  0  0  0  0
   -1.2936   -0.7736    0.0102 C   0  0  0  0  0  0  0  0  0  0  0  0
   -1.7458   -1.0263   -1.4294 C   0  0  0  0  0  0  0  0  0  0  0  0
   -3.0088   -1.7764   -1.4215 N   0  3  0  0  0  0  0  0  0  0  0  0
    3.5850   -0.6417   -0.0359 O   0  0  0  0  0  0  0  0  0  0  0  0
    3.5476    2.1129   -0.0209 O   0  0  0  0  0  0  0  0  0  0  0  0
   -0.9598    1.9038    0.0259 H   0  0  0  0  0  0  0  0  0  0  0  0
    1.1522    3.1684    0.0077 H   0  0  0  0  0  0  0  0  0  0  0  0
    1.2190   -1.7621   -0.0189 H   0  0  0  0  0  0  0  0  0  0  0  0
   -1.1467   -1.7271    0.5175 H   0  0  0  0  0  0  0  0  0  0  0  0
   -2.0555   -0.1967    0.5344 H   0  0  0  0  0  0  0  0  0  0  0  0
   -1.8927   -0.0728   -1.9368 H   0  0  0  0  0  0  0  0  0  0  0  0
   -0.9839   -1.6032   -1.9536 H   0  0  0  0  0  0  0  0  0  0  0  0
   -2.8729   -2.6590   -0.9518 H   0  0  0  0  0  0  0  0  0  0  0  0
   -3.7141   -1.2424   -0.9362 H   0  0  0  0  0  0  0  0  0  0  0  0
    3.9367   -0.8389    0.8430 H   0  0  0  0  0  0  0  0  0  0  0  0
    3.8938    2.3101    0.8602 H   0  0  0  0  0  0  0  0  0  0  0  0
   -3.3071   -1.9430   -2.3709 H   0  0  0  0  0  0  0  0  0  0  0  0
  1  6  2  0  0  0  0
  1  2  1  0  0  0  0
  1 12  1  0  0  0  0
  2  3  2  0  0  0  0
  2 13  1  0  0  0  0
  3  4  1  0  0  0  0
  3 11  1  0  0  0  0
  4  5  2  0  0  0  0
  4 10  1  0  0  0  0
  5  6  1  0  0  0  0
  5 14  1  0  0  0  0
  6  7  1  0  0  0  0
  7  8  1  0  0  0  0
  7 15  1  0  0  0  0
  7 16  1  0  0  0  0
  8  9  1  0  0  0  0
  8 17  1  0  0  0  0
  8 18  1  0  0  0  0
  9 19  1  0  0  0  0
  9 20  1  0  0  0  0
  9 23  1  0  0  0  0
 10 21  1  0  0  0  0
 11 22  1  0  0  0  0
M  CHG  1   9   1
M  END
$$$$
