ZINC04215234
 OpenBabel08292219463D

 50 53  0  0  1  0  0  0  0  0999 V2000
   -5.5154   -2.9781   -2.4555 C   0  0  0  0  0  0  0  0  0  0  0  0
   -5.3814   -1.9675   -1.3456 C   0  0  0  0  0  0  0  0  0  0  0  0
   -5.2259   -0.6121   -1.6191 C   0  0  0  0  0  0  0  0  0  0  0  0
   -5.1187    0.0435    0.0401 S   0  0  0  0  0  0  0  0  0  0  0  0
   -5.2920   -1.4607    0.8900 C   0  0  0  0  0  0  0  0  0  0  0  0
   -5.4075   -2.3325   -0.0885 N   0  0  0  0  0  0  0  0  0  0  0  0
   -5.1636    0.0598   -2.8650 C   0  0  0  0  0  0  0  0  0  0  0  0
   -5.0949    1.4166   -2.9026 C   0  0  0  0  0  0  0  0  0  0  0  0
   -5.1910    2.1586   -1.7123 C   0  0  0  0  0  0  0  0  0  0  0  0
   -6.4159    2.2055   -1.1393 C   0  0  0  0  0  0  0  0  0  0  0  0
   -6.5936    2.8572    0.0983 N   0  0  0  0  0  0  0  0  0  0  0  0
   -5.6841    3.8818    0.6916 C   0  0  1  0  0  0  0  0  0  0  0  0
   -5.8074    4.9064    0.3405 H   0  0  0  0  0  0  0  0  0  0  0  0
   -6.4187    3.5252    1.9734 C   0  0  1  0  0  0  0  0  0  0  0  0
   -6.8651    4.3864    2.4705 H   0  0  0  0  0  0  0  0  0  0  0  0
   -7.4100    2.7275    1.1559 C   0  0  0  0  0  0  0  0  0  0  0  0
   -8.4813    2.1984    1.3656 O   0  0  0  0  0  0  0  0  0  0  0  0
   -5.6235    2.6992    2.8853 N   0  0  0  0  0  0  0  0  0  0  0  0
   -5.8960    2.6988    4.2052 C   0  0  0  0  0  0  0  0  0  0  0  0
   -6.7408    3.4496    4.6514 O   0  0  0  0  0  0  0  0  0  0  0  0
   -5.1653    1.7827    5.1123 C   0  0  0  0  0  0  0  0  0  0  0  0
   -5.4873    1.7206    6.3732 N   0  0  0  0  0  0  0  0  0  0  0  0
   -6.4583    2.6063    6.9004 O   0  0  0  0  0  0  0  0  0  0  0  0
   -6.7127    2.4266    8.2950 C   0  0  0  0  0  0  0  0  0  0  0  0
   -4.0706    0.9391    4.5864 C   0  0  0  0  0  0  0  0  0  0  0  0
   -3.4907   -0.0166    5.3773 C   0  0  0  0  0  0  0  0  0  0  0  0
   -2.2803   -0.6937    4.2492 S   0  0  0  0  0  0  0  0  0  0  0  0
   -2.6567    0.3584    2.8546 C   0  0  0  0  0  0  0  0  0  0  0  0
   -3.6325    1.1030    3.3389 N   0  0  0  0  0  0  0  0  0  0  0  0
   -2.0774    0.3850    1.5971 N   0  0  0  0  0  0  0  0  0  0  0  0
   -3.9986    3.2015    0.5374 S   0  0  0  0  0  0  0  0  0  0  0  0
   -3.9280    2.7986   -1.2352 C   0  0  0  0  0  0  0  0  0  0  0  0
   -7.5229    1.5981   -1.7847 C   0  0  0  0  0  0  0  0  0  0  0  0
   -8.5964    1.5293   -1.2156 O   0  0  0  0  0  0  0  0  0  0  0  0
   -4.5272   -3.3416   -2.7371 H   0  0  0  0  0  0  0  0  0  0  0  0
   -6.1263   -3.8137   -2.1142 H   0  0  0  0  0  0  0  0  0  0  0  0
   -5.9896   -2.5098   -3.3180 H   0  0  0  0  0  0  0  0  0  0  0  0
   -5.2986   -1.6371    1.9555 H   0  0  0  0  0  0  0  0  0  0  0  0
   -5.1707   -0.5063   -3.7847 H   0  0  0  0  0  0  0  0  0  0  0  0
   -4.9666    1.9248   -3.8468 H   0  0  0  0  0  0  0  0  0  0  0  0
   -4.9008    2.1526    2.5391 H   0  0  0  0  0  0  0  0  0  0  0  0
   -5.7921    2.5877    8.8560 H   0  0  0  0  0  0  0  0  0  0  0  0
   -7.0727    1.4129    8.4710 H   0  0  0  0  0  0  0  0  0  0  0  0
   -7.4673    3.1420    8.6219 H   0  0  0  0  0  0  0  0  0  0  0  0
   -3.7061   -0.2876    6.4004 H   0  0  0  0  0  0  0  0  0  0  0  0
   -2.3895    1.0190    0.9326 H   0  0  0  0  0  0  0  0  0  0  0  0
   -1.3595   -0.2304    1.3807 H   0  0  0  0  0  0  0  0  0  0  0  0
   -3.7590    3.7149   -1.8008 H   0  0  0  0  0  0  0  0  0  0  0  0
   -3.0962    2.1164   -1.4111 H   0  0  0  0  0  0  0  0  0  0  0  0
   -7.3859    1.0961   -3.0304 O   0  0  0  0  0  1  0  0  0  0  0  0
  1  2  1  0  0  0  0
  1 35  1  0  0  0  0
  1 36  1  0  0  0  0
  1 37  1  0  0  0  0
  2  6  1  0  0  0  0
  2  3  2  0  0  0  0
  3  4  1  0  0  0  0
  3  7  1  0  0  0  0
  4  5  1  0  0  0  0
  5  6  2  0  0  0  0
  5 38  1  0  0  0  0
  7  8  2  0  0  0  0
  7 39  1  0  0  0  0
  8  9  1  0  0  0  0
  8 40  1  0  0  0  0
  9 32  1  0  0  0  0
  9 10  2  0  0  0  0
 10 11  1  0  0  0  0
 10 33  1  0  0  0  0
 11 16  1  0  0  0  0
 11 12  1  0  0  0  0
 12 13  1  6  0  0  0
 12 14  1  0  0  0  0
 12 31  1  0  0  0  0
 14 15  1  1  0  0  0
 14 16  1  0  0  0  0
 14 18  1  0  0  0  0
 16 17  2  0  0  0  0
 18 19  1  0  0  0  0
 18 41  1  0  0  0  0
 19 20  2  0  0  0  0
 19 21  1  0  0  0  0
 21 22  2  0  0  0  0
 21 25  1  0  0  0  0
 22 23  1  0  0  0  0
 23 24  1  0  0  0  0
 24 42  1  0  0  0  0
 24 43  1  0  0  0  0
 24 44  1  0  0  0  0
 25 29  1  0  0  0  0
 25 26  2  0  0  0  0
 26 27  1  0  0  0  0
 26 45  1  0  0  0  0
 27 28  1  0  0  0  0
 28 29  2  0  0  0  0
 28 30  1  0  0  0  0
 30 46  1  0  0  0  0
 30 47  1  0  0  0  0
 31 32  1  0  0  0  0
 32 48  1  0  0  0  0
 32 49  1  0  0  0  0
 33 34  2  0  0  0  0
 33 50  1  0  0  0  0
M  END
$$$$
