ZINC03927198
 OpenBabel08292219463D

 38 40  0  0  1  0  0  0  0  0999 V2000
    0.0089    1.1851    0.2311 C   0  0  0  0  0  0  0  0  0  0  0  0
    0.0374   -0.1490    0.1811 C   0  0  0  0  0  0  0  0  0  0  0  0
    1.3181   -0.8511    0.1301 C   0  0  0  0  0  0  0  0  0  0  0  0
    1.2614   -2.1959    0.1932 C   0  0  0  0  0  0  0  0  0  0  0  0
    2.4306   -2.9636    0.0752 N   0  0  0  0  0  0  0  0  0  0  0  0
    3.8307   -2.4935    0.2335 C   0  0  1  0  0  0  0  0  0  0  0  0
    4.2005   -2.4617    1.2584 H   0  0  0  0  0  0  0  0  0  0  0  0
    4.2296   -3.7238   -0.5532 C   0  0  1  0  0  0  0  0  0  0  0  0
    5.0027   -4.3254   -0.0751 H   0  0  0  0  0  0  0  0  0  0  0  0
    2.8272   -4.1826   -0.2608 C   0  0  0  0  0  0  0  0  0  0  0  0
    2.2710   -5.2593   -0.3124 O   0  0  0  0  0  0  0  0  0  0  0  0
    4.4940   -3.4662   -1.9709 N   0  0  0  0  0  0  0  0  0  0  0  0
    5.3099   -4.2851   -2.6639 C   0  0  0  0  0  0  0  0  0  0  0  0
    5.7496   -5.2897   -2.1406 O   0  0  0  0  0  0  0  0  0  0  0  0
    5.6706   -3.9604   -4.0640 C   0  0  0  0  0  0  0  0  0  0  0  0
    6.5423   -4.6918   -4.6985 N   0  0  0  0  0  0  0  0  0  0  0  0
    7.0637   -5.8593   -4.0902 O   0  0  0  0  0  0  0  0  0  0  0  0
    5.0413   -2.8061   -4.7410 C   0  0  0  0  0  0  0  0  0  0  0  0
    5.2793   -2.5665   -6.0680 C   0  0  0  0  0  0  0  0  0  0  0  0
    4.2907   -1.0992   -6.3247 S   0  0  0  0  0  0  0  0  0  0  0  0
    3.6655   -0.9526   -4.6569 C   0  0  0  0  0  0  0  0  0  0  0  0
    4.2311   -1.9895   -4.0687 N   0  0  0  0  0  0  0  0  0  0  0  0
    2.8093   -0.0037   -4.1237 N   0  0  0  0  0  0  0  0  0  0  0  0
    3.9405   -0.8989   -0.6473 S   0  0  0  0  0  0  0  0  0  0  0  0
    2.5358    0.0070    0.0082 C   0  0  0  0  0  0  0  0  0  0  0  0
   -0.0283   -2.8608    0.3867 C   0  0  0  0  0  0  0  0  0  0  0  0
   -0.6609   -3.2638   -0.5816 O   0  0  0  0  0  0  0  0  0  0  0  0
   -0.4748   -3.0142    1.5168 O   0  0  0  0  0  1  0  0  0  0  0  0
    0.9322    1.7452    0.2339 H   0  0  0  0  0  0  0  0  0  0  0  0
   -0.9377    1.7041    0.2643 H   0  0  0  0  0  0  0  0  0  0  0  0
   -0.8860   -0.7092    0.1783 H   0  0  0  0  0  0  0  0  0  0  0  0
    4.0819   -2.7063   -2.4109 H   0  0  0  0  0  0  0  0  0  0  0  0
    7.7032   -6.3357   -4.6371 H   0  0  0  0  0  0  0  0  0  0  0  0
    5.8950   -3.1131   -6.7670 H   0  0  0  0  0  0  0  0  0  0  0  0
    2.4649    0.7086   -4.6848 H   0  0  0  0  0  0  0  0  0  0  0  0
    2.5540   -0.0515   -3.1892 H   0  0  0  0  0  0  0  0  0  0  0  0
    2.3121    0.8503   -0.6453 H   0  0  0  0  0  0  0  0  0  0  0  0
    2.8038    0.3854    0.9946 H   0  0  0  0  0  0  0  0  0  0  0  0
  1  2  2  0  0  0  0
  1 29  1  0  0  0  0
  1 30  1  0  0  0  0
  2  3  1  0  0  0  0
  2 31  1  0  0  0  0
  3 25  1  0  0  0  0
  3  4  2  0  0  0  0
  4  5  1  0  0  0  0
  4 26  1  0  0  0  0
  5 10  1  0  0  0  0
  5  6  1  0  0  0  0
  6  7  1  1  0  0  0
  6  8  1  0  0  0  0
  6 24  1  0  0  0  0
  8  9  1  1  0  0  0
  8 10  1  0  0  0  0
  8 12  1  0  0  0  0
 10 11  2  0  0  0  0
 12 13  1  0  0  0  0
 12 32  1  0  0  0  0
 13 14  2  0  0  0  0
 13 15  1  0  0  0  0
 15 16  2  0  0  0  0
 15 18  1  0  0  0  0
 16 17  1  0  0  0  0
 17 33  1  0  0  0  0
 18 22  1  0  0  0  0
 18 19  2  0  0  0  0
 19 20  1  0  0  0  0
 19 34  1  0  0  0  0
 20 21  1  0  0  0  0
 21 22  2  0  0  0  0
 21 23  1  0  0  0  0
 23 35  1  0  0  0  0
 23 36  1  0  0  0  0
 24 25  1  0  0  0  0
 25 37  1  0  0  0  0
 25 38  1  0  0  0  0
 26 27  2  0  0  0  0
 26 28  1  0  0  0  0
M  END
$$$$
