ZINC19685788
 OpenBabel08292219463D

 87 90  0  0  1  0  0  0  0  0999 V2000
   11.7239    7.2379   -2.4407 C   0  0  0  0  0  0  0  0  0  0  0  0
   11.1897    5.8322   -2.5391 C   0  0  0  0  0  0  0  0  0  0  0  0
   12.0317    4.8193   -2.8074 C   0  0  0  0  0  0  0  0  0  0  0  0
   11.5443    3.3993   -2.9002 C   0  0  2  0  0  0  0  0  0  0  0  0
   12.0059    2.9262   -3.7794 H   0  0  0  0  0  0  0  0  0  0  0  0
   10.0510    3.3611   -3.0608 C   0  0  0  0  0  0  0  0  0  0  0  0
    9.2885    4.4325   -2.7823 C   0  0  0  0  0  0  0  0  0  0  0  0
    9.8537    5.6025   -2.3537 N   0  0  0  0  0  0  0  0  0  0  0  0
    7.7928    4.3438   -2.9437 C   0  0  0  0  0  0  0  0  0  0  0  0
    9.4338    2.1703   -3.5091 C   0  0  0  0  0  0  0  0  0  0  0  0
    9.4402    1.8902   -4.6932 O   0  0  0  0  0  0  0  0  0  0  0  0
    8.8376    1.3447   -2.6236 O   0  0  0  0  0  0  0  0  0  0  0  0
    8.2826    0.1328   -3.1386 C   0  0  0  0  0  0  0  0  0  0  0  0
    9.3779   -0.6713   -3.8420 C   0  0  0  0  0  0  0  0  0  0  0  0
    7.1721    0.4644   -4.1375 C   0  0  0  0  0  0  0  0  0  0  0  0
    7.7035   -0.6925   -1.9877 C   0  0  0  0  0  0  0  0  0  0  0  0
    8.7943   -1.1533   -1.1184 N   0  3  1  0  0  0  0  0  0  0  0  0
    9.3361   -0.0449   -0.3210 C   0  0  0  0  0  0  0  0  0  0  0  0
    8.3493   -2.2550   -0.2545 C   0  0  0  0  0  0  0  0  0  0  0  0
    9.5535   -2.8416    0.4850 C   0  0  0  0  0  0  0  0  0  0  0  0
    9.0773   -3.9199    1.4603 C   0  0  0  0  0  0  0  0  0  0  0  0
   10.2483   -4.4219    2.2651 C   0  0  0  0  0  0  0  0  0  0  0  0
   10.0962   -4.6923    3.6122 C   0  0  0  0  0  0  0  0  0  0  0  0
   11.1704   -5.1527    4.3504 C   0  0  0  0  0  0  0  0  0  0  0  0
   12.3967   -5.3429    3.7415 C   0  0  0  0  0  0  0  0  0  0  0  0
   12.5488   -5.0730    2.3943 C   0  0  0  0  0  0  0  0  0  0  0  0
   11.4746   -4.6125    1.6561 C   0  0  0  0  0  0  0  0  0  0  0  0
    8.4712   -5.0634    0.6882 C   0  0  0  0  0  0  0  0  0  0  0  0
    9.2539   -5.8050   -0.1768 C   0  0  0  0  0  0  0  0  0  0  0  0
    8.6993   -6.8573   -0.8811 C   0  0  0  0  0  0  0  0  0  0  0  0
    7.3594   -7.1610   -0.7286 C   0  0  0  0  0  0  0  0  0  0  0  0
    6.5753   -6.4158    0.1322 C   0  0  0  0  0  0  0  0  0  0  0  0
    7.1313   -5.3672    0.8408 C   0  0  0  0  0  0  0  0  0  0  0  0
   11.9279    2.6553   -1.6471 C   0  0  0  0  0  0  0  0  0  0  0  0
   11.5361    3.1350   -0.4110 C   0  0  0  0  0  0  0  0  0  0  0  0
   11.8837    2.4500    0.7380 C   0  0  0  0  0  0  0  0  0  0  0  0
   12.6323    1.2907    0.6519 C   0  0  0  0  0  0  0  0  0  0  0  0
   13.0284    0.8141   -0.5834 C   0  0  0  0  0  0  0  0  0  0  0  0
   12.6762    1.4964   -1.7331 C   0  0  0  0  0  0  0  0  0  0  0  0
   13.8302   -0.4268   -0.6756 N   0  0  0  0  0  4  0  0  0  0  0  0
   14.0996   -0.8982   -1.7658 O   0  0  0  0  0  0  0  0  0  0  0  0
   14.2205   -0.9763    0.3389 O   0  5  0  0  0  0  0  0  0  0  0  0
   13.4053    5.0943   -3.0009 C   0  0  0  0  0  0  0  0  0  0  0  0
   13.8135    6.2380   -2.9239 O   0  0  0  0  0  0  0  0  0  0  0  0
   14.2633    4.0883   -3.2710 O   0  0  0  0  0  0  0  0  0  0  0  0
   15.6365    4.4386   -3.4550 C   0  0  0  0  0  0  0  0  0  0  0  0
   12.8097    7.2307   -2.6168 H   0  0  0  0  0  0  0  0  0  0  0  0
   11.5178    7.6390   -1.4374 H   0  0  0  0  0  0  0  0  0  0  0  0
   11.2341    7.8700   -3.1960 H   0  0  0  0  0  0  0  0  0  0  0  0
    9.2289    6.3602   -1.8581 H   0  0  0  0  0  0  0  0  0  0  0  0
    7.3370    5.3076   -2.6728 H   0  0  0  0  0  0  0  0  0  0  0  0
    7.3993    3.5544   -2.2865 H   0  0  0  0  0  0  0  0  0  0  0  0
    7.5504    4.1047   -3.9897 H   0  0  0  0  0  0  0  0  0  0  0  0
    8.9506   -1.6042   -4.2384 H   0  0  0  0  0  0  0  0  0  0  0  0
   10.1762   -0.9098   -3.1238 H   0  0  0  0  0  0  0  0  0  0  0  0
    9.7942   -0.0780   -4.6694 H   0  0  0  0  0  0  0  0  0  0  0  0
    6.7449   -0.4685   -4.5339 H   0  0  0  0  0  0  0  0  0  0  0  0
    7.5884    1.0577   -4.9650 H   0  0  0  0  0  0  0  0  0  0  0  0
    6.3846    1.0424   -3.6318 H   0  0  0  0  0  0  0  0  0  0  0  0
    7.0076   -0.0712   -1.4048 H   0  0  0  0  0  0  0  0  0  0  0  0
    7.1662   -1.5621   -2.3941 H   0  0  0  0  0  0  0  0  0  0  0  0
   10.1494   -0.4172    0.3193 H   0  0  0  0  0  0  0  0  0  0  0  0
    8.5389    0.3784    0.3077 H   0  0  0  0  0  0  0  0  0  0  0  0
    9.7257    0.7340   -0.9930 H   0  0  0  0  0  0  0  0  0  0  0  0
    7.6193   -1.8762    0.4760 H   0  0  0  0  0  0  0  0  0  0  0  0
    7.8803   -3.0370   -0.8698 H   0  0  0  0  0  0  0  0  0  0  0  0
   10.2492   -3.2861   -0.2419 H   0  0  0  0  0  0  0  0  0  0  0  0
   10.0659   -2.0436    1.0423 H   0  0  0  0  0  0  0  0  0  0  0  0
    8.3212   -3.5080    2.1449 H   0  0  0  0  0  0  0  0  0  0  0  0
    9.1381   -4.5434    4.0880 H   0  0  0  0  0  0  0  0  0  0  0  0
   11.0516   -5.3636    5.4029 H   0  0  0  0  0  0  0  0  0  0  0  0
   13.2372   -5.6980    4.3193 H   0  0  0  0  0  0  0  0  0  0  0  0
   13.5070   -5.2212    1.9186 H   0  0  0  0  0  0  0  0  0  0  0  0
   11.5934   -4.4016    0.6036 H   0  0  0  0  0  0  0  0  0  0  0  0
   10.2998   -5.5649   -0.2994 H   0  0  0  0  0  0  0  0  0  0  0  0
    9.3119   -7.4397   -1.5533 H   0  0  0  0  0  0  0  0  0  0  0  0
    6.9251   -7.9808   -1.2816 H   0  0  0  0  0  0  0  0  0  0  0  0
    5.5285   -6.6532    0.2514 H   0  0  0  0  0  0  0  0  0  0  0  0
    6.5188   -4.7850    1.5132 H   0  0  0  0  0  0  0  0  0  0  0  0
   10.9551    4.0429   -0.3435 H   0  0  0  0  0  0  0  0  0  0  0  0
   11.5745    2.8227    1.7033 H   0  0  0  0  0  0  0  0  0  0  0  0
   12.9077    0.7579    1.5500 H   0  0  0  0  0  0  0  0  0  0  0  0
   12.9860    1.1241   -2.6984 H   0  0  0  0  0  0  0  0  0  0  0  0
   16.2211    3.5313   -3.6671 H   0  0  0  0  0  0  0  0  0  0  0  0
   16.0189    4.9157   -2.5406 H   0  0  0  0  0  0  0  0  0  0  0  0
   15.7265    5.1384   -4.2989 H   0  0  0  0  0  0  0  0  0  0  0  0
    9.6017   -1.5330   -1.7617 H   0  0  0  0  0  0  0  0  0  0  0  0
  1  2  1  0  0  0  0
  1 47  1  0  0  0  0
  1 48  1  0  0  0  0
  1 49  1  0  0  0  0
  2  8  1  0  0  0  0
  2  3  2  0  0  0  0
  3  4  1  0  0  0  0
  3 43  1  0  0  0  0
  4  5  1  6  0  0  0
  4  6  1  0  0  0  0
  4 34  1  0  0  0  0
  6  7  2  0  0  0  0
  6 10  1  0  0  0  0
  7  8  1  0  0  0  0
  7  9  1  0  0  0  0
  8 50  1  0  0  0  0
  9 51  1  0  0  0  0
  9 52  1  0  0  0  0
  9 53  1  0  0  0  0
 10 11  2  0  0  0  0
 10 12  1  0  0  0  0
 12 13  1  0  0  0  0
 13 14  1  0  0  0  0
 13 15  1  0  0  0  0
 13 16  1  0  0  0  0
 14 54  1  0  0  0  0
 14 55  1  0  0  0  0
 14 56  1  0  0  0  0
 15 57  1  0  0  0  0
 15 58  1  0  0  0  0
 15 59  1  0  0  0  0
 16 17  1  0  0  0  0
 16 60  1  0  0  0  0
 16 61  1  0  0  0  0
 17 18  1  0  0  0  0
 17 19  1  0  0  0  0
 17 87  1  6  0  0  0
 18 62  1  0  0  0  0
 18 63  1  0  0  0  0
 18 64  1  0  0  0  0
 19 20  1  0  0  0  0
 19 65  1  0  0  0  0
 19 66  1  0  0  0  0
 20 21  1  0  0  0  0
 20 67  1  0  0  0  0
 20 68  1  0  0  0  0
 21 22  1  0  0  0  0
 21 28  1  0  0  0  0
 21 69  1  0  0  0  0
 22 27  2  0  0  0  0
 22 23  1  0  0  0  0
 23 24  2  0  0  0  0
 23 70  1  0  0  0  0
 24 25  1  0  0  0  0
 24 71  1  0  0  0  0
 25 26  2  0  0  0  0
 25 72  1  0  0  0  0
 26 27  1  0  0  0  0
 26 73  1  0  0  0  0
 27 74  1  0  0  0  0
 28 33  2  0  0  0  0
 28 29  1  0  0  0  0
 29 30  2  0  0  0  0
 29 75  1  0  0  0  0
 30 31  1  0  0  0  0
 30 76  1  0  0  0  0
 31 32  2  0  0  0  0
 31 77  1  0  0  0  0
 32 33  1  0  0  0  0
 32 78  1  0  0  0  0
 33 79  1  0  0  0  0
 34 39  2  0  0  0  0
 34 35  1  0  0  0  0
 35 36  2  0  0  0  0
 35 80  1  0  0  0  0
 36 37  1  0  0  0  0
 36 81  1  0  0  0  0
 37 38  2  0  0  0  0
 37 82  1  0  0  0  0
 38 39  1  0  0  0  0
 38 40  1  0  0  0  0
 39 83  1  0  0  0  0
 40 41  2  0  0  0  0
 40 42  1  0  0  0  0
 43 44  2  0  0  0  0
 43 45  1  0  0  0  0
 45 46  1  0  0  0  0
 46 84  1  0  0  0  0
 46 85  1  0  0  0  0
 46 86  1  0  0  0  0
M  CHG  2  17   1  42  -1
M  END
$$$$
