ZINC34967244
 OpenBabel08292219463D

 61 63  0  0  1  0  0  0  0  0999 V2000
   -0.0187    1.5258    0.0104 C   0  0  0  0  0  0  0  0  0  0  0  0
    0.0021   -0.0041    0.0020 C   0  0  0  0  0  0  0  0  0  0  0  0
    0.9183   -0.5578   -1.1267 C   0  0  1  0  0  0  0  0  0  0  0  0
    1.7655    0.1146   -1.2616 H   0  0  0  0  0  0  0  0  0  0  0  0
    1.4152   -1.8973   -0.7968 N   0  0  0  0  0  0  0  0  0  0  0  0
    1.5639   -2.1961    0.6340 C   0  0  2  0  0  0  0  0  0  0  0  0
    1.1313   -3.1348    0.9800 H   0  0  0  0  0  0  0  0  0  0  0  0
    0.9226   -0.6800    1.4567 S   0  0  0  0  0  0  0  0  0  0  0  0
    3.0673   -2.2015    0.4210 C   0  0  1  0  0  0  0  0  0  0  0  0
    3.5574   -3.1223    0.7376 H   0  0  0  0  0  0  0  0  0  0  0  0
    2.7129   -2.1678   -1.0358 C   0  0  0  0  0  0  0  0  0  0  0  0
    3.3561   -2.3252   -2.0520 O   0  0  0  0  0  0  0  0  0  0  0  0
    3.7428   -0.9941    0.9027 N   0  0  0  0  0  0  0  0  0  0  0  0
    5.0446   -1.0426    1.2482 C   0  0  0  0  0  0  0  0  0  0  0  0
    5.6569   -2.0859    1.1604 O   0  0  0  0  0  0  0  0  0  0  0  0
    5.7395    0.1994    1.7437 C   0  0  1  0  0  0  0  0  0  0  0  0
    5.4088    1.0583    1.1597 H   0  0  0  0  0  0  0  0  0  0  0  0
    5.4011    0.4190    3.1957 C   0  0  0  0  0  0  0  0  0  0  0  0
    6.0648   -0.2951    4.1758 C   0  0  0  0  0  0  0  0  0  0  0  0
    5.7544   -0.0938    5.5077 C   0  0  0  0  0  0  0  0  0  0  0  0
    4.7805    0.8220    5.8596 C   0  0  0  0  0  0  0  0  0  0  0  0
    4.1175    1.5368    4.8796 C   0  0  0  0  0  0  0  0  0  0  0  0
    4.4309    1.3385    3.5479 C   0  0  0  0  0  0  0  0  0  0  0  0
    7.1924    0.0387    1.5985 N   0  0  0  0  0  0  0  0  0  0  0  0
    0.1332   -0.6267   -2.4112 C   0  0  0  0  0  0  0  0  0  0  0  0
   -0.3301   -1.6798   -2.7803 O   0  0  0  0  0  0  0  0  0  0  0  0
   -0.0513    0.4818   -3.1453 O   0  0  0  0  0  0  0  0  0  0  0  0
   -0.8053    0.3433   -4.3513 C   0  0  0  0  0  0  0  0  0  0  0  0
   -2.1920    0.2087   -4.0333 O   0  0  0  0  0  0  0  0  0  0  0  0
   -2.8400    1.3202   -3.6506 C   0  0  0  0  0  0  0  0  0  0  0  0
   -2.2496    2.3724   -3.5877 O   0  0  0  0  0  0  0  0  0  0  0  0
   -4.3041    1.2555   -3.2994 C   0  0  0  0  0  0  0  0  0  0  0  0
   -4.7947    2.6486   -2.8998 C   0  0  0  0  0  0  0  0  0  0  0  0
   -5.0980    0.7634   -4.5112 C   0  0  0  0  0  0  0  0  0  0  0  0
   -4.5060    0.2890   -2.1307 C   0  0  0  0  0  0  0  0  0  0  0  0
   -1.4126   -0.5802   -0.0861 C   0  0  0  0  0  0  0  0  0  0  0  0
    1.0039    1.9031    0.0027 H   0  0  0  0  0  0  0  0  0  0  0  0
   -0.5459    1.8868   -0.8726 H   0  0  0  0  0  0  0  0  0  0  0  0
   -0.5289    1.8773    0.9072 H   0  0  0  0  0  0  0  0  0  0  0  0
    3.2531   -0.1597    0.9729 H   0  0  0  0  0  0  0  0  0  0  0  0
    6.8256   -1.0107    3.9008 H   0  0  0  0  0  0  0  0  0  0  0  0
    6.2724   -0.6522    6.2733 H   0  0  0  0  0  0  0  0  0  0  0  0
    4.5375    0.9789    6.9001 H   0  0  0  0  0  0  0  0  0  0  0  0
    3.3564    2.2521    5.1546 H   0  0  0  0  0  0  0  0  0  0  0  0
    3.9155    1.8997    2.7825 H   0  0  0  0  0  0  0  0  0  0  0  0
    7.6779    0.8825    1.8637 H   0  0  0  0  0  0  0  0  0  0  0  0
    7.5238   -0.7517    2.1310 H   0  0  0  0  0  0  0  0  0  0  0  0
   -0.6594    1.2256   -4.9744 H   0  0  0  0  0  0  0  0  0  0  0  0
   -0.4686   -0.5421   -4.8906 H   0  0  0  0  0  0  0  0  0  0  0  0
   -4.6509    3.3371   -3.7324 H   0  0  0  0  0  0  0  0  0  0  0  0
   -5.8537    2.6018   -2.6458 H   0  0  0  0  0  0  0  0  0  0  0  0
   -4.2291    2.9992   -2.0365 H   0  0  0  0  0  0  0  0  0  0  0  0
   -4.7485   -0.2290   -4.7959 H   0  0  0  0  0  0  0  0  0  0  0  0
   -6.1570    0.7166   -4.2572 H   0  0  0  0  0  0  0  0  0  0  0  0
   -4.9542    1.4520   -5.3438 H   0  0  0  0  0  0  0  0  0  0  0  0
   -3.9405    0.6396   -1.2674 H   0  0  0  0  0  0  0  0  0  0  0  0
   -5.5650    0.2423   -1.8766 H   0  0  0  0  0  0  0  0  0  0  0  0
   -4.1565   -0.7034   -2.4153 H   0  0  0  0  0  0  0  0  0  0  0  0
   -1.8843   -0.2455   -1.0100 H   0  0  0  0  0  0  0  0  0  0  0  0
   -1.3627   -1.6690   -0.0774 H   0  0  0  0  0  0  0  0  0  0  0  0
   -1.9986   -0.2365    0.7662 H   0  0  0  0  0  0  0  0  0  0  0  0
  1  2  1  0  0  0  0
  1 37  1  0  0  0  0
  1 38  1  0  0  0  0
  1 39  1  0  0  0  0
  2  8  1  0  0  0  0
  2  3  1  0  0  0  0
  2 36  1  0  0  0  0
  3  4  1  6  0  0  0
  3  5  1  0  0  0  0
  3 25  1  0  0  0  0
  5 11  1  0  0  0  0
  5  6  1  0  0  0  0
  6  7  1  1  0  0  0
  6  8  1  0  0  0  0
  6  9  1  0  0  0  0
  9 10  1  1  0  0  0
  9 11  1  0  0  0  0
  9 13  1  0  0  0  0
 11 12  2  0  0  0  0
 13 14  1  0  0  0  0
 13 40  1  0  0  0  0
 14 15  2  0  0  0  0
 14 16  1  0  0  0  0
 16 17  1  6  0  0  0
 16 18  1  0  0  0  0
 16 24  1  0  0  0  0
 18 23  2  0  0  0  0
 18 19  1  0  0  0  0
 19 20  2  0  0  0  0
 19 41  1  0  0  0  0
 20 21  1  0  0  0  0
 20 42  1  0  0  0  0
 21 22  2  0  0  0  0
 21 43  1  0  0  0  0
 22 23  1  0  0  0  0
 22 44  1  0  0  0  0
 23 45  1  0  0  0  0
 24 46  1  0  0  0  0
 24 47  1  0  0  0  0
 25 26  2  0  0  0  0
 25 27  1  0  0  0  0
 27 28  1  0  0  0  0
 28 29  1  0  0  0  0
 28 48  1  0  0  0  0
 28 49  1  0  0  0  0
 29 30  1  0  0  0  0
 30 31  2  0  0  0  0
 30 32  1  0  0  0  0
 32 33  1  0  0  0  0
 32 34  1  0  0  0  0
 32 35  1  0  0  0  0
 33 50  1  0  0  0  0
 33 51  1  0  0  0  0
 33 52  1  0  0  0  0
 34 53  1  0  0  0  0
 34 54  1  0  0  0  0
 34 55  1  0  0  0  0
 35 56  1  0  0  0  0
 35 57  1  0  0  0  0
 35 58  1  0  0  0  0
 36 59  1  0  0  0  0
 36 60  1  0  0  0  0
 36 61  1  0  0  0  0
M  END
$$$$
