ZINC03918453
 OpenBabel08292219463D

 57 60  0  0  1  0  0  0  0  0999 V2000
    0.7641    0.2646   -2.9834 C   0  0  0  0  0  0  0  0  0  0  0  0
    1.2318    1.2822   -1.9409 C   0  0  2  0  0  0  0  0  0  0  0  0
    2.2555    1.5952   -2.1459 H   0  0  0  0  0  0  0  0  0  0  0  0
    1.1249    0.6890   -0.5260 C   0  0  2  0  0  0  0  0  0  0  0  0
    2.0814    0.5975   -0.0113 H   0  0  0  0  0  0  0  0  0  0  0  0
    0.2142   -0.5301   -0.4035 C   0  0  2  0  0  0  0  0  0  0  0  0
   -0.1992   -0.8798   -1.3495 H   0  0  0  0  0  0  0  0  0  0  0  0
   -0.6622    0.4463    0.3346 C   0  0  0  0  0  0  0  0  0  0  0  0
   -1.7258    0.3094    0.9018 O   0  0  0  0  0  0  0  0  0  0  0  0
    0.1287    1.5241    0.1554 N   0  0  0  0  0  0  0  0  0  0  0  0
   -0.2834    2.5495   -0.7115 C   0  0  0  0  0  0  0  0  0  0  0  0
    0.2911    2.4648   -1.9277 C   0  0  0  0  0  0  0  0  0  0  0  0
    0.0059    3.5633   -3.2755 S   0  0  0  0  0  0  0  0  0  0  0  0
    1.6735    4.2320   -3.4942 C   0  0  1  0  0  0  0  0  0  0  0  0
    2.4087    3.4297   -3.5560 H   0  0  0  0  0  0  0  0  0  0  0  0
    1.7451    5.1488   -4.7437 C   0  0  0  0  0  0  0  0  0  0  0  0
    2.9069    6.1068   -4.4059 C   0  0  1  0  0  0  0  0  0  0  0  0
    3.8263    5.7539   -4.8730 H   0  0  0  0  0  0  0  0  0  0  0  0
    2.0272    5.2236   -2.3579 C   0  0  0  0  0  0  0  0  0  0  0  0
    2.5845    7.4957   -4.8938 C   0  0  0  0  0  0  0  0  0  0  0  0
    2.1718    8.3308   -4.1171 O   0  0  0  0  0  0  0  0  0  0  0  0
    2.7547    7.8098   -6.1934 N   0  0  0  0  0  0  0  0  0  0  0  0
    2.3596    9.0660   -6.6672 C   0  0  0  0  0  0  0  0  0  0  0  0
    1.8399    9.1929   -7.9501 C   0  0  0  0  0  0  0  0  0  0  0  0
    1.4428   10.4302   -8.4210 C   0  0  0  0  0  0  0  0  0  0  0  0
    1.5701   11.5502   -7.6247 C   0  0  0  0  0  0  0  0  0  0  0  0
    2.0963   11.4345   -6.3365 C   0  0  0  0  0  0  0  0  0  0  0  0
    2.4917   10.1842   -5.8593 C   0  0  0  0  0  0  0  0  0  0  0  0
    2.2342   12.6317   -5.4819 C   0  0  0  0  0  0  0  0  0  0  0  0
    2.6926   12.5288   -4.3617 O   0  0  0  0  0  0  0  0  0  0  0  0
   -1.2025    3.5616   -0.3475 C   0  0  0  0  0  0  0  0  0  0  0  0
   -1.7535    3.5219    0.7372 O   0  0  0  0  0  0  0  0  0  0  0  0
    0.7785   -1.6550    0.4667 C   0  0  1  0  0  0  0  0  0  0  0  0
    0.9488   -1.2824    1.4768 H   0  0  0  0  0  0  0  0  0  0  0  0
   -0.2192   -2.8141    0.5121 C   0  0  0  0  0  0  0  0  0  0  0  0
    2.0141   -2.1115   -0.0873 O   0  0  0  0  0  0  0  0  0  0  0  0
   -0.2743   -0.0037   -2.7888 H   0  0  0  0  0  0  0  0  0  0  0  0
    0.8463    0.7006   -3.9790 H   0  0  0  0  0  0  0  0  0  0  0  0
    1.3870   -0.6279   -2.9250 H   0  0  0  0  0  0  0  0  0  0  0  0
    1.9730    4.5665   -5.6365 H   0  0  0  0  0  0  0  0  0  0  0  0
    0.8131    5.6992   -4.8718 H   0  0  0  0  0  0  0  0  0  0  0  0
    1.1477    5.7991   -2.0690 H   0  0  0  0  0  0  0  0  0  0  0  0
    2.4303    4.6878   -1.4985 H   0  0  0  0  0  0  0  0  0  0  0  0
    3.1511    7.1652   -6.8002 H   0  0  0  0  0  0  0  0  0  0  0  0
    1.7422    8.3208   -8.5798 H   0  0  0  0  0  0  0  0  0  0  0  0
    1.0356   10.5216   -9.4171 H   0  0  0  0  0  0  0  0  0  0  0  0
    1.2632   12.5160   -7.9980 H   0  0  0  0  0  0  0  0  0  0  0  0
    2.8997   10.0884   -4.8640 H   0  0  0  0  0  0  0  0  0  0  0  0
   -0.3895   -3.1867   -0.4980 H   0  0  0  0  0  0  0  0  0  0  0  0
    0.1828   -3.6154    1.1320 H   0  0  0  0  0  0  0  0  0  0  0  0
   -1.1617   -2.4658    0.9346 H   0  0  0  0  0  0  0  0  0  0  0  0
    1.9378   -2.4577   -0.9869 H   0  0  0  0  0  0  0  0  0  0  0  0
    3.0516    6.1092   -2.9423 N   0  3  0  0  0  0  0  0  0  0  0  0
    2.9258    7.0637   -2.5853 H   0  0  0  0  0  0  0  0  0  0  0  0
    3.9864    5.7691   -2.6880 H   0  0  0  0  0  0  0  0  0  0  0  0
    1.8517   13.8376   -5.9449 O   0  0  0  0  0  1  0  0  0  0  0  0
   -1.4685    4.5714   -1.2031 O   0  0  0  0  0  1  0  0  0  0  0  0
  1  2  1  0  0  0  0
  1 37  1  0  0  0  0
  1 38  1  0  0  0  0
  1 39  1  0  0  0  0
  2  3  1  6  0  0  0
  2 12  1  0  0  0  0
  2  4  1  0  0  0  0
  4  5  1  1  0  0  0
  4 10  1  0  0  0  0
  4  6  1  0  0  0  0
  6  7  1  6  0  0  0
  6  8  1  0  0  0  0
  6 33  1  0  0  0  0
  8  9  2  0  0  0  0
  8 10  1  0  0  0  0
 10 11  1  0  0  0  0
 11 12  2  0  0  0  0
 11 31  1  0  0  0  0
 12 13  1  0  0  0  0
 13 14  1  0  0  0  0
 14 15  1  6  0  0  0
 14 19  1  0  0  0  0
 14 16  1  0  0  0  0
 16 17  1  0  0  0  0
 16 40  1  0  0  0  0
 16 41  1  0  0  0  0
 17 18  1  6  0  0  0
 17 20  1  0  0  0  0
 17 53  1  0  0  0  0
 19 42  1  0  0  0  0
 19 43  1  0  0  0  0
 19 53  1  0  0  0  0
 20 21  2  0  0  0  0
 20 22  1  0  0  0  0
 22 23  1  0  0  0  0
 22 44  1  0  0  0  0
 23 28  2  0  0  0  0
 23 24  1  0  0  0  0
 24 25  2  0  0  0  0
 24 45  1  0  0  0  0
 25 26  1  0  0  0  0
 25 46  1  0  0  0  0
 26 27  2  0  0  0  0
 26 47  1  0  0  0  0
 27 28  1  0  0  0  0
 27 29  1  0  0  0  0
 28 48  1  0  0  0  0
 29 30  2  0  0  0  0
 29 56  1  0  0  0  0
 31 32  2  0  0  0  0
 31 57  1  0  0  0  0
 33 34  1  1  0  0  0
 33 35  1  0  0  0  0
 33 36  1  0  0  0  0
 35 49  1  0  0  0  0
 35 50  1  0  0  0  0
 35 51  1  0  0  0  0
 36 52  1  0  0  0  0
 53 54  1  0  0  0  0
 53 55  1  0  0  0  0
M  CHG  1  53   1
M  END
$$$$
