ZINC12484958
 OpenBabel08292219463D

 49 49  0  0  0  0  0  0  0  0999 V2000
   -5.2565    5.0221    2.7964 C   0  0  0  0  0  0  0  0  0  0  0  0
   -6.6832    5.2840    2.3879 C   0  0  0  0  0  0  0  0  0  0  0  0
   -6.9090    5.7397    1.1674 C   0  0  0  0  0  0  0  0  0  0  0  0
   -8.2769    6.0557    0.6362 C   0  0  0  0  0  0  0  0  0  0  0  0
   -9.3451    5.3821    1.5028 C   0  0  0  0  0  0  0  0  0  0  0  0
   -9.0593    5.7183    2.9715 C   0  0  0  0  0  0  0  0  0  0  0  0
   -7.7678    5.0124    3.3895 C   0  0  0  0  0  0  0  0  0  0  0  0
   -8.4883    7.5710    0.6487 C   0  0  0  0  0  0  0  0  0  0  0  0
   -8.3945    5.5419   -0.8002 C   0  0  0  0  0  0  0  0  0  0  0  0
   -5.7958    5.9469    0.3141 C   0  0  0  0  0  0  0  0  0  0  0  0
   -5.0118    4.8976   -0.0466 C   0  0  0  0  0  0  0  0  0  0  0  0
   -5.3902    3.5869    0.2951 C   0  0  0  0  0  0  0  0  0  0  0  0
   -4.5602    2.8126    1.0515 C   0  0  0  0  0  0  0  0  0  0  0  0
   -3.2997    3.2983    1.4306 C   0  0  0  0  0  0  0  0  0  0  0  0
   -2.4536    2.5090    2.1557 C   0  0  0  0  0  0  0  0  0  0  0  0
   -2.8706    1.2386    2.5803 C   0  0  0  0  0  0  0  0  0  0  0  0
   -2.2798    0.1208    2.0688 C   0  0  0  0  0  0  0  0  0  0  0  0
   -1.1894    0.2421    1.1837 C   0  0  0  0  0  0  0  0  0  0  0  0
   -0.8384    1.3421    0.7973 O   0  0  0  0  0  0  0  0  0  0  0  0
   -3.9712    1.1091    3.6015 C   0  0  0  0  0  0  0  0  0  0  0  0
   -6.7127    3.0378   -0.1745 C   0  0  0  0  0  0  0  0  0  0  0  0
   -4.8413    5.9167    3.2605 H   0  0  0  0  0  0  0  0  0  0  0  0
   -5.2279    4.1970    3.5081 H   0  0  0  0  0  0  0  0  0  0  0  0
   -4.6682    4.7631    1.9161 H   0  0  0  0  0  0  0  0  0  0  0  0
   -9.3093    4.3020    1.3608 H   0  0  0  0  0  0  0  0  0  0  0  0
  -10.3315    5.7551    1.2271 H   0  0  0  0  0  0  0  0  0  0  0  0
   -9.8841    5.3712    3.5938 H   0  0  0  0  0  0  0  0  0  0  0  0
   -8.9404    6.7959    3.0840 H   0  0  0  0  0  0  0  0  0  0  0  0
   -7.9454    3.9385    3.4474 H   0  0  0  0  0  0  0  0  0  0  0  0
   -7.4562    5.3784    4.3677 H   0  0  0  0  0  0  0  0  0  0  0  0
   -7.7951    8.0404   -0.0493 H   0  0  0  0  0  0  0  0  0  0  0  0
   -9.5122    7.7975    0.3515 H   0  0  0  0  0  0  0  0  0  0  0  0
   -8.3081    7.9547    1.6529 H   0  0  0  0  0  0  0  0  0  0  0  0
   -8.2421    4.4627   -0.8136 H   0  0  0  0  0  0  0  0  0  0  0  0
   -9.3861    5.7736   -1.1889 H   0  0  0  0  0  0  0  0  0  0  0  0
   -7.6391    6.0233   -1.4212 H   0  0  0  0  0  0  0  0  0  0  0  0
   -5.5711    6.9389   -0.0491 H   0  0  0  0  0  0  0  0  0  0  0  0
   -4.0979    5.0701   -0.5957 H   0  0  0  0  0  0  0  0  0  0  0  0
   -4.8732    1.8257    1.3586 H   0  0  0  0  0  0  0  0  0  0  0  0
   -2.9986    4.2965    1.1488 H   0  0  0  0  0  0  0  0  0  0  0  0
   -1.4635    2.8628    2.4025 H   0  0  0  0  0  0  0  0  0  0  0  0
   -2.6502   -0.8572    2.3385 H   0  0  0  0  0  0  0  0  0  0  0  0
   -3.5365    1.0580    4.5997 H   0  0  0  0  0  0  0  0  0  0  0  0
   -4.6310    1.9743    3.5363 H   0  0  0  0  0  0  0  0  0  0  0  0
   -4.5423    0.2013    3.4069 H   0  0  0  0  0  0  0  0  0  0  0  0
   -7.4917    3.3069    0.5389 H   0  0  0  0  0  0  0  0  0  0  0  0
   -6.9540    3.4571   -1.1513 H   0  0  0  0  0  0  0  0  0  0  0  0
   -6.6491    1.9524   -0.2507 H   0  0  0  0  0  0  0  0  0  0  0  0
   -0.5341   -0.8618    0.7643 O   0  0  0  0  0  1  0  0  0  0  0  0
  1  2  1  0  0  0  0
  1 22  1  0  0  0  0
  1 23  1  0  0  0  0
  1 24  1  0  0  0  0
  2  7  1  0  0  0  0
  2  3  2  0  0  0  0
  3  4  1  0  0  0  0
  3 10  1  0  0  0  0
  4  5  1  0  0  0  0
  4  8  1  0  0  0  0
  4  9  1  0  0  0  0
  5  6  1  0  0  0  0
  5 25  1  0  0  0  0
  5 26  1  0  0  0  0
  6  7  1  0  0  0  0
  6 27  1  0  0  0  0
  6 28  1  0  0  0  0
  7 29  1  0  0  0  0
  7 30  1  0  0  0  0
  8 31  1  0  0  0  0
  8 32  1  0  0  0  0
  8 33  1  0  0  0  0
  9 34  1  0  0  0  0
  9 35  1  0  0  0  0
  9 36  1  0  0  0  0
 10 11  2  0  0  0  0
 10 37  1  0  0  0  0
 11 12  1  0  0  0  0
 11 38  1  0  0  0  0
 12 13  2  0  0  0  0
 12 21  1  0  0  0  0
 13 14  1  0  0  0  0
 13 39  1  0  0  0  0
 14 15  2  0  0  0  0
 14 40  1  0  0  0  0
 15 16  1  0  0  0  0
 15 41  1  0  0  0  0
 16 17  2  0  0  0  0
 16 20  1  0  0  0  0
 17 18  1  0  0  0  0
 17 42  1  0  0  0  0
 18 19  2  0  0  0  0
 18 49  1  0  0  0  0
 20 43  1  0  0  0  0
 20 44  1  0  0  0  0
 20 45  1  0  0  0  0
 21 46  1  0  0  0  0
 21 47  1  0  0  0  0
 21 48  1  0  0  0  0
M  END
$$$$
