ZINC00001091
 OpenBabel08292219463D

 22 22  0  0  0  0  0  0  0  0999 V2000
   -0.0187    1.5258    0.0104 C   0  0  0  0  0  0  0  0  0  0  0  0
    0.0021   -0.0041    0.0020 C   0  0  0  0  0  0  0  0  0  0  0  0
    0.6709   -0.4649   -1.1737 O   0  0  0  0  0  0  0  0  0  0  0  0
    0.7757   -1.7971   -1.3346 C   0  0  0  0  0  0  0  0  0  0  0  0
    0.3122   -2.5480   -0.5000 O   0  0  0  0  0  0  0  0  0  0  0  0
    1.3951   -2.2979   -2.4218 N   0  0  0  0  0  0  0  0  0  0  0  0
    1.9733   -1.5576   -3.4470 C   0  0  0  0  0  0  0  0  0  0  0  0
    2.4791   -2.4107   -4.3303 C   0  0  0  0  0  0  0  0  0  0  0  0
    2.2274   -3.6963   -3.8754 N   0  0  0  0  0  0  0  0  0  0  0  0
    1.5680   -3.6044   -2.7039 C   0  0  0  0  0  0  0  0  0  0  0  0
    1.0384   -4.9185   -1.7429 S   0  0  0  0  0  0  0  0  0  0  0  0
    2.6158   -4.9382   -4.5485 C   0  0  0  0  0  0  0  0  0  0  0  0
    1.0039    1.9031    0.0027 H   0  0  0  0  0  0  0  0  0  0  0  0
   -0.5459    1.8868   -0.8726 H   0  0  0  0  0  0  0  0  0  0  0  0
   -0.5289    1.8773    0.9072 H   0  0  0  0  0  0  0  0  0  0  0  0
    0.5293   -0.3651    0.8851 H   0  0  0  0  0  0  0  0  0  0  0  0
   -1.0205   -0.3814    0.0098 H   0  0  0  0  0  0  0  0  0  0  0  0
    2.0052   -0.4801   -3.5134 H   0  0  0  0  0  0  0  0  0  0  0  0
    2.9952   -2.1493   -5.2423 H   0  0  0  0  0  0  0  0  0  0  0  0
    3.1405   -4.7011   -5.4740 H   0  0  0  0  0  0  0  0  0  0  0  0
    3.2717   -5.5151   -3.8965 H   0  0  0  0  0  0  0  0  0  0  0  0
    1.7241   -5.5225   -4.7758 H   0  0  0  0  0  0  0  0  0  0  0  0
  1  2  1  0  0  0  0
  1 13  1  0  0  0  0
  1 14  1  0  0  0  0
  1 15  1  0  0  0  0
  2  3  1  0  0  0  0
  2 16  1  0  0  0  0
  2 17  1  0  0  0  0
  3  4  1  0  0  0  0
  4  5  2  0  0  0  0
  4  6  1  0  0  0  0
  6 10  1  0  0  0  0
  6  7  1  0  0  0  0
  7  8  2  0  0  0  0
  7 18  1  0  0  0  0
  8  9  1  0  0  0  0
  8 19  1  0  0  0  0
  9 10  1  0  0  0  0
  9 12  1  0  0  0  0
 10 11  2  0  0  0  0
 12 20  1  0  0  0  0
 12 21  1  0  0  0  0
 12 22  1  0  0  0  0
M  END
$$$$
