ZINC01542199
 OpenBabel08292219463D

 46 48  0  0  0  0  0  0  0  0999 V2000
   -0.0187    1.5258    0.0104 C   0  0  0  0  0  0  0  0  0  0  0  0
    0.0021   -0.0041    0.0020 C   0  0  0  0  0  0  0  0  0  0  0  0
    0.6709   -0.4649   -1.1737 O   0  0  0  0  0  0  0  0  0  0  0  0
    0.7759   -1.7988   -1.3348 C   0  0  0  0  0  0  0  0  0  0  0  0
    0.3121   -2.5500   -0.4998 O   0  0  0  0  0  0  0  0  0  0  0  0
    1.4533   -2.3466   -2.5240 C   0  0  0  0  0  0  0  0  0  0  0  0
    1.5626   -3.7349   -2.7036 C   0  0  0  0  0  0  0  0  0  0  0  0
    2.1990   -4.2012   -3.8213 C   0  0  0  0  0  0  0  0  0  0  0  0
    2.7187   -3.2871   -4.7461 C   0  0  0  0  0  0  0  0  0  0  0  0
    2.5999   -1.9753   -4.5489 N   0  0  0  0  0  0  0  0  0  0  0  0
    1.9900   -1.4905   -3.4901 C   0  0  0  0  0  0  0  0  0  0  0  0
    3.3864   -3.7687   -5.9178 C   0  0  0  0  0  0  0  0  0  0  0  0
    3.9338   -4.1634   -6.8784 C   0  0  0  0  0  0  0  0  0  0  0  0
    4.6016   -4.6449   -8.0501 C   0  0  0  0  0  0  0  0  0  0  0  0
    4.7284   -6.0213   -8.2715 C   0  0  0  0  0  0  0  0  0  0  0  0
    5.3792   -6.4648   -9.3959 C   0  0  0  0  0  0  0  0  0  0  0  0
    5.9089   -5.5592  -10.3206 C   0  0  0  0  0  0  0  0  0  0  0  0
    5.7763   -4.1949  -10.1182 C   0  0  0  0  0  0  0  0  0  0  0  0
    5.1233   -3.7450   -8.9784 C   0  0  0  0  0  0  0  0  0  0  0  0
    6.2673   -3.1412  -11.0668 C   0  0  0  0  0  0  0  0  0  0  0  0
    7.4062   -3.6044  -11.9579 C   0  0  0  0  0  0  0  0  0  0  0  0
    6.9214   -4.7766  -12.8234 C   0  0  0  0  0  0  0  0  0  0  0  0
    6.7485   -6.2162  -11.7282 S   0  0  0  0  0  0  0  0  0  0  0  0
    5.1011   -2.7000  -11.9535 C   0  0  0  0  0  0  0  0  0  0  0  0
    6.7419   -1.9348  -10.2543 C   0  0  0  0  0  0  0  0  0  0  0  0
    1.0039    1.9031    0.0027 H   0  0  0  0  0  0  0  0  0  0  0  0
   -0.5459    1.8868   -0.8726 H   0  0  0  0  0  0  0  0  0  0  0  0
   -0.5289    1.8773    0.9072 H   0  0  0  0  0  0  0  0  0  0  0  0
    0.5293   -0.3651    0.8851 H   0  0  0  0  0  0  0  0  0  0  0  0
   -1.0205   -0.3814    0.0098 H   0  0  0  0  0  0  0  0  0  0  0  0
    1.1535   -4.4195   -1.9754 H   0  0  0  0  0  0  0  0  0  0  0  0
    2.2999   -5.2634   -3.9885 H   0  0  0  0  0  0  0  0  0  0  0  0
    1.9070   -0.4213   -3.3630 H   0  0  0  0  0  0  0  0  0  0  0  0
    4.3185   -6.7274   -7.5645 H   0  0  0  0  0  0  0  0  0  0  0  0
    5.4837   -7.5258   -9.5683 H   0  0  0  0  0  0  0  0  0  0  0  0
    5.0222   -2.6836   -8.8063 H   0  0  0  0  0  0  0  0  0  0  0  0
    7.7230   -2.7832  -12.6009 H   0  0  0  0  0  0  0  0  0  0  0  0
    8.2434   -3.9292  -11.3402 H   0  0  0  0  0  0  0  0  0  0  0  0
    5.9583   -4.5335  -13.2720 H   0  0  0  0  0  0  0  0  0  0  0  0
    7.6524   -4.9893  -13.6035 H   0  0  0  0  0  0  0  0  0  0  0  0
    4.3037   -2.2953  -11.3303 H   0  0  0  0  0  0  0  0  0  0  0  0
    5.4432   -1.9335  -12.6489 H   0  0  0  0  0  0  0  0  0  0  0  0
    4.7257   -3.5567  -12.5130 H   0  0  0  0  0  0  0  0  0  0  0  0
    7.5494   -2.2399   -9.5887 H   0  0  0  0  0  0  0  0  0  0  0  0
    7.1020   -1.1599  -10.9310 H   0  0  0  0  0  0  0  0  0  0  0  0
    5.9124   -1.5450   -9.6643 H   0  0  0  0  0  0  0  0  0  0  0  0
  1  2  1  0  0  0  0
  1 26  1  0  0  0  0
  1 27  1  0  0  0  0
  1 28  1  0  0  0  0
  2  3  1  0  0  0  0
  2 29  1  0  0  0  0
  2 30  1  0  0  0  0
  3  4  1  0  0  0  0
  4  5  2  0  0  0  0
  4  6  1  0  0  0  0
  6 11  2  0  0  0  0
  6  7  1  0  0  0  0
  7  8  2  0  0  0  0
  7 31  1  0  0  0  0
  8  9  1  0  0  0  0
  8 32  1  0  0  0  0
  9 10  2  0  0  0  0
  9 12  1  0  0  0  0
 10 11  1  0  0  0  0
 11 33  1  0  0  0  0
 12 13  3  0  0  0  0
 13 14  1  0  0  0  0
 14 19  2  0  0  0  0
 14 15  1  0  0  0  0
 15 16  2  0  0  0  0
 15 34  1  0  0  0  0
 16 17  1  0  0  0  0
 16 35  1  0  0  0  0
 17 23  1  0  0  0  0
 17 18  2  0  0  0  0
 18 19  1  0  0  0  0
 18 20  1  0  0  0  0
 19 36  1  0  0  0  0
 20 21  1  0  0  0  0
 20 24  1  0  0  0  0
 20 25  1  0  0  0  0
 21 22  1  0  0  0  0
 21 37  1  0  0  0  0
 21 38  1  0  0  0  0
 22 23  1  0  0  0  0
 22 39  1  0  0  0  0
 22 40  1  0  0  0  0
 24 41  1  0  0  0  0
 24 42  1  0  0  0  0
 24 43  1  0  0  0  0
 25 44  1  0  0  0  0
 25 45  1  0  0  0  0
 25 46  1  0  0  0  0
M  END
$$$$
