ZINC00014037
 OpenBabel08292219463D

 41 42  0  0  1  0  0  0  0  0999 V2000
   -0.7317    1.3741   -5.1605 C   0  0  0  0  0  0  0  0  0  0  0  0
   -0.1575    1.5829   -3.7578 C   0  0  0  0  0  0  0  0  0  0  0  0
    0.5403    0.3679   -3.3298 N   0  0  0  0  0  0  0  0  0  0  0  0
    1.9775    0.2240   -3.5744 C   0  0  0  0  0  0  0  0  0  0  0  0
    2.7563    0.7836   -2.3823 C   0  0  0  0  0  0  0  0  0  0  0  0
   -0.1400   -0.6174   -2.7111 C   0  0  0  0  0  0  0  0  0  0  0  0
    0.4518   -1.5829   -2.2770 O   0  0  0  0  0  0  0  0  0  0  0  0
   -1.6361   -0.5194   -2.5588 C   0  0  2  0  0  0  0  0  0  0  0  0
   -2.4276   -1.8276   -2.5021 C   0  0  0  0  0  0  0  0  0  0  0  0
   -2.4969   -0.9449   -3.7499 C   0  0  2  0  0  0  0  0  0  0  0  0
   -3.4206   -0.3937   -3.9258 H   0  0  0  0  0  0  0  0  0  0  0  0
   -1.7729   -1.4374   -5.0046 C   0  0  0  0  0  0  0  0  0  0  0  0
   -2.7524   -1.6779   -6.0726 N   0  3  0  0  0  0  0  0  0  0  0  0
   -2.1300    0.6302   -1.7188 C   0  0  0  0  0  0  0  0  0  0  0  0
   -3.1039    1.4781   -2.2120 C   0  0  0  0  0  0  0  0  0  0  0  0
   -3.5570    2.5326   -1.4415 C   0  0  0  0  0  0  0  0  0  0  0  0
   -3.0364    2.7389   -0.1776 C   0  0  0  0  0  0  0  0  0  0  0  0
   -2.0631    1.8904    0.3160 C   0  0  0  0  0  0  0  0  0  0  0  0
   -1.6131    0.8333   -0.4529 C   0  0  0  0  0  0  0  0  0  0  0  0
   -0.0592    0.7394   -5.7375 H   0  0  0  0  0  0  0  0  0  0  0  0
   -1.7081    0.8956   -5.0858 H   0  0  0  0  0  0  0  0  0  0  0  0
   -0.8367    2.3385   -5.6574 H   0  0  0  0  0  0  0  0  0  0  0  0
    0.5429    2.4181   -3.7725 H   0  0  0  0  0  0  0  0  0  0  0  0
   -0.9679    1.8006   -3.0621 H   0  0  0  0  0  0  0  0  0  0  0  0
    2.2202   -0.8307   -3.7041 H   0  0  0  0  0  0  0  0  0  0  0  0
    2.2494    0.7729   -4.4760 H   0  0  0  0  0  0  0  0  0  0  0  0
    2.5137    1.8383   -2.2526 H   0  0  0  0  0  0  0  0  0  0  0  0
    2.4844    0.2347   -1.4806 H   0  0  0  0  0  0  0  0  0  0  0  0
    3.8257    0.6765   -2.5642 H   0  0  0  0  0  0  0  0  0  0  0  0
   -1.8662   -2.7590   -2.5750 H   0  0  0  0  0  0  0  0  0  0  0  0
   -3.3057   -1.8569   -1.8570 H   0  0  0  0  0  0  0  0  0  0  0  0
   -1.0574   -0.6826   -5.3310 H   0  0  0  0  0  0  0  0  0  0  0  0
   -1.2457   -2.3645   -4.7796 H   0  0  0  0  0  0  0  0  0  0  0  0
   -3.2404   -0.8197   -6.2809 H   0  0  0  0  0  0  0  0  0  0  0  0
   -2.2750   -2.0026   -6.9000 H   0  0  0  0  0  0  0  0  0  0  0  0
   -3.5107    1.3170   -3.1994 H   0  0  0  0  0  0  0  0  0  0  0  0
   -4.3174    3.1956   -1.8270 H   0  0  0  0  0  0  0  0  0  0  0  0
   -3.3899    3.5632    0.4241 H   0  0  0  0  0  0  0  0  0  0  0  0
   -1.6561    2.0517    1.3032 H   0  0  0  0  0  0  0  0  0  0  0  0
   -0.8554    0.1682   -0.0658 H   0  0  0  0  0  0  0  0  0  0  0  0
   -3.4147   -2.3766   -5.7704 H   0  0  0  0  0  0  0  0  0  0  0  0
  1  2  1  0  0  0  0
  1 20  1  0  0  0  0
  1 21  1  0  0  0  0
  1 22  1  0  0  0  0
  2  3  1  0  0  0  0
  2 23  1  0  0  0  0
  2 24  1  0  0  0  0
  3  4  1  0  0  0  0
  3  6  1  0  0  0  0
  4  5  1  0  0  0  0
  4 25  1  0  0  0  0
  4 26  1  0  0  0  0
  5 27  1  0  0  0  0
  5 28  1  0  0  0  0
  5 29  1  0  0  0  0
  6  7  2  0  0  0  0
  8  6  1  6  0  0  0
  8 10  1  0  0  0  0
  8  9  1  0  0  0  0
  8 14  1  0  0  0  0
  9 10  1  0  0  0  0
  9 30  1  0  0  0  0
  9 31  1  0  0  0  0
 10 11  1  6  0  0  0
 10 12  1  0  0  0  0
 12 13  1  0  0  0  0
 12 32  1  0  0  0  0
 12 33  1  0  0  0  0
 13 34  1  0  0  0  0
 13 35  1  0  0  0  0
 13 41  1  0  0  0  0
 14 19  2  0  0  0  0
 14 15  1  0  0  0  0
 15 16  2  0  0  0  0
 15 36  1  0  0  0  0
 16 17  1  0  0  0  0
 16 37  1  0  0  0  0
 17 18  2  0  0  0  0
 17 38  1  0  0  0  0
 18 19  1  0  0  0  0
 18 39  1  0  0  0  0
 19 40  1  0  0  0  0
M  CHG  1  13   1
M  END
$$$$
