ZINC00057532
 OpenBabel08292219463D

 41 42  0  0  1  0  0  0  0  0999 V2000
   -0.1708    0.9852   -0.6788 C   0  0  0  0  0  0  0  0  0  0  0  0
   -0.3307   -0.4296   -0.1186 C   0  0  0  0  0  0  0  0  0  0  0  0
   -1.7370   -0.6658    0.2171 N   0  0  0  0  0  0  0  0  0  0  0  0
   -2.6968   -0.9961   -0.8393 C   0  0  0  0  0  0  0  0  0  0  0  0
   -2.7503   -2.4913   -1.0198 C   0  0  0  0  0  0  0  0  0  0  0  0
   -1.9019   -3.1294   -1.9116 C   0  0  0  0  0  0  0  0  0  0  0  0
   -1.9798   -4.5022   -2.0505 C   0  0  0  0  0  0  0  0  0  0  0  0
   -2.8478   -5.2031   -1.3474 N   0  0  0  0  0  0  0  0  0  0  0  0
   -3.6699   -4.6300   -0.4903 C   0  0  0  0  0  0  0  0  0  0  0  0
   -3.6453   -3.2622   -0.2937 C   0  0  0  0  0  0  0  0  0  0  0  0
   -2.1478   -0.5793    1.4978 C   0  0  0  0  0  0  0  0  0  0  0  0
   -3.3028   -0.8166    1.7815 O   0  0  0  0  0  0  0  0  0  0  0  0
   -1.1719   -0.1876    2.5773 C   0  0  1  0  0  0  0  0  0  0  0  0
   -0.2767   -0.8045    2.4990 H   0  0  0  0  0  0  0  0  0  0  0  0
   -0.7925    1.2853    2.4119 C   0  0  0  0  0  0  0  0  0  0  0  0
    0.1081    1.6652    3.4543 O   0  0  0  0  0  0  0  0  0  0  0  0
   -1.8076   -0.3939    3.9280 C   0  0  0  0  0  0  0  0  0  0  0  0
   -2.9666    0.2837    4.2572 C   0  0  0  0  0  0  0  0  0  0  0  0
   -3.5497    0.0945    5.4962 C   0  0  0  0  0  0  0  0  0  0  0  0
   -2.9740   -0.7727    6.4058 C   0  0  0  0  0  0  0  0  0  0  0  0
   -1.8155   -1.4511    6.0763 C   0  0  0  0  0  0  0  0  0  0  0  0
   -1.2348   -1.2651    4.8357 C   0  0  0  0  0  0  0  0  0  0  0  0
    0.8606    1.3131   -0.5486 H   0  0  0  0  0  0  0  0  0  0  0  0
   -0.4213    0.9864   -1.7396 H   0  0  0  0  0  0  0  0  0  0  0  0
   -0.8376    1.6640   -0.1472 H   0  0  0  0  0  0  0  0  0  0  0  0
   -0.0088   -1.1548   -0.8660 H   0  0  0  0  0  0  0  0  0  0  0  0
    0.2798   -0.5365    0.7780 H   0  0  0  0  0  0  0  0  0  0  0  0
   -3.6843   -0.6281   -0.5610 H   0  0  0  0  0  0  0  0  0  0  0  0
   -2.3846   -0.5284   -1.7731 H   0  0  0  0  0  0  0  0  0  0  0  0
   -1.1894   -2.5608   -2.4907 H   0  0  0  0  0  0  0  0  0  0  0  0
   -1.3224   -5.0068   -2.7431 H   0  0  0  0  0  0  0  0  0  0  0  0
   -4.3676   -5.2370    0.0676 H   0  0  0  0  0  0  0  0  0  0  0  0
   -4.3177   -2.7992    0.4134 H   0  0  0  0  0  0  0  0  0  0  0  0
   -0.3107    1.4300    1.4449 H   0  0  0  0  0  0  0  0  0  0  0  0
   -1.6908    1.9002    2.4658 H   0  0  0  0  0  0  0  0  0  0  0  0
    0.3916    2.5887    3.4120 H   0  0  0  0  0  0  0  0  0  0  0  0
   -3.4164    0.9613    3.5466 H   0  0  0  0  0  0  0  0  0  0  0  0
   -4.4548    0.6245    5.7537 H   0  0  0  0  0  0  0  0  0  0  0  0
   -3.4292   -0.9200    7.3741 H   0  0  0  0  0  0  0  0  0  0  0  0
   -1.3655   -2.1283    6.7871 H   0  0  0  0  0  0  0  0  0  0  0  0
   -0.3317   -1.7978    4.5768 H   0  0  0  0  0  0  0  0  0  0  0  0
  1  2  1  0  0  0  0
  1 23  1  0  0  0  0
  1 24  1  0  0  0  0
  1 25  1  0  0  0  0
  2  3  1  0  0  0  0
  2 26  1  0  0  0  0
  2 27  1  0  0  0  0
  3  4  1  0  0  0  0
  3 11  1  0  0  0  0
  4  5  1  0  0  0  0
  4 28  1  0  0  0  0
  4 29  1  0  0  0  0
  5 10  2  0  0  0  0
  5  6  1  0  0  0  0
  6  7  2  0  0  0  0
  6 30  1  0  0  0  0
  7  8  1  0  0  0  0
  7 31  1  0  0  0  0
  8  9  2  0  0  0  0
  9 10  1  0  0  0  0
  9 32  1  0  0  0  0
 10 33  1  0  0  0  0
 11 12  2  0  0  0  0
 11 13  1  0  0  0  0
 13 14  1  6  0  0  0
 13 15  1  0  0  0  0
 13 17  1  0  0  0  0
 15 16  1  0  0  0  0
 15 34  1  0  0  0  0
 15 35  1  0  0  0  0
 16 36  1  0  0  0  0
 17 22  2  0  0  0  0
 17 18  1  0  0  0  0
 18 19  2  0  0  0  0
 18 37  1  0  0  0  0
 19 20  1  0  0  0  0
 19 38  1  0  0  0  0
 20 21  2  0  0  0  0
 20 39  1  0  0  0  0
 21 22  1  0  0  0  0
 21 40  1  0  0  0  0
 22 41  1  0  0  0  0
M  END
$$$$
