ZINC03774999
 OpenBabel08292219463D

 77 80  0  0  1  0  0  0  0  0999 V2000
   -4.2710    6.2543   -3.7878 C   0  0  0  0  0  0  0  0  0  0  0  0
   -2.8493    6.3423   -3.6731 O   0  0  0  0  0  0  0  0  0  0  0  0
   -2.3588    7.6774   -3.5359 C   0  0  0  0  0  0  0  0  0  0  0  0
   -0.8333    7.6511   -3.4218 C   0  0  0  0  0  0  0  0  0  0  0  0
   -0.2726    7.1661   -4.6435 O   0  0  0  0  0  0  0  0  0  0  0  0
    1.1550    7.1017   -4.6426 C   0  0  0  0  0  0  0  0  0  0  0  0
    1.6424    6.5717   -5.9926 C   0  0  2  0  0  0  0  0  0  0  0  0
    1.2284    5.5780   -6.1637 H   0  0  0  0  0  0  0  0  0  0  0  0
    3.1704    6.4938   -5.9883 C   0  0  0  0  0  0  0  0  0  0  0  0
    3.6217    5.3806   -5.0406 C   0  0  0  0  0  0  0  0  0  0  0  0
    5.1611    5.2168   -5.0908 C   0  0  0  0  0  0  0  0  0  0  0  0
    5.4758    4.5557   -3.7220 C   0  0  0  0  0  0  0  0  0  0  0  0
    4.5055    5.2410   -2.7378 C   0  0  0  0  0  0  0  0  0  0  0  0
    3.3266    5.7655   -3.5762 C   0  0  0  0  0  0  0  0  0  0  0  0
    2.9415    4.0825   -5.3921 C   0  0  0  0  0  0  0  0  0  0  0  0
    2.1683    3.5718   -4.6096 O   0  0  0  0  0  0  0  0  0  0  0  0
    3.1923    3.4892   -6.5759 N   0  0  0  0  0  0  0  0  0  0  0  0
    2.6183    2.1744   -6.8725 C   0  0  2  0  0  0  0  0  0  0  0  0
    3.4874    1.4608   -7.9100 C   0  0  0  0  0  0  0  0  0  0  0  0
    3.5405    2.2949   -9.1915 C   0  0  0  0  0  0  0  0  0  0  0  0
    2.1250    2.4696   -9.7453 C   0  0  1  0  0  0  0  0  0  0  0  0
    1.2559    3.1832   -8.7079 C   0  0  0  0  0  0  0  0  0  0  0  0
    1.2028    2.3491   -7.4264 C   0  0  0  0  0  0  0  0  0  0  0  0
    2.1773    3.2912  -11.0075 C   0  0  0  0  0  0  0  0  0  0  0  0
    3.2379    3.6956  -11.4217 O   0  0  0  0  0  0  0  0  0  0  0  0
    1.1898    7.5002   -7.0898 C   0  0  0  0  0  0  0  0  0  0  0  0
    2.0057    8.0439   -7.7960 O   0  0  0  0  0  0  0  0  0  0  0  0
   -0.1200    7.7234   -7.2828 O   0  0  0  0  0  0  0  0  0  0  0  0
   -0.4650    8.4847   -8.3546 C   0  0  0  0  0  0  0  0  0  0  0  0
   -0.8705    9.7991   -8.1727 C   0  0  0  0  0  0  0  0  0  0  0  0
   -1.2193   10.5683   -9.2641 C   0  0  0  0  0  0  0  0  0  0  0  0
   -1.1664   10.0339  -10.5413 C   0  0  0  0  0  0  0  0  0  0  0  0
   -0.7626    8.7244  -10.7251 C   0  0  0  0  0  0  0  0  0  0  0  0
   -0.4071    7.9520   -9.6328 C   0  0  0  0  0  0  0  0  0  0  0  0
   -0.7891    8.3829  -12.1996 C   0  0  0  0  0  0  0  0  0  0  0  0
   -0.8289    9.7428  -12.9285 C   0  0  0  0  0  0  0  0  0  0  0  0
   -1.4917   10.6613  -11.8800 C   0  0  0  0  0  0  0  0  0  0  0  0
   -4.5997    6.8096   -4.6662 H   0  0  0  0  0  0  0  0  0  0  0  0
   -4.5634    5.2090   -3.8883 H   0  0  0  0  0  0  0  0  0  0  0  0
   -4.7343    6.6771   -2.8963 H   0  0  0  0  0  0  0  0  0  0  0  0
   -2.7824    8.1298   -2.6392 H   0  0  0  0  0  0  0  0  0  0  0  0
   -2.6478    8.2623   -4.4091 H   0  0  0  0  0  0  0  0  0  0  0  0
   -0.5415    6.9945   -2.6022 H   0  0  0  0  0  0  0  0  0  0  0  0
   -0.4659    8.6590   -3.2284 H   0  0  0  0  0  0  0  0  0  0  0  0
    1.4880    6.4336   -3.8483 H   0  0  0  0  0  0  0  0  0  0  0  0
    1.5635    8.0981   -4.4745 H   0  0  0  0  0  0  0  0  0  0  0  0
    3.5818    7.4457   -5.6525 H   0  0  0  0  0  0  0  0  0  0  0  0
    3.5261    6.2795   -6.9961 H   0  0  0  0  0  0  0  0  0  0  0  0
    5.4536    4.5648   -5.9139 H   0  0  0  0  0  0  0  0  0  0  0  0
    5.6503    6.1874   -5.1728 H   0  0  0  0  0  0  0  0  0  0  0  0
    6.5095    4.7478   -3.4346 H   0  0  0  0  0  0  0  0  0  0  0  0
    5.2848    3.4833   -3.7615 H   0  0  0  0  0  0  0  0  0  0  0  0
    5.0055    6.0701   -2.2369 H   0  0  0  0  0  0  0  0  0  0  0  0
    4.1489    4.5201   -2.0021 H   0  0  0  0  0  0  0  0  0  0  0  0
    3.2545    6.8491   -3.4822 H   0  0  0  0  0  0  0  0  0  0  0  0
    2.3979    5.2992   -3.2474 H   0  0  0  0  0  0  0  0  0  0  0  0
    3.7529    3.9328   -7.2316 H   0  0  0  0  0  0  0  0  0  0  0  0
    2.5805    1.5801   -5.9596 H   0  0  0  0  0  0  0  0  0  0  0  0
    3.0603    0.4825   -8.1306 H   0  0  0  0  0  0  0  0  0  0  0  0
    4.4958    1.3363   -7.5154 H   0  0  0  0  0  0  0  0  0  0  0  0
    4.1597    1.7865   -9.9306 H   0  0  0  0  0  0  0  0  0  0  0  0
    3.9676    3.2732   -8.9708 H   0  0  0  0  0  0  0  0  0  0  0  0
    1.6979    1.4913   -9.9660 H   0  0  0  0  0  0  0  0  0  0  0  0
    1.6830    4.1615   -8.4872 H   0  0  0  0  0  0  0  0  0  0  0  0
    0.2474    3.3076   -9.1024 H   0  0  0  0  0  0  0  0  0  0  0  0
    0.7757    1.3708   -7.6470 H   0  0  0  0  0  0  0  0  0  0  0  0
    0.5836    2.8575   -6.6873 H   0  0  0  0  0  0  0  0  0  0  0  0
   -0.9135   10.2193   -7.1787 H   0  0  0  0  0  0  0  0  0  0  0  0
   -1.5353   11.5912   -9.1220 H   0  0  0  0  0  0  0  0  0  0  0  0
   -0.0874    6.9305   -9.7766 H   0  0  0  0  0  0  0  0  0  0  0  0
    0.1095    7.8316  -12.4764 H   0  0  0  0  0  0  0  0  0  0  0  0
   -1.6793    7.8004  -12.4370 H   0  0  0  0  0  0  0  0  0  0  0  0
    0.1786   10.0863  -13.1629 H   0  0  0  0  0  0  0  0  0  0  0  0
   -1.4382    9.6814  -13.8302 H   0  0  0  0  0  0  0  0  0  0  0  0
   -2.5707   10.6912  -12.0315 H   0  0  0  0  0  0  0  0  0  0  0  0
   -1.0728   11.6659  -11.9386 H   0  0  0  0  0  0  0  0  0  0  0  0
    1.0456    3.5738  -11.6718 O   0  0  0  0  0  1  0  0  0  0  0  0
  1  2  1  0  0  0  0
  1 38  1  0  0  0  0
  1 39  1  0  0  0  0
  1 40  1  0  0  0  0
  2  3  1  0  0  0  0
  3  4  1  0  0  0  0
  3 41  1  0  0  0  0
  3 42  1  0  0  0  0
  4  5  1  0  0  0  0
  4 43  1  0  0  0  0
  4 44  1  0  0  0  0
  5  6  1  0  0  0  0
  6  7  1  0  0  0  0
  6 45  1  0  0  0  0
  6 46  1  0  0  0  0
  7  8  1  6  0  0  0
  7  9  1  0  0  0  0
  7 26  1  0  0  0  0
  9 10  1  0  0  0  0
  9 47  1  0  0  0  0
  9 48  1  0  0  0  0
 10 14  1  0  0  0  0
 10 11  1  0  0  0  0
 10 15  1  0  0  0  0
 11 12  1  0  0  0  0
 11 49  1  0  0  0  0
 11 50  1  0  0  0  0
 12 13  1  0  0  0  0
 12 51  1  0  0  0  0
 12 52  1  0  0  0  0
 13 14  1  0  0  0  0
 13 53  1  0  0  0  0
 13 54  1  0  0  0  0
 14 55  1  0  0  0  0
 14 56  1  0  0  0  0
 15 16  2  0  0  0  0
 15 17  1  0  0  0  0
 17 18  1  0  0  0  0
 17 57  1  0  0  0  0
 18 23  1  0  0  0  0
 18 19  1  0  0  0  0
 18 58  1  1  0  0  0
 19 20  1  0  0  0  0
 19 59  1  0  0  0  0
 19 60  1  0  0  0  0
 20 21  1  0  0  0  0
 20 61  1  0  0  0  0
 20 62  1  0  0  0  0
 21 22  1  0  0  0  0
 21 24  1  0  0  0  0
 21 63  1  6  0  0  0
 22 23  1  0  0  0  0
 22 64  1  0  0  0  0
 22 65  1  0  0  0  0
 23 66  1  0  0  0  0
 23 67  1  0  0  0  0
 24 25  2  0  0  0  0
 24 77  1  0  0  0  0
 26 27  2  0  0  0  0
 26 28  1  0  0  0  0
 28 29  1  0  0  0  0
 29 34  2  0  0  0  0
 29 30  1  0  0  0  0
 30 31  2  0  0  0  0
 30 68  1  0  0  0  0
 31 32  1  0  0  0  0
 31 69  1  0  0  0  0
 32 37  1  0  0  0  0
 32 33  2  0  0  0  0
 33 34  1  0  0  0  0
 33 35  1  0  0  0  0
 34 70  1  0  0  0  0
 35 36  1  0  0  0  0
 35 71  1  0  0  0  0
 35 72  1  0  0  0  0
 36 37  1  0  0  0  0
 36 73  1  0  0  0  0
 36 74  1  0  0  0  0
 37 75  1  0  0  0  0
 37 76  1  0  0  0  0
M  END
$$$$
