ZINC12661824
 OpenBabel08292219463D

 49 49  0  0  0  0  0  0  0  0999 V2000
   -2.1403   -2.1286   -2.0604 C   0  0  0  0  0  0  0  0  0  0  0  0
   -0.9727   -2.0739   -1.1091 C   0  0  0  0  0  0  0  0  0  0  0  0
   -0.9348   -1.0922   -0.2237 C   0  0  0  0  0  0  0  0  0  0  0  0
    0.1717   -0.9136    0.7747 C   0  0  0  0  0  0  0  0  0  0  0  0
    0.9760   -2.2085    0.9067 C   0  0  0  0  0  0  0  0  0  0  0  0
    1.3553   -2.6920   -0.4984 C   0  0  0  0  0  0  0  0  0  0  0  0
    0.0785   -3.1400   -1.2161 C   0  0  0  0  0  0  0  0  0  0  0  0
   -0.4263   -0.5472    2.1345 C   0  0  0  0  0  0  0  0  0  0  0  0
    1.0969    0.2131    0.3104 C   0  0  0  0  0  0  0  0  0  0  0  0
   -1.9989   -0.1556   -0.2175 C   0  0  0  0  0  0  0  0  0  0  0  0
   -3.2775   -0.5809   -0.0407 C   0  0  0  0  0  0  0  0  0  0  0  0
   -4.3225    0.3546    0.0550 C   0  0  0  0  0  0  0  0  0  0  0  0
   -5.6067   -0.0726    0.2326 C   0  0  0  0  0  0  0  0  0  0  0  0
   -5.8834   -1.4441    0.3196 C   0  0  0  0  0  0  0  0  0  0  0  0
   -7.1787   -1.8749    0.4988 C   0  0  0  0  0  0  0  0  0  0  0  0
   -7.4552   -3.2452    0.5857 C   0  0  0  0  0  0  0  0  0  0  0  0
   -8.7503   -3.6760    0.7648 C   0  0  0  0  0  0  0  0  0  0  0  0
   -9.0115   -5.0348    1.0038 C   0  0  0  0  0  0  0  0  0  0  0  0
   -8.0008   -5.8874    1.1796 O   0  0  0  0  0  0  0  0  0  0  0  0
  -10.2703   -5.4730    1.0550 O   0  0  0  0  0  1  0  0  0  0  0  0
   -6.3349   -4.2479    0.4831 C   0  0  0  0  0  0  0  0  0  0  0  0
   -4.0250    1.8289   -0.0385 C   0  0  0  0  0  0  0  0  0  0  0  0
   -1.9836   -2.9301   -2.7822 H   0  0  0  0  0  0  0  0  0  0  0  0
   -3.0564   -2.3176   -1.5007 H   0  0  0  0  0  0  0  0  0  0  0  0
   -2.2254   -1.1776   -2.5862 H   0  0  0  0  0  0  0  0  0  0  0  0
    1.8802   -2.0205    1.4857 H   0  0  0  0  0  0  0  0  0  0  0  0
    0.3706   -2.9665    1.4037 H   0  0  0  0  0  0  0  0  0  0  0  0
    1.8243   -1.8782   -1.0514 H   0  0  0  0  0  0  0  0  0  0  0  0
    2.0454   -3.5322   -0.4225 H   0  0  0  0  0  0  0  0  0  0  0  0
   -0.2918   -4.0593   -0.7623 H   0  0  0  0  0  0  0  0  0  0  0  0
    0.3022   -3.3228   -2.2671 H   0  0  0  0  0  0  0  0  0  0  0  0
   -1.0218   -1.3811    2.5062 H   0  0  0  0  0  0  0  0  0  0  0  0
    0.3773   -0.3322    2.8388 H   0  0  0  0  0  0  0  0  0  0  0  0
   -1.0605    0.3328    2.0273 H   0  0  0  0  0  0  0  0  0  0  0  0
    0.5282    1.1392    0.2273 H   0  0  0  0  0  0  0  0  0  0  0  0
    1.9012    0.3443    1.0343 H   0  0  0  0  0  0  0  0  0  0  0  0
    1.5204   -0.0417   -0.6611 H   0  0  0  0  0  0  0  0  0  0  0  0
   -1.7935    0.8960   -0.3533 H   0  0  0  0  0  0  0  0  0  0  0  0
   -3.4907   -1.6375    0.0264 H   0  0  0  0  0  0  0  0  0  0  0  0
   -6.4095    0.6460    0.3061 H   0  0  0  0  0  0  0  0  0  0  0  0
   -5.0806   -2.1627    0.2461 H   0  0  0  0  0  0  0  0  0  0  0  0
   -7.9815   -1.1563    0.5723 H   0  0  0  0  0  0  0  0  0  0  0  0
   -9.5654   -2.9688    0.7215 H   0  0  0  0  0  0  0  0  0  0  0  0
   -6.0017   -4.5241    1.4835 H   0  0  0  0  0  0  0  0  0  0  0  0
   -6.6891   -5.1362   -0.0400 H   0  0  0  0  0  0  0  0  0  0  0  0
   -5.5036   -3.8088   -0.0684 H   0  0  0  0  0  0  0  0  0  0  0  0
   -4.0813    2.1456   -1.0800 H   0  0  0  0  0  0  0  0  0  0  0  0
   -4.7546    2.3849    0.5502 H   0  0  0  0  0  0  0  0  0  0  0  0
   -3.0238    2.0227    0.3466 H   0  0  0  0  0  0  0  0  0  0  0  0
  1  2  1  0  0  0  0
  1 23  1  0  0  0  0
  1 24  1  0  0  0  0
  1 25  1  0  0  0  0
  2  7  1  0  0  0  0
  2  3  2  0  0  0  0
  3  4  1  0  0  0  0
  3 10  1  0  0  0  0
  4  5  1  0  0  0  0
  4  8  1  0  0  0  0
  4  9  1  0  0  0  0
  5  6  1  0  0  0  0
  5 26  1  0  0  0  0
  5 27  1  0  0  0  0
  6  7  1  0  0  0  0
  6 28  1  0  0  0  0
  6 29  1  0  0  0  0
  7 30  1  0  0  0  0
  7 31  1  0  0  0  0
  8 32  1  0  0  0  0
  8 33  1  0  0  0  0
  8 34  1  0  0  0  0
  9 35  1  0  0  0  0
  9 36  1  0  0  0  0
  9 37  1  0  0  0  0
 10 11  2  0  0  0  0
 10 38  1  0  0  0  0
 11 12  1  0  0  0  0
 11 39  1  0  0  0  0
 12 13  2  0  0  0  0
 12 22  1  0  0  0  0
 13 14  1  0  0  0  0
 13 40  1  0  0  0  0
 14 15  2  0  0  0  0
 14 41  1  0  0  0  0
 15 16  1  0  0  0  0
 15 42  1  0  0  0  0
 16 17  2  0  0  0  0
 16 21  1  0  0  0  0
 17 18  1  0  0  0  0
 17 43  1  0  0  0  0
 18 19  2  0  0  0  0
 18 20  1  0  0  0  0
 21 44  1  0  0  0  0
 21 45  1  0  0  0  0
 21 46  1  0  0  0  0
 22 47  1  0  0  0  0
 22 48  1  0  0  0  0
 22 49  1  0  0  0  0
M  END
$$$$
