ZINC00119717
 OpenBabel08292219463D

 31 33  0  0  0  0  0  0  0  0999 V2000
   -0.0164    1.3567    0.0095 C   0  0  0  0  0  0  0  0  0  0  0  0
    1.1685    2.0906    0.0021 C   0  0  0  0  0  0  0  0  0  0  0  0
    2.3785    1.4679   -0.0132 C   0  0  0  0  0  0  0  0  0  0  0  0
    2.4378    0.0637   -0.0214 C   0  0  0  0  0  0  0  0  0  0  0  0
    1.2328   -0.6827   -0.0134 C   0  0  0  0  0  0  0  0  0  0  0  0
    0.0021   -0.0041    0.0020 C   0  0  0  0  0  0  0  0  0  0  0  0
    1.2920   -2.0865   -0.0210 C   0  0  0  0  0  0  0  0  0  0  0  0
    2.5022   -2.7094   -0.0359 C   0  0  0  0  0  0  0  0  0  0  0  0
    3.6867   -1.9757   -0.0433 C   0  0  0  0  0  0  0  0  0  0  0  0
    3.6681   -0.6146   -0.0367 C   0  0  0  0  0  0  0  0  0  0  0  0
    4.9603    0.1606   -0.0459 C   0  0  0  0  0  0  0  0  0  0  0  0
    5.3414    0.5186    1.3675 C   0  0  0  0  0  0  0  0  0  0  0  0
    4.9467    1.6296    1.9436 N   0  0  0  0  0  4  0  0  0  0  0  0
    5.4824    1.6835    3.3134 C   0  0  0  0  0  0  0  0  0  0  0  0
    6.2804    0.3684    3.4313 C   0  0  0  0  0  0  0  0  0  0  0  0
    6.0879   -0.2604    2.1146 N   0  0  0  0  0  0  0  0  0  0  0  0
   -0.9634    1.8756    0.0259 H   0  0  0  0  0  0  0  0  0  0  0  0
    1.1258    3.1698    0.0084 H   0  0  0  0  0  0  0  0  0  0  0  0
    3.2883    2.0497   -0.0195 H   0  0  0  0  0  0  0  0  0  0  0  0
   -0.9241   -0.5595    0.0082 H   0  0  0  0  0  0  0  0  0  0  0  0
    0.3820   -2.6682   -0.0147 H   0  0  0  0  0  0  0  0  0  0  0  0
    2.5450   -3.7886   -0.0417 H   0  0  0  0  0  0  0  0  0  0  0  0
    4.6338   -2.4947   -0.0548 H   0  0  0  0  0  0  0  0  0  0  0  0
    5.7467   -0.4491   -0.4909 H   0  0  0  0  0  0  0  0  0  0  0  0
    4.8331    1.0722   -0.6299 H   0  0  0  0  0  0  0  0  0  0  0  0
    6.1393    2.5446    3.4361 H   0  0  0  0  0  0  0  0  0  0  0  0
    4.6726    1.7090    4.0426 H   0  0  0  0  0  0  0  0  0  0  0  0
    7.3354    0.5734    3.6128 H   0  0  0  0  0  0  0  0  0  0  0  0
    5.8687   -0.2622    4.2193 H   0  0  0  0  0  0  0  0  0  0  0  0
    6.4563   -1.1152    1.8414 H   0  0  0  0  0  0  0  0  0  0  0  0
    4.3900    2.3087    1.5315 H   0  0  0  0  0  0  0  0  0  0  0  0
  1  6  2  0  0  0  0
  1  2  1  0  0  0  0
  1 17  1  0  0  0  0
  2  3  2  0  0  0  0
  2 18  1  0  0  0  0
  3  4  1  0  0  0  0
  3 19  1  0  0  0  0
  4 10  2  0  0  0  0
  4  5  1  0  0  0  0
  5  6  1  0  0  0  0
  5  7  2  0  0  0  0
  6 20  1  0  0  0  0
  7  8  1  0  0  0  0
  7 21  1  0  0  0  0
  8  9  2  0  0  0  0
  8 22  1  0  0  0  0
  9 10  1  0  0  0  0
  9 23  1  0  0  0  0
 10 11  1  0  0  0  0
 11 12  1  0  0  0  0
 11 24  1  0  0  0  0
 11 25  1  0  0  0  0
 12 16  1  0  0  0  0
 12 13  2  0  0  0  0
 13 14  1  0  0  0  0
 13 31  1  0  0  0  0
 14 15  1  0  0  0  0
 14 26  1  0  0  0  0
 14 27  1  0  0  0  0
 15 16  1  0  0  0  0
 15 28  1  0  0  0  0
 15 29  1  0  0  0  0
 16 30  1  0  0  0  0
M  END
$$$$
