ZINC00896755
 OpenBabel08292219463D

 40 42  0  0  1  0  0  0  0  0999 V2000
   -0.0184    1.5028    0.0103 C   0  0  0  0  0  0  0  0  0  0  0  0
    0.0021   -0.0041    0.0020 C   0  0  0  0  0  0  0  0  0  0  0  0
    0.0058   -0.6889   -1.1976 C   0  0  0  0  0  0  0  0  0  0  0  0
    0.0250   -2.0714   -1.2060 C   0  0  0  0  0  0  0  0  0  0  0  0
    0.0406   -2.7731   -0.0143 C   0  0  0  0  0  0  0  0  0  0  0  0
    0.0365   -2.0946    1.1883 C   0  0  0  0  0  0  0  0  0  0  0  0
    0.0230   -0.7056    1.2003 C   0  0  0  0  0  0  0  0  0  0  0  0
    0.0251   -0.0152    2.4166 N   0  0  0  0  0  0  0  0  0  0  0  0
   -1.2480    0.3166    3.0560 C   0  0  2  0  0  0  0  0  0  0  0  0
   -2.0161    0.4337    2.2916 H   0  0  0  0  0  0  0  0  0  0  0  0
   -1.1249    1.5660    3.8168 N   0  0  0  0  0  0  0  0  0  0  0  0
    0.0003    1.7509    4.6123 C   0  0  0  0  0  0  0  0  0  0  0  0
   -0.0342    2.5175    5.7633 C   0  0  0  0  0  0  0  0  0  0  0  0
    1.1131    2.6649    6.5220 C   0  0  0  0  0  0  0  0  0  0  0  0
    2.2963    2.0503    6.1373 C   0  0  0  0  0  0  0  0  0  0  0  0
    2.3470    1.2844    4.9917 C   0  0  0  0  0  0  0  0  0  0  0  0
    1.1995    1.1302    4.2173 C   0  0  0  0  0  0  0  0  0  0  0  0
    1.2014    0.3278    2.9813 C   0  0  0  0  0  0  0  0  0  0  0  0
    2.2512   -0.0182    2.4740 O   0  0  0  0  0  0  0  0  0  0  0  0
    3.7448    2.2497    7.1205 S   0  0  0  0  0  0  0  0  0  0  0  0
    3.3649    1.9795    8.4628 O   0  0  0  0  0  0  0  0  0  0  0  0
    4.7829    1.5351    6.4639 O   0  0  0  0  0  0  0  0  0  0  0  0
    4.1611    3.8514    7.0598 N   0  0  0  0  0  0  0  0  0  0  0  0
    1.0725    3.6268    7.9665 Cl  0  0  0  0  0  0  0  0  0  0  0  0
   -1.6473   -0.8140    4.0064 C   0  0  0  0  0  0  0  0  0  0  0  0
    1.0042    1.8801    0.0026 H   0  0  0  0  0  0  0  0  0  0  0  0
   -0.5455    1.8639   -0.8728 H   0  0  0  0  0  0  0  0  0  0  0  0
   -0.5286    1.8543    0.9071 H   0  0  0  0  0  0  0  0  0  0  0  0
   -0.0067   -0.1439   -2.1299 H   0  0  0  0  0  0  0  0  0  0  0  0
    0.0276   -2.6044   -2.1453 H   0  0  0  0  0  0  0  0  0  0  0  0
    0.0556   -3.8529   -0.0243 H   0  0  0  0  0  0  0  0  0  0  0  0
    0.0483   -2.6431    2.1186 H   0  0  0  0  0  0  0  0  0  0  0  0
   -1.8131    2.2476    3.7655 H   0  0  0  0  0  0  0  0  0  0  0  0
   -0.9521    2.9981    6.0682 H   0  0  0  0  0  0  0  0  0  0  0  0
    3.2703    0.8080    4.6966 H   0  0  0  0  0  0  0  0  0  0  0  0
    4.6134    4.2638    7.8123 H   0  0  0  0  0  0  0  0  0  0  0  0
    3.9527    4.3772    6.2717 H   0  0  0  0  0  0  0  0  0  0  0  0
   -0.8777   -0.9370    4.7684 H   0  0  0  0  0  0  0  0  0  0  0  0
   -2.5959   -0.5690    4.4842 H   0  0  0  0  0  0  0  0  0  0  0  0
   -1.7529   -1.7415    3.4436 H   0  0  0  0  0  0  0  0  0  0  0  0
  1  2  1  0  0  0  0
  1 26  1  0  0  0  0
  1 27  1  0  0  0  0
  1 28  1  0  0  0  0
  2  7  2  0  0  0  0
  2  3  1  0  0  0  0
  3  4  2  0  0  0  0
  3 29  1  0  0  0  0
  4  5  1  0  0  0  0
  4 30  1  0  0  0  0
  5  6  2  0  0  0  0
  5 31  1  0  0  0  0
  6  7  1  0  0  0  0
  6 32  1  0  0  0  0
  7  8  1  0  0  0  0
  8 18  1  0  0  0  0
  8  9  1  0  0  0  0
  9 10  1  6  0  0  0
  9 11  1  0  0  0  0
  9 25  1  0  0  0  0
 11 12  1  0  0  0  0
 11 33  1  0  0  0  0
 12 17  2  0  0  0  0
 12 13  1  0  0  0  0
 13 14  2  0  0  0  0
 13 34  1  0  0  0  0
 14 15  1  0  0  0  0
 14 24  1  0  0  0  0
 15 16  2  0  0  0  0
 15 20  1  0  0  0  0
 16 17  1  0  0  0  0
 16 35  1  0  0  0  0
 17 18  1  0  0  0  0
 18 19  2  0  0  0  0
 20 21  2  0  0  0  0
 20 22  2  0  0  0  0
 20 23  1  0  0  0  0
 23 36  1  0  0  0  0
 23 37  1  0  0  0  0
 25 38  1  0  0  0  0
 25 39  1  0  0  0  0
 25 40  1  0  0  0  0
M  END
$$$$
