ZINC01850376
 OpenBabel08292219463D

 46 48  0  0  1  0  0  0  0  0999 V2000
   -0.1156    1.7019    0.3433 C   0  0  0  0  0  0  0  0  0  0  0  0
   -0.1206    0.1727    0.2954 C   0  0  0  0  0  0  0  0  0  0  0  0
   -0.9120   -0.5654    1.3770 C   0  0  2  0  0  0  0  0  0  0  0  0
   -1.4291    0.0385    2.1226 H   0  0  0  0  0  0  0  0  0  0  0  0
    0.6176   -0.5714    1.4099 C   0  0  1  0  0  0  0  0  0  0  0  0
    1.1068    0.0285    2.1773 H   0  0  0  0  0  0  0  0  0  0  0  0
    1.3164   -1.8557    1.0449 C   0  0  0  0  0  0  0  0  0  0  0  0
    1.2800   -2.2611   -0.0928 O   0  0  0  0  0  0  0  0  0  0  0  0
    1.9794   -2.5494    1.9835 O   0  0  0  0  0  0  0  0  0  0  0  0
    2.6185   -3.7577    1.5670 C   0  0  0  0  0  0  0  0  0  0  0  0
    3.3069   -4.3944    2.7467 C   0  0  0  0  0  0  0  0  0  0  0  0
    4.6183   -4.0678    3.0401 C   0  0  0  0  0  0  0  0  0  0  0  0
    5.2527   -4.6497    4.1219 C   0  0  0  0  0  0  0  0  0  0  0  0
    4.5777   -5.5597    4.9126 C   0  0  0  0  0  0  0  0  0  0  0  0
    3.2621   -5.8890    4.6204 C   0  0  0  0  0  0  0  0  0  0  0  0
    2.6258   -5.2991    3.5373 C   0  0  0  0  0  0  0  0  0  0  0  0
    2.5960   -6.7838    5.3965 O   0  0  0  0  0  0  0  0  0  0  0  0
    2.2598   -7.9798    4.8460 C   0  0  0  0  0  0  0  0  0  0  0  0
    2.7097   -8.3113    3.5759 C   0  0  0  0  0  0  0  0  0  0  0  0
    2.3665   -9.5278    3.0186 C   0  0  0  0  0  0  0  0  0  0  0  0
    1.5750  -10.4145    3.7250 C   0  0  0  0  0  0  0  0  0  0  0  0
    1.1250  -10.0865    4.9906 C   0  0  0  0  0  0  0  0  0  0  0  0
    1.4708   -8.8741    5.5552 C   0  0  0  0  0  0  0  0  0  0  0  0
   -1.6050   -1.8440    0.9817 C   0  0  0  0  0  0  0  0  0  0  0  0
   -2.9089   -1.9476    1.0994 C   0  0  0  0  0  0  0  0  0  0  0  0
   -3.8342   -0.6118    1.7101 Cl  0  0  0  0  0  0  0  0  0  0  0  0
   -3.7071   -3.4204    0.6441 Cl  0  0  0  0  0  0  0  0  0  0  0  0
   -0.0924   -0.4438   -1.1046 C   0  0  0  0  0  0  0  0  0  0  0  0
    0.9118    2.0634    0.2995 H   0  0  0  0  0  0  0  0  0  0  0  0
   -0.6752    2.0938   -0.5061 H   0  0  0  0  0  0  0  0  0  0  0  0
   -0.5799    2.0379    1.2705 H   0  0  0  0  0  0  0  0  0  0  0  0
    1.8721   -4.4445    1.1677 H   0  0  0  0  0  0  0  0  0  0  0  0
    3.3544   -3.5321    0.7952 H   0  0  0  0  0  0  0  0  0  0  0  0
    5.1479   -3.3572    2.4229 H   0  0  0  0  0  0  0  0  0  0  0  0
    6.2769   -4.3929    4.3490 H   0  0  0  0  0  0  0  0  0  0  0  0
    5.0739   -6.0145    5.7572 H   0  0  0  0  0  0  0  0  0  0  0  0
    1.6004   -5.5507    3.3101 H   0  0  0  0  0  0  0  0  0  0  0  0
    3.3273   -7.6187    3.0234 H   0  0  0  0  0  0  0  0  0  0  0  0
    2.7164   -9.7863    2.0301 H   0  0  0  0  0  0  0  0  0  0  0  0
    1.3075  -11.3650    3.2874 H   0  0  0  0  0  0  0  0  0  0  0  0
    0.5067  -10.7808    5.5402 H   0  0  0  0  0  0  0  0  0  0  0  0
    1.1231   -8.6203    6.5457 H   0  0  0  0  0  0  0  0  0  0  0  0
   -1.0293   -2.6750    0.6018 H   0  0  0  0  0  0  0  0  0  0  0  0
    0.9397   -0.5218   -1.4466 H   0  0  0  0  0  0  0  0  0  0  0  0
   -0.5408   -1.4368   -1.0735 H   0  0  0  0  0  0  0  0  0  0  0  0
   -0.6558    0.1880   -1.7913 H   0  0  0  0  0  0  0  0  0  0  0  0
  1  2  1  0  0  0  0
  1 29  1  0  0  0  0
  1 30  1  0  0  0  0
  1 31  1  0  0  0  0
  2  5  1  0  0  0  0
  2  3  1  0  0  0  0
  2 28  1  0  0  0  0
  3  4  1  1  0  0  0
  3  5  1  0  0  0  0
  3 24  1  0  0  0  0
  5  6  1  1  0  0  0
  5  7  1  0  0  0  0
  7  8  2  0  0  0  0
  7  9  1  0  0  0  0
  9 10  1  0  0  0  0
 10 11  1  0  0  0  0
 10 32  1  0  0  0  0
 10 33  1  0  0  0  0
 11 16  2  0  0  0  0
 11 12  1  0  0  0  0
 12 13  2  0  0  0  0
 12 34  1  0  0  0  0
 13 14  1  0  0  0  0
 13 35  1  0  0  0  0
 14 15  2  0  0  0  0
 14 36  1  0  0  0  0
 15 16  1  0  0  0  0
 15 17  1  0  0  0  0
 16 37  1  0  0  0  0
 17 18  1  0  0  0  0
 18 23  2  0  0  0  0
 18 19  1  0  0  0  0
 19 20  2  0  0  0  0
 19 38  1  0  0  0  0
 20 21  1  0  0  0  0
 20 39  1  0  0  0  0
 21 22  2  0  0  0  0
 21 40  1  0  0  0  0
 22 23  1  0  0  0  0
 22 41  1  0  0  0  0
 23 42  1  0  0  0  0
 24 25  2  0  0  0  0
 24 43  1  0  0  0  0
 25 26  1  0  0  0  0
 25 27  1  0  0  0  0
 28 44  1  0  0  0  0
 28 45  1  0  0  0  0
 28 46  1  0  0  0  0
M  END
$$$$
