ZINC03941829
 OpenBabel08292219463D

 73 75  0  0  1  0  0  0  0  0999 V2000
    0.4324    1.5359   -0.3971 C   0  0  0  0  0  0  0  0  0  0  0  0
    0.1920    0.0889    0.0380 C   0  0  0  0  0  0  0  0  0  0  0  0
    0.8769   -0.1596    1.3834 C   0  0  0  0  0  0  0  0  0  0  0  0
   -1.3114   -0.1586    0.1777 C   0  0  0  0  0  0  0  0  0  0  0  0
   -1.5491   -1.5773    0.4550 N   0  0  0  0  0  0  0  0  0  0  0  0
   -1.5122   -2.0703    1.8341 C   0  0  0  0  0  0  0  0  0  0  0  0
   -2.8698   -1.8308    2.4978 C   0  0  2  0  0  0  0  0  0  0  0  0
   -3.1309   -0.7754    2.4204 H   0  0  0  0  0  0  0  0  0  0  0  0
   -2.7940   -2.2306    3.9727 C   0  0  2  0  0  0  0  0  0  0  0  0
   -1.9750   -1.6950    4.4527 H   0  0  0  0  0  0  0  0  0  0  0  0
   -2.5507   -3.7373    4.0808 C   0  0  0  0  0  0  0  0  0  0  0  0
   -2.3538   -4.1118    5.5272 C   0  0  0  0  0  0  0  0  0  0  0  0
   -1.0864   -4.0960    6.0789 C   0  0  0  0  0  0  0  0  0  0  0  0
   -0.9058   -4.4395    7.4057 C   0  0  0  0  0  0  0  0  0  0  0  0
   -1.9926   -4.7983    8.1809 C   0  0  0  0  0  0  0  0  0  0  0  0
   -3.2602   -4.8132    7.6294 C   0  0  0  0  0  0  0  0  0  0  0  0
   -3.4413   -4.4656    6.3038 C   0  0  0  0  0  0  0  0  0  0  0  0
   -4.0551   -1.8907    4.6362 N   0  0  0  0  0  0  0  0  0  0  0  0
   -4.0788   -1.6684    5.9653 C   0  0  0  0  0  0  0  0  0  0  0  0
   -3.0541   -1.7499    6.6132 O   0  0  0  0  0  0  0  0  0  0  0  0
   -5.2378   -1.3560    6.5750 O   0  0  0  0  0  0  0  0  0  0  0  0
   -5.1893   -1.1335    7.9858 C   0  0  1  0  0  0  0  0  0  0  0  0
   -4.2132   -0.7500    8.2829 H   0  0  0  0  0  0  0  0  0  0  0  0
   -6.3215   -0.1690    8.4325 C   0  0  0  0  0  0  0  0  0  0  0  0
   -6.5427   -0.6321    9.8945 C   0  0  0  0  0  0  0  0  0  0  0  0
   -6.3625   -2.0570    9.8679 O   0  0  0  0  0  0  0  0  0  0  0  0
   -5.5299   -2.4263    8.7579 C   0  0  0  0  0  0  0  0  0  0  0  0
   -3.8661   -2.6174    1.8416 O   0  0  0  0  0  0  0  0  0  0  0  0
   -5.1535   -1.9762    1.1181 P   0  0  0  0  0  0  0  0  0  0  0  0
   -5.9274   -1.0706    2.1356 O   0  0  0  0  0  0  0  0  0  0  0  0
   -4.6895   -1.1111   -0.1029 O   0  0  0  0  0  1  0  0  0  0  0  0
   -6.0964   -3.1228    0.6174 O   0  0  0  0  0  1  0  0  0  0  0  0
   -1.8594   -2.6237   -0.7904 S   0  0  0  0  0  0  0  0  0  0  0  0
   -2.5734   -3.7185   -0.2326 O   0  0  0  0  0  0  0  0  0  0  0  0
   -2.3763   -1.8419   -1.8585 O   0  0  0  0  0  0  0  0  0  0  0  0
   -0.3090   -3.2590   -1.3357 C   0  0  0  0  0  0  0  0  0  0  0  0
    0.3955   -2.6017   -2.3275 C   0  0  0  0  0  0  0  0  0  0  0  0
    1.6110   -3.0968   -2.7573 C   0  0  0  0  0  0  0  0  0  0  0  0
    2.1257   -4.2566   -2.1920 C   0  0  0  0  0  0  0  0  0  0  0  0
    1.4154   -4.9145   -1.1958 C   0  0  0  0  0  0  0  0  0  0  0  0
    0.2032   -4.4107   -0.7668 C   0  0  0  0  0  0  0  0  0  0  0  0
    3.3545   -4.7605   -2.6246 N   0  0  0  0  0  0  0  0  0  0  0  0
    1.5034    1.7122   -0.4966 H   0  0  0  0  0  0  0  0  0  0  0  0
   -0.0556    1.7130   -1.3555 H   0  0  0  0  0  0  0  0  0  0  0  0
    0.0206    2.2134    0.3509 H   0  0  0  0  0  0  0  0  0  0  0  0
    0.6038   -0.5886   -0.7100 H   0  0  0  0  0  0  0  0  0  0  0  0
    0.3707    0.4134    2.1602 H   0  0  0  0  0  0  0  0  0  0  0  0
    0.8284   -1.2214    1.6251 H   0  0  0  0  0  0  0  0  0  0  0  0
    1.9197    0.1521    1.3233 H   0  0  0  0  0  0  0  0  0  0  0  0
   -1.7039    0.4427    0.9978 H   0  0  0  0  0  0  0  0  0  0  0  0
   -1.8130    0.1195   -0.7492 H   0  0  0  0  0  0  0  0  0  0  0  0
   -1.2917   -3.1378    1.8325 H   0  0  0  0  0  0  0  0  0  0  0  0
   -0.7380   -1.5403    2.3888 H   0  0  0  0  0  0  0  0  0  0  0  0
   -3.4109   -4.2739    3.6805 H   0  0  0  0  0  0  0  0  0  0  0  0
   -1.6597   -4.0032    3.5121 H   0  0  0  0  0  0  0  0  0  0  0  0
   -0.2373   -3.8157    5.4733 H   0  0  0  0  0  0  0  0  0  0  0  0
    0.0845   -4.4279    7.8365 H   0  0  0  0  0  0  0  0  0  0  0  0
   -1.8514   -5.0674    9.2172 H   0  0  0  0  0  0  0  0  0  0  0  0
   -4.1092   -5.0939    8.2350 H   0  0  0  0  0  0  0  0  0  0  0  0
   -4.4321   -4.4736    5.8740 H   0  0  0  0  0  0  0  0  0  0  0  0
   -4.8731   -1.8257    4.1189 H   0  0  0  0  0  0  0  0  0  0  0  0
   -5.9909    0.8690    8.3950 H   0  0  0  0  0  0  0  0  0  0  0  0
   -7.2207   -0.3148    7.8339 H   0  0  0  0  0  0  0  0  0  0  0  0
   -5.8073   -0.1700   10.5531 H   0  0  0  0  0  0  0  0  0  0  0  0
   -7.5527   -0.3845   10.2211 H   0  0  0  0  0  0  0  0  0  0  0  0
   -6.0674   -3.1153    8.1064 H   0  0  0  0  0  0  0  0  0  0  0  0
   -4.6136   -2.8944    9.1177 H   0  0  0  0  0  0  0  0  0  0  0  0
   -0.0054   -1.7002   -2.7669 H   0  0  0  0  0  0  0  0  0  0  0  0
    2.1605   -2.5832   -3.5322 H   0  0  0  0  0  0  0  0  0  0  0  0
    1.8126   -5.8166   -0.7545 H   0  0  0  0  0  0  0  0  0  0  0  0
   -0.3475   -4.9192    0.0107 H   0  0  0  0  0  0  0  0  0  0  0  0
    3.8494   -4.3004   -3.3205 H   0  0  0  0  0  0  0  0  0  0  0  0
    3.7129   -5.5704   -2.2291 H   0  0  0  0  0  0  0  0  0  0  0  0
  1  2  1  0  0  0  0
  1 43  1  0  0  0  0
  1 44  1  0  0  0  0
  1 45  1  0  0  0  0
  2  3  1  0  0  0  0
  2  4  1  0  0  0  0
  2 46  1  0  0  0  0
  3 47  1  0  0  0  0
  3 48  1  0  0  0  0
  3 49  1  0  0  0  0
  4  5  1  0  0  0  0
  4 50  1  0  0  0  0
  4 51  1  0  0  0  0
  5  6  1  0  0  0  0
  5 33  1  0  0  0  0
  6  7  1  0  0  0  0
  6 52  1  0  0  0  0
  6 53  1  0  0  0  0
  7  8  1  6  0  0  0
  7  9  1  0  0  0  0
  7 28  1  0  0  0  0
  9 10  1  1  0  0  0
  9 11  1  0  0  0  0
  9 18  1  0  0  0  0
 11 12  1  0  0  0  0
 11 54  1  0  0  0  0
 11 55  1  0  0  0  0
 12 17  2  0  0  0  0
 12 13  1  0  0  0  0
 13 14  2  0  0  0  0
 13 56  1  0  0  0  0
 14 15  1  0  0  0  0
 14 57  1  0  0  0  0
 15 16  2  0  0  0  0
 15 58  1  0  0  0  0
 16 17  1  0  0  0  0
 16 59  1  0  0  0  0
 17 60  1  0  0  0  0
 18 19  1  0  0  0  0
 18 61  1  0  0  0  0
 19 20  2  0  0  0  0
 19 21  1  0  0  0  0
 21 22  1  0  0  0  0
 22 23  1  1  0  0  0
 22 27  1  0  0  0  0
 22 24  1  0  0  0  0
 24 25  1  0  0  0  0
 24 62  1  0  0  0  0
 24 63  1  0  0  0  0
 25 26  1  0  0  0  0
 25 64  1  0  0  0  0
 25 65  1  0  0  0  0
 26 27  1  0  0  0  0
 27 66  1  0  0  0  0
 27 67  1  0  0  0  0
 28 29  1  0  0  0  0
 29 30  2  0  0  0  0
 29 31  1  0  0  0  0
 29 32  1  0  0  0  0
 33 34  2  0  0  0  0
 33 35  2  0  0  0  0
 33 36  1  0  0  0  0
 36 41  2  0  0  0  0
 36 37  1  0  0  0  0
 37 38  2  0  0  0  0
 37 68  1  0  0  0  0
 38 39  1  0  0  0  0
 38 69  1  0  0  0  0
 39 40  2  0  0  0  0
 39 42  1  0  0  0  0
 40 41  1  0  0  0  0
 40 70  1  0  0  0  0
 41 71  1  0  0  0  0
 42 72  1  0  0  0  0
 42 73  1  0  0  0  0
M  END
$$$$
