ZINC00057493
 OpenBabel08292219463D

 26 27  0  0  0  0  0  0  0  0999 V2000
   -0.0184    1.5028    0.0103 C   0  0  0  0  0  0  0  0  0  0  0  0
    0.0021   -0.0041    0.0020 C   0  0  0  0  0  0  0  0  0  0  0  0
    0.0098   -0.8451   -1.0121 N   0  0  0  0  0  0  0  0  0  0  0  0
    0.0278   -2.0955   -0.8483 N   0  0  0  0  0  0  0  0  0  0  0  0
    0.0401   -2.6422    0.3601 C   0  0  0  0  0  0  0  0  0  0  0  0
    0.0308   -1.1619    1.3675 S   0  0  0  0  0  0  0  0  0  0  0  0
    0.0597   -3.9772    0.7356 N   0  0  0  0  0  2  0  0  0  0  0  0
    0.0716   -5.1625   -0.4208 S   0  0  0  0  0  0  0  0  0  0  0  0
   -1.1774   -5.0856   -1.0941 O   0  0  0  0  0  0  0  0  0  0  0  0
    1.3131   -5.0516   -1.1032 O   0  0  0  0  0  0  0  0  0  0  0  0
    0.0958   -6.7107    0.4203 C   0  0  0  0  0  0  0  0  0  0  0  0
    1.3036   -7.2977    0.7502 C   0  0  0  0  0  0  0  0  0  0  0  0
    1.3262   -8.5111    1.4094 C   0  0  0  0  0  0  0  0  0  0  0  0
    0.1338   -9.1418    1.7410 C   0  0  0  0  0  0  0  0  0  0  0  0
   -1.0777   -8.5494    1.4081 C   0  0  0  0  0  0  0  0  0  0  0  0
   -1.0931   -7.3332    0.7539 C   0  0  0  0  0  0  0  0  0  0  0  0
    0.1530  -10.3693    2.4073 N   0  0  0  0  0  0  0  0  0  0  0  0
    1.0042    1.8801    0.0026 H   0  0  0  0  0  0  0  0  0  0  0  0
   -0.5455    1.8639   -0.8728 H   0  0  0  0  0  0  0  0  0  0  0  0
   -0.5286    1.8543    0.9071 H   0  0  0  0  0  0  0  0  0  0  0  0
    2.2303   -6.8070    0.4917 H   0  0  0  0  0  0  0  0  0  0  0  0
    2.2698   -8.9692    1.6664 H   0  0  0  0  0  0  0  0  0  0  0  0
   -2.0066   -9.0373    1.6641 H   0  0  0  0  0  0  0  0  0  0  0  0
   -2.0347   -6.8698    0.4987 H   0  0  0  0  0  0  0  0  0  0  0  0
    0.9996  -10.7822    2.6389 H   0  0  0  0  0  0  0  0  0  0  0  0
   -0.6803  -10.8088    2.6383 H   0  0  0  0  0  0  0  0  0  0  0  0
  1  2  1  0  0  0  0
  1 18  1  0  0  0  0
  1 19  1  0  0  0  0
  1 20  1  0  0  0  0
  2  6  1  0  0  0  0
  2  3  2  0  0  0  0
  3  4  1  0  0  0  0
  4  5  2  0  0  0  0
  5  6  1  0  0  0  0
  5  7  1  0  0  0  0
  7  8  1  0  0  0  0
  8  9  2  0  0  0  0
  8 10  2  0  0  0  0
  8 11  1  0  0  0  0
 11 16  2  0  0  0  0
 11 12  1  0  0  0  0
 12 13  2  0  0  0  0
 12 21  1  0  0  0  0
 13 14  1  0  0  0  0
 13 22  1  0  0  0  0
 14 15  2  0  0  0  0
 14 17  1  0  0  0  0
 15 16  1  0  0  0  0
 15 23  1  0  0  0  0
 16 24  1  0  0  0  0
 17 25  1  0  0  0  0
 17 26  1  0  0  0  0
M  END
$$$$
