ZINC01855421
 OpenBabel08292219463D

 48 50  0  0  0  0  0  0  0  0999 V2000
    3.0262    2.1627   -6.4064 C   0  0  0  0  0  0  0  0  0  0  0  0
    2.9412    3.6710   -6.1640 C   0  0  0  0  0  0  0  0  0  0  0  0
    2.2409    4.3393   -7.3488 C   0  0  0  0  0  0  0  0  0  0  0  0
    3.0433    3.8495   -3.7514 C   0  0  0  0  0  0  0  0  0  0  0  0
    2.2141    4.1214   -2.4946 C   0  0  0  0  0  0  0  0  0  0  0  0
    3.1159    4.0403   -1.2613 C   0  0  0  0  0  0  0  0  0  0  0  0
    2.2865    4.3106   -0.0044 C   0  0  0  0  0  0  0  0  0  0  0  0
    1.1599    3.3119    0.0994 C   0  0  0  0  0  0  0  0  0  0  0  0
    1.1482    1.9373    0.2062 C   0  0  0  0  0  0  0  0  0  0  0  0
   -0.0551    1.2590    0.2864 C   0  0  0  0  0  0  0  0  0  0  0  0
   -1.2486    1.9575    0.2539 C   0  0  0  0  0  0  0  0  0  0  0  0
   -1.2462    3.3332    0.1530 C   0  0  0  0  0  0  0  0  0  0  0  0
   -0.0359    4.0242    0.0717 C   0  0  0  0  0  0  0  0  0  0  0  0
    0.2554    5.4743   -0.0479 C   0  0  0  0  0  0  0  0  0  0  0  0
    1.6333    5.6680   -0.0949 C   0  0  0  0  0  0  0  0  0  0  0  0
    2.1534    6.9400   -0.2063 C   0  0  0  0  0  0  0  0  0  0  0  0
    1.3056    8.0317   -0.2719 C   0  0  0  0  0  0  0  0  0  0  0  0
   -0.0647    7.8494   -0.2260 C   0  0  0  0  0  0  0  0  0  0  0  0
   -0.5938    6.5803   -0.1142 C   0  0  0  0  0  0  0  0  0  0  0  0
    3.1605    4.2360    1.2210 C   0  0  0  0  0  0  0  0  0  0  0  0
    4.3389    3.9714    1.1101 O   0  0  0  0  0  0  0  0  0  0  0  0
    2.6327    4.4633    2.4401 N   0  0  0  0  0  0  0  0  0  0  0  0
    2.0210    1.7545   -6.5117 H   0  0  0  0  0  0  0  0  0  0  0  0
    3.5929    1.9726   -7.3178 H   0  0  0  0  0  0  0  0  0  0  0  0
    3.5251    1.6866   -5.5623 H   0  0  0  0  0  0  0  0  0  0  0  0
    3.9464    4.0793   -6.0587 H   0  0  0  0  0  0  0  0  0  0  0  0
    2.1803    5.4139   -7.1761 H   0  0  0  0  0  0  0  0  0  0  0  0
    2.8076    4.1492   -8.2602 H   0  0  0  0  0  0  0  0  0  0  0  0
    1.2357    3.9311   -7.4541 H   0  0  0  0  0  0  0  0  0  0  0  0
    3.8361    4.5931   -3.8316 H   0  0  0  0  0  0  0  0  0  0  0  0
    3.4835    2.8544   -3.6880 H   0  0  0  0  0  0  0  0  0  0  0  0
    1.4213    3.3777   -2.4145 H   0  0  0  0  0  0  0  0  0  0  0  0
    1.7739    5.1165   -2.5581 H   0  0  0  0  0  0  0  0  0  0  0  0
    3.9081    4.7847   -1.3409 H   0  0  0  0  0  0  0  0  0  0  0  0
    3.5571    3.0456   -1.1985 H   0  0  0  0  0  0  0  0  0  0  0  0
    2.0788    1.3897    0.2269 H   0  0  0  0  0  0  0  0  0  0  0  0
   -0.0626    0.1822    0.3700 H   0  0  0  0  0  0  0  0  0  0  0  0
   -2.1858    1.4240    0.3119 H   0  0  0  0  0  0  0  0  0  0  0  0
   -2.1802    3.8751    0.1324 H   0  0  0  0  0  0  0  0  0  0  0  0
    3.2231    7.0845   -0.2419 H   0  0  0  0  0  0  0  0  0  0  0  0
    1.7145    9.0274   -0.3596 H   0  0  0  0  0  0  0  0  0  0  0  0
   -0.7231    8.7040   -0.2779 H   0  0  0  0  0  0  0  0  0  0  0  0
   -1.6643    6.4425   -0.0783 H   0  0  0  0  0  0  0  0  0  0  0  0
    1.6902    4.6748    2.5287 H   0  0  0  0  0  0  0  0  0  0  0  0
    3.1952    4.4153    3.2288 H   0  0  0  0  0  0  0  0  0  0  0  0
    2.1669    3.9295   -4.9353 N   0  3  0  0  0  0  0  0  0  0  0  0
    1.4203    3.2295   -4.8519 H   0  0  0  0  0  0  0  0  0  0  0  0
    1.7525    4.8674   -4.9872 H   0  0  0  0  0  0  0  0  0  0  0  0
  1  2  1  0  0  0  0
  1 23  1  0  0  0  0
  1 24  1  0  0  0  0
  1 25  1  0  0  0  0
  2  3  1  0  0  0  0
  2 26  1  0  0  0  0
  2 46  1  0  0  0  0
  3 27  1  0  0  0  0
  3 28  1  0  0  0  0
  3 29  1  0  0  0  0
  4  5  1  0  0  0  0
  4 30  1  0  0  0  0
  4 31  1  0  0  0  0
  4 46  1  0  0  0  0
  5  6  1  0  0  0  0
  5 32  1  0  0  0  0
  5 33  1  0  0  0  0
  6  7  1  0  0  0  0
  6 34  1  0  0  0  0
  6 35  1  0  0  0  0
  7 15  1  0  0  0  0
  7  8  1  0  0  0  0
  7 20  1  0  0  0  0
  8 13  2  0  0  0  0
  8  9  1  0  0  0  0
  9 10  2  0  0  0  0
  9 36  1  0  0  0  0
 10 11  1  0  0  0  0
 10 37  1  0  0  0  0
 11 12  2  0  0  0  0
 11 38  1  0  0  0  0
 12 13  1  0  0  0  0
 12 39  1  0  0  0  0
 13 14  1  0  0  0  0
 14 19  2  0  0  0  0
 14 15  1  0  0  0  0
 15 16  2  0  0  0  0
 16 17  1  0  0  0  0
 16 40  1  0  0  0  0
 17 18  2  0  0  0  0
 17 41  1  0  0  0  0
 18 19  1  0  0  0  0
 18 42  1  0  0  0  0
 19 43  1  0  0  0  0
 20 21  2  0  0  0  0
 20 22  1  0  0  0  0
 22 44  1  0  0  0  0
 22 45  1  0  0  0  0
 46 47  1  0  0  0  0
 46 48  1  0  0  0  0
M  CHG  1  46   1
M  END
$$$$
