ZINC01530601
 OpenBabel08292219463D

 58 60  0  0  0  0  0  0  0  0999 V2000
   -0.9013    2.7917   -3.4145 C   0  0  0  0  0  0  0  0  0  0  0  0
   -1.1549    1.2913   -3.5746 C   0  0  0  0  0  0  0  0  0  0  0  0
   -0.5619    0.5707   -2.4401 N   0  3  0  0  0  0  0  0  0  0  0  0
   -1.2545    0.9519   -1.2020 C   0  0  0  0  0  0  0  0  0  0  0  0
   -0.5388    0.3252   -0.0036 C   0  0  0  0  0  0  0  0  0  0  0  0
   -0.7002   -0.8762   -2.6529 C   0  0  0  0  0  0  0  0  0  0  0  0
    0.1257   -1.2937   -3.8713 C   0  0  0  0  0  0  0  0  0  0  0  0
    1.5104   -1.0532   -3.6133 O   0  0  0  0  0  0  0  0  0  0  0  0
    2.3771   -1.2823   -4.6343 C   0  0  0  0  0  0  0  0  0  0  0  0
    1.9003   -1.7244   -5.8614 C   0  0  0  0  0  0  0  0  0  0  0  0
    2.7763   -1.9575   -6.8999 C   0  0  0  0  0  0  0  0  0  0  0  0
    4.1443   -1.7486   -6.7168 C   0  0  0  0  0  0  0  0  0  0  0  0
    4.6197   -1.3042   -5.4818 C   0  0  0  0  0  0  0  0  0  0  0  0
    3.7368   -1.0683   -4.4498 C   0  0  0  0  0  0  0  0  0  0  0  0
    5.0879   -1.9981   -7.8285 C   0  0  0  0  0  0  0  0  0  0  0  0
    5.0455   -1.2227   -8.9412 C   0  0  0  0  0  0  0  0  0  0  0  0
    4.1538   -0.0534   -8.9896 C   0  0  0  0  0  0  0  0  0  0  0  0
    4.1481    0.8703   -7.9393 C   0  0  0  0  0  0  0  0  0  0  0  0
    3.3099    1.9638   -7.9923 C   0  0  0  0  0  0  0  0  0  0  0  0
    2.4753    2.1484   -9.0808 C   0  0  0  0  0  0  0  0  0  0  0  0
    2.4746    1.2387  -10.1239 C   0  0  0  0  0  0  0  0  0  0  0  0
    3.3114    0.1434  -10.0887 C   0  0  0  0  0  0  0  0  0  0  0  0
    6.0434   -1.6104  -10.3078 Cl  0  0  0  0  0  0  0  0  0  0  0  0
    6.0778   -3.0931   -7.7270 C   0  0  0  0  0  0  0  0  0  0  0  0
    5.6513   -4.4208   -7.6756 C   0  0  0  0  0  0  0  0  0  0  0  0
    6.5794   -5.4372   -7.5810 C   0  0  0  0  0  0  0  0  0  0  0  0
    7.9305   -5.1423   -7.5366 C   0  0  0  0  0  0  0  0  0  0  0  0
    8.3600   -3.8280   -7.5871 C   0  0  0  0  0  0  0  0  0  0  0  0
    7.4423   -2.8027   -7.6881 C   0  0  0  0  0  0  0  0  0  0  0  0
   -1.3543    3.1397   -2.4861 H   0  0  0  0  0  0  0  0  0  0  0  0
    0.1724    2.9778   -3.3869 H   0  0  0  0  0  0  0  0  0  0  0  0
   -1.3412    3.3264   -4.2562 H   0  0  0  0  0  0  0  0  0  0  0  0
   -2.2285    1.1052   -3.6022 H   0  0  0  0  0  0  0  0  0  0  0  0
   -0.7018    0.9433   -4.5029 H   0  0  0  0  0  0  0  0  0  0  0  0
   -1.2486    2.0372   -1.1018 H   0  0  0  0  0  0  0  0  0  0  0  0
   -2.2841    0.5958   -1.2372 H   0  0  0  0  0  0  0  0  0  0  0  0
    0.4736    0.7234    0.0639 H   0  0  0  0  0  0  0  0  0  0  0  0
   -1.0841    0.5622    0.9099 H   0  0  0  0  0  0  0  0  0  0  0  0
   -0.4961   -0.7565   -0.1310 H   0  0  0  0  0  0  0  0  0  0  0  0
   -0.3426   -1.4089   -1.7718 H   0  0  0  0  0  0  0  0  0  0  0  0
   -1.7488   -1.1198   -2.8240 H   0  0  0  0  0  0  0  0  0  0  0  0
   -0.0283   -2.3547   -4.0684 H   0  0  0  0  0  0  0  0  0  0  0  0
   -0.1883   -0.7137   -4.7392 H   0  0  0  0  0  0  0  0  0  0  0  0
    0.8417   -1.8861   -6.0021 H   0  0  0  0  0  0  0  0  0  0  0  0
    2.4047   -2.3017   -7.8538 H   0  0  0  0  0  0  0  0  0  0  0  0
    5.6774   -1.1418   -5.3363 H   0  0  0  0  0  0  0  0  0  0  0  0
    4.1033   -0.7205   -3.4953 H   0  0  0  0  0  0  0  0  0  0  0  0
    4.7984    0.7272   -7.0889 H   0  0  0  0  0  0  0  0  0  0  0  0
    3.3044    2.6779   -7.1821 H   0  0  0  0  0  0  0  0  0  0  0  0
    1.8207    3.0067   -9.1163 H   0  0  0  0  0  0  0  0  0  0  0  0
    1.8201    1.3895  -10.9696 H   0  0  0  0  0  0  0  0  0  0  0  0
    3.3133   -0.5631  -10.9056 H   0  0  0  0  0  0  0  0  0  0  0  0
    4.5969   -4.6523   -7.7095 H   0  0  0  0  0  0  0  0  0  0  0  0
    6.2507   -6.4651   -7.5411 H   0  0  0  0  0  0  0  0  0  0  0  0
    8.6531   -5.9415   -7.4618 H   0  0  0  0  0  0  0  0  0  0  0  0
    9.4160   -3.6044   -7.5517 H   0  0  0  0  0  0  0  0  0  0  0  0
    7.7790   -1.7775   -7.7323 H   0  0  0  0  0  0  0  0  0  0  0  0
    0.4160    0.8077   -2.3652 H   0  0  0  0  0  0  0  0  0  0  0  0
  1  2  1  0  0  0  0
  1 30  1  0  0  0  0
  1 31  1  0  0  0  0
  1 32  1  0  0  0  0
  2  3  1  0  0  0  0
  2 33  1  0  0  0  0
  2 34  1  0  0  0  0
  3  4  1  0  0  0  0
  3  6  1  0  0  0  0
  3 58  1  0  0  0  0
  4  5  1  0  0  0  0
  4 35  1  0  0  0  0
  4 36  1  0  0  0  0
  5 37  1  0  0  0  0
  5 38  1  0  0  0  0
  5 39  1  0  0  0  0
  6  7  1  0  0  0  0
  6 40  1  0  0  0  0
  6 41  1  0  0  0  0
  7  8  1  0  0  0  0
  7 42  1  0  0  0  0
  7 43  1  0  0  0  0
  8  9  1  0  0  0  0
  9 14  2  0  0  0  0
  9 10  1  0  0  0  0
 10 11  2  0  0  0  0
 10 44  1  0  0  0  0
 11 12  1  0  0  0  0
 11 45  1  0  0  0  0
 12 13  2  0  0  0  0
 12 15  1  0  0  0  0
 13 14  1  0  0  0  0
 13 46  1  0  0  0  0
 14 47  1  0  0  0  0
 15 16  2  0  0  0  0
 15 24  1  0  0  0  0
 16 17  1  0  0  0  0
 16 23  1  0  0  0  0
 17 22  2  0  0  0  0
 17 18  1  0  0  0  0
 18 19  2  0  0  0  0
 18 48  1  0  0  0  0
 19 20  1  0  0  0  0
 19 49  1  0  0  0  0
 20 21  2  0  0  0  0
 20 50  1  0  0  0  0
 21 22  1  0  0  0  0
 21 51  1  0  0  0  0
 22 52  1  0  0  0  0
 24 29  2  0  0  0  0
 24 25  1  0  0  0  0
 25 26  2  0  0  0  0
 25 53  1  0  0  0  0
 26 27  1  0  0  0  0
 26 54  1  0  0  0  0
 27 28  2  0  0  0  0
 27 55  1  0  0  0  0
 28 29  1  0  0  0  0
 28 56  1  0  0  0  0
 29 57  1  0  0  0  0
M  CHG  1   3   1
M  END
$$$$
