ZINC00538312
 OpenBabel08292219463D

 58 62  0  0  1  0  0  0  0  0999 V2000
   -0.0184    1.5028    0.0103 C   0  0  0  0  0  0  0  0  0  0  0  0
    0.0021   -0.0041    0.0020 C   0  0  0  0  0  0  0  0  0  0  0  0
   -1.1658   -0.7051    0.0037 C   0  0  0  0  0  0  0  0  0  0  0  0
   -1.0976   -2.1102    0.0026 C   0  0  0  0  0  0  0  0  0  0  0  0
   -2.1195   -2.7763   -0.0037 O   0  0  0  0  0  0  0  0  0  0  0  0
    0.1170   -2.7181    0.0083 N   0  0  0  0  0  0  0  0  0  0  0  0
    1.2324   -1.9722   -0.0125 C   0  0  0  0  0  0  0  0  0  0  0  0
    1.1610   -0.6576   -0.0126 N   0  0  0  0  0  0  0  0  0  0  0  0
    2.6152   -2.5746   -0.0542 C   0  0  0  0  0  0  0  0  0  0  0  0
    2.5757   -4.0399    0.3747 C   0  0  0  0  0  0  0  0  0  0  0  0
    1.4654   -4.7382   -0.4208 C   0  0  0  0  0  0  0  0  0  0  0  0
    0.1227   -4.1811    0.0440 C   0  0  0  0  0  0  0  0  0  0  0  0
   -2.4949    0.0052    0.0071 C   0  0  0  0  0  0  0  0  0  0  0  0
   -3.0069    0.1361   -1.4287 C   0  0  0  0  0  0  0  0  0  0  0  0
   -4.3025    0.8286   -1.4254 N   0  3  2  0  0  0  0  0  0  0  0  0
   -5.2942    0.0044   -0.7242 C   0  0  0  0  0  0  0  0  0  0  0  0
   -6.6248    0.7562   -0.6469 C   0  0  0  0  0  0  0  0  0  0  0  0
   -7.1187    1.0558   -2.0652 C   0  0  2  0  0  0  0  0  0  0  0  0
   -6.0446    1.8523   -2.8116 C   0  0  0  0  0  0  0  0  0  0  0  0
   -4.7355    1.0599   -2.8086 C   0  0  0  0  0  0  0  0  0  0  0  0
   -8.3887    1.8641   -1.9963 C   0  0  0  0  0  0  0  0  0  0  0  0
   -9.6953    1.4738   -2.5327 C   0  0  0  0  0  0  0  0  0  0  0  0
  -10.1611    0.3470   -3.2152 C   0  0  0  0  0  0  0  0  0  0  0  0
  -11.4711    0.2760   -3.5942 C   0  0  0  0  0  0  0  0  0  0  0  0
  -12.3461    1.3174   -3.3066 C   0  0  0  0  0  0  0  0  0  0  0  0
  -11.9048    2.4388   -2.6332 C   0  0  0  0  0  0  0  0  0  0  0  0
  -10.5757    2.5285   -2.2393 C   0  0  0  0  0  0  0  0  0  0  0  0
   -9.8642    3.4688   -1.5855 O   0  0  0  0  0  0  0  0  0  0  0  0
   -8.5274    3.0311   -1.4462 N   0  0  0  0  0  0  0  0  0  0  0  0
  -13.6388    1.2314   -3.6896 F   0  0  0  0  0  0  0  0  0  0  0  0
    1.0042    1.8801    0.0026 H   0  0  0  0  0  0  0  0  0  0  0  0
   -0.5455    1.8639   -0.8728 H   0  0  0  0  0  0  0  0  0  0  0  0
   -0.5286    1.8543    0.9071 H   0  0  0  0  0  0  0  0  0  0  0  0
    3.0059   -2.5077   -1.0696 H   0  0  0  0  0  0  0  0  0  0  0  0
    3.2691   -2.0204    0.6191 H   0  0  0  0  0  0  0  0  0  0  0  0
    3.5346   -4.5121    0.1611 H   0  0  0  0  0  0  0  0  0  0  0  0
    2.3615   -4.1056    1.4415 H   0  0  0  0  0  0  0  0  0  0  0  0
    1.5965   -4.5420   -1.4849 H   0  0  0  0  0  0  0  0  0  0  0  0
    1.5014   -5.8120   -0.2372 H   0  0  0  0  0  0  0  0  0  0  0  0
   -0.0688   -4.5145    1.0639 H   0  0  0  0  0  0  0  0  0  0  0  0
   -0.6654   -4.5576   -0.6081 H   0  0  0  0  0  0  0  0  0  0  0  0
   -3.2109   -0.5666    0.5975 H   0  0  0  0  0  0  0  0  0  0  0  0
   -2.3754    0.9974    0.4422 H   0  0  0  0  0  0  0  0  0  0  0  0
   -2.2909    0.7079   -2.0190 H   0  0  0  0  0  0  0  0  0  0  0  0
   -3.1264   -0.8561   -1.8638 H   0  0  0  0  0  0  0  0  0  0  0  0
   -5.4368   -0.9309   -1.2655 H   0  0  0  0  0  0  0  0  0  0  0  0
   -4.9399   -0.2107    0.2839 H   0  0  0  0  0  0  0  0  0  0  0  0
   -7.3603    0.1418   -0.1276 H   0  0  0  0  0  0  0  0  0  0  0  0
   -6.4834    1.6916   -0.1055 H   0  0  0  0  0  0  0  0  0  0  0  0
   -7.3090    0.1197   -2.5902 H   0  0  0  0  0  0  0  0  0  0  0  0
   -6.3653    2.0214   -3.8395 H   0  0  0  0  0  0  0  0  0  0  0  0
   -5.8912    2.8104   -2.3151 H   0  0  0  0  0  0  0  0  0  0  0  0
   -3.9686    1.6240   -3.3394 H   0  0  0  0  0  0  0  0  0  0  0  0
   -4.8899    0.1021   -3.3055 H   0  0  0  0  0  0  0  0  0  0  0  0
   -9.4868   -0.4654   -3.4426 H   0  0  0  0  0  0  0  0  0  0  0  0
  -11.8300   -0.5955   -4.1217 H   0  0  0  0  0  0  0  0  0  0  0  0
  -12.5906    3.2435   -2.4131 H   0  0  0  0  0  0  0  0  0  0  0  0
   -4.2082    1.7141   -0.9510 H   0  0  0  0  0  0  0  0  0  0  0  0
  1  2  1  0  0  0  0
  1 31  1  0  0  0  0
  1 32  1  0  0  0  0
  1 33  1  0  0  0  0
  2  8  1  0  0  0  0
  2  3  2  0  0  0  0
  3  4  1  0  0  0  0
  3 13  1  0  0  0  0
  4  5  2  0  0  0  0
  4  6  1  0  0  0  0
  6 12  1  0  0  0  0
  6  7  1  0  0  0  0
  7  8  2  0  0  0  0
  7  9  1  0  0  0  0
  9 10  1  0  0  0  0
  9 34  1  0  0  0  0
  9 35  1  0  0  0  0
 10 11  1  0  0  0  0
 10 36  1  0  0  0  0
 10 37  1  0  0  0  0
 11 12  1  0  0  0  0
 11 38  1  0  0  0  0
 11 39  1  0  0  0  0
 12 40  1  0  0  0  0
 12 41  1  0  0  0  0
 13 14  1  0  0  0  0
 13 42  1  0  0  0  0
 13 43  1  0  0  0  0
 14 15  1  0  0  0  0
 14 44  1  0  0  0  0
 14 45  1  0  0  0  0
 15 20  1  0  0  0  0
 15 16  1  0  0  0  0
 15 58  1  1  0  0  0
 16 17  1  0  0  0  0
 16 46  1  0  0  0  0
 16 47  1  0  0  0  0
 17 18  1  0  0  0  0
 17 48  1  0  0  0  0
 17 49  1  0  0  0  0
 18 19  1  0  0  0  0
 18 21  1  0  0  0  0
 18 50  1  6  0  0  0
 19 20  1  0  0  0  0
 19 51  1  0  0  0  0
 19 52  1  0  0  0  0
 20 53  1  0  0  0  0
 20 54  1  0  0  0  0
 21 29  2  0  0  0  0
 21 22  1  0  0  0  0
 22 27  2  0  0  0  0
 22 23  1  0  0  0  0
 23 24  2  0  0  0  0
 23 55  1  0  0  0  0
 24 25  1  0  0  0  0
 24 56  1  0  0  0  0
 25 26  2  0  0  0  0
 25 30  1  0  0  0  0
 26 27  1  0  0  0  0
 26 57  1  0  0  0  0
 27 28  1  0  0  0  0
 28 29  1  0  0  0  0
M  CHG  1  15   1
M  END
$$$$
