ZINC06920384
 OpenBabel08292219463D

 69 68  0  0  0  0  0  0  0  0999 V2000
   13.6211   24.7320    0.0048 C   0  0  0  0  0  0  0  0  0  0  0  0
   13.7625   23.2086   -0.0047 C   0  0  0  0  0  0  0  0  0  0  0  0
   12.3734   22.5673    0.0051 C   0  0  0  0  0  0  0  0  0  0  0  0
   12.5149   21.0439   -0.0044 C   0  0  0  0  0  0  0  0  0  0  0  0
   11.1258   20.4026    0.0054 C   0  0  0  0  0  0  0  0  0  0  0  0
   11.2673   18.8792   -0.0041 C   0  0  0  0  0  0  0  0  0  0  0  0
    9.8782   18.2380    0.0057 C   0  0  0  0  0  0  0  0  0  0  0  0
   10.0197   16.7145   -0.0038 C   0  0  0  0  0  0  0  0  0  0  0  0
    8.6306   16.0733    0.0060 C   0  0  0  0  0  0  0  0  0  0  0  0
    8.7721   14.5499   -0.0036 C   0  0  0  0  0  0  0  0  0  0  0  0
    7.3830   13.9086    0.0063 C   0  0  0  0  0  0  0  0  0  0  0  0
    7.5244   12.3852   -0.0033 C   0  0  0  0  0  0  0  0  0  0  0  0
    6.1354   11.7439    0.0065 C   0  0  0  0  0  0  0  0  0  0  0  0
    6.2768   10.2205   -0.0030 C   0  0  0  0  0  0  0  0  0  0  0  0
    4.8877    9.5792    0.0068 C   0  0  0  0  0  0  0  0  0  0  0  0
    5.0292    8.0558   -0.0027 C   0  0  0  0  0  0  0  0  0  0  0  0
    3.6401    7.4145    0.0071 C   0  0  0  0  0  0  0  0  0  0  0  0
    3.7816    5.8911   -0.0024 C   0  0  0  0  0  0  0  0  0  0  0  0
    2.3925    5.2499    0.0074 C   0  0  0  0  0  0  0  0  0  0  0  0
    2.5340    3.7264   -0.0021 C   0  0  0  0  0  0  0  0  0  0  0  0
    1.1449    3.0852    0.0077 C   0  0  0  0  0  0  0  0  0  0  0  0
    1.2864    1.5618   -0.0018 C   0  0  0  0  0  0  0  0  0  0  0  0
   -0.0110    0.9628    0.0073 O   0  0  0  0  0  0  0  0  0  0  0  0
   14.6107   25.1889   -0.0022 H   0  0  0  0  0  0  0  0  0  0  0  0
   13.0674   25.0510   -0.8782 H   0  0  0  0  0  0  0  0  0  0  0  0
   13.0844   25.0415    0.9016 H   0  0  0  0  0  0  0  0  0  0  0  0
   14.3162   22.8896    0.8783 H   0  0  0  0  0  0  0  0  0  0  0  0
   14.2992   22.8991   -0.9015 H   0  0  0  0  0  0  0  0  0  0  0  0
   11.8197   22.8863   -0.8779 H   0  0  0  0  0  0  0  0  0  0  0  0
   11.8367   22.8768    0.9019 H   0  0  0  0  0  0  0  0  0  0  0  0
   13.0686   20.7249    0.8786 H   0  0  0  0  0  0  0  0  0  0  0  0
   13.0516   20.7345   -0.9012 H   0  0  0  0  0  0  0  0  0  0  0  0
   10.5721   20.7216   -0.8776 H   0  0  0  0  0  0  0  0  0  0  0  0
   10.5891   20.7121    0.9022 H   0  0  0  0  0  0  0  0  0  0  0  0
   11.8210   18.5602    0.8789 H   0  0  0  0  0  0  0  0  0  0  0  0
   11.8040   18.5698   -0.9010 H   0  0  0  0  0  0  0  0  0  0  0  0
    9.3245   18.5570   -0.8774 H   0  0  0  0  0  0  0  0  0  0  0  0
    9.3415   18.5474    0.9025 H   0  0  0  0  0  0  0  0  0  0  0  0
   10.5734   16.3955    0.8792 H   0  0  0  0  0  0  0  0  0  0  0  0
   10.5564   16.4051   -0.9007 H   0  0  0  0  0  0  0  0  0  0  0  0
    8.0769   16.3923   -0.8771 H   0  0  0  0  0  0  0  0  0  0  0  0
    8.0939   16.3827    0.9028 H   0  0  0  0  0  0  0  0  0  0  0  0
    9.3258   14.2308    0.8795 H   0  0  0  0  0  0  0  0  0  0  0  0
    9.3088   14.2404   -0.9004 H   0  0  0  0  0  0  0  0  0  0  0  0
    6.8293   14.2276   -0.8768 H   0  0  0  0  0  0  0  0  0  0  0  0
    6.8463   14.2180    0.9031 H   0  0  0  0  0  0  0  0  0  0  0  0
    8.0781   12.0662    0.8798 H   0  0  0  0  0  0  0  0  0  0  0  0
    8.0612   12.0757   -0.9001 H   0  0  0  0  0  0  0  0  0  0  0  0
    5.5817   12.0629   -0.8765 H   0  0  0  0  0  0  0  0  0  0  0  0
    5.5986   12.0534    0.9034 H   0  0  0  0  0  0  0  0  0  0  0  0
    6.8305    9.9015    0.8800 H   0  0  0  0  0  0  0  0  0  0  0  0
    6.8135    9.9110   -0.8998 H   0  0  0  0  0  0  0  0  0  0  0  0
    4.3340    9.8982   -0.8762 H   0  0  0  0  0  0  0  0  0  0  0  0
    4.3510    9.8887    0.9037 H   0  0  0  0  0  0  0  0  0  0  0  0
    5.5829    7.7368    0.8803 H   0  0  0  0  0  0  0  0  0  0  0  0
    5.5659    7.7464   -0.8995 H   0  0  0  0  0  0  0  0  0  0  0  0
    3.0864    7.7336   -0.8759 H   0  0  0  0  0  0  0  0  0  0  0  0
    3.1034    7.7240    0.9039 H   0  0  0  0  0  0  0  0  0  0  0  0
    4.3353    5.5721    0.8806 H   0  0  0  0  0  0  0  0  0  0  0  0
    4.3183    5.5817   -0.8992 H   0  0  0  0  0  0  0  0  0  0  0  0
    1.8388    5.5689   -0.8756 H   0  0  0  0  0  0  0  0  0  0  0  0
    1.8558    5.5593    0.9042 H   0  0  0  0  0  0  0  0  0  0  0  0
    3.0877    3.4074    0.8809 H   0  0  0  0  0  0  0  0  0  0  0  0
    3.0707    3.4170   -0.8989 H   0  0  0  0  0  0  0  0  0  0  0  0
    0.5912    3.4042   -0.8753 H   0  0  0  0  0  0  0  0  0  0  0  0
    0.6082    3.3946    0.9045 H   0  0  0  0  0  0  0  0  0  0  0  0
    1.8401    1.2428    0.8812 H   0  0  0  0  0  0  0  0  0  0  0  0
    1.8231    1.2523   -0.8987 H   0  0  0  0  0  0  0  0  0  0  0  0
    0.0021   -0.0041    0.0020 H   0  0  0  0  0  0  0  0  0  0  0  0
  1  2  1  0  0  0  0
  1 24  1  0  0  0  0
  1 25  1  0  0  0  0
  1 26  1  0  0  0  0
  2  3  1  0  0  0  0
  2 27  1  0  0  0  0
  2 28  1  0  0  0  0
  3  4  1  0  0  0  0
  3 29  1  0  0  0  0
  3 30  1  0  0  0  0
  4  5  1  0  0  0  0
  4 31  1  0  0  0  0
  4 32  1  0  0  0  0
  5  6  1  0  0  0  0
  5 33  1  0  0  0  0
  5 34  1  0  0  0  0
  6  7  1  0  0  0  0
  6 35  1  0  0  0  0
  6 36  1  0  0  0  0
  7  8  1  0  0  0  0
  7 37  1  0  0  0  0
  7 38  1  0  0  0  0
  8  9  1  0  0  0  0
  8 39  1  0  0  0  0
  8 40  1  0  0  0  0
  9 10  1  0  0  0  0
  9 41  1  0  0  0  0
  9 42  1  0  0  0  0
 10 11  1  0  0  0  0
 10 43  1  0  0  0  0
 10 44  1  0  0  0  0
 11 12  1  0  0  0  0
 11 45  1  0  0  0  0
 11 46  1  0  0  0  0
 12 13  1  0  0  0  0
 12 47  1  0  0  0  0
 12 48  1  0  0  0  0
 13 14  1  0  0  0  0
 13 49  1  0  0  0  0
 13 50  1  0  0  0  0
 14 15  1  0  0  0  0
 14 51  1  0  0  0  0
 14 52  1  0  0  0  0
 15 16  1  0  0  0  0
 15 53  1  0  0  0  0
 15 54  1  0  0  0  0
 16 17  1  0  0  0  0
 16 55  1  0  0  0  0
 16 56  1  0  0  0  0
 17 18  1  0  0  0  0
 17 57  1  0  0  0  0
 17 58  1  0  0  0  0
 18 19  1  0  0  0  0
 18 59  1  0  0  0  0
 18 60  1  0  0  0  0
 19 20  1  0  0  0  0
 19 61  1  0  0  0  0
 19 62  1  0  0  0  0
 20 21  1  0  0  0  0
 20 63  1  0  0  0  0
 20 64  1  0  0  0  0
 21 22  1  0  0  0  0
 21 65  1  0  0  0  0
 21 66  1  0  0  0  0
 22 23  1  0  0  0  0
 22 67  1  0  0  0  0
 22 68  1  0  0  0  0
 23 69  1  0  0  0  0
M  END
$$$$
