ZINC96006015
 OpenBabel08292219463D

139144  0  0  1  0  0  0  0  0999 V2000
    3.9317   -2.7048    0.3031 C   0  0  0  0  0  0  0  0  0  0  0  0
    5.0834   -2.0970   -0.3765 N   0  3  2  0  0  0  0  0  0  0  0  0
    6.3235   -2.4890    0.3105 C   0  0  0  0  0  0  0  0  0  0  0  0
    6.1328   -2.2862    1.8140 C   0  0  0  0  0  0  0  0  0  0  0  0
    5.6132   -0.8960    2.0797 C   0  0  0  0  0  0  0  0  0  0  0  0
    5.6985   -0.3914    3.3684 C   0  0  0  0  0  0  0  0  0  0  0  0
    5.2304    0.8789    3.6539 C   0  0  0  0  0  0  0  0  0  0  0  0
    4.6708    1.6511    2.6399 C   0  0  0  0  0  0  0  0  0  0  0  0
    4.5891    1.1430    1.3560 C   0  0  0  0  0  0  0  0  0  0  0  0
    5.0618   -0.1307    1.0739 C   0  0  0  0  0  0  0  0  0  0  0  0
    4.9595   -0.6371   -0.3409 C   0  0  1  0  0  0  0  0  0  0  0  0
    3.9944   -0.3481   -0.7570 H   0  0  0  0  0  0  0  0  0  0  0  0
    6.0767   -0.0155   -1.1814 C   0  0  0  0  0  0  0  0  0  0  0  0
    5.8659    1.4738   -1.2744 C   0  0  0  0  0  0  0  0  0  0  0  0
    5.0026    1.9904   -2.2228 C   0  0  0  0  0  0  0  0  0  0  0  0
    4.8059    3.3558   -2.3121 C   0  0  0  0  0  0  0  0  0  0  0  0
    5.4743    4.2099   -1.4498 C   0  0  0  0  0  0  0  0  0  0  0  0
    6.3429    3.6900   -0.4950 C   0  0  0  0  0  0  0  0  0  0  0  0
    6.5319    2.3201   -0.4076 C   0  0  0  0  0  0  0  0  0  0  0  0
    7.0012    4.5243    0.3537 O   0  0  0  0  0  0  0  0  0  0  0  0
    7.8767    3.9202    1.3079 C   0  0  0  0  0  0  0  0  0  0  0  0
    5.2822    5.5535   -1.5366 O   0  0  0  0  0  0  0  0  0  0  0  0
    4.3768    6.0158   -2.5408 C   0  0  0  0  0  0  0  0  0  0  0  0
    4.2058    2.9001    2.9107 O   0  0  0  0  0  0  0  0  0  0  0  0
    3.6449    3.6340    1.8204 C   0  0  0  0  0  0  0  0  0  0  0  0
    5.3162    1.3704    4.9190 O   0  0  0  0  0  0  0  0  0  0  0  0
    5.9020    0.5203    5.9070 C   0  0  0  0  0  0  0  0  0  0  0  0
    5.1272   -2.5528   -1.7724 C   0  0  0  0  0  0  0  0  0  0  0  0
    3.8598   -2.0966   -2.4979 C   0  0  0  0  0  0  0  0  0  0  0  0
    3.9574   -2.4609   -3.9569 C   0  0  0  0  0  0  0  0  0  0  0  0
    4.8940   -3.1117   -4.3557 O   0  0  0  0  0  0  0  0  0  0  0  0
    3.0037   -2.0626   -4.8134 O   0  0  0  0  0  0  0  0  0  0  0  0
    3.1603   -2.4437   -6.1817 C   0  0  0  0  0  0  0  0  0  0  0  0
    1.9854   -1.9032   -6.9993 C   0  0  0  0  0  0  0  0  0  0  0  0
    2.1530   -2.3112   -8.4643 C   0  0  0  0  0  0  0  0  0  0  0  0
    0.9782   -1.7707   -9.2819 C   0  0  0  0  0  0  0  0  0  0  0  0
    1.1458   -2.1788  -10.7469 C   0  0  0  0  0  0  0  0  0  0  0  0
    0.0485   -1.6739  -11.5105 O   0  0  0  0  0  0  0  0  0  0  0  0
    0.0443   -1.9464  -12.8249 C   0  0  0  0  0  0  0  0  0  0  0  0
    0.9424   -2.5921  -13.3109 O   0  0  0  0  0  0  0  0  0  0  0  0
   -1.0808   -1.4469  -13.6943 C   0  0  0  0  0  0  0  0  0  0  0  0
   -0.9145   -1.9998  -15.1112 C   0  0  0  0  0  0  0  0  0  0  0  0
   -1.9444   -1.4233  -15.9858 N   0  3  2  0  0  0  0  0  0  0  0  0
   -1.7472   -1.9043  -17.3617 C   0  0  0  0  0  0  0  0  0  0  0  0
   -2.9869   -1.5506  -18.1841 C   0  0  0  0  0  0  0  0  0  0  0  0
   -3.3150   -0.0894  -18.0101 C   0  0  0  0  0  0  0  0  0  0  0  0
   -4.1734    0.5102  -18.9193 C   0  0  0  0  0  0  0  0  0  0  0  0
   -4.5016    1.8483  -18.7928 C   0  0  0  0  0  0  0  0  0  0  0  0
   -3.9662    2.5932  -17.7458 C   0  0  0  0  0  0  0  0  0  0  0  0
   -3.1097    1.9902  -16.8424 C   0  0  0  0  0  0  0  0  0  0  0  0
   -2.7817    0.6484  -16.9744 C   0  0  0  0  0  0  0  0  0  0  0  0
   -1.8379    0.0383  -15.9716 C   0  0  2  0  0  0  0  0  0  0  0  0
   -2.0843    0.4069  -14.9758 H   0  0  0  0  0  0  0  0  0  0  0  0
   -0.4035    0.4429  -16.3175 C   0  0  0  0  0  0  0  0  0  0  0  0
   -0.2728    1.9424  -16.2436 C   0  0  0  0  0  0  0  0  0  0  0  0
   -0.3713    2.7009  -17.3953 C   0  0  0  0  0  0  0  0  0  0  0  0
   -0.2521    4.0768  -17.3327 C   0  0  0  0  0  0  0  0  0  0  0  0
   -0.0339    4.6985  -16.1138 C   0  0  0  0  0  0  0  0  0  0  0  0
    0.0648    3.9351  -14.9545 C   0  0  0  0  0  0  0  0  0  0  0  0
   -0.0604    2.5568  -15.0236 C   0  0  0  0  0  0  0  0  0  0  0  0
    0.2789    4.5407  -13.7559 O   0  0  0  0  0  0  0  0  0  0  0  0
    0.4806    3.6896  -12.6258 C   0  0  0  0  0  0  0  0  0  0  0  0
    0.0841    6.0519  -16.0505 O   0  0  0  0  0  0  0  0  0  0  0  0
   -0.0274    6.7710  -17.2804 C   0  0  0  0  0  0  0  0  0  0  0  0
   -4.2836    3.9088  -17.6120 O   0  0  0  0  0  0  0  0  0  0  0  0
   -3.6963    4.6093  -16.5137 C   0  0  0  0  0  0  0  0  0  0  0  0
   -5.3435    2.4328  -19.6867 O   0  0  0  0  0  0  0  0  0  0  0  0
   -5.8538    1.6054  -20.7341 C   0  0  0  0  0  0  0  0  0  0  0  0
   -3.2748   -1.8239  -15.5088 C   0  0  0  0  0  0  0  0  0  0  0  0
    3.0129   -2.4065   -0.2018 H   0  0  0  0  0  0  0  0  0  0  0  0
    4.0251   -3.7905    0.2759 H   0  0  0  0  0  0  0  0  0  0  0  0
    3.9024   -2.3686    1.3395 H   0  0  0  0  0  0  0  0  0  0  0  0
    6.5386   -3.5381    0.1071 H   0  0  0  0  0  0  0  0  0  0  0  0
    7.1482   -1.8689   -0.0408 H   0  0  0  0  0  0  0  0  0  0  0  0
    5.4185   -3.0182    2.1908 H   0  0  0  0  0  0  0  0  0  0  0  0
    7.0882   -2.4191    2.3217 H   0  0  0  0  0  0  0  0  0  0  0  0
    6.1329   -0.9929    4.1533 H   0  0  0  0  0  0  0  0  0  0  0  0
    4.1551    1.7412    0.5685 H   0  0  0  0  0  0  0  0  0  0  0  0
    7.0396   -0.2175   -0.7124 H   0  0  0  0  0  0  0  0  0  0  0  0
    6.0620   -0.4477   -2.1820 H   0  0  0  0  0  0  0  0  0  0  0  0
    4.4811    1.3257   -2.8955 H   0  0  0  0  0  0  0  0  0  0  0  0
    4.1315    3.7568   -3.0543 H   0  0  0  0  0  0  0  0  0  0  0  0
    7.2026    1.9138    0.3350 H   0  0  0  0  0  0  0  0  0  0  0  0
    7.3079    3.2433    1.9453 H   0  0  0  0  0  0  0  0  0  0  0  0
    8.6532    3.3612    0.7858 H   0  0  0  0  0  0  0  0  0  0  0  0
    8.3368    4.6955    1.9206 H   0  0  0  0  0  0  0  0  0  0  0  0
    4.7349    5.7070   -3.5229 H   0  0  0  0  0  0  0  0  0  0  0  0
    3.3893    5.5896   -2.3637 H   0  0  0  0  0  0  0  0  0  0  0  0
    4.3154    7.1033   -2.5019 H   0  0  0  0  0  0  0  0  0  0  0  0
    4.3987    3.7640    1.0439 H   0  0  0  0  0  0  0  0  0  0  0  0
    2.7946    3.0868    1.4133 H   0  0  0  0  0  0  0  0  0  0  0  0
    3.3135    4.6109    2.1723 H   0  0  0  0  0  0  0  0  0  0  0  0
    5.9090    1.0325    6.8691 H   0  0  0  0  0  0  0  0  0  0  0  0
    5.3195   -0.3975    5.9882 H   0  0  0  0  0  0  0  0  0  0  0  0
    6.9243    0.2773    5.6173 H   0  0  0  0  0  0  0  0  0  0  0  0
    6.0013   -2.1280   -2.2660 H   0  0  0  0  0  0  0  0  0  0  0  0
    5.1887   -3.6407   -1.7976 H   0  0  0  0  0  0  0  0  0  0  0  0
    2.9923   -2.5884   -2.0578 H   0  0  0  0  0  0  0  0  0  0  0  0
    3.7537   -1.0162   -2.3995 H   0  0  0  0  0  0  0  0  0  0  0  0
    4.0923   -2.0322   -6.5691 H   0  0  0  0  0  0  0  0  0  0  0  0
    3.1846   -3.5309   -6.2555 H   0  0  0  0  0  0  0  0  0  0  0  0
    1.0534   -2.3146   -6.6119 H   0  0  0  0  0  0  0  0  0  0  0  0
    1.9611   -0.8159   -6.9254 H   0  0  0  0  0  0  0  0  0  0  0  0
    3.0851   -1.8998   -8.8517 H   0  0  0  0  0  0  0  0  0  0  0  0
    2.1774   -3.3985   -8.5381 H   0  0  0  0  0  0  0  0  0  0  0  0
    0.0461   -2.1822   -8.8945 H   0  0  0  0  0  0  0  0  0  0  0  0
    0.9538   -0.6835   -9.2081 H   0  0  0  0  0  0  0  0  0  0  0  0
    2.0779   -1.7673  -11.1343 H   0  0  0  0  0  0  0  0  0  0  0  0
    1.1702   -3.2660  -10.8207 H   0  0  0  0  0  0  0  0  0  0  0  0
   -2.0334   -1.7811  -13.2833 H   0  0  0  0  0  0  0  0  0  0  0  0
   -1.0603   -0.3575  -13.7247 H   0  0  0  0  0  0  0  0  0  0  0  0
    0.0730   -1.7366  -15.4903 H   0  0  0  0  0  0  0  0  0  0  0  0
   -1.0193   -3.0846  -15.0925 H   0  0  0  0  0  0  0  0  0  0  0  0
   -0.8707   -1.4230  -17.7956 H   0  0  0  0  0  0  0  0  0  0  0  0
   -1.6087   -2.9855  -17.3552 H   0  0  0  0  0  0  0  0  0  0  0  0
   -2.7940   -1.7558  -19.2371 H   0  0  0  0  0  0  0  0  0  0  0  0
   -3.8298   -2.1539  -17.8468 H   0  0  0  0  0  0  0  0  0  0  0  0
   -4.5875   -0.0702  -19.7304 H   0  0  0  0  0  0  0  0  0  0  0  0
   -2.6938    2.5671  -16.0297 H   0  0  0  0  0  0  0  0  0  0  0  0
    0.2848   -0.0172  -15.6086 H   0  0  0  0  0  0  0  0  0  0  0  0
   -0.1644    0.1066  -17.3264 H   0  0  0  0  0  0  0  0  0  0  0  0
   -0.5413    2.2175  -18.3459 H   0  0  0  0  0  0  0  0  0  0  0  0
   -0.3287    4.6670  -18.2339 H   0  0  0  0  0  0  0  0  0  0  0  0
    0.0120    1.9623  -14.1249 H   0  0  0  0  0  0  0  0  0  0  0  0
   -0.4292    3.1216  -12.4318 H   0  0  0  0  0  0  0  0  0  0  0  0
    1.3014    3.0022  -12.8306 H   0  0  0  0  0  0  0  0  0  0  0  0
    0.7235    4.2958  -11.7531 H   0  0  0  0  0  0  0  0  0  0  0  0
    0.7526    6.4407  -17.9664 H   0  0  0  0  0  0  0  0  0  0  0  0
   -1.0051    6.5826  -17.7241 H   0  0  0  0  0  0  0  0  0  0  0  0
    0.0851    7.8381  -17.0888 H   0  0  0  0  0  0  0  0  0  0  0  0
   -4.0313    5.6465  -16.5233 H   0  0  0  0  0  0  0  0  0  0  0  0
   -3.9993    4.1384  -15.5785 H   0  0  0  0  0  0  0  0  0  0  0  0
   -2.6103    4.5775  -16.6013 H   0  0  0  0  0  0  0  0  0  0  0  0
   -6.5106    2.1939  -21.3747 H   0  0  0  0  0  0  0  0  0  0  0  0
   -5.0253    1.2143  -21.3246 H   0  0  0  0  0  0  0  0  0  0  0  0
   -6.4149    0.7768  -20.3019 H   0  0  0  0  0  0  0  0  0  0  0  0
   -3.4198   -1.4625  -14.4907 H   0  0  0  0  0  0  0  0  0  0  0  0
   -4.0379   -1.3956  -16.1586 H   0  0  0  0  0  0  0  0  0  0  0  0
   -3.3538   -2.9110  -15.5231 H   0  0  0  0  0  0  0  0  0  0  0  0
  1 70  1  0  0  0  0
  1 71  1  0  0  0  0
  1 72  1  0  0  0  0
  2  1  1  1  0  0  0
  2 11  1  0  0  0  0
  2  3  1  0  0  0  0
  2 28  1  0  0  0  0
  3  4  1  0  0  0  0
  3 73  1  0  0  0  0
  3 74  1  0  0  0  0
  4  5  1  0  0  0  0
  4 75  1  0  0  0  0
  4 76  1  0  0  0  0
  5 10  2  0  0  0  0
  5  6  1  0  0  0  0
  6  7  2  0  0  0  0
  6 77  1  0  0  0  0
  7  8  1  0  0  0  0
  7 26  1  0  0  0  0
  8  9  2  0  0  0  0
  8 24  1  0  0  0  0
  9 10  1  0  0  0  0
  9 78  1  0  0  0  0
 10 11  1  0  0  0  0
 11 12  1  6  0  0  0
 11 13  1  0  0  0  0
 13 14  1  0  0  0  0
 13 79  1  0  0  0  0
 13 80  1  0  0  0  0
 14 19  2  0  0  0  0
 14 15  1  0  0  0  0
 15 16  2  0  0  0  0
 15 81  1  0  0  0  0
 16 17  1  0  0  0  0
 16 82  1  0  0  0  0
 17 18  2  0  0  0  0
 17 22  1  0  0  0  0
 18 19  1  0  0  0  0
 18 20  1  0  0  0  0
 19 83  1  0  0  0  0
 20 21  1  0  0  0  0
 21 84  1  0  0  0  0
 21 85  1  0  0  0  0
 21 86  1  0  0  0  0
 22 23  1  0  0  0  0
 23 87  1  0  0  0  0
 23 88  1  0  0  0  0
 23 89  1  0  0  0  0
 24 25  1  0  0  0  0
 25 90  1  0  0  0  0
 25 91  1  0  0  0  0
 25 92  1  0  0  0  0
 26 27  1  0  0  0  0
 27 93  1  0  0  0  0
 27 94  1  0  0  0  0
 27 95  1  0  0  0  0
 28 29  1  0  0  0  0
 28 96  1  0  0  0  0
 28 97  1  0  0  0  0
 29 30  1  0  0  0  0
 29 98  1  0  0  0  0
 29 99  1  0  0  0  0
 30 31  2  0  0  0  0
 30 32  1  0  0  0  0
 32 33  1  0  0  0  0
 33 34  1  0  0  0  0
 33100  1  0  0  0  0
 33101  1  0  0  0  0
 34 35  1  0  0  0  0
 34102  1  0  0  0  0
 34103  1  0  0  0  0
 35 36  1  0  0  0  0
 35104  1  0  0  0  0
 35105  1  0  0  0  0
 36 37  1  0  0  0  0
 36106  1  0  0  0  0
 36107  1  0  0  0  0
 37 38  1  0  0  0  0
 37108  1  0  0  0  0
 37109  1  0  0  0  0
 38 39  1  0  0  0  0
 39 40  2  0  0  0  0
 39 41  1  0  0  0  0
 41 42  1  0  0  0  0
 41110  1  0  0  0  0
 41111  1  0  0  0  0
 42112  1  0  0  0  0
 42113  1  0  0  0  0
 43 42  1  1  0  0  0
 43 52  1  0  0  0  0
 43 44  1  0  0  0  0
 43 69  1  0  0  0  0
 44 45  1  0  0  0  0
 44114  1  0  0  0  0
 44115  1  0  0  0  0
 45 46  1  0  0  0  0
 45116  1  0  0  0  0
 45117  1  0  0  0  0
 46 51  2  0  0  0  0
 46 47  1  0  0  0  0
 47 48  2  0  0  0  0
 47118  1  0  0  0  0
 48 49  1  0  0  0  0
 48 67  1  0  0  0  0
 49 50  2  0  0  0  0
 49 65  1  0  0  0  0
 50 51  1  0  0  0  0
 50119  1  0  0  0  0
 51 52  1  0  0  0  0
 52 53  1  1  0  0  0
 52 54  1  0  0  0  0
 54 55  1  0  0  0  0
 54120  1  0  0  0  0
 54121  1  0  0  0  0
 55 60  2  0  0  0  0
 55 56  1  0  0  0  0
 56 57  2  0  0  0  0
 56122  1  0  0  0  0
 57 58  1  0  0  0  0
 57123  1  0  0  0  0
 58 59  2  0  0  0  0
 58 63  1  0  0  0  0
 59 60  1  0  0  0  0
 59 61  1  0  0  0  0
 60124  1  0  0  0  0
 61 62  1  0  0  0  0
 62125  1  0  0  0  0
 62126  1  0  0  0  0
 62127  1  0  0  0  0
 63 64  1  0  0  0  0
 64128  1  0  0  0  0
 64129  1  0  0  0  0
 64130  1  0  0  0  0
 65 66  1  0  0  0  0
 66131  1  0  0  0  0
 66132  1  0  0  0  0
 66133  1  0  0  0  0
 67 68  1  0  0  0  0
 68134  1  0  0  0  0
 68135  1  0  0  0  0
 68136  1  0  0  0  0
 69137  1  0  0  0  0
 69138  1  0  0  0  0
 69139  1  0  0  0  0
M  CHG  2   2   1  43   1
M  END
$$$$
