ZINC00538266
 OpenBabel08292219463D

 36 38  0  0  0  0  0  0  0  0999 V2000
   -0.4462    3.1620   -1.1062 C   0  0  0  0  0  0  0  0  0  0  0  0
   -1.2378    3.1341    0.0291 C   0  0  0  0  0  0  0  0  0  0  0  0
   -0.8227    2.4436    1.1522 C   0  0  0  0  0  0  0  0  0  0  0  0
    0.3856    1.7706    1.1456 C   0  0  0  0  0  0  0  0  0  0  0  0
    1.1854    1.7909    0.0004 C   0  0  0  0  0  0  0  0  0  0  0  0
    0.7583    2.4906   -1.1286 C   0  0  0  0  0  0  0  0  0  0  0  0
    2.4800    1.0729   -0.0154 C   0  0  0  0  0  0  0  0  0  0  0  0
    3.5506    1.7781   -0.1213 N   0  0  0  0  0  0  0  0  0  0  0  0
    4.8790    1.1670   -0.1395 C   0  0  0  0  0  0  0  0  0  0  0  0
    5.1213    0.4888    1.1813 C   0  0  0  0  0  0  0  0  0  0  0  0
    6.3061    1.0116    2.1193 S   0  0  0  0  0  0  0  0  0  0  0  0
    4.3753   -0.5354    1.5892 N   0  0  0  0  0  0  0  0  0  0  0  0
    3.3569   -1.1224    0.8554 C   0  0  0  0  0  0  0  0  0  0  0  0
    2.4465   -0.3937    0.0971 C   0  0  0  0  0  0  0  0  0  0  0  0
    1.4443   -1.0751   -0.6162 C   0  0  0  0  0  0  0  0  0  0  0  0
    1.3595   -2.4483   -0.5616 C   0  0  0  0  0  0  0  0  0  0  0  0
    2.2679   -3.1695    0.1969 C   0  0  0  0  0  0  0  0  0  0  0  0
    3.2560   -2.5145    0.8984 C   0  0  0  0  0  0  0  0  0  0  0  0
    0.1147   -3.2766   -1.4437 Cl  0  0  0  0  0  0  0  0  0  0  0  0
    4.6530   -1.0855    2.9183 C   0  0  0  0  0  0  0  0  0  0  0  0
    3.8022   -0.3562    3.9601 C   0  0  0  0  0  0  0  0  0  0  0  0
    2.4470   -0.5278    3.6583 F   0  0  0  0  0  0  0  0  0  0  0  0
    4.0674   -0.8815    5.2293 F   0  0  0  0  0  0  0  0  0  0  0  0
    4.1143    1.0074    3.9453 F   0  0  0  0  0  0  0  0  0  0  0  0
    0.7914    1.0961    2.2436 F   0  0  0  0  0  0  0  0  0  0  0  0
   -0.7749    3.7073   -1.9785 H   0  0  0  0  0  0  0  0  0  0  0  0
   -2.1819    3.6585    0.0389 H   0  0  0  0  0  0  0  0  0  0  0  0
   -1.4427    2.4297    2.0364 H   0  0  0  0  0  0  0  0  0  0  0  0
    1.3719    2.5101   -2.0171 H   0  0  0  0  0  0  0  0  0  0  0  0
    4.9316    0.4317   -0.9424 H   0  0  0  0  0  0  0  0  0  0  0  0
    5.6331    1.9374   -0.3001 H   0  0  0  0  0  0  0  0  0  0  0  0
    0.7341   -0.5177   -1.2088 H   0  0  0  0  0  0  0  0  0  0  0  0
    2.2011   -4.2466    0.2378 H   0  0  0  0  0  0  0  0  0  0  0  0
    3.9601   -3.0835    1.4875 H   0  0  0  0  0  0  0  0  0  0  0  0
    4.4098   -2.1480    2.9299 H   0  0  0  0  0  0  0  0  0  0  0  0
    5.7089   -0.9518    3.1535 H   0  0  0  0  0  0  0  0  0  0  0  0
  1  6  2  0  0  0  0
  1  2  1  0  0  0  0
  1 26  1  0  0  0  0
  2  3  2  0  0  0  0
  2 27  1  0  0  0  0
  3  4  1  0  0  0  0
  3 28  1  0  0  0  0
  4  5  2  0  0  0  0
  4 25  1  0  0  0  0
  5  6  1  0  0  0  0
  5  7  1  0  0  0  0
  6 29  1  0  0  0  0
  7 14  1  0  0  0  0
  7  8  2  0  0  0  0
  8  9  1  0  0  0  0
  9 10  1  0  0  0  0
  9 30  1  0  0  0  0
  9 31  1  0  0  0  0
 10 11  2  0  0  0  0
 10 12  1  0  0  0  0
 12 13  1  0  0  0  0
 12 20  1  0  0  0  0
 13 18  2  0  0  0  0
 13 14  1  0  0  0  0
 14 15  2  0  0  0  0
 15 16  1  0  0  0  0
 15 32  1  0  0  0  0
 16 17  2  0  0  0  0
 16 19  1  0  0  0  0
 17 18  1  0  0  0  0
 17 33  1  0  0  0  0
 18 34  1  0  0  0  0
 20 21  1  0  0  0  0
 20 35  1  0  0  0  0
 20 36  1  0  0  0  0
 21 22  1  0  0  0  0
 21 23  1  0  0  0  0
 21 24  1  0  0  0  0
M  END
$$$$
