ZINC03830946
 OpenBabel08292219463D

 60 60  0  0  1  0  0  0  0  0999 V2000
   -4.4133   -1.0229   -7.6370 C   0  0  0  0  0  0  0  0  0  0  0  0
   -3.3733   -0.1655   -6.9629 C   0  0  0  0  0  0  0  0  0  0  0  0
   -2.2079   -0.2594   -7.2857 O   0  0  0  0  0  0  0  0  0  0  0  0
   -3.7381    0.7056   -6.0013 N   0  0  0  0  0  0  0  0  0  0  0  0
   -5.1242    0.7356   -5.5278 C   0  0  0  0  0  0  0  0  0  0  0  0
   -5.9167    1.7656   -6.3352 C   0  0  2  0  0  0  0  0  0  0  0  0
   -5.4494    2.7450   -6.2330 H   0  0  0  0  0  0  0  0  0  0  0  0
   -7.3529    1.8286   -5.8114 C   0  0  0  0  0  0  0  0  0  0  0  0
   -8.0606    2.8708   -6.4860 O   0  0  0  0  0  0  0  0  0  0  0  0
   -5.9283    1.3847   -7.7124 O   0  0  0  0  0  0  0  0  0  0  0  0
   -2.7923    1.5820   -5.4549 C   0  0  0  0  0  0  0  0  0  0  0  0
   -2.4892    2.7680   -6.1081 C   0  0  0  0  0  0  0  0  0  0  0  0
   -1.5463    3.6446   -5.5661 C   0  0  0  0  0  0  0  0  0  0  0  0
   -0.9137    3.3292   -4.3642 C   0  0  0  0  0  0  0  0  0  0  0  0
   -1.2169    2.1343   -3.7135 C   0  0  0  0  0  0  0  0  0  0  0  0
   -2.1611    1.2624   -4.2617 C   0  0  0  0  0  0  0  0  0  0  0  0
   -2.6246   -0.5294   -3.2801 I   0  0  0  0  0  0  0  0  0  0  0  0
   -0.5450    1.7929   -2.4424 C   0  0  0  0  0  0  0  0  0  0  0  0
    0.4944    1.1626   -2.4545 O   0  0  0  0  0  0  0  0  0  0  0  0
   -1.0845    2.1805   -1.2698 N   0  0  0  0  0  0  0  0  0  0  0  0
   -0.4184    1.8420   -0.0096 C   0  0  0  0  0  0  0  0  0  0  0  0
   -1.2320    2.3955    1.1620 C   0  0  1  0  0  0  0  0  0  0  0  0
   -2.2303    1.9582    1.1499 H   0  0  0  0  0  0  0  0  0  0  0  0
   -0.5363    2.0421    2.4781 C   0  0  0  0  0  0  0  0  0  0  0  0
   -1.3532    2.4564    3.5749 O   0  0  0  0  0  0  0  0  0  0  0  0
   -1.3328    3.8160    1.0430 O   0  0  0  0  0  0  0  0  0  0  0  0
    0.4949    4.6443   -3.5423 I   0  0  0  0  0  0  0  0  0  0  0  0
   -1.2245    4.9077   -6.2623 C   0  0  0  0  0  0  0  0  0  0  0  0
   -1.8551    5.9167   -6.0132 O   0  0  0  0  0  0  0  0  0  0  0  0
   -0.2320    4.9411   -7.1734 N   0  0  0  0  0  0  0  0  0  0  0  0
    0.0870    6.1933   -7.8636 C   0  0  0  0  0  0  0  0  0  0  0  0
    1.2434    5.9585   -8.8375 C   0  0  2  0  0  0  0  0  0  0  0  0
    2.0898    5.5306   -8.3003 H   0  0  0  0  0  0  0  0  0  0  0  0
    1.6590    7.2901   -9.4662 C   0  0  0  0  0  0  0  0  0  0  0  0
    2.8123    7.0904  -10.2861 O   0  0  0  0  0  0  0  0  0  0  0  0
    0.8258    5.0567   -9.8644 O   0  0  0  0  0  0  0  0  0  0  0  0
   -3.4463    3.2443   -7.9098 I   0  0  0  0  0  0  0  0  0  0  0  0
   -5.4009   -0.7630   -7.2561 H   0  0  0  0  0  0  0  0  0  0  0  0
   -4.3825   -0.8527   -8.7131 H   0  0  0  0  0  0  0  0  0  0  0  0
   -4.2086   -2.0731   -7.4292 H   0  0  0  0  0  0  0  0  0  0  0  0
   -5.5731   -0.2494   -5.6552 H   0  0  0  0  0  0  0  0  0  0  0  0
   -5.1418    1.0093   -4.4728 H   0  0  0  0  0  0  0  0  0  0  0  0
   -7.8486    0.8753   -5.9945 H   0  0  0  0  0  0  0  0  0  0  0  0
   -7.3405    2.0319   -4.7406 H   0  0  0  0  0  0  0  0  0  0  0  0
   -8.9803    2.9685   -6.2035 H   0  0  0  0  0  0  0  0  0  0  0  0
   -6.3307    0.5211   -7.8783 H   0  0  0  0  0  0  0  0  0  0  0  0
   -1.9139    2.6834   -1.2601 H   0  0  0  0  0  0  0  0  0  0  0  0
   -0.3415    0.7586    0.0812 H   0  0  0  0  0  0  0  0  0  0  0  0
    0.5799    2.2794    0.0025 H   0  0  0  0  0  0  0  0  0  0  0  0
   -0.3797    0.9646    2.5283 H   0  0  0  0  0  0  0  0  0  0  0  0
    0.4258    2.5519    2.5288 H   0  0  0  0  0  0  0  0  0  0  0  0
   -0.9735    2.2634    4.4430 H   0  0  0  0  0  0  0  0  0  0  0  0
   -0.4803    4.2725    1.0467 H   0  0  0  0  0  0  0  0  0  0  0  0
    0.2711    4.1359   -7.3722 H   0  0  0  0  0  0  0  0  0  0  0  0
   -0.7881    6.5375   -8.4148 H   0  0  0  0  0  0  0  0  0  0  0  0
    0.3757    6.9480   -7.1320 H   0  0  0  0  0  0  0  0  0  0  0  0
    0.8417    7.6746  -10.0763 H   0  0  0  0  0  0  0  0  0  0  0  0
    1.8927    8.0065   -8.6787 H   0  0  0  0  0  0  0  0  0  0  0  0
    3.1321    7.8945  -10.7175 H   0  0  0  0  0  0  0  0  0  0  0  0
    0.0746    5.3735  -10.3844 H   0  0  0  0  0  0  0  0  0  0  0  0
  1  2  1  0  0  0  0
  1 38  1  0  0  0  0
  1 39  1  0  0  0  0
  1 40  1  0  0  0  0
  2  3  2  0  0  0  0
  2  4  1  0  0  0  0
  4  5  1  0  0  0  0
  4 11  1  0  0  0  0
  5  6  1  0  0  0  0
  5 41  1  0  0  0  0
  5 42  1  0  0  0  0
  6  7  1  1  0  0  0
  6  8  1  0  0  0  0
  6 10  1  0  0  0  0
  8  9  1  0  0  0  0
  8 43  1  0  0  0  0
  8 44  1  0  0  0  0
  9 45  1  0  0  0  0
 10 46  1  0  0  0  0
 11 16  2  0  0  0  0
 11 12  1  0  0  0  0
 12 13  2  0  0  0  0
 12 37  1  0  0  0  0
 13 14  1  0  0  0  0
 13 28  1  0  0  0  0
 14 15  2  0  0  0  0
 14 27  1  0  0  0  0
 15 16  1  0  0  0  0
 15 18  1  0  0  0  0
 16 17  1  0  0  0  0
 18 19  2  0  0  0  0
 18 20  1  0  0  0  0
 20 21  1  0  0  0  0
 20 47  1  0  0  0  0
 21 22  1  0  0  0  0
 21 48  1  0  0  0  0
 21 49  1  0  0  0  0
 22 23  1  6  0  0  0
 22 24  1  0  0  0  0
 22 26  1  0  0  0  0
 24 25  1  0  0  0  0
 24 50  1  0  0  0  0
 24 51  1  0  0  0  0
 25 52  1  0  0  0  0
 26 53  1  0  0  0  0
 28 29  2  0  0  0  0
 28 30  1  0  0  0  0
 30 31  1  0  0  0  0
 30 54  1  0  0  0  0
 31 32  1  0  0  0  0
 31 55  1  0  0  0  0
 31 56  1  0  0  0  0
 32 33  1  1  0  0  0
 32 34  1  0  0  0  0
 32 36  1  0  0  0  0
 34 35  1  0  0  0  0
 34 57  1  0  0  0  0
 34 58  1  0  0  0  0
 35 59  1  0  0  0  0
 36 60  1  0  0  0  0
M  END
$$$$
