ZINC27641461
 OpenBabel08292219463D

 61 61  0  0  1  0  0  0  0  0999 V2000
    7.1567   13.4873   -2.3473 C   0  0  0  0  0  0  0  0  0  0  0  0
    7.0856   12.2819   -1.4076 C   0  0  0  0  0  0  0  0  0  0  0  0
    6.8980   11.0050   -2.2293 C   0  0  0  0  0  0  0  0  0  0  0  0
    6.8269    9.7997   -1.2896 C   0  0  0  0  0  0  0  0  0  0  0  0
    6.6393    8.5228   -2.1113 C   0  0  0  0  0  0  0  0  0  0  0  0
    6.5682    7.3174   -1.1716 C   0  0  1  0  0  0  0  0  0  0  0  0
    5.3866    7.4861   -0.2143 C   0  0  0  0  0  0  0  0  0  0  0  0
    6.3834    6.0597   -1.9809 C   0  0  0  0  0  0  0  0  0  0  0  0
    7.2748    5.1020   -1.9156 C   0  0  0  0  0  0  0  0  0  0  0  0
    7.0900    3.8442   -2.7250 C   0  0  1  0  0  0  0  0  0  0  0  0
    6.1609    3.9727   -3.2997 H   0  0  0  0  0  0  0  0  0  0  0  0
    8.3089    3.6237   -3.6446 C   0  0  2  0  0  0  0  0  0  0  0  0
    8.2142    4.0750   -4.6433 H   0  0  0  0  0  0  0  0  0  0  0  0
    8.5134    2.0884   -3.6426 C   0  0  0  0  0  0  0  0  0  0  0  0
    8.1937    1.7029   -2.1769 C   0  0  1  0  0  0  0  0  0  0  0  0
    9.0518    1.7488   -1.4903 H   0  0  0  0  0  0  0  0  0  0  0  0
    7.0168    2.6229   -1.7918 C   0  0  2  0  0  0  0  0  0  0  0  0
    7.0703    2.9241   -0.7352 H   0  0  0  0  0  0  0  0  0  0  0  0
    5.6898    1.8884   -1.9930 C   0  0  0  0  0  0  0  0  0  0  0  0
    4.5516    2.7849   -1.5785 C   0  0  0  0  0  0  0  0  0  0  0  0
    3.5645    3.0162   -2.4081 C   0  0  0  0  0  0  0  0  0  0  0  0
    3.4778    2.2566   -3.7067 C   0  0  0  0  0  0  0  0  0  0  0  0
    2.0900    1.6258   -3.8370 C   0  0  0  0  0  0  0  0  0  0  0  0
    2.0020    0.8546   -5.1554 C   0  0  0  0  0  0  0  0  0  0  0  0
    0.6351    0.2333   -5.2838 C   0  0  0  0  0  0  0  0  0  0  0  0
   -0.1847    0.3912   -4.4103 O   0  0  0  0  0  0  0  0  0  0  0  0
    0.3301   -0.5001   -6.3658 O   0  0  0  0  0  1  0  0  0  0  0  0
    7.8035    0.3307   -2.0944 O   0  0  0  0  0  0  0  0  0  0  0  0
    9.4609    4.2825   -3.1145 O   0  0  0  0  0  0  0  0  0  0  0  0
    7.7805    7.2268   -0.4205 O   0  0  0  0  0  0  0  0  0  0  0  0
    7.2916   14.4053   -1.7565 H   0  0  0  0  0  0  0  0  0  0  0  0
    6.2235   13.5571   -2.9254 H   0  0  0  0  0  0  0  0  0  0  0  0
    8.0062   13.3660   -3.0355 H   0  0  0  0  0  0  0  0  0  0  0  0
    8.0188   12.2121   -0.8295 H   0  0  0  0  0  0  0  0  0  0  0  0
    6.2361   12.4031   -0.7193 H   0  0  0  0  0  0  0  0  0  0  0  0
    5.9648   11.0748   -2.8074 H   0  0  0  0  0  0  0  0  0  0  0  0
    7.7475   10.8837   -2.9176 H   0  0  0  0  0  0  0  0  0  0  0  0
    7.7601    9.7299   -0.7115 H   0  0  0  0  0  0  0  0  0  0  0  0
    5.9774    9.9210   -0.6013 H   0  0  0  0  0  0  0  0  0  0  0  0
    5.7061    8.5926   -2.6894 H   0  0  0  0  0  0  0  0  0  0  0  0
    7.4887    8.4016   -2.7996 H   0  0  0  0  0  0  0  0  0  0  0  0
    5.3355    6.6195    0.4613 H   0  0  0  0  0  0  0  0  0  0  0  0
    4.4534    7.5559   -0.7925 H   0  0  0  0  0  0  0  0  0  0  0  0
    5.5215    8.4041    0.3764 H   0  0  0  0  0  0  0  0  0  0  0  0
    5.5001    5.9458   -2.6265 H   0  0  0  0  0  0  0  0  0  0  0  0
    8.1581    5.2159   -1.2700 H   0  0  0  0  0  0  0  0  0  0  0  0
    7.8236    1.6257   -4.3637 H   0  0  0  0  0  0  0  0  0  0  0  0
    9.5505    1.8562   -3.9264 H   0  0  0  0  0  0  0  0  0  0  0  0
    5.5769    1.6191   -3.0535 H   0  0  0  0  0  0  0  0  0  0  0  0
    5.6794    0.9753   -1.3797 H   0  0  0  0  0  0  0  0  0  0  0  0
    4.5496    3.2451   -0.5794 H   0  0  0  0  0  0  0  0  0  0  0  0
    2.7988    3.7649   -2.1568 H   0  0  0  0  0  0  0  0  0  0  0  0
    3.6475    2.9461   -4.5468 H   0  0  0  0  0  0  0  0  0  0  0  0
    4.2426    1.4661   -3.7209 H   0  0  0  0  0  0  0  0  0  0  0  0
    1.9203    0.9363   -2.9969 H   0  0  0  0  0  0  0  0  0  0  0  0
    1.3251    2.4162   -3.8228 H   0  0  0  0  0  0  0  0  0  0  0  0
    2.1717    1.5441   -5.9955 H   0  0  0  0  0  0  0  0  0  0  0  0
    2.7668    0.0641   -5.1696 H   0  0  0  0  0  0  0  0  0  0  0  0
    7.5406   -0.1088   -1.1209 H   0  0  0  0  0  0  0  0  0  0  0  0
   10.4209    4.2267   -3.6486 H   0  0  0  0  0  0  0  0  0  0  0  0
    7.9144    6.4173    0.3121 H   0  0  0  0  0  0  0  0  0  0  0  0
  1  2  1  0  0  0  0
  1 31  1  0  0  0  0
  1 32  1  0  0  0  0
  1 33  1  0  0  0  0
  2  3  1  0  0  0  0
  2 34  1  0  0  0  0
  2 35  1  0  0  0  0
  3  4  1  0  0  0  0
  3 36  1  0  0  0  0
  3 37  1  0  0  0  0
  4  5  1  0  0  0  0
  4 38  1  0  0  0  0
  4 39  1  0  0  0  0
  5  6  1  0  0  0  0
  5 40  1  0  0  0  0
  5 41  1  0  0  0  0
  6  7  1  0  0  0  0
  6  8  1  6  0  0  0
  6 30  1  0  0  0  0
  7 42  1  0  0  0  0
  7 43  1  0  0  0  0
  7 44  1  0  0  0  0
  8  9  2  0  0  0  0
  8 45  1  0  0  0  0
  9 10  1  0  0  0  0
  9 46  1  0  0  0  0
 10 11  1  6  0  0  0
 10 17  1  0  0  0  0
 10 12  1  0  0  0  0
 12 13  1  6  0  0  0
 12 14  1  0  0  0  0
 12 29  1  0  0  0  0
 14 15  1  0  0  0  0
 14 47  1  0  0  0  0
 14 48  1  0  0  0  0
 15 16  1  1  0  0  0
 15 17  1  0  0  0  0
 15 28  1  0  0  0  0
 17 18  1  1  0  0  0
 17 19  1  0  0  0  0
 19 20  1  0  0  0  0
 19 49  1  0  0  0  0
 19 50  1  0  0  0  0
 20 21  2  0  0  0  0
 20 51  1  0  0  0  0
 21 22  1  0  0  0  0
 21 52  1  0  0  0  0
 22 23  1  0  0  0  0
 22 53  1  0  0  0  0
 22 54  1  0  0  0  0
 23 24  1  0  0  0  0
 23 55  1  0  0  0  0
 23 56  1  0  0  0  0
 24 25  1  0  0  0  0
 24 57  1  0  0  0  0
 24 58  1  0  0  0  0
 25 26  2  0  0  0  0
 25 27  1  0  0  0  0
 28 59  1  0  0  0  0
 29 60  1  0  0  0  0
 30 61  1  0  0  0  0
M  END
$$$$
