ZINC00896703
 OpenBabel08292219463D

 28 29  0  0  1  0  0  0  0  0999 V2000
   -0.1697    2.6890   -2.0841 C   0  0  0  0  0  0  0  0  0  0  0  0
   -0.8146    1.6244   -1.1943 C   0  0  1  0  0  0  0  0  0  0  0  0
    0.1951    1.1052   -0.1505 C   0  0  0  0  0  0  0  0  0  0  0  0
   -0.4398    1.4691    1.1739 C   0  0  0  0  0  0  0  0  0  0  0  0
    0.0330    1.2385    2.2661 O   0  0  0  0  0  0  0  0  0  0  0  0
   -1.6095    2.0857    0.9435 N   0  0  0  0  0  0  0  0  0  0  0  0
   -1.9176    2.2268   -0.3517 C   0  0  0  0  0  0  0  0  0  0  0  0
   -2.9211    2.7540   -0.7813 O   0  0  0  0  0  0  0  0  0  0  0  0
   -2.4768    2.5667    2.0217 C   0  0  0  0  0  0  0  0  0  0  0  0
   -1.3456    0.4880   -2.0295 C   0  0  0  0  0  0  0  0  0  0  0  0
   -2.1127   -0.5012   -1.4430 C   0  0  0  0  0  0  0  0  0  0  0  0
   -2.6035   -1.5412   -2.2100 C   0  0  0  0  0  0  0  0  0  0  0  0
   -2.3196   -1.5970   -3.5617 C   0  0  0  0  0  0  0  0  0  0  0  0
   -1.5482   -0.6106   -4.1472 C   0  0  0  0  0  0  0  0  0  0  0  0
   -1.0610    0.4317   -3.3811 C   0  0  0  0  0  0  0  0  0  0  0  0
    0.6858    2.2581   -2.6043 H   0  0  0  0  0  0  0  0  0  0  0  0
   -0.8982    3.0425   -2.8138 H   0  0  0  0  0  0  0  0  0  0  0  0
    0.1626    3.5246   -1.4683 H   0  0  0  0  0  0  0  0  0  0  0  0
    0.3133    0.0249   -0.2353 H   0  0  0  0  0  0  0  0  0  0  0  0
    1.1568    1.6053   -0.2652 H   0  0  0  0  0  0  0  0  0  0  0  0
   -3.1749    1.7791    2.3052 H   0  0  0  0  0  0  0  0  0  0  0  0
   -1.8677    2.8399    2.8834 H   0  0  0  0  0  0  0  0  0  0  0  0
   -3.0330    3.4391    1.6787 H   0  0  0  0  0  0  0  0  0  0  0  0
   -2.3314   -0.4596   -0.3862 H   0  0  0  0  0  0  0  0  0  0  0  0
   -3.2065   -2.3117   -1.7526 H   0  0  0  0  0  0  0  0  0  0  0  0
   -2.7008   -2.4110   -4.1604 H   0  0  0  0  0  0  0  0  0  0  0  0
   -1.3263   -0.6542   -5.2033 H   0  0  0  0  0  0  0  0  0  0  0  0
   -0.4582    1.2024   -3.8385 H   0  0  0  0  0  0  0  0  0  0  0  0
  1 16  1  0  0  0  0
  1 17  1  0  0  0  0
  1 18  1  0  0  0  0
  2  1  1  6  0  0  0
  2  7  1  0  0  0  0
  2  3  1  0  0  0  0
  2 10  1  0  0  0  0
  3  4  1  0  0  0  0
  3 19  1  0  0  0  0
  3 20  1  0  0  0  0
  4  5  2  0  0  0  0
  4  6  1  0  0  0  0
  6  7  1  0  0  0  0
  6  9  1  0  0  0  0
  7  8  2  0  0  0  0
  9 21  1  0  0  0  0
  9 22  1  0  0  0  0
  9 23  1  0  0  0  0
 10 15  2  0  0  0  0
 10 11  1  0  0  0  0
 11 12  2  0  0  0  0
 11 24  1  0  0  0  0
 12 13  1  0  0  0  0
 12 25  1  0  0  0  0
 13 14  2  0  0  0  0
 13 26  1  0  0  0  0
 14 15  1  0  0  0  0
 14 27  1  0  0  0  0
 15 28  1  0  0  0  0
M  END
$$$$
