ZINC00001979
 OpenBabel08292219463D

 30 31  0  0  0  0  0  0  0  0999 V2000
   -0.0187    1.5258    0.0104 C   0  0  0  0  0  0  0  0  0  0  0  0
    0.0021   -0.0041    0.0020 C   0  0  0  0  0  0  0  0  0  0  0  0
    0.7182   -0.4975   -1.2568 C   0  0  0  0  0  0  0  0  0  0  0  0
    2.1333    0.0036   -1.2513 C   0  0  0  0  0  0  0  0  0  0  0  0
    2.7552   -0.0076   -0.2102 O   0  0  0  0  0  0  0  0  0  0  0  0
    2.7309    0.4613   -2.3560 N   0  0  0  0  0  0  0  0  0  0  0  0
    2.0820    0.5029   -3.6570 C   0  0  0  0  0  0  0  0  0  0  0  0
    0.6322    0.4599   -3.5489 N   0  0  0  0  0  0  0  0  0  0  0  0
   -0.0108    0.0018   -2.4704 C   0  0  0  0  0  0  0  0  0  0  0  0
   -1.2235   -0.0109   -2.4724 O   0  0  0  0  0  0  0  0  0  0  0  0
    0.7277   -2.0044   -1.2662 C   0  0  0  0  0  0  0  0  0  0  0  0
    0.1359   -2.7058   -0.2323 C   0  0  0  0  0  0  0  0  0  0  0  0
    0.1446   -4.0881   -0.2410 C   0  0  0  0  0  0  0  0  0  0  0  0
    0.7446   -4.7690   -1.2837 C   0  0  0  0  0  0  0  0  0  0  0  0
    1.3355   -4.0677   -2.3180 C   0  0  0  0  0  0  0  0  0  0  0  0
    1.3231   -2.6854   -2.3115 C   0  0  0  0  0  0  0  0  0  0  0  0
    1.0039    1.9031    0.0027 H   0  0  0  0  0  0  0  0  0  0  0  0
   -0.5459    1.8868   -0.8726 H   0  0  0  0  0  0  0  0  0  0  0  0
   -0.5289    1.8773    0.9072 H   0  0  0  0  0  0  0  0  0  0  0  0
    0.5293   -0.3651    0.8851 H   0  0  0  0  0  0  0  0  0  0  0  0
   -1.0205   -0.3814    0.0098 H   0  0  0  0  0  0  0  0  0  0  0  0
    3.6436    0.7823   -2.2863 H   0  0  0  0  0  0  0  0  0  0  0  0
    2.3717    1.4213   -4.1677 H   0  0  0  0  0  0  0  0  0  0  0  0
    2.4182   -0.3494   -4.2475 H   0  0  0  0  0  0  0  0  0  0  0  0
    0.1051    0.7800   -4.2977 H   0  0  0  0  0  0  0  0  0  0  0  0
   -0.3328   -2.1738    0.5823 H   0  0  0  0  0  0  0  0  0  0  0  0
   -0.3171   -4.6360    0.5671 H   0  0  0  0  0  0  0  0  0  0  0  0
    0.7520   -5.8490   -1.2900 H   0  0  0  0  0  0  0  0  0  0  0  0
    1.8045   -4.5997   -3.1325 H   0  0  0  0  0  0  0  0  0  0  0  0
    1.7815   -2.1374   -3.1215 H   0  0  0  0  0  0  0  0  0  0  0  0
  1  2  1  0  0  0  0
  1 17  1  0  0  0  0
  1 18  1  0  0  0  0
  1 19  1  0  0  0  0
  2  3  1  0  0  0  0
  2 20  1  0  0  0  0
  2 21  1  0  0  0  0
  3  9  1  0  0  0  0
  3  4  1  0  0  0  0
  3 11  1  0  0  0  0
  4  5  2  0  0  0  0
  4  6  1  0  0  0  0
  6  7  1  0  0  0  0
  6 22  1  0  0  0  0
  7  8  1  0  0  0  0
  7 23  1  0  0  0  0
  7 24  1  0  0  0  0
  8  9  1  0  0  0  0
  8 25  1  0  0  0  0
  9 10  2  0  0  0  0
 11 16  2  0  0  0  0
 11 12  1  0  0  0  0
 12 13  2  0  0  0  0
 12 26  1  0  0  0  0
 13 14  1  0  0  0  0
 13 27  1  0  0  0  0
 14 15  2  0  0  0  0
 14 28  1  0  0  0  0
 15 16  1  0  0  0  0
 15 29  1  0  0  0  0
 16 30  1  0  0  0  0
M  END
$$$$
