ZINC04097448
 OpenBabel08292219463D

 96102  0  0  1  0  0  0  0  0999 V2000
    4.0961    5.0159    0.3050 C   0  0  0  0  0  0  0  0  0  0  0  0
    4.1721    4.2511    1.5603 N   0  3  0  0  0  0  0  0  0  0  0  0
    5.5766    4.0227    1.8921 C   0  0  0  0  0  0  0  0  0  0  0  0
    5.7035    3.4737    3.3149 C   0  0  0  0  0  0  0  0  0  0  0  0
    4.7378    2.3331    3.5065 C   0  0  0  0  0  0  0  0  0  0  0  0
    4.9311    1.4773    4.5813 C   0  0  0  0  0  0  0  0  0  0  0  0
    4.0985    0.3931    4.7774 C   0  0  0  0  0  0  0  0  0  0  0  0
    3.0416    0.1518    3.8861 C   0  0  0  0  0  0  0  0  0  0  0  0
    2.8390    1.0360    2.8410 C   0  0  0  0  0  0  0  0  0  0  0  0
    3.6862    2.1217    2.6402 C   0  0  0  0  0  0  0  0  0  0  0  0
    3.4192    3.0199    1.4638 C   0  0  2  0  0  0  0  0  0  0  0  0
    2.3449    3.2646    1.5061 H   0  0  0  0  0  0  0  0  0  0  0  0
    3.6408    2.2310    0.1681 C   0  0  0  0  0  0  0  0  0  0  0  0
    2.3739    1.4146    0.0082 C   0  0  0  0  0  0  0  0  0  0  0  0
    1.1625    2.0993    0.0022 C   0  0  0  0  0  0  0  0  0  0  0  0
   -0.0169    1.3938    0.0097 C   0  0  0  0  0  0  0  0  0  0  0  0
    0.0021   -0.0041    0.0020 C   0  0  0  0  0  0  0  0  0  0  0  0
    1.2107   -0.6695   -0.1371 C   0  0  0  0  0  0  0  0  0  0  0  0
    2.3969    0.0456   -0.0977 C   0  0  0  0  0  0  0  0  0  0  0  0
   -1.1397   -0.6252    0.2205 O   0  0  0  0  0  0  0  0  0  0  0  0
   -2.1057   -1.2192   -0.4554 C   0  0  0  0  0  0  0  0  0  0  0  0
   -2.6944   -2.3347    0.1693 C   0  0  0  0  0  0  0  0  0  0  0  0
   -3.6411   -3.0554   -0.5166 C   0  0  0  0  0  0  0  0  0  0  0  0
   -4.1028   -2.6346   -1.7507 C   0  0  0  0  0  0  0  0  0  0  0  0
   -3.5559   -1.5161   -2.3524 C   0  0  0  0  0  0  0  0  0  0  0  0
   -2.5423   -0.8176   -1.7050 C   0  0  0  0  0  0  0  0  0  0  0  0
   -1.9899    0.2728   -2.3022 O   0  0  0  0  0  0  0  0  0  0  0  0
   -2.5958    1.5381   -2.0301 C   0  0  0  0  0  0  0  0  0  0  0  0
   -4.0123   -1.1043   -3.5646 O   0  0  0  0  0  0  0  0  0  0  0  0
   -5.0589   -1.8743   -4.1595 C   0  0  0  0  0  0  0  0  0  0  0  0
   -4.1773   -4.3366    0.0696 C   0  0  0  0  0  0  0  0  0  0  0  0
   -3.1368   -4.8801    1.0439 C   0  0  0  0  0  0  0  0  0  0  0  0
   -2.8400   -3.8875    2.0905 N   0  3  0  0  0  0  0  0  0  0  0  0
   -2.1984   -2.7045    1.5442 C   0  0  2  0  0  0  0  0  0  0  0  0
   -1.1208   -2.9556    1.4324 H   0  0  0  0  0  0  0  0  0  0  0  0
   -2.2760   -1.4898    2.4639 C   0  0  0  0  0  0  0  0  0  0  0  0
   -1.2374   -1.5285    3.5557 C   0  0  0  0  0  0  0  0  0  0  0  0
   -1.6165   -1.8818    4.8405 C   0  0  0  0  0  0  0  0  0  0  0  0
   -0.6739   -1.9456    5.8507 C   0  0  0  0  0  0  0  0  0  0  0  0
    0.6474   -1.6326    5.5839 C   0  0  0  0  0  0  0  0  0  0  0  0
    1.0335   -1.2455    4.2908 C   0  0  0  0  0  0  0  0  0  0  0  0
    0.0769   -1.2071    3.2858 C   0  0  0  0  0  0  0  0  0  0  0  0
    2.3075   -0.9422    4.0639 O   0  0  0  0  0  0  0  0  0  0  0  0
    1.5762   -1.7132    6.5749 O   0  0  0  0  0  0  0  0  0  0  0  0
    1.1137   -2.1134    7.8665 C   0  0  0  0  0  0  0  0  0  0  0  0
   -1.9030   -4.5493    3.0319 C   0  0  0  0  0  0  0  0  0  0  0  0
   -4.0736   -3.5918    2.8278 C   0  0  0  0  0  0  0  0  0  0  0  0
    4.2971   -0.4367    5.8366 O   0  0  0  0  0  0  0  0  0  0  0  0
    5.3870   -0.1274    6.7076 C   0  0  0  0  0  0  0  0  0  0  0  0
    3.5525    5.0928    2.6052 C   0  0  0  0  0  0  0  0  0  0  0  0
    3.0555    5.2586    0.0899 H   0  0  0  0  0  0  0  0  0  0  0  0
    4.6708    5.9366    0.4052 H   0  0  0  0  0  0  0  0  0  0  0  0
    4.5058    4.4187   -0.5096 H   0  0  0  0  0  0  0  0  0  0  0  0
    6.1324    4.9608    1.8138 H   0  0  0  0  0  0  0  0  0  0  0  0
    6.0017    3.3027    1.1856 H   0  0  0  0  0  0  0  0  0  0  0  0
    5.5344    4.2490    4.0577 H   0  0  0  0  0  0  0  0  0  0  0  0
    6.7238    3.0864    3.4531 H   0  0  0  0  0  0  0  0  0  0  0  0
    5.7428    1.6601    5.2736 H   0  0  0  0  0  0  0  0  0  0  0  0
    1.9987    0.8860    2.1791 H   0  0  0  0  0  0  0  0  0  0  0  0
    4.5014    1.5613    0.2841 H   0  0  0  0  0  0  0  0  0  0  0  0
    3.7807    2.8440   -0.7096 H   0  0  0  0  0  0  0  0  0  0  0  0
    1.1537    3.1809   -0.0075 H   0  0  0  0  0  0  0  0  0  0  0  0
   -0.9632    1.9116    0.0170 H   0  0  0  0  0  0  0  0  0  0  0  0
    1.2338   -1.7416   -0.2386 H   0  0  0  0  0  0  0  0  0  0  0  0
    3.3372   -0.4767   -0.1722 H   0  0  0  0  0  0  0  0  0  0  0  0
   -4.8771   -3.1975   -2.2512 H   0  0  0  0  0  0  0  0  0  0  0  0
   -2.0596    2.3206   -2.5670 H   0  0  0  0  0  0  0  0  0  0  0  0
   -3.6356    1.5207   -2.3565 H   0  0  0  0  0  0  0  0  0  0  0  0
   -2.5543    1.7380   -0.9595 H   0  0  0  0  0  0  0  0  0  0  0  0
   -4.7171   -2.8986   -4.3078 H   0  0  0  0  0  0  0  0  0  0  0  0
   -5.9290   -1.8731   -3.5030 H   0  0  0  0  0  0  0  0  0  0  0  0
   -5.3288   -1.4385   -5.1214 H   0  0  0  0  0  0  0  0  0  0  0  0
   -5.1296   -4.1591    0.5506 H   0  0  0  0  0  0  0  0  0  0  0  0
   -4.3190   -5.0599   -0.7390 H   0  0  0  0  0  0  0  0  0  0  0  0
   -3.5178   -5.7886    1.5178 H   0  0  0  0  0  0  0  0  0  0  0  0
   -2.2187   -5.1190    0.5035 H   0  0  0  0  0  0  0  0  0  0  0  0
   -3.2592   -1.3404    2.8923 H   0  0  0  0  0  0  0  0  0  0  0  0
   -2.0875   -0.5816    1.8686 H   0  0  0  0  0  0  0  0  0  0  0  0
   -2.6492   -2.1107    5.0589 H   0  0  0  0  0  0  0  0  0  0  0  0
   -0.9652   -2.2409    6.8492 H   0  0  0  0  0  0  0  0  0  0  0  0
    0.3660   -0.9251    2.2835 H   0  0  0  0  0  0  0  0  0  0  0  0
    1.9529   -2.1368    8.5617 H   0  0  0  0  0  0  0  0  0  0  0  0
    0.3675   -1.4026    8.2215 H   0  0  0  0  0  0  0  0  0  0  0  0
    0.6680   -3.1059    7.8014 H   0  0  0  0  0  0  0  0  0  0  0  0
   -1.6511   -3.8604    3.8382 H   0  0  0  0  0  0  0  0  0  0  0  0
   -2.3746   -5.4393    3.4484 H   0  0  0  0  0  0  0  0  0  0  0  0
   -0.9949   -4.8342    2.5005 H   0  0  0  0  0  0  0  0  0  0  0  0
   -4.7885   -3.1094    2.1612 H   0  0  0  0  0  0  0  0  0  0  0  0
   -4.5006   -4.5196    3.2085 H   0  0  0  0  0  0  0  0  0  0  0  0
   -3.8481   -2.9267    3.6614 H   0  0  0  0  0  0  0  0  0  0  0  0
    6.3193   -0.1446    6.1432 H   0  0  0  0  0  0  0  0  0  0  0  0
    5.2397    0.8640    7.1359 H   0  0  0  0  0  0  0  0  0  0  0  0
    5.4332   -0.8658    7.5081 H   0  0  0  0  0  0  0  0  0  0  0  0
    3.5759    4.5646    3.5584 H   0  0  0  0  0  0  0  0  0  0  0  0
    4.1059    6.0276    2.6942 H   0  0  0  0  0  0  0  0  0  0  0  0
    2.5188    5.3069    2.3337 H   0  0  0  0  0  0  0  0  0  0  0  0
  1  2  1  0  0  0  0
  1 51  1  0  0  0  0
  1 52  1  0  0  0  0
  1 53  1  0  0  0  0
  2 11  1  0  0  0  0
  2  3  1  0  0  0  0
  2 50  1  0  0  0  0
  3  4  1  0  0  0  0
  3 54  1  0  0  0  0
  3 55  1  0  0  0  0
  4  5  1  0  0  0  0
  4 56  1  0  0  0  0
  4 57  1  0  0  0  0
  5 10  2  0  0  0  0
  5  6  1  0  0  0  0
  6  7  2  0  0  0  0
  6 58  1  0  0  0  0
  7  8  1  0  0  0  0
  7 48  1  0  0  0  0
  8 43  1  0  0  0  0
  8  9  2  0  0  0  0
  9 10  1  0  0  0  0
  9 59  1  0  0  0  0
 10 11  1  0  0  0  0
 11 12  1  1  0  0  0
 11 13  1  0  0  0  0
 13 14  1  0  0  0  0
 13 60  1  0  0  0  0
 13 61  1  0  0  0  0
 14 19  2  0  0  0  0
 14 15  1  0  0  0  0
 15 16  2  0  0  0  0
 15 62  1  0  0  0  0
 16 17  1  0  0  0  0
 16 63  1  0  0  0  0
 17 18  2  0  0  0  0
 17 20  1  0  0  0  0
 18 19  1  0  0  0  0
 18 64  1  0  0  0  0
 19 65  1  0  0  0  0
 20 21  1  0  0  0  0
 21 26  2  0  0  0  0
 21 22  1  0  0  0  0
 22 34  1  0  0  0  0
 22 23  2  0  0  0  0
 23 24  1  0  0  0  0
 23 31  1  0  0  0  0
 24 25  2  0  0  0  0
 24 66  1  0  0  0  0
 25 26  1  0  0  0  0
 25 29  1  0  0  0  0
 26 27  1  0  0  0  0
 27 28  1  0  0  0  0
 28 67  1  0  0  0  0
 28 68  1  0  0  0  0
 28 69  1  0  0  0  0
 29 30  1  0  0  0  0
 30 70  1  0  0  0  0
 30 71  1  0  0  0  0
 30 72  1  0  0  0  0
 31 32  1  0  0  0  0
 31 73  1  0  0  0  0
 31 74  1  0  0  0  0
 32 33  1  0  0  0  0
 32 75  1  0  0  0  0
 32 76  1  0  0  0  0
 33 34  1  0  0  0  0
 33 46  1  0  0  0  0
 33 47  1  0  0  0  0
 34 35  1  6  0  0  0
 34 36  1  0  0  0  0
 36 37  1  0  0  0  0
 36 77  1  0  0  0  0
 36 78  1  0  0  0  0
 37 42  2  0  0  0  0
 37 38  1  0  0  0  0
 38 39  2  0  0  0  0
 38 79  1  0  0  0  0
 39 40  1  0  0  0  0
 39 80  1  0  0  0  0
 40 41  2  0  0  0  0
 40 44  1  0  0  0  0
 41 42  1  0  0  0  0
 41 43  1  0  0  0  0
 42 81  1  0  0  0  0
 44 45  1  0  0  0  0
 45 82  1  0  0  0  0
 45 83  1  0  0  0  0
 45 84  1  0  0  0  0
 46 85  1  0  0  0  0
 46 86  1  0  0  0  0
 46 87  1  0  0  0  0
 47 88  1  0  0  0  0
 47 89  1  0  0  0  0
 47 90  1  0  0  0  0
 48 49  1  0  0  0  0
 49 91  1  0  0  0  0
 49 92  1  0  0  0  0
 49 93  1  0  0  0  0
 50 94  1  0  0  0  0
 50 95  1  0  0  0  0
 50 96  1  0  0  0  0
M  CHG  2   2   1  33   1
M  END
$$$$
