ZINC00057522
 OpenBabel08292219463D

 39 41  0  0  0  0  0  0  0  0999 V2000
    2.3849   -1.7511   -1.8366 C   0  0  0  0  0  0  0  0  0  0  0  0
    1.2329   -1.5584   -0.8842 C   0  0  0  0  0  0  0  0  0  0  0  0
    0.2125   -0.6809   -1.2030 C   0  0  0  0  0  0  0  0  0  0  0  0
   -0.8461   -0.5012   -0.3320 C   0  0  0  0  0  0  0  0  0  0  0  0
   -0.8880   -1.1985    0.8597 C   0  0  0  0  0  0  0  0  0  0  0  0
    0.1347   -2.0806    1.1825 C   0  0  0  0  0  0  0  0  0  0  0  0
    1.1944   -2.2624    0.3031 C   0  0  0  0  0  0  0  0  0  0  0  0
    0.0956   -2.7879    2.3887 N   0  0  0  0  0  0  0  0  0  0  0  0
   -0.0710   -4.2434    2.3793 C   0  0  0  0  0  0  0  0  0  0  0  0
    0.2111   -2.1304    3.5595 C   0  0  0  0  0  0  0  0  0  0  0  0
    0.2868   -0.4202    3.5769 S   0  0  0  0  0  0  0  0  0  0  0  0
    0.2669   -2.8194    4.7167 O   0  0  0  0  0  0  0  0  0  0  0  0
    0.2593   -2.1155    5.8792 C   0  0  0  0  0  0  0  0  0  0  0  0
   -0.8950   -1.4235    6.2595 C   0  0  0  0  0  0  0  0  0  0  0  0
   -0.9331   -0.7103    7.4166 C   0  0  0  0  0  0  0  0  0  0  0  0
    0.2014   -0.6654    8.2457 C   0  0  0  0  0  0  0  0  0  0  0  0
    0.1964    0.0614    9.4484 C   0  0  0  0  0  0  0  0  0  0  0  0
    1.3123    0.0829   10.2273 C   0  0  0  0  0  0  0  0  0  0  0  0
    2.4638   -0.6061    9.8508 C   0  0  0  0  0  0  0  0  0  0  0  0
    2.5056   -1.3206    8.6932 C   0  0  0  0  0  0  0  0  0  0  0  0
    1.3724   -1.3663    7.8627 C   0  0  0  0  0  0  0  0  0  0  0  0
    1.3772   -2.0978    6.6637 C   0  0  0  0  0  0  0  0  0  0  0  0
    2.1500   -2.5563   -2.5327 H   0  0  0  0  0  0  0  0  0  0  0  0
    2.5553   -0.8288   -2.3920 H   0  0  0  0  0  0  0  0  0  0  0  0
    3.2825   -2.0076   -1.2739 H   0  0  0  0  0  0  0  0  0  0  0  0
    0.2429   -0.1345   -2.1341 H   0  0  0  0  0  0  0  0  0  0  0  0
   -1.6410    0.1853   -0.5835 H   0  0  0  0  0  0  0  0  0  0  0  0
   -1.7150   -1.0574    1.5397 H   0  0  0  0  0  0  0  0  0  0  0  0
    1.9893   -2.9508    0.5493 H   0  0  0  0  0  0  0  0  0  0  0  0
    0.9081   -4.7209    2.3417 H   0  0  0  0  0  0  0  0  0  0  0  0
   -0.5928   -4.5553    3.2840 H   0  0  0  0  0  0  0  0  0  0  0  0
   -0.6521   -4.5370    1.5051 H   0  0  0  0  0  0  0  0  0  0  0  0
   -1.7683   -1.4558    5.6250 H   0  0  0  0  0  0  0  0  0  0  0  0
   -1.8312   -0.1801    7.6973 H   0  0  0  0  0  0  0  0  0  0  0  0
   -0.6885    0.6005    9.7530 H   0  0  0  0  0  0  0  0  0  0  0  0
    1.3055    0.6427   11.1509 H   0  0  0  0  0  0  0  0  0  0  0  0
    3.3359   -0.5723   10.4869 H   0  0  0  0  0  0  0  0  0  0  0  0
    3.4050   -1.8494    8.4140 H   0  0  0  0  0  0  0  0  0  0  0  0
    2.2611   -2.6400    6.3619 H   0  0  0  0  0  0  0  0  0  0  0  0
  1  2  1  0  0  0  0
  1 23  1  0  0  0  0
  1 24  1  0  0  0  0
  1 25  1  0  0  0  0
  2  7  2  0  0  0  0
  2  3  1  0  0  0  0
  3  4  2  0  0  0  0
  3 26  1  0  0  0  0
  4  5  1  0  0  0  0
  4 27  1  0  0  0  0
  5  6  2  0  0  0  0
  5 28  1  0  0  0  0
  6  7  1  0  0  0  0
  6  8  1  0  0  0  0
  7 29  1  0  0  0  0
  8  9  1  0  0  0  0
  8 10  1  0  0  0  0
  9 30  1  0  0  0  0
  9 31  1  0  0  0  0
  9 32  1  0  0  0  0
 10 11  2  0  0  0  0
 10 12  1  0  0  0  0
 12 13  1  0  0  0  0
 13 22  2  0  0  0  0
 13 14  1  0  0  0  0
 14 15  2  0  0  0  0
 14 33  1  0  0  0  0
 15 16  1  0  0  0  0
 15 34  1  0  0  0  0
 16 21  2  0  0  0  0
 16 17  1  0  0  0  0
 17 18  2  0  0  0  0
 17 35  1  0  0  0  0
 18 19  1  0  0  0  0
 18 36  1  0  0  0  0
 19 20  2  0  0  0  0
 19 37  1  0  0  0  0
 20 21  1  0  0  0  0
 20 38  1  0  0  0  0
 21 22  1  0  0  0  0
 22 39  1  0  0  0  0
M  END
$$$$
