ZINC00020243
 OpenBabel08292219463D

 25 26  0  0  0  0  0  0  0  0999 V2000
   -0.0169    1.3922    0.0097 C   0  0  0  0  0  0  0  0  0  0  0  0
    1.1636    2.1039    0.0022 C   0  0  0  0  0  0  0  0  0  0  0  0
    2.3809    1.4379   -0.0130 C   0  0  0  0  0  0  0  0  0  0  0  0
    2.4112    0.0344   -0.0208 C   0  0  0  0  0  0  0  0  0  0  0  0
    1.2134   -0.6836   -0.0132 C   0  0  0  0  0  0  0  0  0  0  0  0
    0.0021   -0.0041    0.0020 C   0  0  0  0  0  0  0  0  0  0  0  0
   -1.2731   -0.7625    0.0106 C   0  0  0  0  0  0  0  0  0  0  0  0
   -1.4847   -1.7846   -0.9125 C   0  0  0  0  0  0  0  0  0  0  0  0
   -2.6718   -2.4875   -0.9012 C   0  0  0  0  0  0  0  0  0  0  0  0
   -3.6545   -2.1789    0.0260 C   0  0  0  0  0  0  0  0  0  0  0  0
   -3.4508   -1.1640    0.9459 C   0  0  0  0  0  0  0  0  0  0  0  0
   -2.2621   -0.4585    0.9469 C   0  0  0  0  0  0  0  0  0  0  0  0
   -2.0607    0.5273    1.8485 F   0  0  0  0  0  0  0  0  0  0  0  0
   -4.8152   -2.8702    0.0322 F   0  0  0  0  0  0  0  0  0  0  0  0
    3.6996   -0.6771   -0.0375 C   0  0  0  0  0  0  0  0  0  0  0  0
    3.7228   -1.9003   -0.0443 O   0  0  0  0  0  0  0  0  0  0  0  0
    4.7472   -0.0454   -0.0445 O   0  0  0  0  0  1  0  0  0  0  0  0
    3.5397    2.1420   -0.0207 O   0  0  0  0  0  0  0  0  0  0  0  0
   -0.9607    1.9168    0.0261 H   0  0  0  0  0  0  0  0  0  0  0  0
    1.1410    3.1836    0.0079 H   0  0  0  0  0  0  0  0  0  0  0  0
    1.2289   -1.7635   -0.0196 H   0  0  0  0  0  0  0  0  0  0  0  0
   -0.7203   -2.0261   -1.6363 H   0  0  0  0  0  0  0  0  0  0  0  0
   -2.8358   -3.2797   -1.6167 H   0  0  0  0  0  0  0  0  0  0  0  0
   -4.2197   -0.9265    1.6661 H   0  0  0  0  0  0  0  0  0  0  0  0
    3.8845    2.3417    0.8604 H   0  0  0  0  0  0  0  0  0  0  0  0
  1  6  2  0  0  0  0
  1  2  1  0  0  0  0
  1 19  1  0  0  0  0
  2  3  2  0  0  0  0
  2 20  1  0  0  0  0
  3  4  1  0  0  0  0
  3 18  1  0  0  0  0
  4  5  2  0  0  0  0
  4 15  1  0  0  0  0
  5  6  1  0  0  0  0
  5 21  1  0  0  0  0
  6  7  1  0  0  0  0
  7 12  2  0  0  0  0
  7  8  1  0  0  0  0
  8  9  2  0  0  0  0
  8 22  1  0  0  0  0
  9 10  1  0  0  0  0
  9 23  1  0  0  0  0
 10 11  2  0  0  0  0
 10 14  1  0  0  0  0
 11 12  1  0  0  0  0
 11 24  1  0  0  0  0
 12 13  1  0  0  0  0
 15 16  2  0  0  0  0
 15 17  1  0  0  0  0
 18 25  1  0  0  0  0
M  END
$$$$
