ZINC00968345
 OpenBabel08292219463D

 31 31  0  0  1  0  0  0  0  0999 V2000
    1.1866    6.7049    2.4267 C   0  0  0  0  0  0  0  0  0  0  0  0
    1.2192    5.7232    1.2536 C   0  0  0  0  0  0  0  0  0  0  0  0
   -0.0523    4.8723    1.2652 C   0  0  2  0  0  0  0  0  0  0  0  0
   -0.9338    5.5302    1.2623 H   0  0  0  0  0  0  0  0  0  0  0  0
   -0.0711    4.0004    2.5222 C   0  0  0  0  0  0  0  0  0  0  0  0
   -0.0790    3.9783    0.0239 C   0  0  0  0  0  0  0  0  0  0  0  0
    1.0734    2.9968    0.1241 C   0  0  0  0  0  0  0  0  0  0  0  0
    2.2192    3.3805    0.2215 O   0  0  0  0  0  0  0  0  0  0  0  0
    0.7755    1.6804    0.1014 N   0  0  0  0  0  0  0  0  0  0  0  0
   -0.4836    1.2408   -0.0051 C   0  0  0  0  0  0  0  0  0  0  0  0
   -0.6613    0.0390   -0.0178 O   0  0  0  0  0  0  0  0  0  0  0  0
   -1.5610    2.0279   -0.1040 N   0  0  0  0  0  0  0  0  0  0  0  0
   -1.4657    3.3744   -0.0932 C   0  0  0  0  0  0  0  0  0  0  0  0
   -2.4514    4.0751   -0.1787 O   0  0  0  0  0  0  0  0  0  0  0  0
    0.1551    4.8638   -1.2017 C   0  0  0  0  0  0  0  0  0  0  0  0
    0.2149    3.9915   -2.4572 C   0  0  0  0  0  0  0  0  0  0  0  0
    2.1008    7.3167    2.4184 H   0  0  0  0  0  0  0  0  0  0  0  0
    1.1286    6.1450    3.3718 H   0  0  0  0  0  0  0  0  0  0  0  0
    0.3070    7.3587    2.3333 H   0  0  0  0  0  0  0  0  0  0  0  0
    1.2772    6.2831    0.3085 H   0  0  0  0  0  0  0  0  0  0  0  0
    2.0988    5.0694    1.3470 H   0  0  0  0  0  0  0  0  0  0  0  0
   -0.9853    3.3887    2.5305 H   0  0  0  0  0  0  0  0  0  0  0  0
   -0.0520    4.6432    3.4146 H   0  0  0  0  0  0  0  0  0  0  0  0
    0.8104    3.3424    2.5252 H   0  0  0  0  0  0  0  0  0  0  0  0
    1.5797    0.9332    0.1715 H   0  0  0  0  0  0  0  0  0  0  0  0
   -2.5618    1.5811   -0.1976 H   0  0  0  0  0  0  0  0  0  0  0  0
   -0.6698    5.5855   -1.2956 H   0  0  0  0  0  0  0  0  0  0  0  0
    1.1052    5.4059   -1.0863 H   0  0  0  0  0  0  0  0  0  0  0  0
    0.3832    4.6281   -3.3383 H   0  0  0  0  0  0  0  0  0  0  0  0
   -0.7353    3.4494   -2.5726 H   0  0  0  0  0  0  0  0  0  0  0  0
    1.0397    3.2698   -2.3633 H   0  0  0  0  0  0  0  0  0  0  0  0
  1  2  1  0  0  0  0
  1 17  1  0  0  0  0
  1 18  1  0  0  0  0
  1 19  1  0  0  0  0
  2  3  1  0  0  0  0
  2 20  1  0  0  0  0
  2 21  1  0  0  0  0
  3  4  1  6  0  0  0
  3  5  1  0  0  0  0
  3  6  1  0  0  0  0
  5 22  1  0  0  0  0
  5 23  1  0  0  0  0
  5 24  1  0  0  0  0
  6 13  1  0  0  0  0
  6  7  1  0  0  0  0
  6 15  1  0  0  0  0
  7  8  2  0  0  0  0
  7  9  1  0  0  0  0
  9 10  1  0  0  0  0
  9 25  1  0  0  0  0
 10 11  2  0  0  0  0
 10 12  1  0  0  0  0
 12 13  1  0  0  0  0
 12 26  1  0  0  0  0
 13 14  2  0  0  0  0
 15 16  1  0  0  0  0
 15 27  1  0  0  0  0
 15 28  1  0  0  0  0
 16 29  1  0  0  0  0
 16 30  1  0  0  0  0
 16 31  1  0  0  0  0
M  END
$$$$
