ZINC53682947
 OpenBabel08292219463D

 95100  0  0  1  0  0  0  0  0999 V2000
   -0.0184    1.5028    0.0103 C   0  0  0  0  0  0  0  0  0  0  0  0
    0.0021   -0.0041    0.0020 C   0  0  0  0  0  0  0  0  0  0  0  0
    0.0085   -0.8252   -1.1439 C   0  0  0  0  0  0  0  0  0  0  0  0
    0.0392   -0.3346   -2.4443 C   0  0  0  0  0  0  0  0  0  0  0  0
    0.0581   -1.1348   -3.5718 C   0  0  0  0  0  0  0  0  0  0  0  0
    0.0293   -2.4535   -3.6449 N   0  0  0  0  0  0  0  0  0  0  0  0
   -0.0219   -2.9386   -4.8875 C   0  0  0  0  0  0  0  0  0  0  0  0
   -0.0190   -4.2694   -5.3014 C   0  0  0  0  0  0  0  0  0  0  0  0
   -0.0213   -5.3646   -4.4478 C   0  0  0  0  0  0  0  0  0  0  0  0
   -0.0381   -6.6935   -4.9085 C   0  0  0  0  0  0  0  0  0  0  0  0
   -0.0506   -7.5243   -3.8020 C   0  0  0  0  0  0  0  0  0  0  0  0
   -0.0405   -6.6964   -2.6473 C   0  0  0  0  0  0  0  0  0  0  0  0
   -0.0165   -5.3852   -3.0727 N   0  0  0  0  0  0  0  0  0  0  0  0
    0.0008   -4.6051   -2.4966 H   0  0  0  0  0  0  0  0  0  0  0  0
   -0.0576   -7.1754   -1.3516 C   0  0  0  0  0  0  0  0  0  0  0  0
   -0.0275   -6.3316   -0.2306 C   0  0  0  0  0  3  0  0  0  0  0  0
    0.0018   -4.9980   -0.2138 N   0  0  0  0  0  0  0  0  0  0  0  0
    0.0260   -4.5648    1.0478 C   0  0  0  0  0  0  0  0  0  0  0  0
    0.0518   -3.2395    1.5039 C   0  0  0  0  0  0  0  0  0  0  0  0
    0.0232   -2.1461    0.6554 C   0  0  0  0  0  0  0  0  0  0  0  0
    0.0234   -0.8074    1.0976 C   0  0  0  0  0  0  0  0  0  0  0  0
    0.0404   -0.3482    2.5329 C   0  0  0  0  0  0  0  0  0  0  0  0
   -1.3961   -0.2032    3.0390 C   0  0  0  0  0  0  0  0  0  0  0  0
   -1.3791    0.2560    4.4743 C   0  0  0  0  0  0  0  0  0  0  0  0
   -0.3260    0.4476    5.0348 O   0  0  0  0  0  0  0  0  0  0  0  0
   -2.5338    0.4522    5.1299 O   0  0  0  0  0  0  0  0  0  0  0  0
   -2.4429    0.8875    6.4880 C   0  0  0  0  0  0  0  0  0  0  0  0
   -0.0022   -2.1339   -0.7247 N   0  0  0  0  0  0  0  0  0  0  0  0
   -0.0238   -2.9147   -1.2998 H   0  0  0  0  0  0  0  0  0  0  0  0
    0.0141   -5.6995    1.9076 C   0  0  0  0  0  0  0  0  0  0  0  0
   -0.0216   -6.7945    1.1145 C   0  0  0  0  0  0  0  0  0  0  0  0
   -0.0499   -8.2310    1.5691 C   0  0  0  0  0  0  0  0  0  0  0  0
    0.0375   -5.6836    3.4144 C   0  0  0  0  0  0  0  0  0  0  0  0
    1.4847   -5.5836    3.9009 C   0  0  0  0  0  0  0  0  0  0  0  0
    1.5080   -5.5676    5.4077 C   0  0  0  0  0  0  0  0  0  0  0  0
    0.4640   -5.6304    6.0343 O   0  0  0  0  0  0  0  0  0  0  0  0
    2.5710   -5.4919    6.0001 O   0  0  0  0  0  1  0  0  0  0  0  0
   -0.0707   -8.9982   -3.8182 C   0  0  0  0  0  0  0  0  0  0  0  0
    0.8008   -9.6827   -3.0849 C   0  0  0  0  0  0  0  0  0  0  0  0
   -0.0426   -7.1337   -6.3498 C   0  0  0  0  0  0  0  0  0  0  0  0
   -0.1163   -1.8262   -5.8278 C   0  0  0  0  0  0  0  0  0  0  0  0
   -0.3530   -1.7395   -7.1493 C   0  0  0  0  0  0  0  0  0  0  0  0
   -0.5778   -0.4404   -7.6739 C   0  0  0  0  0  0  0  0  0  0  0  0
   -0.8450    0.6071   -6.8518 C   0  0  0  0  0  0  0  0  0  0  0  0
   -0.9145    0.4290   -5.3472 C   0  0  2  0  0  0  0  0  0  0  0  0
   -0.7098    1.3771   -4.8498 H   0  0  0  0  0  0  0  0  0  0  0  0
    0.1517   -0.5954   -4.9758 C   0  0  1  0  0  0  0  0  0  0  0  0
    1.5533   -0.0350   -5.2431 C   0  0  0  0  0  0  0  0  0  0  0  0
   -2.2774   -0.0770   -4.9505 C   0  0  0  0  0  0  0  0  0  0  0  0
   -2.3856   -1.1349   -4.3768 O   0  0  0  0  0  0  0  0  0  0  0  0
   -3.3711    0.6474   -5.2344 O   0  0  0  0  0  0  0  0  0  0  0  0
   -4.6304    0.1071   -4.8291 C   0  0  0  0  0  0  0  0  0  0  0  0
   -1.0624    1.8897   -7.4098 C   0  0  0  0  0  0  0  0  0  0  0  0
   -1.0091    2.0457   -8.6154 O   0  0  0  0  0  0  0  0  0  0  0  0
   -1.3290    2.9397   -6.6046 O   0  0  0  0  0  0  0  0  0  0  0  0
   -1.5377    4.2047   -7.2357 C   0  0  0  0  0  0  0  0  0  0  0  0
    1.0042    1.8801    0.0026 H   0  0  0  0  0  0  0  0  0  0  0  0
   -0.5455    1.8639   -0.8728 H   0  0  0  0  0  0  0  0  0  0  0  0
   -0.5286    1.8543    0.9071 H   0  0  0  0  0  0  0  0  0  0  0  0
    0.0454    0.7483   -2.5854 H   0  0  0  0  0  0  0  0  0  0  0  0
   -0.0119   -4.4629   -6.3777 H   0  0  0  0  0  0  0  0  0  0  0  0
   -0.0991   -8.2514   -1.1939 H   0  0  0  0  0  0  0  0  0  0  0  0
    0.1014   -3.0608    2.5774 H   0  0  0  0  0  0  0  0  0  0  0  0
    0.5683   -1.0814    3.1427 H   0  0  0  0  0  0  0  0  0  0  0  0
    0.5484    0.6139    2.6006 H   0  0  0  0  0  0  0  0  0  0  0  0
   -1.9239    0.5301    2.4292 H   0  0  0  0  0  0  0  0  0  0  0  0
   -1.9040   -1.1652    2.9714 H   0  0  0  0  0  0  0  0  0  0  0  0
   -1.9170    1.8413    6.5293 H   0  0  0  0  0  0  0  0  0  0  0  0
   -3.4453    1.0072    6.8990 H   0  0  0  0  0  0  0  0  0  0  0  0
   -1.8971    0.1461    7.0714 H   0  0  0  0  0  0  0  0  0  0  0  0
   -0.0759   -8.8870    0.6990 H   0  0  0  0  0  0  0  0  0  0  0  0
    0.8425   -8.4435    2.1578 H   0  0  0  0  0  0  0  0  0  0  0  0
   -0.9369   -8.4016    2.1793 H   0  0  0  0  0  0  0  0  0  0  0  0
   -0.5280   -4.8254    3.7775 H   0  0  0  0  0  0  0  0  0  0  0  0
   -0.4110   -6.6015    3.7945 H   0  0  0  0  0  0  0  0  0  0  0  0
    2.0502   -6.4417    3.5379 H   0  0  0  0  0  0  0  0  0  0  0  0
    1.9331   -4.6657    3.5209 H   0  0  0  0  0  0  0  0  0  0  0  0
   -0.7938   -9.5217   -4.4260 H   0  0  0  0  0  0  0  0  0  0  0  0
    1.5239   -9.1592   -2.4771 H   0  0  0  0  0  0  0  0  0  0  0  0
    0.7860  -10.7625   -3.0968 H   0  0  0  0  0  0  0  0  0  0  0  0
    0.9839   -7.2536   -6.6963 H   0  0  0  0  0  0  0  0  0  0  0  0
   -0.5691   -8.0841   -6.4377 H   0  0  0  0  0  0  0  0  0  0  0  0
   -0.5458   -6.3819   -6.9578 H   0  0  0  0  0  0  0  0  0  0  0  0
   -0.3708   -2.6159   -7.7801 H   0  0  0  0  0  0  0  0  0  0  0  0
   -0.5355   -0.2824   -8.7414 H   0  0  0  0  0  0  0  0  0  0  0  0
    2.2924   -0.8243   -5.1061 H   0  0  0  0  0  0  0  0  0  0  0  0
    1.6062    0.3388   -6.2657 H   0  0  0  0  0  0  0  0  0  0  0  0
    1.7579    0.7790   -4.5477 H   0  0  0  0  0  0  0  0  0  0  0  0
   -4.7844   -0.8575   -5.3126 H   0  0  0  0  0  0  0  0  0  0  0  0
   -4.6384   -0.0235   -3.7470 H   0  0  0  0  0  0  0  0  0  0  0  0
   -5.4290    0.7902   -5.1185 H   0  0  0  0  0  0  0  0  0  0  0  0
   -2.3858    4.1353   -7.9169 H   0  0  0  0  0  0  0  0  0  0  0  0
   -1.7421    4.9600   -6.4769 H   0  0  0  0  0  0  0  0  0  0  0  0
   -0.6446    4.4836   -7.7948 H   0  0  0  0  0  0  0  0  0  0  0  0
    0.0049   -4.4295   -0.9997 H   0  0  0  0  0  0  0  0  0  0  0  0
  1  2  1  0  0  0  0
  1 57  1  0  0  0  0
  1 58  1  0  0  0  0
  1 59  1  0  0  0  0
  2 21  1  0  0  0  0
  2  3  2  0  0  0  0
  3 28  1  0  0  0  0
  3  4  1  0  0  0  0
  4  5  2  0  0  0  0
  4 60  1  0  0  0  0
  5 47  1  0  0  0  0
  5  6  1  0  0  0  0
  6  7  2  0  0  0  0
  7  8  1  0  0  0  0
  7 41  1  0  0  0  0
  8  9  2  0  0  0  0
  8 61  1  0  0  0  0
  9 13  1  0  0  0  0
  9 10  1  0  0  0  0
 10 11  2  0  0  0  0
 10 40  1  0  0  0  0
 11 12  1  0  0  0  0
 11 38  1  0  0  0  0
 12 13  1  0  0  0  0
 12 15  2  0  0  0  0
 13 14  1  0  0  0  0
 15 16  1  0  0  0  0
 15 62  1  0  0  0  0
 16 31  1  0  0  0  0
 16 17  1  0  0  0  0
 17 18  1  0  0  0  0
 17 95  1  0  0  0  0
 18 19  2  0  0  0  0
 18 30  1  0  0  0  0
 19 20  1  0  0  0  0
 19 63  1  0  0  0  0
 20 21  2  0  0  0  0
 20 28  1  0  0  0  0
 21 22  1  0  0  0  0
 22 23  1  0  0  0  0
 22 64  1  0  0  0  0
 22 65  1  0  0  0  0
 23 24  1  0  0  0  0
 23 66  1  0  0  0  0
 23 67  1  0  0  0  0
 24 25  2  0  0  0  0
 24 26  1  0  0  0  0
 26 27  1  0  0  0  0
 27 68  1  0  0  0  0
 27 69  1  0  0  0  0
 27 70  1  0  0  0  0
 28 29  1  0  0  0  0
 30 31  2  0  0  0  0
 30 33  1  0  0  0  0
 31 32  1  0  0  0  0
 32 71  1  0  0  0  0
 32 72  1  0  0  0  0
 32 73  1  0  0  0  0
 33 34  1  0  0  0  0
 33 74  1  0  0  0  0
 33 75  1  0  0  0  0
 34 35  1  0  0  0  0
 34 76  1  0  0  0  0
 34 77  1  0  0  0  0
 35 36  2  0  0  0  0
 35 37  1  0  0  0  0
 38 39  2  0  0  0  0
 38 78  1  0  0  0  0
 39 79  1  0  0  0  0
 39 80  1  0  0  0  0
 40 81  1  0  0  0  0
 40 82  1  0  0  0  0
 40 83  1  0  0  0  0
 41 47  1  0  0  0  0
 41 42  2  0  0  0  0
 42 43  1  0  0  0  0
 42 84  1  0  0  0  0
 43 44  2  0  0  0  0
 43 85  1  0  0  0  0
 44 45  1  0  0  0  0
 44 53  1  0  0  0  0
 45 46  1  1  0  0  0
 45 47  1  0  0  0  0
 45 49  1  0  0  0  0
 47 48  1  6  0  0  0
 48 86  1  0  0  0  0
 48 87  1  0  0  0  0
 48 88  1  0  0  0  0
 49 50  2  0  0  0  0
 49 51  1  0  0  0  0
 51 52  1  0  0  0  0
 52 89  1  0  0  0  0
 52 90  1  0  0  0  0
 52 91  1  0  0  0  0
 53 54  2  0  0  0  0
 53 55  1  0  0  0  0
 55 56  1  0  0  0  0
 56 92  1  0  0  0  0
 56 93  1  0  0  0  0
 56 94  1  0  0  0  0
M  END
$$$$
