ZINC03831581
 OpenBabel08292219463D

 51 55  0  0  1  0  0  0  0  0999 V2000
    2.6258    7.1105    0.3775 C   0  0  0  0  0  0  0  0  0  0  0  0
    2.0597    6.7762    1.5935 C   0  0  0  0  0  0  0  0  0  0  0  0
    2.0929    5.4666    2.0347 C   0  0  0  0  0  0  0  0  0  0  0  0
    2.6915    4.4911    1.2595 C   0  0  0  0  0  0  0  0  0  0  0  0
    3.2618    4.8262    0.0456 C   0  0  0  0  0  0  0  0  0  0  0  0
    3.2247    6.1350   -0.3976 C   0  0  0  0  0  0  0  0  0  0  0  0
    2.7277    3.0633    1.7404 C   0  0  0  0  0  0  0  0  0  0  0  0
    1.5328    2.3588    1.2691 N   0  0  0  0  0  0  0  0  0  0  0  0
    1.4180    1.6266   -0.0027 C   0  0  2  0  0  0  0  0  0  0  0  0
    2.1298    0.8014   -0.0245 H   0  0  0  0  0  0  0  0  0  0  0  0
    1.7030    2.6023   -1.1634 C   0  0  0  0  0  0  0  0  0  0  0  0
    0.4049    2.1325   -2.3779 S   0  0  2  0  0  3  0  0  0  0  0  0
   -0.3216    3.7538   -2.8432 C   0  0  0  0  0  0  0  0  0  0  0  0
   -1.1255    4.1290   -1.5838 C   0  0  0  0  0  0  0  0  0  0  0  0
   -1.4995    2.9426   -0.7180 C   0  0  0  0  0  0  0  0  0  0  0  0
   -0.8965    1.6059   -1.1441 C   0  0  2  0  0  0  0  0  0  0  0  0
   -1.6267    0.8870   -1.5158 H   0  0  0  0  0  0  0  0  0  0  0  0
   -0.0127    1.0858    0.0080 C   0  0  2  0  0  0  0  0  0  0  0  0
    0.0021   -0.0041    0.0020 H   0  0  0  0  0  0  0  0  0  0  0  0
   -0.5712    1.5720    1.2795 N   0  0  0  0  0  0  0  0  0  0  0  0
    0.3674    2.2774    1.9258 C   0  0  0  0  0  0  0  0  0  0  0  0
    0.1786    2.7965    3.0090 O   0  0  0  0  0  0  0  0  0  0  0  0
   -1.9328    1.3255    1.7606 C   0  0  0  0  0  0  0  0  0  0  0  0
   -1.9565    0.0565    2.5731 C   0  0  0  0  0  0  0  0  0  0  0  0
   -2.2089   -1.1545    1.9563 C   0  0  0  0  0  0  0  0  0  0  0  0
   -2.2254   -2.3192    2.7008 C   0  0  0  0  0  0  0  0  0  0  0  0
   -2.0003   -2.2714    4.0638 C   0  0  0  0  0  0  0  0  0  0  0  0
   -1.7535   -1.0597    4.6816 C   0  0  0  0  0  0  0  0  0  0  0  0
   -1.7313    0.1043    3.9362 C   0  0  0  0  0  0  0  0  0  0  0  0
    2.5998    8.1336    0.0328 H   0  0  0  0  0  0  0  0  0  0  0  0
    1.5918    7.5383    2.1990 H   0  0  0  0  0  0  0  0  0  0  0  0
    1.6510    5.2055    2.9849 H   0  0  0  0  0  0  0  0  0  0  0  0
    3.7333    4.0648   -0.5580 H   0  0  0  0  0  0  0  0  0  0  0  0
    3.6667    6.3961   -1.3478 H   0  0  0  0  0  0  0  0  0  0  0  0
    2.7527    3.0475    2.8300 H   0  0  0  0  0  0  0  0  0  0  0  0
    3.6179    2.5707    1.3494 H   0  0  0  0  0  0  0  0  0  0  0  0
    1.5804    3.6366   -0.8423 H   0  0  0  0  0  0  0  0  0  0  0  0
    2.6991    2.4387   -1.5746 H   0  0  0  0  0  0  0  0  0  0  0  0
    0.4607    4.4878   -3.0365 H   0  0  0  0  0  0  0  0  0  0  0  0
   -0.9766    3.6510   -3.7084 H   0  0  0  0  0  0  0  0  0  0  0  0
   -0.5331    4.8223   -0.9867 H   0  0  0  0  0  0  0  0  0  0  0  0
   -2.0396    4.6359   -1.8929 H   0  0  0  0  0  0  0  0  0  0  0  0
   -1.1793    3.1495    0.3031 H   0  0  0  0  0  0  0  0  0  0  0  0
   -2.5852    2.8453   -0.7210 H   0  0  0  0  0  0  0  0  0  0  0  0
   -2.2553    2.1609    2.3821 H   0  0  0  0  0  0  0  0  0  0  0  0
   -2.6062    1.2246    0.9095 H   0  0  0  0  0  0  0  0  0  0  0  0
   -2.3892   -1.1912    0.8921 H   0  0  0  0  0  0  0  0  0  0  0  0
   -2.4180   -3.2659    2.2181 H   0  0  0  0  0  0  0  0  0  0  0  0
   -2.0169   -3.1809    4.6460 H   0  0  0  0  0  0  0  0  0  0  0  0
   -1.5776   -1.0224    5.7465 H   0  0  0  0  0  0  0  0  0  0  0  0
   -1.5385    1.0510    4.4189 H   0  0  0  0  0  0  0  0  0  0  0  0
  1  6  2  0  0  0  0
  1  2  1  0  0  0  0
  1 30  1  0  0  0  0
  2  3  2  0  0  0  0
  2 31  1  0  0  0  0
  3  4  1  0  0  0  0
  3 32  1  0  0  0  0
  4  5  2  0  0  0  0
  4  7  1  0  0  0  0
  5  6  1  0  0  0  0
  5 33  1  0  0  0  0
  6 34  1  0  0  0  0
  7  8  1  0  0  0  0
  7 35  1  0  0  0  0
  7 36  1  0  0  0  0
  8 21  1  0  0  0  0
  8  9  1  0  0  0  0
  9 10  1  6  0  0  0
  9 18  1  0  0  0  0
  9 11  1  0  0  0  0
 11 37  1  0  0  0  0
 11 38  1  0  0  0  0
 12 11  1  1  0  0  0
 12 16  1  0  0  0  0
 12 13  1  0  0  0  0
 13 14  1  0  0  0  0
 13 39  1  0  0  0  0
 13 40  1  0  0  0  0
 14 15  1  0  0  0  0
 14 41  1  0  0  0  0
 14 42  1  0  0  0  0
 15 16  1  0  0  0  0
 15 43  1  0  0  0  0
 15 44  1  0  0  0  0
 16 17  1  6  0  0  0
 16 18  1  0  0  0  0
 18 19  1  6  0  0  0
 18 20  1  0  0  0  0
 20 21  1  0  0  0  0
 20 23  1  0  0  0  0
 21 22  2  0  0  0  0
 23 24  1  0  0  0  0
 23 45  1  0  0  0  0
 23 46  1  0  0  0  0
 24 29  2  0  0  0  0
 24 25  1  0  0  0  0
 25 26  2  0  0  0  0
 25 47  1  0  0  0  0
 26 27  1  0  0  0  0
 26 48  1  0  0  0  0
 27 28  2  0  0  0  0
 27 49  1  0  0  0  0
 28 29  1  0  0  0  0
 28 50  1  0  0  0  0
 29 51  1  0  0  0  0
M  END
$$$$
