ZINC00120249
 OpenBabel08292219463D

 21 21  0  0  0  0  0  0  0  0999 V2000
   -0.0184    1.5028    0.0103 C   0  0  0  0  0  0  0  0  0  0  0  0
    0.0021   -0.0041    0.0020 C   0  0  0  0  0  0  0  0  0  0  0  0
    0.0056   -0.6838   -1.2102 C   0  0  0  0  0  0  0  0  0  0  0  0
    0.0253   -2.0897   -1.1984 C   0  0  0  0  0  0  0  0  0  0  0  0
    0.0403   -2.7378    0.0451 C   0  0  0  0  0  0  0  0  0  0  0  0
    0.0354   -1.9781    1.1959 C   0  0  0  0  0  0  0  0  0  0  0  0
    0.0218   -0.6600    1.1427 N   0  0  0  0  0  0  0  0  0  0  0  0
    0.0612   -4.2426    0.1226 C   0  0  0  0  0  0  0  0  0  0  0  0
    0.0736   -4.6489    1.4926 O   0  0  0  0  0  0  0  0  0  0  0  0
    0.0294   -2.8581   -2.4534 C   0  0  0  0  0  0  0  0  0  0  0  0
    0.0157   -2.2792   -3.5187 O   0  0  0  0  0  0  0  0  0  0  0  0
   -0.0100   -0.0034   -2.3832 O   0  0  0  0  0  0  0  0  0  0  0  0
    1.0042    1.8801    0.0026 H   0  0  0  0  0  0  0  0  0  0  0  0
   -0.5455    1.8639   -0.8728 H   0  0  0  0  0  0  0  0  0  0  0  0
   -0.5286    1.8543    0.9071 H   0  0  0  0  0  0  0  0  0  0  0  0
    0.0469   -2.4705    2.1571 H   0  0  0  0  0  0  0  0  0  0  0  0
   -0.8259   -4.6440   -0.3674 H   0  0  0  0  0  0  0  0  0  0  0  0
    0.9539   -4.6198   -0.3764 H   0  0  0  0  0  0  0  0  0  0  0  0
    0.0873   -5.6076    1.6184 H   0  0  0  0  0  0  0  0  0  0  0  0
    0.0445   -3.9377   -2.4256 H   0  0  0  0  0  0  0  0  0  0  0  0
    0.8687    0.2065   -2.7279 H   0  0  0  0  0  0  0  0  0  0  0  0
  1  2  1  0  0  0  0
  1 13  1  0  0  0  0
  1 14  1  0  0  0  0
  1 15  1  0  0  0  0
  2  7  2  0  0  0  0
  2  3  1  0  0  0  0
  3  4  2  0  0  0  0
  3 12  1  0  0  0  0
  4  5  1  0  0  0  0
  4 10  1  0  0  0  0
  5  6  2  0  0  0  0
  5  8  1  0  0  0  0
  6  7  1  0  0  0  0
  6 16  1  0  0  0  0
  8  9  1  0  0  0  0
  8 17  1  0  0  0  0
  8 18  1  0  0  0  0
  9 19  1  0  0  0  0
 10 11  2  0  0  0  0
 10 20  1  0  0  0  0
 12 21  1  0  0  0  0
M  END
$$$$
