ZINC03813010
 OpenBabel08292219463D

 28 29  0  0  1  0  0  0  0  0999 V2000
   -0.0165    1.3666    0.0096 C   0  0  0  0  0  0  0  0  0  0  0  0
    1.1481    2.0506    0.0021 C   0  0  0  0  0  0  0  0  0  0  0  0
    2.3695    1.3316   -0.0134 C   0  0  0  0  0  0  0  0  0  0  0  0
    3.4324    1.9260   -0.0200 O   0  0  0  0  0  0  0  0  0  0  0  0
    2.3438   -0.0164   -0.0204 N   0  0  0  0  0  0  0  0  0  0  0  0
    3.1758   -0.5151   -0.0307 H   0  0  0  0  0  0  0  0  0  0  0  0
    1.1691   -0.6733   -0.0127 C   0  0  0  0  0  0  0  0  0  0  0  0
    1.1625   -1.8892   -0.0192 O   0  0  0  0  0  0  0  0  0  0  0  0
    0.0021   -0.0041    0.0020 N   0  0  0  0  0  0  0  0  0  0  0  0
   -1.2605   -0.7471    0.0106 C   0  0  1  0  0  0  0  0  0  0  0  0
   -2.1016   -0.0632    0.1241 H   0  0  0  0  0  0  0  0  0  0  0  0
   -1.4086   -1.5707   -1.2879 C   0  0  0  0  0  0  0  0  0  0  0  0
   -2.0848   -2.8810   -0.8263 C   0  0  1  0  0  0  0  0  0  0  0  0
   -1.4411   -3.7362   -1.0325 H   0  0  0  0  0  0  0  0  0  0  0  0
   -2.2652   -2.6941    0.6965 C   0  0  2  0  0  0  0  0  0  0  0  0
   -3.2614   -2.3102    0.9163 H   0  0  0  0  0  0  0  0  0  0  0  0
   -1.2610   -1.7254    1.0730 O   0  0  0  0  0  0  0  0  0  0  0  0
   -2.0327   -4.0182    1.4270 C   0  0  0  0  0  0  0  0  0  0  0  0
   -2.3174   -3.8515    2.8174 O   0  0  0  0  0  0  0  0  0  0  0  0
   -3.3516   -3.0435   -1.4672 O   0  0  0  0  0  0  0  0  0  0  0  0
    1.1488    3.4016    0.0089 F   0  0  0  0  0  0  0  0  0  0  0  0
   -0.9573    1.8966    0.0259 H   0  0  0  0  0  0  0  0  0  0  0  0
   -2.0417   -1.0456   -2.0031 H   0  0  0  0  0  0  0  0  0  0  0  0
   -0.4306   -1.7780   -1.7223 H   0  0  0  0  0  0  0  0  0  0  0  0
   -2.6887   -4.7828    1.0109 H   0  0  0  0  0  0  0  0  0  0  0  0
   -0.9938   -4.3240    1.3029 H   0  0  0  0  0  0  0  0  0  0  0  0
   -2.1911   -4.6530    3.3435 H   0  0  0  0  0  0  0  0  0  0  0  0
   -3.2998   -3.1060   -2.4307 H   0  0  0  0  0  0  0  0  0  0  0  0
  1  9  1  0  0  0  0
  1  2  2  0  0  0  0
  1 22  1  0  0  0  0
  2  3  1  0  0  0  0
  2 21  1  0  0  0  0
  3  4  2  0  0  0  0
  3  5  1  0  0  0  0
  5  6  1  0  0  0  0
  5  7  1  0  0  0  0
  7  8  2  0  0  0  0
  7  9  1  0  0  0  0
  9 10  1  0  0  0  0
 10 11  1  1  0  0  0
 10 17  1  0  0  0  0
 10 12  1  0  0  0  0
 12 13  1  0  0  0  0
 12 23  1  0  0  0  0
 12 24  1  0  0  0  0
 13 14  1  6  0  0  0
 13 15  1  0  0  0  0
 13 20  1  0  0  0  0
 15 16  1  1  0  0  0
 15 17  1  0  0  0  0
 15 18  1  0  0  0  0
 18 19  1  0  0  0  0
 18 25  1  0  0  0  0
 18 26  1  0  0  0  0
 19 27  1  0  0  0  0
 20 28  1  0  0  0  0
M  END
$$$$
