ZINC00001266
 OpenBabel08292219463D

 29 30  0  0  1  0  0  0  0  0999 V2000
    4.1034    2.3200    0.3487 C   0  0  0  0  0  0  0  0  0  0  0  0
    3.6411    0.9109   -0.0278 C   0  0  1  0  0  0  0  0  0  0  0  0
    4.0377    0.1941    0.6913 H   0  0  0  0  0  0  0  0  0  0  0  0
    2.1352    0.8558   -0.0137 C   0  0  0  0  0  0  0  0  0  0  0  0
   -0.0188    1.5380    0.0105 C   0  0  0  0  0  0  0  0  0  0  0  0
    0.0021   -0.0041    0.0020 C   0  0  0  0  0  0  0  0  0  0  0  0
    1.4412   -0.3172   -0.0134 N   0  0  0  0  0  0  0  0  0  0  0  0
    4.1174    0.5869   -1.3355 O   0  0  0  0  0  0  0  0  0  0  0  0
    5.3343   -0.0137   -1.4180 C   0  0  0  0  0  0  0  0  0  0  0  0
    6.4826    0.7559   -1.5409 C   0  0  0  0  0  0  0  0  0  0  0  0
    7.7193    0.1426   -1.6183 C   0  0  0  0  0  0  0  0  0  0  0  0
    7.8117   -1.2365   -1.5856 C   0  0  0  0  0  0  0  0  0  0  0  0
    6.6690   -2.0060   -1.4689 C   0  0  0  0  0  0  0  0  0  0  0  0
    5.4301   -1.3979   -1.3850 C   0  0  0  0  0  0  0  0  0  0  0  0
    3.9958   -2.3649   -1.2379 Cl  0  0  0  0  0  0  0  0  0  0  0  0
    6.3669    2.4874   -1.5898 Cl  0  0  0  0  0  0  0  0  0  0  0  0
    3.7401    2.5671    1.3462 H   0  0  0  0  0  0  0  0  0  0  0  0
    5.1926    2.3598    0.3385 H   0  0  0  0  0  0  0  0  0  0  0  0
    3.7068    3.0367   -0.3704 H   0  0  0  0  0  0  0  0  0  0  0  0
   -0.5209    1.9188   -0.8789 H   0  0  0  0  0  0  0  0  0  0  0  0
   -0.5038    1.9091    0.9134 H   0  0  0  0  0  0  0  0  0  0  0  0
   -0.4689   -0.4007    0.9014 H   0  0  0  0  0  0  0  0  0  0  0  0
   -0.4887   -0.3911   -0.8910 H   0  0  0  0  0  0  0  0  0  0  0  0
    1.8289   -1.2063   -0.0219 H   0  0  0  0  0  0  0  0  0  0  0  0
    8.6137    0.7412   -1.7088 H   0  0  0  0  0  0  0  0  0  0  0  0
    8.7784   -1.7137   -1.6510 H   0  0  0  0  0  0  0  0  0  0  0  0
    6.7441   -3.0831   -1.4437 H   0  0  0  0  0  0  0  0  0  0  0  0
    1.4051    1.9131   -0.0011 N   0  0  0  0  0  4  0  0  0  0  0  0
    1.7614    2.8761    0.0006 H   0  0  0  0  0  0  0  0  0  0  0  0
  1  2  1  0  0  0  0
  1 17  1  0  0  0  0
  1 18  1  0  0  0  0
  1 19  1  0  0  0  0
  2  3  1  1  0  0  0
  2  4  1  0  0  0  0
  2  8  1  0  0  0  0
  4  7  1  0  0  0  0
  4 28  2  0  0  0  0
  5  6  1  0  0  0  0
  5 20  1  0  0  0  0
  5 21  1  0  0  0  0
  5 28  1  0  0  0  0
  6  7  1  0  0  0  0
  6 22  1  0  0  0  0
  6 23  1  0  0  0  0
  7 24  1  0  0  0  0
  8  9  1  0  0  0  0
  9 14  2  0  0  0  0
  9 10  1  0  0  0  0
 10 11  2  0  0  0  0
 10 16  1  0  0  0  0
 11 12  1  0  0  0  0
 11 25  1  0  0  0  0
 12 13  2  0  0  0  0
 12 26  1  0  0  0  0
 13 14  1  0  0  0  0
 13 27  1  0  0  0  0
 14 15  1  0  0  0  0
 28 29  1  0  0  0  0
M  END
$$$$
