ZINC00020251
 OpenBabel08292219463D

 41 43  0  0  0  0  0  0  0  0999 V2000
    0.3679    1.4948   -0.0201 C   0  0  0  0  0  0  0  0  0  0  0  0
    0.2853   -0.0099   -0.0200 C   0  0  0  0  0  0  0  0  0  0  0  0
    1.4442   -0.7644   -0.0110 C   0  0  0  0  0  0  0  0  0  0  0  0
    1.3722   -2.1435   -0.0113 C   0  0  0  0  0  0  0  0  0  0  0  0
    0.1337   -2.7728   -0.0201 C   0  0  0  0  0  0  0  0  0  0  0  0
   -1.0285   -2.0117   -0.0286 C   0  0  0  0  0  0  0  0  0  0  0  0
   -0.9492   -0.6330   -0.0230 C   0  0  0  0  0  0  0  0  0  0  0  0
    0.0572   -4.1678   -0.0209 N   0  0  0  0  0  0  0  0  0  0  0  0
    0.0846   -4.9036    1.2456 C   0  0  0  0  0  0  0  0  0  0  0  0
   -1.3227   -5.0783    1.7557 C   0  0  0  0  0  0  0  0  0  0  0  0
   -1.9005   -4.2016    2.5430 N   0  0  0  0  0  4  0  0  0  0  0  0
   -3.2631   -4.6580    2.8611 C   0  0  0  0  0  0  0  0  0  0  0  0
   -3.3748   -5.9931    2.0960 C   0  0  0  0  0  0  0  0  0  0  0  0
   -2.0626   -6.1154    1.4407 N   0  0  0  0  0  0  0  0  0  0  0  0
   -0.0455   -4.8611   -1.2295 C   0  0  0  0  0  0  0  0  0  0  0  0
   -0.0552   -4.1650   -2.4324 C   0  0  0  0  0  0  0  0  0  0  0  0
   -0.1568   -4.8506   -3.6270 C   0  0  0  0  0  0  0  0  0  0  0  0
   -0.2489   -6.2298   -3.6298 C   0  0  0  0  0  0  0  0  0  0  0  0
   -0.2402   -6.9302   -2.4318 C   0  0  0  0  0  0  0  0  0  0  0  0
   -0.1322   -6.2465   -1.2308 C   0  0  0  0  0  0  0  0  0  0  0  0
   -0.3318   -8.2861   -2.4363 O   0  0  0  0  0  0  0  0  0  0  0  0
    0.3851    1.8579    1.0075 H   0  0  0  0  0  0  0  0  0  0  0  0
    1.2778    1.8087   -0.5317 H   0  0  0  0  0  0  0  0  0  0  0  0
   -0.4995    1.9063   -0.5363 H   0  0  0  0  0  0  0  0  0  0  0  0
    2.4067   -0.2745   -0.0042 H   0  0  0  0  0  0  0  0  0  0  0  0
    2.2777   -2.7321   -0.0051 H   0  0  0  0  0  0  0  0  0  0  0  0
   -1.9930   -2.4978   -0.0354 H   0  0  0  0  0  0  0  0  0  0  0  0
   -1.8524   -0.0408   -0.0255 H   0  0  0  0  0  0  0  0  0  0  0  0
    0.5378   -5.8823    1.0875 H   0  0  0  0  0  0  0  0  0  0  0  0
    0.6696   -4.3462    1.9771 H   0  0  0  0  0  0  0  0  0  0  0  0
   -3.3747   -4.8185    3.9334 H   0  0  0  0  0  0  0  0  0  0  0  0
   -4.0026   -3.9438    2.4987 H   0  0  0  0  0  0  0  0  0  0  0  0
   -3.5420   -6.8196    2.7867 H   0  0  0  0  0  0  0  0  0  0  0  0
   -4.1699   -5.9450    1.3520 H   0  0  0  0  0  0  0  0  0  0  0  0
   -1.7873   -6.8481    0.8678 H   0  0  0  0  0  0  0  0  0  0  0  0
    0.0163   -3.0874   -2.4330 H   0  0  0  0  0  0  0  0  0  0  0  0
   -0.1645   -4.3081   -4.5608 H   0  0  0  0  0  0  0  0  0  0  0  0
   -0.3282   -6.7630   -4.5656 H   0  0  0  0  0  0  0  0  0  0  0  0
   -0.1201   -6.7903   -0.2978 H   0  0  0  0  0  0  0  0  0  0  0  0
    0.5221   -8.7379   -2.4787 H   0  0  0  0  0  0  0  0  0  0  0  0
   -1.4934   -3.3821    2.8650 H   0  0  0  0  0  0  0  0  0  0  0  0
  1  2  1  0  0  0  0
  1 22  1  0  0  0  0
  1 23  1  0  0  0  0
  1 24  1  0  0  0  0
  2  7  2  0  0  0  0
  2  3  1  0  0  0  0
  3  4  2  0  0  0  0
  3 25  1  0  0  0  0
  4  5  1  0  0  0  0
  4 26  1  0  0  0  0
  5  6  2  0  0  0  0
  5  8  1  0  0  0  0
  6  7  1  0  0  0  0
  6 27  1  0  0  0  0
  7 28  1  0  0  0  0
  8  9  1  0  0  0  0
  8 15  1  0  0  0  0
  9 10  1  0  0  0  0
  9 29  1  0  0  0  0
  9 30  1  0  0  0  0
 10 14  1  0  0  0  0
 10 11  2  0  0  0  0
 11 12  1  0  0  0  0
 11 41  1  0  0  0  0
 12 13  1  0  0  0  0
 12 31  1  0  0  0  0
 12 32  1  0  0  0  0
 13 14  1  0  0  0  0
 13 33  1  0  0  0  0
 13 34  1  0  0  0  0
 14 35  1  0  0  0  0
 15 20  2  0  0  0  0
 15 16  1  0  0  0  0
 16 17  2  0  0  0  0
 16 36  1  0  0  0  0
 17 18  1  0  0  0  0
 17 37  1  0  0  0  0
 18 19  2  0  0  0  0
 18 38  1  0  0  0  0
 19 20  1  0  0  0  0
 19 21  1  0  0  0  0
 20 39  1  0  0  0  0
 21 40  1  0  0  0  0
M  END
$$$$
