ZINC35653009
 OpenBabel08292219463D

 46 49  0  0  1  0  0  0  0  0999 V2000
   -0.0184    1.5028    0.0103 C   0  0  0  0  0  0  0  0  0  0  0  0
    0.0021   -0.0041    0.0020 C   0  0  0  0  0  0  0  0  0  0  0  0
    0.0203   -0.6157    1.0484 O   0  0  0  0  0  0  0  0  0  0  0  0
    0.0001   -0.6688   -1.1640 O   0  0  0  0  0  0  0  0  0  0  0  0
    0.0189   -2.0269   -1.1240 C   0  0  0  0  0  0  0  0  0  0  0  0
    0.0268   -2.9136   -2.1535 C   0  0  0  0  0  0  0  0  0  0  0  0
    0.0466   -4.2820   -1.8901 C   0  0  0  0  0  0  0  0  0  0  0  0
    0.0559   -4.6502   -0.5790 C   0  0  0  0  0  0  0  0  0  0  0  0
    0.0478   -3.1112    0.2961 S   0  0  0  0  0  0  0  0  0  0  0  0
    0.0737   -6.0453   -0.0444 C   0  0  0  0  0  0  0  0  0  0  0  0
   -0.2745   -6.9953   -1.2028 C   0  0  0  0  0  0  0  0  0  0  0  0
    0.5198   -6.6171   -2.3803 N   0  0  0  0  0  0  0  0  0  0  0  0
    0.0594   -5.3557   -2.9743 C   0  0  0  0  0  0  0  0  0  0  0  0
    0.5297   -7.6958   -3.3773 C   0  0  2  0  0  0  0  0  0  0  0  0
   -0.4913   -7.9046   -3.6969 H   0  0  0  0  0  0  0  0  0  0  0  0
    1.1292   -8.9372   -2.7685 C   0  0  0  0  0  0  0  0  0  0  0  0
    1.9213   -8.8404   -1.6399 C   0  0  0  0  0  0  0  0  0  0  0  0
    2.4713   -9.9787   -1.0812 C   0  0  0  0  0  0  0  0  0  0  0  0
    2.2299  -11.2155   -1.6504 C   0  0  0  0  0  0  0  0  0  0  0  0
    1.4379  -11.3148   -2.7783 C   0  0  0  0  0  0  0  0  0  0  0  0
    0.8821  -10.1755   -3.3359 C   0  0  0  0  0  0  0  0  0  0  0  0
    0.1038  -10.2719   -4.4360 F   0  0  0  0  0  0  0  0  0  0  0  0
    1.3518   -7.2726   -4.5673 C   0  0  0  0  0  0  0  0  0  0  0  0
    2.1561   -6.3784   -4.4582 O   0  0  0  0  0  0  0  0  0  0  0  0
    1.1703   -7.9652   -5.8933 C   0  0  0  0  0  0  0  0  0  0  0  0
    2.4319   -8.3324   -6.6771 C   0  0  0  0  0  0  0  0  0  0  0  0
    1.5415   -7.1837   -7.1552 C   0  0  0  0  0  0  0  0  0  0  0  0
    1.0042    1.8801    0.0026 H   0  0  0  0  0  0  0  0  0  0  0  0
   -0.5455    1.8639   -0.8728 H   0  0  0  0  0  0  0  0  0  0  0  0
   -0.5286    1.8543    0.9071 H   0  0  0  0  0  0  0  0  0  0  0  0
    0.0174   -2.5588   -3.1735 H   0  0  0  0  0  0  0  0  0  0  0  0
    1.0659   -6.2807    0.3408 H   0  0  0  0  0  0  0  0  0  0  0  0
   -0.6653   -6.1457    0.7505 H   0  0  0  0  0  0  0  0  0  0  0  0
   -0.0395   -8.0208   -0.9176 H   0  0  0  0  0  0  0  0  0  0  0  0
   -1.3360   -6.9130   -1.4364 H   0  0  0  0  0  0  0  0  0  0  0  0
   -0.9468   -5.4851   -3.3728 H   0  0  0  0  0  0  0  0  0  0  0  0
    0.7372   -5.0592   -3.7748 H   0  0  0  0  0  0  0  0  0  0  0  0
    2.1109   -7.8748   -1.1947 H   0  0  0  0  0  0  0  0  0  0  0  0
    3.0904   -9.9021   -0.1996 H   0  0  0  0  0  0  0  0  0  0  0  0
    2.6607  -12.1042   -1.2134 H   0  0  0  0  0  0  0  0  0  0  0  0
    1.2497  -12.2808   -3.2229 H   0  0  0  0  0  0  0  0  0  0  0  0
    0.3225   -8.6475   -5.9551 H   0  0  0  0  0  0  0  0  0  0  0  0
    3.3932   -8.0730   -6.2336 H   0  0  0  0  0  0  0  0  0  0  0  0
    2.4144   -9.2566   -7.2547 H   0  0  0  0  0  0  0  0  0  0  0  0
    0.9383   -7.3522   -8.0473 H   0  0  0  0  0  0  0  0  0  0  0  0
    1.9171   -6.1686   -7.0262 H   0  0  0  0  0  0  0  0  0  0  0  0
  1  2  1  0  0  0  0
  1 28  1  0  0  0  0
  1 29  1  0  0  0  0
  1 30  1  0  0  0  0
  2  3  2  0  0  0  0
  2  4  1  0  0  0  0
  4  5  1  0  0  0  0
  5  9  1  0  0  0  0
  5  6  2  0  0  0  0
  6  7  1  0  0  0  0
  6 31  1  0  0  0  0
  7 13  1  0  0  0  0
  7  8  2  0  0  0  0
  8  9  1  0  0  0  0
  8 10  1  0  0  0  0
 10 11  1  0  0  0  0
 10 32  1  0  0  0  0
 10 33  1  0  0  0  0
 11 12  1  0  0  0  0
 11 34  1  0  0  0  0
 11 35  1  0  0  0  0
 12 13  1  0  0  0  0
 12 14  1  0  0  0  0
 13 36  1  0  0  0  0
 13 37  1  0  0  0  0
 14 15  1  6  0  0  0
 14 16  1  0  0  0  0
 14 23  1  0  0  0  0
 16 21  2  0  0  0  0
 16 17  1  0  0  0  0
 17 18  2  0  0  0  0
 17 38  1  0  0  0  0
 18 19  1  0  0  0  0
 18 39  1  0  0  0  0
 19 20  2  0  0  0  0
 19 40  1  0  0  0  0
 20 21  1  0  0  0  0
 20 41  1  0  0  0  0
 21 22  1  0  0  0  0
 23 24  2  0  0  0  0
 23 25  1  0  0  0  0
 25 27  1  0  0  0  0
 25 26  1  0  0  0  0
 25 42  1  0  0  0  0
 26 27  1  0  0  0  0
 26 43  1  0  0  0  0
 26 44  1  0  0  0  0
 27 45  1  0  0  0  0
 27 46  1  0  0  0  0
M  END
$$$$
