ZINC00000133
 OpenBabel08292219463D

 29 30  0  0  1  0  0  0  0  0999 V2000
   -0.0178    1.4608    0.0101 C   0  0  0  0  0  0  0  0  0  0  0  0
    0.0021   -0.0041    0.0020 N   0  0  0  0  0  0  0  0  0  0  0  0
   -1.2940   -0.6686    0.0050 C   0  0  1  0  0  0  0  0  0  0  0  0
   -1.6911   -0.6944   -1.0098 H   0  0  0  0  0  0  0  0  0  0  0  0
   -1.1063   -2.3666    0.6247 S   0  0  0  0  0  0  0  0  0  0  0  0
   -0.7874   -2.3137    2.0084 O   0  0  0  0  0  0  0  0  0  0  0  0
   -2.2235   -3.1335    0.1970 O   0  0  0  0  0  0  0  0  0  0  0  0
    0.3662   -2.9171   -0.2926 C   0  0  0  0  0  0  0  0  0  0  0  0
    1.5380   -2.0183    0.1041 C   0  0  0  0  0  0  0  0  0  0  0  0
    1.1900   -0.5730   -0.0124 C   0  0  0  0  0  0  0  0  0  0  0  0
    2.1303    0.1836   -0.1318 O   0  0  0  0  0  0  0  0  0  0  0  0
   -2.2441    0.0884    0.8967 C   0  0  0  0  0  0  0  0  0  0  0  0
   -1.9003    0.3483    2.2102 C   0  0  0  0  0  0  0  0  0  0  0  0
   -2.7713    1.0425    3.0285 C   0  0  0  0  0  0  0  0  0  0  0  0
   -3.9875    1.4775    2.5328 C   0  0  0  0  0  0  0  0  0  0  0  0
   -4.3311    1.2171    1.2182 C   0  0  0  0  0  0  0  0  0  0  0  0
   -3.4568    0.5277    0.3992 C   0  0  0  0  0  0  0  0  0  0  0  0
   -5.0823    2.3491    3.5602 Cl  0  0  0  0  0  0  0  0  0  0  0  0
    1.0048    1.8381    0.0023 H   0  0  0  0  0  0  0  0  0  0  0  0
   -0.5450    1.8219   -0.8730 H   0  0  0  0  0  0  0  0  0  0  0  0
   -0.5280    1.8123    0.9069 H   0  0  0  0  0  0  0  0  0  0  0  0
    0.5933   -3.9520   -0.0370 H   0  0  0  0  0  0  0  0  0  0  0  0
    0.1847   -2.8335   -1.3642 H   0  0  0  0  0  0  0  0  0  0  0  0
    1.8206   -2.2371    1.1338 H   0  0  0  0  0  0  0  0  0  0  0  0
    2.3852   -2.2310   -0.5480 H   0  0  0  0  0  0  0  0  0  0  0  0
   -0.9510    0.0084    2.5971 H   0  0  0  0  0  0  0  0  0  0  0  0
   -2.5027    1.2452    4.0547 H   0  0  0  0  0  0  0  0  0  0  0  0
   -5.2805    1.5561    0.8308 H   0  0  0  0  0  0  0  0  0  0  0  0
   -3.7229    0.3285   -0.6284 H   0  0  0  0  0  0  0  0  0  0  0  0
  1  2  1  0  0  0  0
  1 19  1  0  0  0  0
  1 20  1  0  0  0  0
  1 21  1  0  0  0  0
  2 10  1  0  0  0  0
  2  3  1  0  0  0  0
  3  4  1  6  0  0  0
  3  5  1  0  0  0  0
  3 12  1  0  0  0  0
  5  6  2  0  0  0  0
  5  7  2  0  0  0  0
  5  8  1  0  0  0  0
  8  9  1  0  0  0  0
  8 22  1  0  0  0  0
  8 23  1  0  0  0  0
  9 10  1  0  0  0  0
  9 24  1  0  0  0  0
  9 25  1  0  0  0  0
 10 11  2  0  0  0  0
 12 17  2  0  0  0  0
 12 13  1  0  0  0  0
 13 14  2  0  0  0  0
 13 26  1  0  0  0  0
 14 15  1  0  0  0  0
 14 27  1  0  0  0  0
 15 16  2  0  0  0  0
 15 18  1  0  0  0  0
 16 17  1  0  0  0  0
 16 28  1  0  0  0  0
 17 29  1  0  0  0  0
M  END
$$$$
