ZINC03917708
 OpenBabel08292219463D

 68 72  0  0  1  0  0  0  0  0999 V2000
    0.5068    0.1108    7.2486 C   0  0  0  0  0  0  0  0  0  0  0  0
    0.1820   -0.2855    5.8069 C   0  0  1  0  0  0  0  0  0  0  0  0
    1.1051   -0.3501    5.2309 H   0  0  0  0  0  0  0  0  0  0  0  0
   -0.5219   -1.6450    5.7974 C   0  0  2  0  0  0  0  0  0  0  0  0
    0.1475   -2.4046    6.2011 H   0  0  0  0  0  0  0  0  0  0  0  0
   -0.8974   -2.0068    4.3571 C   0  0  2  0  0  0  0  0  0  0  0  0
    0.0074   -2.1093    3.7579 H   0  0  0  0  0  0  0  0  0  0  0  0
   -1.7743   -0.8940    3.7749 C   0  0  0  0  0  0  0  0  0  0  0  0
   -1.0220    0.4365    3.8625 C   0  0  1  0  0  0  0  0  0  0  0  0
   -1.6579    1.2389    3.4886 H   0  0  0  0  0  0  0  0  0  0  0  0
   -0.6758    0.6977    5.2241 O   0  0  0  0  0  0  0  0  0  0  0  0
    0.1674    0.3642    3.0738 O   0  0  0  0  0  0  0  0  0  0  0  0
    0.7904    1.6297    2.8442 C   0  0  1  0  0  0  0  0  0  0  0  0
    0.0421    2.4182    2.9246 H   0  0  0  0  0  0  0  0  0  0  0  0
    1.8741    1.8552    3.8961 C   0  0  0  0  0  0  0  0  0  0  0  0
    2.6697    3.1070    3.5074 C   0  0  1  0  0  0  0  0  0  0  0  0
    3.4894    2.7870    2.2595 C   0  0  0  0  0  0  0  0  0  0  0  0
    2.6158    2.1852    1.1889 C   0  0  0  0  0  0  0  0  0  0  0  0
    1.3806    1.6513    1.4576 C   0  0  0  0  0  0  0  0  0  0  0  0
    0.6184    1.0900    0.4246 C   0  0  0  0  0  0  0  0  0  0  0  0
    1.0959    1.0825   -0.8842 C   0  0  0  0  0  0  0  0  0  0  0  0
    2.3601    1.6401   -1.1623 C   0  0  0  0  0  0  0  0  0  0  0  0
    3.1101    2.1862   -0.1221 C   0  0  0  0  0  0  0  0  0  0  0  0
    4.3281    2.7233   -0.3812 O   0  0  0  0  0  0  0  0  0  0  0  0
    2.8787    1.6410   -2.5409 C   0  0  0  0  0  0  0  0  0  0  0  0
    3.9688    2.1228   -2.7815 O   0  0  0  0  0  0  0  0  0  0  0  0
    2.0712    1.0550   -3.6311 C   0  0  0  0  0  0  0  0  0  0  0  0
    2.5523    1.0509   -4.9363 C   0  0  0  0  0  0  0  0  0  0  0  0
    1.7910    0.5011   -5.9546 C   0  0  0  0  0  0  0  0  0  0  0  0
    0.5526   -0.0464   -5.6876 C   0  0  0  0  0  0  0  0  0  0  0  0
    0.0520   -0.0533   -4.3894 C   0  0  0  0  0  0  0  0  0  0  0  0
    0.8095    0.4981   -3.3514 C   0  0  0  0  0  0  0  0  0  0  0  0
    0.2913    0.4978   -1.9714 C   0  0  0  0  0  0  0  0  0  0  0  0
   -0.7991    0.0159   -1.7305 O   0  0  0  0  0  0  0  0  0  0  0  0
   -1.1650   -0.5929   -4.1318 O   0  0  0  0  0  0  0  0  0  0  0  0
   -1.8813   -1.1375   -5.2419 C   0  0  0  0  0  0  0  0  0  0  0  0
   -0.5969    0.5546    0.7000 O   0  0  0  0  0  0  0  0  0  0  0  0
    1.7213    4.2410    3.2149 C   0  0  0  0  0  0  0  0  0  0  0  0
    1.3723    4.4587    2.0795 O   0  0  0  0  0  0  0  0  0  0  0  0
    1.2083    5.1033    4.3394 C   0  0  0  0  0  0  0  0  0  0  0  0
    3.5438    3.4741    4.5766 O   0  0  0  0  0  0  0  0  0  0  0  0
   -1.7048   -1.5759    6.5963 O   0  0  0  0  0  0  0  0  0  0  0  0
    1.1603   -0.6397    7.6933 H   0  0  0  0  0  0  0  0  0  0  0  0
    1.0079    1.0788    7.2552 H   0  0  0  0  0  0  0  0  0  0  0  0
   -0.4165    0.1758    7.8243 H   0  0  0  0  0  0  0  0  0  0  0  0
   -2.7018   -0.8261    4.3433 H   0  0  0  0  0  0  0  0  0  0  0  0
   -2.0005   -1.1165    2.7321 H   0  0  0  0  0  0  0  0  0  0  0  0
    2.5395    0.9925    3.9288 H   0  0  0  0  0  0  0  0  0  0  0  0
    1.4131    2.0015    4.8729 H   0  0  0  0  0  0  0  0  0  0  0  0
    4.2777    2.0804    2.5190 H   0  0  0  0  0  0  0  0  0  0  0  0
    3.9400    3.7047    1.8815 H   0  0  0  0  0  0  0  0  0  0  0  0
    4.3046    3.6655   -0.5975 H   0  0  0  0  0  0  0  0  0  0  0  0
    3.5201    1.4770   -5.1559 H   0  0  0  0  0  0  0  0  0  0  0  0
    2.1696    0.5013   -6.9661 H   0  0  0  0  0  0  0  0  0  0  0  0
   -0.0310   -0.4717   -6.4906 H   0  0  0  0  0  0  0  0  0  0  0  0
   -1.2960   -1.9378   -5.6947 H   0  0  0  0  0  0  0  0  0  0  0  0
   -2.8362   -1.5354   -4.8983 H   0  0  0  0  0  0  0  0  0  0  0  0
   -2.0582   -0.3547   -5.9795 H   0  0  0  0  0  0  0  0  0  0  0  0
   -0.5820   -0.4016    0.8436 H   0  0  0  0  0  0  0  0  0  0  0  0
    1.5947    4.7862    5.2055 H   0  0  0  0  0  0  0  0  0  0  0  0
    1.5033    6.1384    4.1671 H   0  0  0  0  0  0  0  0  0  0  0  0
    0.1211    5.0375    4.3808 H   0  0  0  0  0  0  0  0  0  0  0  0
    4.0898    4.2500    4.3895 H   0  0  0  0  0  0  0  0  0  0  0  0
   -1.9051   -3.5300    3.4071 H   0  0  0  0  0  0  0  0  0  0  0  0
   -1.1063   -4.0097    4.7847 H   0  0  0  0  0  0  0  0  0  0  0  0
   -1.5413   -1.3506    7.5224 H   0  0  0  0  0  0  0  0  0  0  0  0
   -1.6602   -3.2675    4.3604 N   0  3  0  0  0  0  0  0  0  0  0  0
   -2.5215   -3.1394    4.9044 H   0  0  0  0  0  0  0  0  0  0  0  0
  1  2  1  0  0  0  0
  1 43  1  0  0  0  0
  1 44  1  0  0  0  0
  1 45  1  0  0  0  0
  2  3  1  6  0  0  0
  2 11  1  0  0  0  0
  2  4  1  0  0  0  0
  4  5  1  1  0  0  0
  4  6  1  0  0  0  0
  4 42  1  0  0  0  0
  6  7  1  6  0  0  0
  6  8  1  0  0  0  0
  6 67  1  0  0  0  0
  8  9  1  0  0  0  0
  8 46  1  0  0  0  0
  8 47  1  0  0  0  0
  9 10  1  6  0  0  0
  9 11  1  0  0  0  0
  9 12  1  0  0  0  0
 12 13  1  0  0  0  0
 13 14  1  1  0  0  0
 13 19  1  0  0  0  0
 13 15  1  0  0  0  0
 15 16  1  0  0  0  0
 15 48  1  0  0  0  0
 15 49  1  0  0  0  0
 16 17  1  0  0  0  0
 16 38  1  6  0  0  0
 16 41  1  0  0  0  0
 17 18  1  0  0  0  0
 17 50  1  0  0  0  0
 17 51  1  0  0  0  0
 18 23  2  0  0  0  0
 18 19  1  0  0  0  0
 19 20  2  0  0  0  0
 20 21  1  0  0  0  0
 20 37  1  0  0  0  0
 21 33  1  0  0  0  0
 21 22  2  0  0  0  0
 22 23  1  0  0  0  0
 22 25  1  0  0  0  0
 23 24  1  0  0  0  0
 24 52  1  0  0  0  0
 25 26  2  0  0  0  0
 25 27  1  0  0  0  0
 27 32  2  0  0  0  0
 27 28  1  0  0  0  0
 28 29  2  0  0  0  0
 28 53  1  0  0  0  0
 29 30  1  0  0  0  0
 29 54  1  0  0  0  0
 30 31  2  0  0  0  0
 30 55  1  0  0  0  0
 31 32  1  0  0  0  0
 31 35  1  0  0  0  0
 32 33  1  0  0  0  0
 33 34  2  0  0  0  0
 35 36  1  0  0  0  0
 36 56  1  0  0  0  0
 36 57  1  0  0  0  0
 36 58  1  0  0  0  0
 37 59  1  0  0  0  0
 38 39  2  0  0  0  0
 38 40  1  0  0  0  0
 40 60  1  0  0  0  0
 40 61  1  0  0  0  0
 40 62  1  0  0  0  0
 41 63  1  0  0  0  0
 42 66  1  0  0  0  0
 64 67  1  0  0  0  0
 65 67  1  0  0  0  0
 67 68  1  0  0  0  0
M  CHG  1  67   1
M  END
$$$$
