ZINC19702119
 OpenBabel08292219463D

 40 43  0  0  1  0  0  0  0  0999 V2000
   -0.0178    1.4648    0.0101 C   0  0  0  0  0  0  0  0  0  0  0  0
    0.0021   -0.0041    0.0020 N   0  3  2  0  0  0  0  0  0  0  0  0
   -1.3783   -0.5248    0.0608 C   0  0  0  0  0  0  0  0  0  0  0  0
   -1.3145   -2.0016   -0.3258 C   0  0  0  0  0  0  0  0  0  0  0  0
   -0.2539   -2.6821    0.4305 N   0  0  0  0  0  0  0  0  0  0  0  0
   -0.1644   -4.0618    0.2458 C   0  0  0  0  0  0  0  0  0  0  0  0
   -0.3795   -4.9308    1.2960 C   0  0  0  0  0  0  0  0  0  0  0  0
   -0.1847   -6.2880    1.1174 C   0  0  0  0  0  0  0  0  0  0  0  0
    0.1706   -6.7372   -0.1491 C   0  0  0  0  0  0  0  0  0  0  0  0
    0.3143   -5.8212   -1.1718 C   0  0  0  0  0  0  0  0  0  0  0  0
    0.1488   -4.5302   -0.9575 N   0  0  0  0  0  0  0  0  0  0  0  0
   -0.9081   -4.3992    2.5895 C   0  0  0  0  0  0  0  0  0  0  0  0
    0.0224   -3.4574    3.2885 C   0  0  0  0  0  0  0  0  0  0  0  0
    0.1986   -3.7223    4.6521 C   0  0  0  0  0  0  0  0  0  0  0  0
    0.9953   -2.9282    5.4417 C   0  0  0  0  0  0  0  0  0  0  0  0
    1.6349   -1.8386    4.8795 C   0  0  0  0  0  0  0  0  0  0  0  0
    1.4749   -1.5830    3.5386 C   0  0  0  0  0  0  0  0  0  0  0  0
    0.6805   -2.4016    2.7268 C   0  0  0  0  0  0  0  0  0  0  0  0
    0.6937   -2.0166    1.2726 C   0  0  2  0  0  0  0  0  0  0  0  0
    1.6746   -2.3185    0.9055 H   0  0  0  0  0  0  0  0  0  0  0  0
    0.7079   -0.4980    1.1840 C   0  0  0  0  0  0  0  0  0  0  0  0
    1.0047    1.8421    0.0024 H   0  0  0  0  0  0  0  0  0  0  0  0
   -0.5450    1.8259   -0.8730 H   0  0  0  0  0  0  0  0  0  0  0  0
   -0.5280    1.8163    0.9069 H   0  0  0  0  0  0  0  0  0  0  0  0
   -1.7720   -0.4217    1.0720 H   0  0  0  0  0  0  0  0  0  0  0  0
   -2.0105    0.0169   -0.6426 H   0  0  0  0  0  0  0  0  0  0  0  0
   -2.2726   -2.4733   -0.1077 H   0  0  0  0  0  0  0  0  0  0  0  0
   -1.1080   -2.0865   -1.3927 H   0  0  0  0  0  0  0  0  0  0  0  0
   -0.3056   -6.9793    1.9383 H   0  0  0  0  0  0  0  0  0  0  0  0
    0.3326   -7.7894   -0.3307 H   0  0  0  0  0  0  0  0  0  0  0  0
    0.5666   -6.1671   -2.1633 H   0  0  0  0  0  0  0  0  0  0  0  0
   -1.8457   -3.8790    2.3937 H   0  0  0  0  0  0  0  0  0  0  0  0
   -1.1133   -5.2399    3.2522 H   0  0  0  0  0  0  0  0  0  0  0  0
   -0.3035   -4.5704    5.0938 H   0  0  0  0  0  0  0  0  0  0  0  0
    1.1202   -3.1526    6.4908 H   0  0  0  0  0  0  0  0  0  0  0  0
    2.2534   -1.1951    5.4877 H   0  0  0  0  0  0  0  0  0  0  0  0
    1.9733   -0.7306    3.1011 H   0  0  0  0  0  0  0  0  0  0  0  0
    1.7422   -0.1560    1.1466 H   0  0  0  0  0  0  0  0  0  0  0  0
    0.2340   -0.0876    2.0757 H   0  0  0  0  0  0  0  0  0  0  0  0
    0.4594   -0.3360   -0.8339 H   0  0  0  0  0  0  0  0  0  0  0  0
  1  2  1  0  0  0  0
  1 22  1  0  0  0  0
  1 23  1  0  0  0  0
  1 24  1  0  0  0  0
  2 21  1  0  0  0  0
  2  3  1  0  0  0  0
  2 40  1  6  0  0  0
  3  4  1  0  0  0  0
  3 25  1  0  0  0  0
  3 26  1  0  0  0  0
  4  5  1  0  0  0  0
  4 27  1  0  0  0  0
  4 28  1  0  0  0  0
  5 19  1  0  0  0  0
  5  6  1  0  0  0  0
  6 11  2  0  0  0  0
  6  7  1  0  0  0  0
  7  8  2  0  0  0  0
  7 12  1  0  0  0  0
  8  9  1  0  0  0  0
  8 29  1  0  0  0  0
  9 10  2  0  0  0  0
  9 30  1  0  0  0  0
 10 11  1  0  0  0  0
 10 31  1  0  0  0  0
 12 13  1  0  0  0  0
 12 32  1  0  0  0  0
 12 33  1  0  0  0  0
 13 18  2  0  0  0  0
 13 14  1  0  0  0  0
 14 15  2  0  0  0  0
 14 34  1  0  0  0  0
 15 16  1  0  0  0  0
 15 35  1  0  0  0  0
 16 17  2  0  0  0  0
 16 36  1  0  0  0  0
 17 18  1  0  0  0  0
 17 37  1  0  0  0  0
 18 19  1  0  0  0  0
 19 20  1  6  0  0  0
 19 21  1  0  0  0  0
 21 38  1  0  0  0  0
 21 39  1  0  0  0  0
M  CHG  1   2   1
M  END
$$$$
