ZINC01530761
 OpenBabel08292219463D

 57 59  0  0  0  0  0  0  0  0999 V2000
   -1.3705    1.0155   -1.5522 C   0  0  0  0  0  0  0  0  0  0  0  0
   -0.8711   -0.3066   -0.9660 C   0  0  0  0  0  0  0  0  0  0  0  0
   -2.0449   -1.2779   -0.8257 C   0  0  0  0  0  0  0  0  0  0  0  0
    0.1407   -0.8870   -1.8589 N   0  3  0  0  0  0  0  0  0  0  0  0
    1.4114   -0.1693   -1.6911 C   0  0  0  0  0  0  0  0  0  0  0  0
    0.3317   -2.3051   -1.5263 C   0  0  0  0  0  0  0  0  0  0  0  0
    0.9553   -2.4229   -0.1341 C   0  0  0  0  0  0  0  0  0  0  0  0
    0.0241   -1.9592    0.8457 O   0  0  0  0  0  0  0  0  0  0  0  0
    0.4490   -1.9168    2.1183 C   0  0  0  0  0  0  0  0  0  0  0  0
    1.6021   -2.1666    2.3788 O   0  0  0  0  0  0  0  0  0  0  0  0
   -0.5121   -1.5576    3.2220 C   0  0  0  0  0  0  0  0  0  0  0  0
   -1.1342   -0.2204    2.9242 C   0  0  0  0  0  0  0  0  0  0  0  0
   -2.1528   -0.1385    1.9913 C   0  0  0  0  0  0  0  0  0  0  0  0
   -2.7368    1.0805    1.7046 C   0  0  0  0  0  0  0  0  0  0  0  0
   -2.3043    2.2242    2.3500 C   0  0  0  0  0  0  0  0  0  0  0  0
   -1.2885    2.1485    3.2816 C   0  0  0  0  0  0  0  0  0  0  0  0
   -0.6988    0.9236    3.5727 C   0  0  0  0  0  0  0  0  0  0  0  0
    0.2958    0.8691    4.4907 O   0  0  0  0  0  0  0  0  0  0  0  0
    0.5940   -0.3043    5.0984 C   0  0  0  0  0  0  0  0  0  0  0  0
    0.2279   -1.5143    4.5313 C   0  0  0  0  0  0  0  0  0  0  0  0
    0.5440   -2.6993    5.1718 C   0  0  0  0  0  0  0  0  0  0  0  0
    1.2229   -2.6799    6.3751 C   0  0  0  0  0  0  0  0  0  0  0  0
    1.5891   -1.4740    6.9440 C   0  0  0  0  0  0  0  0  0  0  0  0
    1.2772   -0.2881    6.3090 C   0  0  0  0  0  0  0  0  0  0  0  0
   -0.3091   -0.7671   -3.2522 C   0  0  0  0  0  0  0  0  0  0  0  0
   -1.8124   -1.0415   -3.3281 C   0  0  0  0  0  0  0  0  0  0  0  0
   -0.0224    0.6471   -3.7608 C   0  0  0  0  0  0  0  0  0  0  0  0
   -0.5463    1.7274   -1.5970 H   0  0  0  0  0  0  0  0  0  0  0  0
   -1.7577    0.8443   -2.5566 H   0  0  0  0  0  0  0  0  0  0  0  0
   -2.1632    1.4166   -0.9207 H   0  0  0  0  0  0  0  0  0  0  0  0
   -0.4299   -0.1258    0.0142 H   0  0  0  0  0  0  0  0  0  0  0  0
   -2.4931   -1.4500   -1.8042 H   0  0  0  0  0  0  0  0  0  0  0  0
   -1.6872   -2.2236   -0.4185 H   0  0  0  0  0  0  0  0  0  0  0  0
   -2.7906   -0.8521   -0.1543 H   0  0  0  0  0  0  0  0  0  0  0  0
    1.7452   -0.2582   -0.6573 H   0  0  0  0  0  0  0  0  0  0  0  0
    2.1622   -0.5999   -2.3536 H   0  0  0  0  0  0  0  0  0  0  0  0
    1.2697    0.8829   -1.9379 H   0  0  0  0  0  0  0  0  0  0  0  0
   -0.6322   -2.8138   -1.5368 H   0  0  0  0  0  0  0  0  0  0  0  0
    0.9932   -2.7646   -2.2607 H   0  0  0  0  0  0  0  0  0  0  0  0
    1.2040   -3.4651    0.0656 H   0  0  0  0  0  0  0  0  0  0  0  0
    1.8610   -1.8181   -0.0893 H   0  0  0  0  0  0  0  0  0  0  0  0
   -1.2966   -2.3125    3.2764 H   0  0  0  0  0  0  0  0  0  0  0  0
   -2.4922   -1.0302    1.4853 H   0  0  0  0  0  0  0  0  0  0  0  0
   -3.5315    1.1400    0.9756 H   0  0  0  0  0  0  0  0  0  0  0  0
   -2.7613    3.1767    2.1256 H   0  0  0  0  0  0  0  0  0  0  0  0
   -0.9509    3.0424    3.7849 H   0  0  0  0  0  0  0  0  0  0  0  0
    0.2594   -3.6426    4.7295 H   0  0  0  0  0  0  0  0  0  0  0  0
    1.4675   -3.6072    6.8718 H   0  0  0  0  0  0  0  0  0  0  0  0
    2.1196   -1.4595    7.8845 H   0  0  0  0  0  0  0  0  0  0  0  0
    1.5640    0.6535    6.7536 H   0  0  0  0  0  0  0  0  0  0  0  0
    0.2239   -1.4903   -3.8695 H   0  0  0  0  0  0  0  0  0  0  0  0
   -2.0114   -2.0650   -3.0105 H   0  0  0  0  0  0  0  0  0  0  0  0
   -2.3417   -0.3486   -2.6740 H   0  0  0  0  0  0  0  0  0  0  0  0
   -2.1550   -0.9062   -4.3540 H   0  0  0  0  0  0  0  0  0  0  0  0
    1.0537    0.8205   -3.7648 H   0  0  0  0  0  0  0  0  0  0  0  0
   -0.4116    0.7550   -4.7732 H   0  0  0  0  0  0  0  0  0  0  0  0
   -0.5050    1.3732   -3.1066 H   0  0  0  0  0  0  0  0  0  0  0  0
  1  2  1  0  0  0  0
  1 28  1  0  0  0  0
  1 29  1  0  0  0  0
  1 30  1  0  0  0  0
  2  3  1  0  0  0  0
  2  4  1  0  0  0  0
  2 31  1  0  0  0  0
  3 32  1  0  0  0  0
  3 33  1  0  0  0  0
  3 34  1  0  0  0  0
  4  5  1  0  0  0  0
  4  6  1  0  0  0  0
  4 25  1  0  0  0  0
  5 35  1  0  0  0  0
  5 36  1  0  0  0  0
  5 37  1  0  0  0  0
  6  7  1  0  0  0  0
  6 38  1  0  0  0  0
  6 39  1  0  0  0  0
  7  8  1  0  0  0  0
  7 40  1  0  0  0  0
  7 41  1  0  0  0  0
  8  9  1  0  0  0  0
  9 10  2  0  0  0  0
  9 11  1  0  0  0  0
 11 20  1  0  0  0  0
 11 12  1  0  0  0  0
 11 42  1  0  0  0  0
 12 17  2  0  0  0  0
 12 13  1  0  0  0  0
 13 14  2  0  0  0  0
 13 43  1  0  0  0  0
 14 15  1  0  0  0  0
 14 44  1  0  0  0  0
 15 16  2  0  0  0  0
 15 45  1  0  0  0  0
 16 17  1  0  0  0  0
 16 46  1  0  0  0  0
 17 18  1  0  0  0  0
 18 19  1  0  0  0  0
 19 24  2  0  0  0  0
 19 20  1  0  0  0  0
 20 21  2  0  0  0  0
 21 22  1  0  0  0  0
 21 47  1  0  0  0  0
 22 23  2  0  0  0  0
 22 48  1  0  0  0  0
 23 24  1  0  0  0  0
 23 49  1  0  0  0  0
 24 50  1  0  0  0  0
 25 26  1  0  0  0  0
 25 27  1  0  0  0  0
 25 51  1  0  0  0  0
 26 52  1  0  0  0  0
 26 53  1  0  0  0  0
 26 54  1  0  0  0  0
 27 55  1  0  0  0  0
 27 56  1  0  0  0  0
 27 57  1  0  0  0  0
M  CHG  1   4   1
M  END
$$$$
