ZINC03824921
 OpenBabel08292219463D

 76 79  0  0  1  0  0  0  0  0999 V2000
   -6.6564    7.8150    0.2778 C   0  0  0  0  0  0  0  0  0  0  0  0
   -5.8205    6.5686   -0.0198 C   0  0  0  0  0  0  0  0  0  0  0  0
   -4.7182    6.4307    1.0322 C   0  0  0  0  0  0  0  0  0  0  0  0
   -6.7056    5.3495    0.0174 C   0  0  0  0  0  0  0  0  0  0  0  0
   -8.0550    5.4830    0.2862 C   0  0  0  0  0  0  0  0  0  0  0  0
   -8.8669    4.3647    0.3202 C   0  0  0  0  0  0  0  0  0  0  0  0
   -8.3296    3.1130    0.0850 C   0  0  0  0  0  0  0  0  0  0  0  0
   -6.9804    2.9796   -0.1847 C   0  0  0  0  0  0  0  0  0  0  0  0
   -6.1692    4.0983   -0.2230 C   0  0  0  0  0  0  0  0  0  0  0  0
   -9.2145    1.8938    0.1231 C   0  0  2  0  0  0  0  0  0  0  0  0
  -10.2422    2.1838   -0.0955 H   0  0  0  0  0  0  0  0  0  0  0  0
   -9.1485    1.2590    1.5136 C   0  0  0  0  0  0  0  0  0  0  0  0
  -10.1401    0.0964    1.5911 C   0  0  0  0  0  0  0  0  0  0  0  0
  -10.0741   -0.5385    2.9816 C   0  0  0  0  0  0  0  0  0  0  0  0
  -11.0262   -1.6547    3.0560 N   0  3  1  0  0  0  0  0  0  0  0  0
  -10.6170   -2.7080    2.1192 C   0  0  0  0  0  0  0  0  0  0  0  0
  -11.6492   -3.8376    2.1334 C   0  0  0  0  0  0  0  0  0  0  0  0
  -11.7431   -4.4181    3.5474 C   0  0  1  0  0  0  0  0  0  0  0  0
  -12.0977   -3.2956    4.5269 C   0  0  0  0  0  0  0  0  0  0  0  0
  -11.0489   -2.1861    4.4240 C   0  0  0  0  0  0  0  0  0  0  0  0
  -12.8299   -5.4944    3.5874 C   0  0  0  0  0  0  0  0  0  0  0  0
  -12.4481   -6.6282    2.6710 C   0  0  0  0  0  0  0  0  0  0  0  0
  -11.1932   -7.2004    2.7652 C   0  0  0  0  0  0  0  0  0  0  0  0
  -10.8430   -8.2404    1.9246 C   0  0  0  0  0  0  0  0  0  0  0  0
  -11.7477   -8.7085    0.9901 C   0  0  0  0  0  0  0  0  0  0  0  0
  -13.0029   -8.1369    0.8966 C   0  0  0  0  0  0  0  0  0  0  0  0
  -13.3546   -7.0997    1.7401 C   0  0  0  0  0  0  0  0  0  0  0  0
  -12.9720   -6.0126    4.9954 C   0  0  0  0  0  0  0  0  0  0  0  0
  -11.8510   -6.3977    5.7066 C   0  0  0  0  0  0  0  0  0  0  0  0
  -11.9814   -6.8730    6.9981 C   0  0  0  0  0  0  0  0  0  0  0  0
  -13.2328   -6.9628    7.5785 C   0  0  0  0  0  0  0  0  0  0  0  0
  -14.3537   -6.5768    6.8676 C   0  0  0  0  0  0  0  0  0  0  0  0
  -14.2229   -6.0974    5.5777 C   0  0  0  0  0  0  0  0  0  0  0  0
  -14.0722   -4.9331    3.1587 O   0  0  0  0  0  0  0  0  0  0  0  0
   -8.7680    0.9504   -0.8529 O   0  0  0  0  0  0  0  0  0  0  0  0
   -5.1978    6.6958   -1.3862 C   0  0  0  0  0  0  0  0  0  0  0  0
   -4.1268    6.1622   -1.6201 O   0  0  0  0  0  0  0  0  0  0  0  0
   -5.7650    7.3323   -2.2578 O   0  0  0  0  0  1  0  0  0  0  0  0
   -6.0162    8.6968    0.2509 H   0  0  0  0  0  0  0  0  0  0  0  0
   -7.4418    7.9132   -0.4717 H   0  0  0  0  0  0  0  0  0  0  0  0
   -7.1068    7.7230    1.2661 H   0  0  0  0  0  0  0  0  0  0  0  0
   -5.1686    6.3387    2.0206 H   0  0  0  0  0  0  0  0  0  0  0  0
   -4.1226    5.5427    0.8203 H   0  0  0  0  0  0  0  0  0  0  0  0
   -4.0780    7.3125    1.0054 H   0  0  0  0  0  0  0  0  0  0  0  0
   -8.4748    6.4609    0.4700 H   0  0  0  0  0  0  0  0  0  0  0  0
   -9.9210    4.4689    0.5310 H   0  0  0  0  0  0  0  0  0  0  0  0
   -6.5605    2.0016   -0.3682 H   0  0  0  0  0  0  0  0  0  0  0  0
   -5.1158    3.9945   -0.4374 H   0  0  0  0  0  0  0  0  0  0  0  0
   -8.1397    0.8889    1.6966 H   0  0  0  0  0  0  0  0  0  0  0  0
   -9.4039    2.0050    2.2661 H   0  0  0  0  0  0  0  0  0  0  0  0
  -11.1489    0.4664    1.4081 H   0  0  0  0  0  0  0  0  0  0  0  0
   -9.8848   -0.6497    0.8386 H   0  0  0  0  0  0  0  0  0  0  0  0
   -9.0653   -0.9085    3.1645 H   0  0  0  0  0  0  0  0  0  0  0  0
  -10.3295    0.2076    3.7341 H   0  0  0  0  0  0  0  0  0  0  0  0
  -10.5475   -2.2926    1.1138 H   0  0  0  0  0  0  0  0  0  0  0  0
   -9.6449   -3.1010    2.4170 H   0  0  0  0  0  0  0  0  0  0  0  0
  -12.6217   -3.4458    1.8354 H   0  0  0  0  0  0  0  0  0  0  0  0
  -11.3427   -4.6195    1.4385 H   0  0  0  0  0  0  0  0  0  0  0  0
  -10.7846   -4.8559    3.8261 H   0  0  0  0  0  0  0  0  0  0  0  0
  -13.0795   -2.8926    4.2786 H   0  0  0  0  0  0  0  0  0  0  0  0
  -12.1118   -3.6901    5.5429 H   0  0  0  0  0  0  0  0  0  0  0  0
  -10.0676   -2.5902    4.6727 H   0  0  0  0  0  0  0  0  0  0  0  0
  -11.2983   -1.3854    5.1203 H   0  0  0  0  0  0  0  0  0  0  0  0
  -10.4864   -6.8347    3.4953 H   0  0  0  0  0  0  0  0  0  0  0  0
   -9.8624   -8.6870    1.9977 H   0  0  0  0  0  0  0  0  0  0  0  0
  -11.4739   -9.5205    0.3329 H   0  0  0  0  0  0  0  0  0  0  0  0
  -13.7096   -8.5024    0.1663 H   0  0  0  0  0  0  0  0  0  0  0  0
  -14.3366   -6.6556    1.6695 H   0  0  0  0  0  0  0  0  0  0  0  0
  -10.8733   -6.3276    5.2531 H   0  0  0  0  0  0  0  0  0  0  0  0
  -11.1056   -7.1746    7.5535 H   0  0  0  0  0  0  0  0  0  0  0  0
  -13.3347   -7.3348    8.5873 H   0  0  0  0  0  0  0  0  0  0  0  0
  -15.3314   -6.6472    7.3210 H   0  0  0  0  0  0  0  0  0  0  0  0
  -15.0983   -5.7923    5.0236 H   0  0  0  0  0  0  0  0  0  0  0  0
  -14.3800   -4.1963    3.7042 H   0  0  0  0  0  0  0  0  0  0  0  0
   -7.8592    0.6476   -0.7203 H   0  0  0  0  0  0  0  0  0  0  0  0
  -11.9477   -1.3266    2.8083 H   0  0  0  0  0  0  0  0  0  0  0  0
  1  2  1  0  0  0  0
  1 39  1  0  0  0  0
  1 40  1  0  0  0  0
  1 41  1  0  0  0  0
  2  3  1  0  0  0  0
  2  4  1  0  0  0  0
  2 36  1  0  0  0  0
  3 42  1  0  0  0  0
  3 43  1  0  0  0  0
  3 44  1  0  0  0  0
  4  9  2  0  0  0  0
  4  5  1  0  0  0  0
  5  6  2  0  0  0  0
  5 45  1  0  0  0  0
  6  7  1  0  0  0  0
  6 46  1  0  0  0  0
  7  8  2  0  0  0  0
  7 10  1  0  0  0  0
  8  9  1  0  0  0  0
  8 47  1  0  0  0  0
  9 48  1  0  0  0  0
 10 11  1  6  0  0  0
 10 12  1  0  0  0  0
 10 35  1  0  0  0  0
 12 13  1  0  0  0  0
 12 49  1  0  0  0  0
 12 50  1  0  0  0  0
 13 14  1  0  0  0  0
 13 51  1  0  0  0  0
 13 52  1  0  0  0  0
 14 15  1  0  0  0  0
 14 53  1  0  0  0  0
 14 54  1  0  0  0  0
 15 20  1  0  0  0  0
 15 16  1  0  0  0  0
 15 76  1  6  0  0  0
 16 17  1  0  0  0  0
 16 55  1  0  0  0  0
 16 56  1  0  0  0  0
 17 18  1  0  0  0  0
 17 57  1  0  0  0  0
 17 58  1  0  0  0  0
 18 19  1  0  0  0  0
 18 21  1  0  0  0  0
 18 59  1  1  0  0  0
 19 20  1  0  0  0  0
 19 60  1  0  0  0  0
 19 61  1  0  0  0  0
 20 62  1  0  0  0  0
 20 63  1  0  0  0  0
 21 22  1  0  0  0  0
 21 28  1  0  0  0  0
 21 34  1  0  0  0  0
 22 27  2  0  0  0  0
 22 23  1  0  0  0  0
 23 24  2  0  0  0  0
 23 64  1  0  0  0  0
 24 25  1  0  0  0  0
 24 65  1  0  0  0  0
 25 26  2  0  0  0  0
 25 66  1  0  0  0  0
 26 27  1  0  0  0  0
 26 67  1  0  0  0  0
 27 68  1  0  0  0  0
 28 33  2  0  0  0  0
 28 29  1  0  0  0  0
 29 30  2  0  0  0  0
 29 69  1  0  0  0  0
 30 31  1  0  0  0  0
 30 70  1  0  0  0  0
 31 32  2  0  0  0  0
 31 71  1  0  0  0  0
 32 33  1  0  0  0  0
 32 72  1  0  0  0  0
 33 73  1  0  0  0  0
 34 74  1  0  0  0  0
 35 75  1  0  0  0  0
 36 37  2  0  0  0  0
 36 38  1  0  0  0  0
M  CHG  1  15   1
M  END
$$$$
