ZINC03926298
 OpenBabel08292219463D

 88 91  0  0  1  0  0  0  0  0999 V2000
    5.5194   -1.4119   -2.7282 C   0  0  0  0  0  0  0  0  0  0  0  0
    5.9770   -1.8885   -1.3482 C   0  0  2  0  0  0  0  0  0  0  0  0
    4.9454   -2.8442   -0.7869 C   0  0  0  0  0  0  0  0  0  0  0  0
    3.5862   -2.1190   -0.7908 C   0  0  0  0  0  0  0  0  0  0  0  0
    3.6494   -0.8137   -0.0105 C   0  0  2  0  0  0  0  0  0  0  0  0
    3.8712   -1.0806    1.0228 H   0  0  0  0  0  0  0  0  0  0  0  0
    2.3466   -0.0675   -0.0273 C   0  0  0  0  0  0  0  0  0  0  0  0
    1.1684   -0.8020   -0.0406 C   0  0  0  0  0  0  0  0  0  0  0  0
   -0.0552   -0.1672   -0.0353 C   0  0  0  0  0  0  0  0  0  0  0  0
   -0.1092    1.2193   -0.0164 C   0  0  0  0  0  0  0  0  0  0  0  0
    1.0651    1.9513   -0.0076 C   0  0  0  0  0  0  0  0  0  0  0  0
    2.2972    1.3110   -0.0181 C   0  0  0  0  0  0  0  0  0  0  0  0
    3.5318    2.1733   -0.0330 C   0  0  0  0  0  0  0  0  0  0  0  0
    4.7780    1.3646    0.3256 C   0  0  2  0  0  0  0  0  0  0  0  0
    5.6714    1.9506    0.1100 H   0  0  0  0  0  0  0  0  0  0  0  0
    4.7795    0.0906   -0.5191 C   0  0  1  0  0  0  0  0  0  0  0  0
    4.6066    0.3428   -1.5653 H   0  0  0  0  0  0  0  0  0  0  0  0
    6.0811   -0.6726   -0.3856 C   0  0  2  0  0  0  0  0  0  0  0  0
    6.2235   -1.0071    0.6420 H   0  0  0  0  0  0  0  0  0  0  0  0
    7.3356    0.0451   -0.8960 C   0  0  0  0  0  0  0  0  0  0  0  0
    8.3085   -1.1269   -1.1995 C   0  0  0  0  0  0  0  0  0  0  0  0
    7.4251   -2.3752   -1.4474 C   0  0  2  0  0  0  0  0  0  0  0  0
    7.6059   -3.1250   -0.6771 H   0  0  0  0  0  0  0  0  0  0  0  0
    7.6908   -2.9211   -2.7410 O   0  0  0  0  0  0  0  0  0  0  0  0
    4.7464    0.9991    1.8109 C   0  0  0  0  0  0  0  0  0  0  0  0
    4.8390    2.2739    2.6519 C   0  0  0  0  0  0  0  0  0  0  0  0
    4.8075    1.9084    4.1373 C   0  0  0  0  0  0  0  0  0  0  0  0
    4.9001    3.1832    4.9782 C   0  0  0  0  0  0  0  0  0  0  0  0
    4.8686    2.8178    6.4636 C   0  0  0  0  0  0  0  0  0  0  0  0
    4.9612    4.0926    7.3045 C   0  0  0  0  0  0  0  0  0  0  0  0
    4.9297    3.7271    8.7899 C   0  0  0  0  0  0  0  0  0  0  0  0
    5.0223    5.0019    9.6309 C   0  0  0  0  0  0  0  0  0  0  0  0
    4.9908    4.6364   11.1162 C   0  0  0  0  0  0  0  0  0  0  0  0
    5.1006    6.1479   12.1133 S   0  0  2  0  0  0  0  0  0  0  0  0
    6.3469    6.7858   11.8706 O   0  0  0  0  0  0  0  0  0  0  0  0
    5.0510    5.5491   13.8249 C   0  0  0  0  0  0  0  0  0  0  0  0
    5.1369    6.7381   14.7839 C   0  0  0  0  0  0  0  0  0  0  0  0
    5.0951    6.2331   16.2275 C   0  0  0  0  0  0  0  0  0  0  0  0
    5.1810    7.4221   17.1865 C   0  0  0  0  0  0  0  0  0  0  0  0
    5.1391    6.9171   18.6301 C   0  0  0  0  0  0  0  0  0  0  0  0
    6.2199    6.0576   18.8550 F   0  0  0  0  0  0  0  0  0  0  0  0
    5.2177    8.0044   19.5070 F   0  0  0  0  0  0  0  0  0  0  0  0
    3.9416    6.2275   18.8484 F   0  0  0  0  0  0  0  0  0  0  0  0
    6.3785    8.1117   16.9682 F   0  0  0  0  0  0  0  0  0  0  0  0
    4.1003    8.2816   16.9616 F   0  0  0  0  0  0  0  0  0  0  0  0
   -1.3101    1.8555   -0.0121 O   0  0  0  0  0  0  0  0  0  0  0  0
    6.2090   -0.6528   -3.0975 H   0  0  0  0  0  0  0  0  0  0  0  0
    5.5049   -2.2559   -3.4177 H   0  0  0  0  0  0  0  0  0  0  0  0
    4.5183   -0.9873   -2.6524 H   0  0  0  0  0  0  0  0  0  0  0  0
    4.8901   -3.7365   -1.4106 H   0  0  0  0  0  0  0  0  0  0  0  0
    5.2145   -3.1218    0.2322 H   0  0  0  0  0  0  0  0  0  0  0  0
    3.3034   -1.8918   -1.8187 H   0  0  0  0  0  0  0  0  0  0  0  0
    2.8318   -2.7679   -0.3460 H   0  0  0  0  0  0  0  0  0  0  0  0
    1.2111   -1.8811   -0.0555 H   0  0  0  0  0  0  0  0  0  0  0  0
   -0.9670   -0.7459   -0.0463 H   0  0  0  0  0  0  0  0  0  0  0  0
    1.0230    3.0304    0.0071 H   0  0  0  0  0  0  0  0  0  0  0  0
    3.6573    2.5999   -1.0282 H   0  0  0  0  0  0  0  0  0  0  0  0
    3.4113    2.9818    0.6881 H   0  0  0  0  0  0  0  0  0  0  0  0
    7.1155    0.6081   -1.8030 H   0  0  0  0  0  0  0  0  0  0  0  0
    7.7466    0.6978   -0.1259 H   0  0  0  0  0  0  0  0  0  0  0  0
    8.8979   -0.9032   -2.0887 H   0  0  0  0  0  0  0  0  0  0  0  0
    8.9670   -1.2967   -0.3476 H   0  0  0  0  0  0  0  0  0  0  0  0
    8.6024   -3.2200   -2.8621 H   0  0  0  0  0  0  0  0  0  0  0  0
    3.8147    0.4810    2.0379 H   0  0  0  0  0  0  0  0  0  0  0  0
    5.5897    0.3486    2.0430 H   0  0  0  0  0  0  0  0  0  0  0  0
    5.7708    2.7920    2.4249 H   0  0  0  0  0  0  0  0  0  0  0  0
    3.9958    2.9244    2.4198 H   0  0  0  0  0  0  0  0  0  0  0  0
    3.8758    1.3903    4.3642 H   0  0  0  0  0  0  0  0  0  0  0  0
    5.6508    1.2580    4.3694 H   0  0  0  0  0  0  0  0  0  0  0  0
    5.8319    3.7013    4.7512 H   0  0  0  0  0  0  0  0  0  0  0  0
    4.0568    3.8337    4.7461 H   0  0  0  0  0  0  0  0  0  0  0  0
    3.9369    2.2997    6.6906 H   0  0  0  0  0  0  0  0  0  0  0  0
    5.7119    2.1673    6.6957 H   0  0  0  0  0  0  0  0  0  0  0  0
    5.8930    4.6107    7.0775 H   0  0  0  0  0  0  0  0  0  0  0  0
    4.1179    4.7430    7.0724 H   0  0  0  0  0  0  0  0  0  0  0  0
    3.9979    3.2090    9.0169 H   0  0  0  0  0  0  0  0  0  0  0  0
    5.7730    3.0766    9.0220 H   0  0  0  0  0  0  0  0  0  0  0  0
    5.9541    5.5200    9.4039 H   0  0  0  0  0  0  0  0  0  0  0  0
    4.1790    5.6524    9.3987 H   0  0  0  0  0  0  0  0  0  0  0  0
    4.0590    4.1183   11.3432 H   0  0  0  0  0  0  0  0  0  0  0  0
    5.8341    3.9860   11.3483 H   0  0  0  0  0  0  0  0  0  0  0  0
    4.1180    5.0118   13.9950 H   0  0  0  0  0  0  0  0  0  0  0  0
    5.8930    4.8794   14.0001 H   0  0  0  0  0  0  0  0  0  0  0  0
    6.0699    7.2754   14.6138 H   0  0  0  0  0  0  0  0  0  0  0  0
    4.2949    7.4078   14.6087 H   0  0  0  0  0  0  0  0  0  0  0  0
    4.1621    5.6958   16.3976 H   0  0  0  0  0  0  0  0  0  0  0  0
    5.9371    5.5634   16.4027 H   0  0  0  0  0  0  0  0  0  0  0  0
   -1.6610    2.0274    0.8725 H   0  0  0  0  0  0  0  0  0  0  0  0
  1 47  1  0  0  0  0
  1 48  1  0  0  0  0
  1 49  1  0  0  0  0
  2  1  1  6  0  0  0
  2 18  1  0  0  0  0
  2 22  1  0  0  0  0
  2  3  1  0  0  0  0
  3  4  1  0  0  0  0
  3 50  1  0  0  0  0
  3 51  1  0  0  0  0
  4  5  1  0  0  0  0
  4 52  1  0  0  0  0
  4 53  1  0  0  0  0
  5  6  1  1  0  0  0
  5 16  1  0  0  0  0
  5  7  1  0  0  0  0
  7 12  2  0  0  0  0
  7  8  1  0  0  0  0
  8  9  2  0  0  0  0
  8 54  1  0  0  0  0
  9 10  1  0  0  0  0
  9 55  1  0  0  0  0
 10 11  2  0  0  0  0
 10 46  1  0  0  0  0
 11 12  1  0  0  0  0
 11 56  1  0  0  0  0
 12 13  1  0  0  0  0
 13 14  1  0  0  0  0
 13 57  1  0  0  0  0
 13 58  1  0  0  0  0
 14 15  1  6  0  0  0
 14 16  1  0  0  0  0
 14 25  1  0  0  0  0
 16 17  1  6  0  0  0
 16 18  1  0  0  0  0
 18 19  1  1  0  0  0
 18 20  1  0  0  0  0
 20 21  1  0  0  0  0
 20 59  1  0  0  0  0
 20 60  1  0  0  0  0
 21 22  1  0  0  0  0
 21 61  1  0  0  0  0
 21 62  1  0  0  0  0
 22 23  1  1  0  0  0
 22 24  1  0  0  0  0
 24 63  1  0  0  0  0
 25 26  1  0  0  0  0
 25 64  1  0  0  0  0
 25 65  1  0  0  0  0
 26 27  1  0  0  0  0
 26 66  1  0  0  0  0
 26 67  1  0  0  0  0
 27 28  1  0  0  0  0
 27 68  1  0  0  0  0
 27 69  1  0  0  0  0
 28 29  1  0  0  0  0
 28 70  1  0  0  0  0
 28 71  1  0  0  0  0
 29 30  1  0  0  0  0
 29 72  1  0  0  0  0
 29 73  1  0  0  0  0
 30 31  1  0  0  0  0
 30 74  1  0  0  0  0
 30 75  1  0  0  0  0
 31 32  1  0  0  0  0
 31 76  1  0  0  0  0
 31 77  1  0  0  0  0
 32 33  1  0  0  0  0
 32 78  1  0  0  0  0
 32 79  1  0  0  0  0
 33 34  1  0  0  0  0
 33 80  1  0  0  0  0
 33 81  1  0  0  0  0
 34 35  2  1  0  0  0
 34 36  1  0  0  0  0
 36 37  1  0  0  0  0
 36 82  1  0  0  0  0
 36 83  1  0  0  0  0
 37 38  1  0  0  0  0
 37 84  1  0  0  0  0
 37 85  1  0  0  0  0
 38 39  1  0  0  0  0
 38 86  1  0  0  0  0
 38 87  1  0  0  0  0
 39 40  1  0  0  0  0
 39 44  1  0  0  0  0
 39 45  1  0  0  0  0
 40 41  1  0  0  0  0
 40 42  1  0  0  0  0
 40 43  1  0  0  0  0
 46 88  1  0  0  0  0
M  END
$$$$
