ZINC52245489
 OpenBabel08292219463D

 77 79  0  0  1  0  0  0  0  0999 V2000
   -2.1929    1.1609   -4.6831 C   0  0  0  0  0  0  0  0  0  0  0  0
   -1.8544   -0.2033   -4.1395 C   0  0  0  0  0  0  0  0  0  0  0  0
   -2.6015   -0.9931   -3.4141 N   0  0  0  0  0  0  0  0  0  0  0  0
   -2.1626   -2.1769   -3.0065 C   0  0  0  0  0  0  0  0  0  0  0  0
   -0.8905   -2.5199   -3.3876 C   0  0  0  0  0  0  0  0  0  0  0  0
   -0.4276   -1.0748   -4.3284 S   0  0  0  0  0  0  0  0  0  0  0  0
   -2.9989   -3.0769   -2.1859 C   0  0  0  0  0  0  0  0  0  0  0  0
   -4.1790   -2.6649   -1.7428 C   0  0  0  0  0  0  0  0  0  0  0  0
   -4.6008   -1.2321   -1.9432 C   0  0  0  0  0  0  0  0  0  0  0  0
   -5.0983   -3.6296   -1.0388 C   0  0  2  0  0  0  0  0  0  0  0  0
   -4.5967   -4.5869   -0.9070 H   0  0  0  0  0  0  0  0  0  0  0  0
   -6.3721   -3.8246   -1.8679 C   0  0  0  0  0  0  0  0  0  0  0  0
   -6.2199   -5.0557   -2.7584 C   0  0  1  0  0  0  0  0  0  0  0  0
   -5.3605   -5.6935   -2.5380 H   0  0  0  0  0  0  0  0  0  0  0  0
   -7.4778   -5.7288   -3.3079 C   0  0  2  0  0  0  0  0  0  0  0  0
   -6.6083   -4.9274   -4.1293 O   0  0  0  0  0  0  0  0  0  0  0  0
   -8.8405   -5.1312   -2.9776 C   0  0  0  0  0  0  0  0  0  0  0  0
   -9.6857   -6.0472   -2.1025 C   0  0  0  0  0  0  0  0  0  0  0  0
   -9.2418   -5.9600   -0.6413 C   0  0  0  0  0  0  0  0  0  0  0  0
  -10.4821   -5.7958    0.2449 C   0  0  1  0  0  0  0  0  0  0  0  0
  -11.3425   -6.1573   -0.3686 H   0  0  0  0  0  0  0  0  0  0  0  0
  -10.4040   -6.6896    1.4594 C   0  0  1  0  0  0  0  0  0  0  0  0
   -9.7014   -7.5171    1.2291 H   0  0  0  0  0  0  0  0  0  0  0  0
   -9.9687   -6.0806    2.7781 C   0  0  1  0  0  0  0  0  0  0  0  0
   -9.7844   -6.9544    3.4533 H   0  0  0  0  0  0  0  0  0  0  0  0
   -8.6839   -5.3203    2.7012 C   0  0  0  0  0  0  0  0  0  0  0  0
   -8.2017   -5.0551    1.6179 O   0  0  0  0  0  0  0  0  0  0  0  0
   -7.9186   -4.8858    3.9243 C   0  0  0  0  0  0  0  0  0  0  0  0
   -6.4516   -4.6499    3.5482 C   0  0  1  0  0  0  0  0  0  0  0  0
   -6.0493   -5.5647    3.1078 H   0  0  0  0  0  0  0  0  0  0  0  0
   -6.3098   -3.4940    2.5657 C   0  0  0  0  0  0  0  0  0  0  0  0
   -5.7270   -3.9874    1.2637 C   0  0  0  0  0  0  0  0  0  0  0  0
   -5.4774   -5.1604    1.0977 O   0  0  0  0  0  0  0  0  0  0  0  0
   -5.4866   -3.0785    0.2764 N   0  0  0  0  0  0  0  0  0  0  0  0
   -5.7115   -4.3530    4.7390 O   0  0  0  0  0  0  0  0  0  0  0  0
   -8.5035   -3.6030    4.5144 C   0  0  0  0  0  0  0  0  0  0  0  0
   -7.9621   -5.9871    4.9907 C   0  0  0  0  0  0  0  0  0  0  0  0
  -11.0971   -5.2921    3.4371 C   0  0  0  0  0  0  0  0  0  0  0  0
  -11.6881   -7.3178    1.6527 O   0  0  0  0  0  0  0  0  0  0  0  0
  -10.7393   -4.3241    0.5212 C   0  0  0  0  0  0  0  0  0  0  0  0
   -7.4244   -7.2384   -3.5611 C   0  0  0  0  0  0  0  0  0  0  0  0
   -1.3467    1.5452   -5.2527 H   0  0  0  0  0  0  0  0  0  0  0  0
   -3.0648    1.0870   -5.3330 H   0  0  0  0  0  0  0  0  0  0  0  0
   -2.4119    1.8372   -3.8568 H   0  0  0  0  0  0  0  0  0  0  0  0
   -0.3265   -3.4171   -3.1796 H   0  0  0  0  0  0  0  0  0  0  0  0
   -2.6491   -4.0704   -1.9469 H   0  0  0  0  0  0  0  0  0  0  0  0
   -5.0476   -1.1196   -2.9310 H   0  0  0  0  0  0  0  0  0  0  0  0
   -5.3304   -0.9581   -1.1811 H   0  0  0  0  0  0  0  0  0  0  0  0
   -3.7295   -0.5822   -1.8624 H   0  0  0  0  0  0  0  0  0  0  0  0
   -7.2185   -3.9586   -1.1940 H   0  0  0  0  0  0  0  0  0  0  0  0
   -6.5377   -2.9417   -2.4862 H   0  0  0  0  0  0  0  0  0  0  0  0
   -8.7024   -4.1716   -2.4669 H   0  0  0  0  0  0  0  0  0  0  0  0
   -9.3776   -4.9320   -3.9125 H   0  0  0  0  0  0  0  0  0  0  0  0
  -10.7340   -5.7093   -2.1626 H   0  0  0  0  0  0  0  0  0  0  0  0
   -9.6635   -7.0754   -2.4405 H   0  0  0  0  0  0  0  0  0  0  0  0
   -8.7198   -6.8747   -0.3670 H   0  0  0  0  0  0  0  0  0  0  0  0
   -8.5841   -5.1048   -0.5109 H   0  0  0  0  0  0  0  0  0  0  0  0
   -7.2735   -3.0339    2.3543 H   0  0  0  0  0  0  0  0  0  0  0  0
   -5.6418   -2.7378    2.9863 H   0  0  0  0  0  0  0  0  0  0  0  0
   -5.5669   -2.1231    0.4290 H   0  0  0  0  0  0  0  0  0  0  0  0
   -4.7705   -4.1902    4.5870 H   0  0  0  0  0  0  0  0  0  0  0  0
   -9.5424   -3.7736    4.7964 H   0  0  0  0  0  0  0  0  0  0  0  0
   -7.9305   -3.3143    5.3955 H   0  0  0  0  0  0  0  0  0  0  0  0
   -8.4546   -2.8064    3.7721 H   0  0  0  0  0  0  0  0  0  0  0  0
   -7.5133   -6.8969    4.5919 H   0  0  0  0  0  0  0  0  0  0  0  0
   -7.4061   -5.6632    5.8704 H   0  0  0  0  0  0  0  0  0  0  0  0
   -8.9978   -6.1840    5.2676 H   0  0  0  0  0  0  0  0  0  0  0  0
  -11.9895   -5.9151    3.4957 H   0  0  0  0  0  0  0  0  0  0  0  0
  -10.7946   -4.9953    4.4413 H   0  0  0  0  0  0  0  0  0  0  0  0
  -11.3130   -4.4029    2.8449 H   0  0  0  0  0  0  0  0  0  0  0  0
  -11.7247   -7.9112    2.4154 H   0  0  0  0  0  0  0  0  0  0  0  0
  -10.7533   -3.7747   -0.4201 H   0  0  0  0  0  0  0  0  0  0  0  0
  -11.7008   -4.2111    1.0222 H   0  0  0  0  0  0  0  0  0  0  0  0
   -9.9484   -3.9307    1.1598 H   0  0  0  0  0  0  0  0  0  0  0  0
   -7.2079   -7.7561   -2.6266 H   0  0  0  0  0  0  0  0  0  0  0  0
   -8.3854   -7.5759   -3.9492 H   0  0  0  0  0  0  0  0  0  0  0  0
   -6.6420   -7.4575   -4.2876 H   0  0  0  0  0  0  0  0  0  0  0  0
  1  2  1  0  0  0  0
  1 42  1  0  0  0  0
  1 43  1  0  0  0  0
  1 44  1  0  0  0  0
  2  6  1  0  0  0  0
  2  3  2  0  0  0  0
  3  4  1  0  0  0  0
  4  5  2  0  0  0  0
  4  7  1  0  0  0  0
  5  6  1  0  0  0  0
  5 45  1  0  0  0  0
  7  8  2  0  0  0  0
  7 46  1  0  0  0  0
  8  9  1  0  0  0  0
  8 10  1  0  0  0  0
  9 47  1  0  0  0  0
  9 48  1  0  0  0  0
  9 49  1  0  0  0  0
 10 11  1  1  0  0  0
 10 34  1  0  0  0  0
 10 12  1  0  0  0  0
 12 13  1  0  0  0  0
 12 50  1  0  0  0  0
 12 51  1  0  0  0  0
 13 14  1  1  0  0  0
 13 16  1  0  0  0  0
 13 15  1  0  0  0  0
 15 16  1  0  0  0  0
 15 17  1  0  0  0  0
 15 41  1  6  0  0  0
 17 18  1  0  0  0  0
 17 52  1  0  0  0  0
 17 53  1  0  0  0  0
 18 19  1  0  0  0  0
 18 54  1  0  0  0  0
 18 55  1  0  0  0  0
 19 20  1  0  0  0  0
 19 56  1  0  0  0  0
 19 57  1  0  0  0  0
 20 21  1  6  0  0  0
 20 22  1  0  0  0  0
 20 40  1  0  0  0  0
 22 23  1  6  0  0  0
 22 24  1  0  0  0  0
 22 39  1  0  0  0  0
 24 25  1  1  0  0  0
 24 26  1  0  0  0  0
 24 38  1  0  0  0  0
 26 27  2  0  0  0  0
 26 28  1  0  0  0  0
 28 29  1  0  0  0  0
 28 36  1  0  0  0  0
 28 37  1  0  0  0  0
 29 30  1  6  0  0  0
 29 31  1  0  0  0  0
 29 35  1  0  0  0  0
 31 32  1  0  0  0  0
 31 58  1  0  0  0  0
 31 59  1  0  0  0  0
 32 33  2  0  0  0  0
 32 34  1  0  0  0  0
 34 60  1  0  0  0  0
 35 61  1  0  0  0  0
 36 62  1  0  0  0  0
 36 63  1  0  0  0  0
 36 64  1  0  0  0  0
 37 65  1  0  0  0  0
 37 66  1  0  0  0  0
 37 67  1  0  0  0  0
 38 68  1  0  0  0  0
 38 69  1  0  0  0  0
 38 70  1  0  0  0  0
 39 71  1  0  0  0  0
 40 72  1  0  0  0  0
 40 73  1  0  0  0  0
 40 74  1  0  0  0  0
 41 75  1  0  0  0  0
 41 76  1  0  0  0  0
 41 77  1  0  0  0  0
M  END
$$$$
