ZINC00074836
 OpenBabel08292219463D

 28 28  0  0  1  0  0  0  0  0999 V2000
   -0.0187    1.5258    0.0104 C   0  0  0  0  0  0  0  0  0  0  0  0
    0.0021   -0.0041    0.0020 C   0  0  1  0  0  0  0  0  0  0  0  0
    0.5293   -0.3651    0.8851 H   0  0  0  0  0  0  0  0  0  0  0  0
   -1.4333   -0.5336    0.0129 C   0  0  1  0  0  0  0  0  0  0  0  0
   -1.4207   -1.6194   -0.0826 H   0  0  0  0  0  0  0  0  0  0  0  0
   -2.1001   -0.1511    1.3091 C   0  0  0  0  0  0  0  0  0  0  0  0
   -2.7022    1.0866    1.4376 C   0  0  0  0  0  0  0  0  0  0  0  0
   -3.3138    1.4375    2.6266 C   0  0  0  0  0  0  0  0  0  0  0  0
   -3.3237    0.5505    3.6869 C   0  0  0  0  0  0  0  0  0  0  0  0
   -2.7224   -0.6875    3.5580 C   0  0  0  0  0  0  0  0  0  0  0  0
   -2.1145   -1.0401    2.3676 C   0  0  0  0  0  0  0  0  0  0  0  0
   -2.1582    0.0324   -1.0808 O   0  0  0  0  0  0  0  0  0  0  0  0
    0.6897   -0.4778   -1.2066 N   0  3  0  0  0  0  0  0  0  0  0  0
    2.1002   -0.0703   -1.1590 C   0  0  0  0  0  0  0  0  0  0  0  0
    1.0039    1.9031    0.0027 H   0  0  0  0  0  0  0  0  0  0  0  0
   -0.5459    1.8868   -0.8726 H   0  0  0  0  0  0  0  0  0  0  0  0
   -0.5289    1.8773    0.9072 H   0  0  0  0  0  0  0  0  0  0  0  0
   -2.6944    1.7795    0.6093 H   0  0  0  0  0  0  0  0  0  0  0  0
   -3.7836    2.4047    2.7273 H   0  0  0  0  0  0  0  0  0  0  0  0
   -3.8010    0.8250    4.6160 H   0  0  0  0  0  0  0  0  0  0  0  0
   -2.7299   -1.3803    4.3865 H   0  0  0  0  0  0  0  0  0  0  0  0
   -1.6480   -2.0087    2.2656 H   0  0  0  0  0  0  0  0  0  0  0  0
   -2.2100    0.9978   -1.0607 H   0  0  0  0  0  0  0  0  0  0  0  0
    0.6317   -1.4840   -1.2540 H   0  0  0  0  0  0  0  0  0  0  0  0
    2.6104   -0.4218   -2.0558 H   0  0  0  0  0  0  0  0  0  0  0  0
    2.1628    1.0167   -1.1079 H   0  0  0  0  0  0  0  0  0  0  0  0
    2.5740   -0.5034   -0.2781 H   0  0  0  0  0  0  0  0  0  0  0  0
    0.2511   -0.0769   -2.0221 H   0  0  0  0  0  0  0  0  0  0  0  0
  1  2  1  0  0  0  0
  1 15  1  0  0  0  0
  1 16  1  0  0  0  0
  1 17  1  0  0  0  0
  2  3  1  1  0  0  0
  2  4  1  0  0  0  0
  2 13  1  0  0  0  0
  4  5  1  6  0  0  0
  4  6  1  0  0  0  0
  4 12  1  0  0  0  0
  6 11  2  0  0  0  0
  6  7  1  0  0  0  0
  7  8  2  0  0  0  0
  7 18  1  0  0  0  0
  8  9  1  0  0  0  0
  8 19  1  0  0  0  0
  9 10  2  0  0  0  0
  9 20  1  0  0  0  0
 10 11  1  0  0  0  0
 10 21  1  0  0  0  0
 11 22  1  0  0  0  0
 12 23  1  0  0  0  0
 13 14  1  0  0  0  0
 13 24  1  0  0  0  0
 13 28  1  0  0  0  0
 14 25  1  0  0  0  0
 14 26  1  0  0  0  0
 14 27  1  0  0  0  0
M  CHG  1  13   1
M  END
$$$$
