ZINC00968262
 OpenBabel08292219463D

 44 45  0  0  1  0  0  0  0  0999 V2000
    0.3646   -0.4883   -3.8006 C   0  0  0  0  0  0  0  0  0  0  0  0
   -0.2394    0.0063   -2.4847 C   0  0  1  0  0  0  0  0  0  0  0  0
   -0.2542    1.0962   -2.4787 H   0  0  0  0  0  0  0  0  0  0  0  0
   -1.6681   -0.5238   -2.3482 C   0  0  0  0  0  0  0  0  0  0  0  0
   -2.2721   -0.0292   -1.0324 C   0  0  1  0  0  0  0  0  0  0  0  0
   -3.2899   -0.4069   -0.9351 H   0  0  0  0  0  0  0  0  0  0  0  0
   -1.4266   -0.5342    0.1385 C   0  0  0  0  0  0  0  0  0  0  0  0
    0.0021   -0.0041    0.0020 C   0  0  0  0  0  0  0  0  0  0  0  0
    0.6061   -0.4987   -1.3138 C   0  0  0  0  0  0  0  0  0  0  0  0
   -0.0187    1.5258    0.0104 C   0  0  0  0  0  0  0  0  0  0  0  0
    0.8475   -0.5091    1.1729 C   0  0  0  0  0  0  0  0  0  0  0  0
   -2.2918    1.4226   -1.0244 O   0  0  0  0  0  0  0  0  0  0  0  0
   -3.3887    2.0199   -1.5162 C   0  0  0  0  0  0  0  0  0  0  0  0
   -4.3021    1.3517   -1.9393 O   0  0  0  0  0  0  0  0  0  0  0  0
   -3.4809    3.5239   -1.5406 C   0  0  1  0  0  0  0  0  0  0  0  0
   -3.3161    3.9143   -0.5363 H   0  0  0  0  0  0  0  0  0  0  0  0
   -2.4332    4.0763   -2.4724 C   0  0  0  0  0  0  0  0  0  0  0  0
   -2.6913    4.1655   -3.8275 C   0  0  0  0  0  0  0  0  0  0  0  0
   -1.7320    4.6763   -4.6817 C   0  0  0  0  0  0  0  0  0  0  0  0
   -0.5111    5.0895   -4.1819 C   0  0  0  0  0  0  0  0  0  0  0  0
   -0.2511    4.9955   -2.8275 C   0  0  0  0  0  0  0  0  0  0  0  0
   -1.2121    4.4887   -1.9728 C   0  0  0  0  0  0  0  0  0  0  0  0
   -4.7776    3.9143   -1.9967 O   0  0  0  0  0  0  0  0  0  0  0  0
   -0.2378   -0.1285   -4.6348 H   0  0  0  0  0  0  0  0  0  0  0  0
    1.3824   -0.1106   -3.8979 H   0  0  0  0  0  0  0  0  0  0  0  0
    0.3793   -1.5782   -3.8066 H   0  0  0  0  0  0  0  0  0  0  0  0
   -1.6533   -1.6137   -2.3542 H   0  0  0  0  0  0  0  0  0  0  0  0
   -2.2704   -0.1641   -3.1824 H   0  0  0  0  0  0  0  0  0  0  0  0
   -1.4118   -1.6241    0.1325 H   0  0  0  0  0  0  0  0  0  0  0  0
   -1.8569   -0.1819    1.0760 H   0  0  0  0  0  0  0  0  0  0  0  0
    1.6239   -0.1210   -1.4111 H   0  0  0  0  0  0  0  0  0  0  0  0
    0.6208   -1.5886   -1.3198 H   0  0  0  0  0  0  0  0  0  0  0  0
    0.9985    1.9023    0.1186 H   0  0  0  0  0  0  0  0  0  0  0  0
   -0.4428    1.8885   -0.9259 H   0  0  0  0  0  0  0  0  0  0  0  0
   -0.6265    1.8763    0.8445 H   0  0  0  0  0  0  0  0  0  0  0  0
    0.4173   -0.1567    2.1104 H   0  0  0  0  0  0  0  0  0  0  0  0
    0.8623   -1.5990    1.1669 H   0  0  0  0  0  0  0  0  0  0  0  0
    1.8654   -0.1314    1.0757 H   0  0  0  0  0  0  0  0  0  0  0  0
   -3.6437    3.8392   -4.2184 H   0  0  0  0  0  0  0  0  0  0  0  0
   -1.9352    4.7501   -5.7398 H   0  0  0  0  0  0  0  0  0  0  0  0
    0.2394    5.4862   -4.8496 H   0  0  0  0  0  0  0  0  0  0  0  0
    0.7027    5.3184   -2.4371 H   0  0  0  0  0  0  0  0  0  0  0  0
   -1.0089    4.4153   -0.9146 H   0  0  0  0  0  0  0  0  0  0  0  0
   -4.9927    3.6008   -2.8858 H   0  0  0  0  0  0  0  0  0  0  0  0
  1  2  1  0  0  0  0
  1 24  1  0  0  0  0
  1 25  1  0  0  0  0
  1 26  1  0  0  0  0
  2  3  1  1  0  0  0
  2  9  1  0  0  0  0
  2  4  1  0  0  0  0
  4  5  1  0  0  0  0
  4 27  1  0  0  0  0
  4 28  1  0  0  0  0
  5  6  1  1  0  0  0
  5  7  1  0  0  0  0
  5 12  1  0  0  0  0
  7  8  1  0  0  0  0
  7 29  1  0  0  0  0
  7 30  1  0  0  0  0
  8  9  1  0  0  0  0
  8 10  1  0  0  0  0
  8 11  1  0  0  0  0
  9 31  1  0  0  0  0
  9 32  1  0  0  0  0
 10 33  1  0  0  0  0
 10 34  1  0  0  0  0
 10 35  1  0  0  0  0
 11 36  1  0  0  0  0
 11 37  1  0  0  0  0
 11 38  1  0  0  0  0
 12 13  1  0  0  0  0
 13 14  2  0  0  0  0
 13 15  1  0  0  0  0
 15 16  1  1  0  0  0
 15 17  1  0  0  0  0
 15 23  1  0  0  0  0
 17 22  2  0  0  0  0
 17 18  1  0  0  0  0
 18 19  2  0  0  0  0
 18 39  1  0  0  0  0
 19 20  1  0  0  0  0
 19 40  1  0  0  0  0
 20 21  2  0  0  0  0
 20 41  1  0  0  0  0
 21 22  1  0  0  0  0
 21 42  1  0  0  0  0
 22 43  1  0  0  0  0
 23 44  1  0  0  0  0
M  END
$$$$
