ZINC00001246
 OpenBabel08292219463D

 52 55  0  0  0  0  0  0  0  0999 V2000
    0.0021   -0.0041    0.0020 C   0  0  0  0  0  0  0  0  0  0  0  0
   -0.0184    1.5028    0.0103 C   0  0  0  0  0  0  0  0  0  0  0  0
   -1.2234    2.1779    0.0197 C   0  0  0  0  0  0  0  0  0  0  0  0
   -1.2430    3.5603    0.0321 C   0  0  0  0  0  0  0  0  0  0  0  0
   -0.0571    4.2720    0.0246 C   0  0  0  0  0  0  0  0  0  0  0  0
    1.1510    3.6034    0.0099 C   0  0  0  0  0  0  0  0  0  0  0  0
    1.1744    2.2143    0.0027 C   0  0  0  0  0  0  0  0  0  0  0  0
    2.3947    1.5349   -0.0125 N   0  0  0  0  0  0  0  0  0  0  0  0
    3.1612    1.8013    1.2126 C   0  0  0  0  0  0  0  0  0  0  0  0
    4.4516    0.9786    1.1929 C   0  0  0  0  0  0  0  0  0  0  0  0
    4.4676    1.0617   -1.2261 C   0  0  0  0  0  0  0  0  0  0  0  0
    3.1771    1.8844   -1.2064 C   0  0  0  0  0  0  0  0  0  0  0  0
    6.5175    0.6136   -0.0170 C   0  0  0  0  0  0  0  0  0  0  0  0
    7.3886    1.1036    1.1414 C   0  0  0  0  0  0  0  0  0  0  0  0
    8.7052    0.3705    1.1250 C   0  0  0  0  0  0  0  0  0  0  0  0
    9.7918    0.7377    0.4954 N   0  0  0  0  0  0  0  0  0  0  0  0
   10.7273   -0.1248    0.7023 N   0  0  0  0  0  0  0  0  0  0  0  0
   10.2804   -1.0730    1.4684 C   0  0  0  0  0  0  0  0  0  0  0  0
    8.9870   -0.7833    1.7603 N   0  0  0  0  0  0  0  0  0  0  0  0
    8.1130   -1.6093    2.5927 C   0  0  0  0  0  0  0  0  0  0  0  0
    8.7320   -3.0058    2.7244 C   0  0  0  0  0  0  0  0  0  0  0  0
   10.1999   -2.8791    3.1421 C   0  0  0  0  0  0  0  0  0  0  0  0
   11.0094   -2.2904    1.9788 C   0  0  0  0  0  0  0  0  0  0  0  0
    0.0168   -0.3729    1.0276 H   0  0  0  0  0  0  0  0  0  0  0  0
   -0.8878   -0.3767   -0.5053 H   0  0  0  0  0  0  0  0  0  0  0  0
    0.8920   -0.3525   -0.5222 H   0  0  0  0  0  0  0  0  0  0  0  0
   -2.1513    1.6252    0.0211 H   0  0  0  0  0  0  0  0  0  0  0  0
   -2.1865    4.0857    0.0432 H   0  0  0  0  0  0  0  0  0  0  0  0
   -0.0759    5.3518    0.0298 H   0  0  0  0  0  0  0  0  0  0  0  0
    2.0767    4.1597    0.0037 H   0  0  0  0  0  0  0  0  0  0  0  0
    3.4069    2.8620    1.2644 H   0  0  0  0  0  0  0  0  0  0  0  0
    2.5656    1.5228    2.0820 H   0  0  0  0  0  0  0  0  0  0  0  0
    4.2058   -0.0830    1.1686 H   0  0  0  0  0  0  0  0  0  0  0  0
    5.0357    1.1963    2.0871 H   0  0  0  0  0  0  0  0  0  0  0  0
    4.2219    0.0010   -1.2779 H   0  0  0  0  0  0  0  0  0  0  0  0
    5.0630    1.3400   -2.0957 H   0  0  0  0  0  0  0  0  0  0  0  0
    2.5932    1.6664   -2.1006 H   0  0  0  0  0  0  0  0  0  0  0  0
    3.4230    2.9460   -1.1820 H   0  0  0  0  0  0  0  0  0  0  0  0
    6.3390   -0.4564    0.0900 H   0  0  0  0  0  0  0  0  0  0  0  0
    7.0277    0.8042   -0.9611 H   0  0  0  0  0  0  0  0  0  0  0  0
    7.5671    2.1735    1.0345 H   0  0  0  0  0  0  0  0  0  0  0  0
    6.8784    0.9130    2.0856 H   0  0  0  0  0  0  0  0  0  0  0  0
    7.1296   -1.6876    2.1291 H   0  0  0  0  0  0  0  0  0  0  0  0
    8.0168   -1.1576    3.5800 H   0  0  0  0  0  0  0  0  0  0  0  0
    8.6705   -3.5220    1.7663 H   0  0  0  0  0  0  0  0  0  0  0  0
    8.1878   -3.5742    3.4786 H   0  0  0  0  0  0  0  0  0  0  0  0
   10.5921   -3.8638    3.3965 H   0  0  0  0  0  0  0  0  0  0  0  0
   10.2764   -2.2216    4.0080 H   0  0  0  0  0  0  0  0  0  0  0  0
   11.0973   -3.0280    1.1812 H   0  0  0  0  0  0  0  0  0  0  0  0
   12.0021   -2.0055    2.3275 H   0  0  0  0  0  0  0  0  0  0  0  0
    5.2388    1.3557   -0.0001 N   0  3  0  0  0  0  0  0  0  0  0  0
    5.4378    2.3624    0.0358 H   0  0  0  0  0  0  0  0  0  0  0  0
  1  2  1  0  0  0  0
  1 24  1  0  0  0  0
  1 25  1  0  0  0  0
  1 26  1  0  0  0  0
  2  7  2  0  0  0  0
  2  3  1  0  0  0  0
  3  4  2  0  0  0  0
  3 27  1  0  0  0  0
  4  5  1  0  0  0  0
  4 28  1  0  0  0  0
  5  6  2  0  0  0  0
  5 29  1  0  0  0  0
  6  7  1  0  0  0  0
  6 30  1  0  0  0  0
  7  8  1  0  0  0  0
  8 12  1  0  0  0  0
  8  9  1  0  0  0  0
  9 10  1  0  0  0  0
  9 31  1  0  0  0  0
  9 32  1  0  0  0  0
 10 33  1  0  0  0  0
 10 34  1  0  0  0  0
 10 51  1  0  0  0  0
 11 12  1  0  0  0  0
 11 35  1  0  0  0  0
 11 36  1  0  0  0  0
 11 51  1  0  0  0  0
 12 37  1  0  0  0  0
 12 38  1  0  0  0  0
 13 14  1  0  0  0  0
 13 39  1  0  0  0  0
 13 40  1  0  0  0  0
 13 51  1  0  0  0  0
 14 15  1  0  0  0  0
 14 41  1  0  0  0  0
 14 42  1  0  0  0  0
 15 19  1  0  0  0  0
 15 16  2  0  0  0  0
 16 17  1  0  0  0  0
 17 18  2  0  0  0  0
 18 23  1  0  0  0  0
 18 19  1  0  0  0  0
 19 20  1  0  0  0  0
 20 21  1  0  0  0  0
 20 43  1  0  0  0  0
 20 44  1  0  0  0  0
 21 22  1  0  0  0  0
 21 45  1  0  0  0  0
 21 46  1  0  0  0  0
 22 23  1  0  0  0  0
 22 47  1  0  0  0  0
 22 48  1  0  0  0  0
 23 49  1  0  0  0  0
 23 50  1  0  0  0  0
 51 52  1  0  0  0  0
M  CHG  1  51   1
M  END
$$$$
