ZINC00895032
 OpenBabel08292219463D

 15 14  0  0  1  0  0  0  0  0999 V2000
   -0.0187    1.5258    0.0104 C   0  0  0  0  0  0  0  0  0  0  0  0
    0.0021   -0.0041    0.0020 C   0  0  1  0  0  0  0  0  0  0  0  0
    0.6044   -0.3639    0.8362 H   0  0  0  0  0  0  0  0  0  0  0  0
   -1.4051   -0.5263    0.1365 C   0  0  0  0  0  0  0  0  0  0  0  0
   -1.9459   -1.0721   -0.8102 O   0  0  0  0  0  0  0  0  0  0  0  0
   -2.0029   -0.4029    1.1919 O   0  0  0  0  0  1  0  0  0  0  0  0
    0.5820   -0.4790   -1.2614 N   0  3  0  0  0  0  0  0  0  0  0  0
    1.3951    2.0474   -0.0003 C   0  0  0  0  0  0  0  0  0  0  0  0
    2.3325    1.2678   -0.0134 O   0  0  0  0  0  0  0  0  0  0  0  0
    1.6016    3.2490    0.0042 O   0  0  0  0  0  1  0  0  0  0  0  0
   -0.5459    1.8868   -0.8726 H   0  0  0  0  0  0  0  0  0  0  0  0
   -0.5289    1.8773    0.9072 H   0  0  0  0  0  0  0  0  0  0  0  0
    0.0244   -0.1459   -2.0336 H   0  0  0  0  0  0  0  0  0  0  0  0
    1.5242   -0.1293   -1.3514 H   0  0  0  0  0  0  0  0  0  0  0  0
    0.5957   -1.4879   -1.2669 H   0  0  0  0  0  0  0  0  0  0  0  0
  1  2  1  0  0  0  0
  1  8  1  0  0  0  0
  1 11  1  0  0  0  0
  1 12  1  0  0  0  0
  2  3  1  1  0  0  0
  2  4  1  0  0  0  0
  2  7  1  0  0  0  0
  4  5  2  0  0  0  0
  4  6  1  0  0  0  0
  7 13  1  0  0  0  0
  7 14  1  0  0  0  0
  7 15  1  0  0  0  0
  8  9  2  0  0  0  0
  8 10  1  0  0  0  0
M  CHG  1   7   1
M  END
$$$$
