ZINC00896838
 OpenBabel08292219463D

 30 31  0  0  1  0  0  0  0  0999 V2000
   -0.0187    1.5258    0.0104 C   0  0  0  0  0  0  0  0  0  0  0  0
    0.0021   -0.0041    0.0020 C   0  0  0  0  0  0  0  0  0  0  0  0
   -1.4333   -0.5336    0.0129 C   0  0  1  0  0  0  0  0  0  0  0  0
   -1.9583   -0.1713   -0.8709 H   0  0  0  0  0  0  0  0  0  0  0  0
   -1.4100   -2.0014   -0.0033 N   0  0  0  0  0  0  0  0  0  0  0  0
   -1.0887   -2.6733    1.1707 C   0  0  0  0  0  0  0  0  0  0  0  0
   -0.4677   -3.9096    1.1606 C   0  0  0  0  0  0  0  0  0  0  0  0
   -0.1648   -4.5328    2.3578 C   0  0  0  0  0  0  0  0  0  0  0  0
   -0.4784   -3.9276    3.5666 C   0  0  0  0  0  0  0  0  0  0  0  0
   -1.0992   -2.6966    3.5929 C   0  0  0  0  0  0  0  0  0  0  0  0
   -1.4122   -2.0595    2.3944 C   0  0  0  0  0  0  0  0  0  0  0  0
   -2.0845   -0.7485    2.3655 C   0  0  0  0  0  0  0  0  0  0  0  0
   -2.6023   -0.3007    3.3706 O   0  0  0  0  0  0  0  0  0  0  0  0
   -2.1175   -0.0537    1.2134 N   0  0  0  0  0  0  0  0  0  0  0  0
   -0.0808   -4.7387    5.0794 S   0  0  0  0  0  0  0  0  0  0  0  0
    1.2755   -5.1500    4.9755 O   0  0  0  0  0  0  0  0  0  0  0  0
   -0.5432   -3.8959    6.1258 O   0  0  0  0  0  0  0  0  0  0  0  0
   -0.9905   -6.1208    5.1478 N   0  0  0  0  0  0  0  0  0  0  0  0
    0.6133   -6.0846    2.3481 Cl  0  0  0  0  0  0  0  0  0  0  0  0
    1.0039    1.9031    0.0027 H   0  0  0  0  0  0  0  0  0  0  0  0
   -0.5459    1.8868   -0.8726 H   0  0  0  0  0  0  0  0  0  0  0  0
   -0.5289    1.8773    0.9072 H   0  0  0  0  0  0  0  0  0  0  0  0
    0.5123   -0.3556   -0.8948 H   0  0  0  0  0  0  0  0  0  0  0  0
    0.5293   -0.3651    0.8851 H   0  0  0  0  0  0  0  0  0  0  0  0
   -1.6146   -2.4915   -0.8149 H   0  0  0  0  0  0  0  0  0  0  0  0
   -0.2205   -4.3853    0.2231 H   0  0  0  0  0  0  0  0  0  0  0  0
   -1.3413   -2.2297    4.5362 H   0  0  0  0  0  0  0  0  0  0  0  0
   -2.6056    0.7839    1.1805 H   0  0  0  0  0  0  0  0  0  0  0  0
   -1.5982   -6.3377    4.4236 H   0  0  0  0  0  0  0  0  0  0  0  0
   -0.9157   -6.7133    5.9121 H   0  0  0  0  0  0  0  0  0  0  0  0
  1  2  1  0  0  0  0
  1 20  1  0  0  0  0
  1 21  1  0  0  0  0
  1 22  1  0  0  0  0
  2  3  1  0  0  0  0
  2 23  1  0  0  0  0
  2 24  1  0  0  0  0
  3  4  1  6  0  0  0
  3 14  1  0  0  0  0
  3  5  1  0  0  0  0
  5  6  1  0  0  0  0
  5 25  1  0  0  0  0
  6 11  2  0  0  0  0
  6  7  1  0  0  0  0
  7  8  2  0  0  0  0
  7 26  1  0  0  0  0
  8  9  1  0  0  0  0
  8 19  1  0  0  0  0
  9 10  2  0  0  0  0
  9 15  1  0  0  0  0
 10 11  1  0  0  0  0
 10 27  1  0  0  0  0
 11 12  1  0  0  0  0
 12 13  2  0  0  0  0
 12 14  1  0  0  0  0
 14 28  1  0  0  0  0
 15 16  2  0  0  0  0
 15 17  2  0  0  0  0
 15 18  1  0  0  0  0
 18 29  1  0  0  0  0
 18 30  1  0  0  0  0
M  END
$$$$
