ZINC03978033
 OpenBabel08292219463D

 42 44  0  0  1  0  0  0  0  0999 V2000
   -0.0187    1.5258    0.0104 C   0  0  0  0  0  0  0  0  0  0  0  0
    0.0021   -0.0041    0.0020 C   0  0  0  0  0  0  0  0  0  0  0  0
   -1.4146   -0.5970    0.2500 C   0  0  1  0  0  0  0  0  0  0  0  0
   -1.4407   -1.6244   -0.1133 H   0  0  0  0  0  0  0  0  0  0  0  0
   -1.7530   -0.5827    1.6766 N   0  0  0  0  0  0  0  0  0  0  0  0
   -0.6219   -0.6803    2.6091 C   0  0  2  0  0  0  0  0  0  0  0  0
   -0.5972    0.0495    3.4183 H   0  0  0  0  0  0  0  0  0  0  0  0
    0.8474   -0.6813    1.5011 S   0  0  0  0  0  0  0  0  0  0  0  0
   -1.1211   -2.0644    2.9842 C   0  0  1  0  0  0  0  0  0  0  0  0
   -1.3036   -2.1968    4.0507 H   0  0  0  0  0  0  0  0  0  0  0  0
   -2.3389   -1.6771    2.1994 C   0  0  0  0  0  0  0  0  0  0  0  0
   -3.4416   -2.1674    2.0796 O   0  0  0  0  0  0  0  0  0  0  0  0
   -0.3479   -3.1587    2.3917 N   0  0  0  0  0  0  0  0  0  0  0  0
   -0.3234   -4.3668    2.9886 C   0  0  0  0  0  0  0  0  0  0  0  0
   -0.9413   -4.5481    4.0163 O   0  0  0  0  0  0  0  0  0  0  0  0
    0.4720   -5.4924    2.3790 C   0  0  2  0  0  0  0  0  0  0  0  0
    0.0969   -5.7013    1.3772 H   0  0  0  0  0  0  0  0  0  0  0  0
    0.3341   -6.7255    3.2343 C   0  0  0  0  0  0  0  0  0  0  0  0
    0.7413   -6.6997    4.5551 C   0  0  0  0  0  0  0  0  0  0  0  0
    0.6148   -7.8308    5.3396 C   0  0  0  0  0  0  0  0  0  0  0  0
    0.0807   -8.9876    4.8034 C   0  0  0  0  0  0  0  0  0  0  0  0
   -0.3274   -9.0132    3.4829 C   0  0  0  0  0  0  0  0  0  0  0  0
   -0.2048   -7.8808    2.6996 C   0  0  0  0  0  0  0  0  0  0  0  0
    1.9237   -5.0961    2.2994 C   0  0  0  0  0  0  0  0  0  0  0  0
    2.5367   -4.8193    3.3163 O   0  0  0  0  0  0  0  0  0  0  0  0
    2.4853   -5.0522    1.2181 O   0  0  0  0  0  1  0  0  0  0  0  0
   -2.4313    0.2197   -0.5052 C   0  0  0  0  0  0  0  0  0  0  0  0
   -2.7256   -0.0801   -1.6498 O   0  0  0  0  0  0  0  0  0  0  0  0
   -2.9595    1.1804    0.0283 O   0  0  0  0  0  1  0  0  0  0  0  0
    0.6227   -0.5460   -1.2872 C   0  0  0  0  0  0  0  0  0  0  0  0
    1.0039    1.9031    0.0027 H   0  0  0  0  0  0  0  0  0  0  0  0
   -0.5459    1.8868   -0.8726 H   0  0  0  0  0  0  0  0  0  0  0  0
   -0.5289    1.8773    0.9072 H   0  0  0  0  0  0  0  0  0  0  0  0
    0.1463   -3.0137    1.5697 H   0  0  0  0  0  0  0  0  0  0  0  0
    1.1585   -5.7959    4.9739 H   0  0  0  0  0  0  0  0  0  0  0  0
    0.9336   -7.8109    6.3713 H   0  0  0  0  0  0  0  0  0  0  0  0
   -0.0175   -9.8715    5.4162 H   0  0  0  0  0  0  0  0  0  0  0  0
   -0.7443   -9.9170    3.0640 H   0  0  0  0  0  0  0  0  0  0  0  0
   -0.5271   -7.8996    1.6690 H   0  0  0  0  0  0  0  0  0  0  0  0
    1.6433   -0.1753   -1.3829 H   0  0  0  0  0  0  0  0  0  0  0  0
    0.6333   -1.6354   -1.2553 H   0  0  0  0  0  0  0  0  0  0  0  0
    0.0336   -0.2132   -2.1418 H   0  0  0  0  0  0  0  0  0  0  0  0
  1  2  1  0  0  0  0
  1 31  1  0  0  0  0
  1 32  1  0  0  0  0
  1 33  1  0  0  0  0
  2  8  1  0  0  0  0
  2  3  1  0  0  0  0
  2 30  1  0  0  0  0
  3  4  1  6  0  0  0
  3  5  1  0  0  0  0
  3 27  1  0  0  0  0
  5 11  1  0  0  0  0
  5  6  1  0  0  0  0
  6  7  1  1  0  0  0
  6  8  1  0  0  0  0
  6  9  1  0  0  0  0
  9 10  1  1  0  0  0
  9 11  1  0  0  0  0
  9 13  1  0  0  0  0
 11 12  2  0  0  0  0
 13 14  1  0  0  0  0
 13 34  1  0  0  0  0
 14 15  2  0  0  0  0
 14 16  1  0  0  0  0
 16 17  1  6  0  0  0
 16 18  1  0  0  0  0
 16 24  1  0  0  0  0
 18 23  2  0  0  0  0
 18 19  1  0  0  0  0
 19 20  2  0  0  0  0
 19 35  1  0  0  0  0
 20 21  1  0  0  0  0
 20 36  1  0  0  0  0
 21 22  2  0  0  0  0
 21 37  1  0  0  0  0
 22 23  1  0  0  0  0
 22 38  1  0  0  0  0
 23 39  1  0  0  0  0
 24 25  2  0  0  0  0
 24 26  1  0  0  0  0
 27 28  2  0  0  0  0
 27 29  1  0  0  0  0
 30 40  1  0  0  0  0
 30 41  1  0  0  0  0
 30 42  1  0  0  0  0
M  END
$$$$
