ZINC00402980
 OpenBabel08292219463D

 39 39  0  0  1  0  0  0  0  0999 V2000
   -1.5544   -0.3211   -0.3863 C   0  0  0  0  0  0  0  0  0  0  0  0
   -0.0638   -0.1123   -0.1118 C   0  0  0  0  0  0  0  0  0  0  0  0
    0.7496   -0.6074   -1.3094 C   0  0  2  0  0  0  0  0  0  0  0  0
    0.4042   -0.1080   -2.2146 H   0  0  0  0  0  0  0  0  0  0  0  0
    0.5675   -2.1191   -1.4597 C   0  0  1  0  0  0  0  0  0  0  0  0
   -0.4715   -2.3371   -1.7069 H   0  0  0  0  0  0  0  0  0  0  0  0
    1.4628   -2.6258   -2.5610 C   0  0  0  0  0  0  0  0  0  0  0  0
    2.7783   -2.9502   -2.2861 C   0  0  0  0  0  0  0  0  0  0  0  0
    3.6036   -3.4154   -3.2928 C   0  0  0  0  0  0  0  0  0  0  0  0
    3.1126   -3.5581   -4.5807 C   0  0  0  0  0  0  0  0  0  0  0  0
    1.7884   -3.2320   -4.8573 C   0  0  0  0  0  0  0  0  0  0  0  0
    0.9652   -2.7708   -3.8426 C   0  0  0  0  0  0  0  0  0  0  0  0
    1.3019   -3.3703   -6.1197 O   0  0  0  0  0  0  0  0  0  0  0  0
    3.9233   -4.0152   -5.5723 O   0  0  0  0  0  0  0  0  0  0  0  0
    0.9106   -2.7646   -0.2319 O   0  0  0  0  0  0  0  0  0  0  0  0
    2.1709   -0.3043   -1.0949 N   0  3  0  0  0  0  0  0  0  0  0  0
    2.3647    1.1518   -1.0831 C   0  0  0  0  0  0  0  0  0  0  0  0
    3.8187    1.4699   -0.7284 C   0  0  0  0  0  0  0  0  0  0  0  0
    2.0409    1.7206   -2.4660 C   0  0  0  0  0  0  0  0  0  0  0  0
   -1.8565    0.2907   -1.2364 H   0  0  0  0  0  0  0  0  0  0  0  0
   -1.7388   -1.3716   -0.6110 H   0  0  0  0  0  0  0  0  0  0  0  0
   -2.1299   -0.0311    0.4928 H   0  0  0  0  0  0  0  0  0  0  0  0
    0.1314    0.9483    0.0465 H   0  0  0  0  0  0  0  0  0  0  0  0
    0.2235   -0.6715    0.7786 H   0  0  0  0  0  0  0  0  0  0  0  0
    3.1622   -2.8395   -1.2827 H   0  0  0  0  0  0  0  0  0  0  0  0
    4.6311   -3.6674   -3.0756 H   0  0  0  0  0  0  0  0  0  0  0  0
   -0.0640   -2.5206   -4.0538 H   0  0  0  0  0  0  0  0  0  0  0  0
    0.9186   -4.2394   -6.3005 H   0  0  0  0  0  0  0  0  0  0  0  0
    3.9154   -4.9767   -5.6749 H   0  0  0  0  0  0  0  0  0  0  0  0
    1.8232   -2.6138    0.0502 H   0  0  0  0  0  0  0  0  0  0  0  0
    2.4675   -0.6903   -0.2111 H   0  0  0  0  0  0  0  0  0  0  0  0
    1.7034    1.6003   -0.3417 H   0  0  0  0  0  0  0  0  0  0  0  0
    4.4800    1.0213   -1.4698 H   0  0  0  0  0  0  0  0  0  0  0  0
    3.9625    2.5503   -0.7196 H   0  0  0  0  0  0  0  0  0  0  0  0
    4.0494    1.0646    0.2568 H   0  0  0  0  0  0  0  0  0  0  0  0
    1.0051    1.4940   -2.7186 H   0  0  0  0  0  0  0  0  0  0  0  0
    2.1847    2.8011   -2.4572 H   0  0  0  0  0  0  0  0  0  0  0  0
    2.7022    1.2721   -3.2073 H   0  0  0  0  0  0  0  0  0  0  0  0
    2.7175   -0.7103   -1.8396 H   0  0  0  0  0  0  0  0  0  0  0  0
  1  2  1  0  0  0  0
  1 20  1  0  0  0  0
  1 21  1  0  0  0  0
  1 22  1  0  0  0  0
  2  3  1  0  0  0  0
  2 23  1  0  0  0  0
  2 24  1  0  0  0  0
  3  4  1  6  0  0  0
  3  5  1  0  0  0  0
  3 16  1  0  0  0  0
  5  6  1  6  0  0  0
  5  7  1  0  0  0  0
  5 15  1  0  0  0  0
  7 12  2  0  0  0  0
  7  8  1  0  0  0  0
  8  9  2  0  0  0  0
  8 25  1  0  0  0  0
  9 10  1  0  0  0  0
  9 26  1  0  0  0  0
 10 11  2  0  0  0  0
 10 14  1  0  0  0  0
 11 12  1  0  0  0  0
 11 13  1  0  0  0  0
 12 27  1  0  0  0  0
 13 28  1  0  0  0  0
 14 29  1  0  0  0  0
 15 30  1  0  0  0  0
 16 17  1  0  0  0  0
 16 31  1  0  0  0  0
 16 39  1  0  0  0  0
 17 18  1  0  0  0  0
 17 19  1  0  0  0  0
 17 32  1  0  0  0  0
 18 33  1  0  0  0  0
 18 34  1  0  0  0  0
 18 35  1  0  0  0  0
 19 36  1  0  0  0  0
 19 37  1  0  0  0  0
 19 38  1  0  0  0  0
M  CHG  1  16   1
M  END
$$$$
