ZINC18067894
 OpenBabel08292219463D

 41 42  0  0  0  0  0  0  0  0999 V2000
   -0.0184    1.5028    0.0103 C   0  0  0  0  0  0  0  0  0  0  0  0
    0.0021   -0.0041    0.0020 C   0  0  0  0  0  0  0  0  0  0  0  0
    0.0203   -0.6159    1.0487 O   0  0  0  0  0  0  0  0  0  0  0  0
   -0.0001   -0.7330   -1.2765 C   0  0  0  0  0  0  0  0  0  0  0  0
   -0.0153   -0.0308   -2.4858 C   0  0  0  0  0  0  0  0  0  0  0  0
   -0.0168   -0.7210   -3.6795 C   0  0  0  0  0  0  0  0  0  0  0  0
   -0.0033   -2.1050   -3.6829 C   0  0  0  0  0  0  0  0  0  0  0  0
    0.0113   -2.8071   -2.4903 C   0  0  0  0  0  0  0  0  0  0  0  0
    0.0188   -2.1313   -1.2883 C   0  0  0  0  0  0  0  0  0  0  0  0
   -0.0053   -2.9777   -5.2136 S   0  0  0  0  0  0  0  0  0  0  0  0
   -0.5418   -4.2660   -4.9459 O   0  0  0  0  0  0  0  0  0  0  0  0
   -0.5713   -2.1024   -6.1794 O   0  0  0  0  0  0  0  0  0  0  0  0
    1.5760   -3.2047   -5.6498 N   0  0  0  0  0  0  0  0  0  0  0  0
    1.8628   -3.8303   -6.7539 C   0  0  0  0  0  0  0  0  0  0  0  0
    0.8707   -4.2946   -7.5446 O   0  5  0  0  0  0  0  0  0  0  0  0
    3.1742   -4.0186   -7.1157 N   0  0  0  0  0  0  0  0  0  0  0  0
    3.4972   -4.7230   -8.3590 C   0  0  0  0  0  0  0  0  0  0  0  0
    3.4700   -3.7349   -9.5268 C   0  0  0  0  0  0  0  0  0  0  0  0
    3.8073   -4.4706  -10.8253 C   0  0  0  0  0  0  0  0  0  0  0  0
    5.2020   -5.0894  -10.7133 C   0  0  0  0  0  0  0  0  0  0  0  0
    5.2293   -6.0775   -9.5454 C   0  0  0  0  0  0  0  0  0  0  0  0
    4.8920   -5.3419   -8.2470 C   0  0  0  0  0  0  0  0  0  0  0  0
    1.0042    1.8801    0.0026 H   0  0  0  0  0  0  0  0  0  0  0  0
   -0.5455    1.8639   -0.8728 H   0  0  0  0  0  0  0  0  0  0  0  0
   -0.5286    1.8543    0.9071 H   0  0  0  0  0  0  0  0  0  0  0  0
   -0.0262    1.0491   -2.4848 H   0  0  0  0  0  0  0  0  0  0  0  0
   -0.0288   -0.1802   -4.6143 H   0  0  0  0  0  0  0  0  0  0  0  0
    0.0214   -3.8870   -2.5011 H   0  0  0  0  0  0  0  0  0  0  0  0
    0.0347   -2.6805   -0.3585 H   0  0  0  0  0  0  0  0  0  0  0  0
    3.8866   -3.6852   -6.5480 H   0  0  0  0  0  0  0  0  0  0  0  0
    2.7633   -5.5101   -8.5318 H   0  0  0  0  0  0  0  0  0  0  0  0
    2.4763   -3.2940   -9.6066 H   0  0  0  0  0  0  0  0  0  0  0  0
    4.2039   -2.9478   -9.3540 H   0  0  0  0  0  0  0  0  0  0  0  0
    3.0733   -5.2577  -10.9981 H   0  0  0  0  0  0  0  0  0  0  0  0
    3.7878   -3.7666  -11.6573 H   0  0  0  0  0  0  0  0  0  0  0  0
    5.4423   -5.6135  -11.6383 H   0  0  0  0  0  0  0  0  0  0  0  0
    5.9360   -4.3023  -10.5404 H   0  0  0  0  0  0  0  0  0  0  0  0
    4.4953   -6.8646   -9.7183 H   0  0  0  0  0  0  0  0  0  0  0  0
    6.2229   -6.5184   -9.4657 H   0  0  0  0  0  0  0  0  0  0  0  0
    5.6259   -4.5547   -8.0742 H   0  0  0  0  0  0  0  0  0  0  0  0
    4.9114   -6.0458   -7.4150 H   0  0  0  0  0  0  0  0  0  0  0  0
  1  2  1  0  0  0  0
  1 23  1  0  0  0  0
  1 24  1  0  0  0  0
  1 25  1  0  0  0  0
  2  3  2  0  0  0  0
  2  4  1  0  0  0  0
  4  9  2  0  0  0  0
  4  5  1  0  0  0  0
  5  6  2  0  0  0  0
  5 26  1  0  0  0  0
  6  7  1  0  0  0  0
  6 27  1  0  0  0  0
  7  8  2  0  0  0  0
  7 10  1  0  0  0  0
  8  9  1  0  0  0  0
  8 28  1  0  0  0  0
  9 29  1  0  0  0  0
 10 11  2  0  0  0  0
 10 12  2  0  0  0  0
 10 13  1  0  0  0  0
 13 14  2  0  0  0  0
 14 15  1  0  0  0  0
 14 16  1  0  0  0  0
 16 17  1  0  0  0  0
 16 30  1  0  0  0  0
 17 22  1  0  0  0  0
 17 18  1  0  0  0  0
 17 31  1  0  0  0  0
 18 19  1  0  0  0  0
 18 32  1  0  0  0  0
 18 33  1  0  0  0  0
 19 20  1  0  0  0  0
 19 34  1  0  0  0  0
 19 35  1  0  0  0  0
 20 21  1  0  0  0  0
 20 36  1  0  0  0  0
 20 37  1  0  0  0  0
 21 22  1  0  0  0  0
 21 38  1  0  0  0  0
 21 39  1  0  0  0  0
 22 40  1  0  0  0  0
 22 41  1  0  0  0  0
M  CHG  1  15  -1
M  END
$$$$
