ZINC03830891
 OpenBabel08292219463D

 36 35  0  0  1  0  0  0  0  0999 V2000
   -0.0187    1.5258    0.0104 C   0  0  0  0  0  0  0  0  0  0  0  0
    0.0021   -0.0041    0.0020 C   0  0  0  0  0  0  0  0  0  0  0  0
   -1.4117   -0.5257    0.0127 C   0  0  0  0  0  0  0  0  0  0  0  0
   -2.3441    0.2498    0.0258 O   0  0  0  0  0  0  0  0  0  0  0  0
   -1.6400   -1.8540    0.0078 N   0  0  0  0  0  0  0  0  0  0  0  0
   -3.0144   -2.3611    0.0182 C   0  0  1  0  0  0  0  0  0  0  0  0
   -3.6410   -1.7002    0.6172 H   0  0  0  0  0  0  0  0  0  0  0  0
   -3.5501   -2.4119   -1.4141 C   0  0  0  0  0  0  0  0  0  0  0  0
   -3.5261   -0.7446   -2.1282 S   0  0  0  0  0  0  0  0  0  0  0  0
   -3.0343   -3.7462    0.6114 C   0  0  0  0  0  0  0  0  0  0  0  0
   -2.0021   -4.2593    0.9884 O   0  0  0  0  0  0  0  0  0  0  0  0
   -4.1992   -4.4148    0.7230 N   0  0  0  0  0  0  0  0  0  0  0  0
   -4.2185   -5.7614    1.2997 C   0  0  0  0  0  0  0  0  0  0  0  0
   -5.6323   -6.2830    1.3104 C   0  0  0  0  0  0  0  0  0  0  0  0
   -6.5397   -5.5939    0.8765 O   0  0  0  0  0  0  0  0  0  0  0  0
   -5.8688   -7.3942    1.7530 O   0  0  0  0  0  1  0  0  0  0  0  0
    1.4167    2.0553   -0.0004 C   0  0  1  0  0  0  0  0  0  0  0  0
    1.9535    1.6326   -0.8497 H   0  0  0  0  0  0  0  0  0  0  0  0
    1.3970    3.5578   -0.1160 C   0  0  0  0  0  0  0  0  0  0  0  0
    1.7295    4.2467    0.8334 O   0  0  0  0  0  0  0  0  0  0  0  0
    1.0484    4.0844   -1.1589 O   0  0  0  0  0  1  0  0  0  0  0  0
    2.0906    1.6690    1.2464 N   0  3  0  0  0  0  0  0  0  0  0  0
   -0.5459    1.8868   -0.8726 H   0  0  0  0  0  0  0  0  0  0  0  0
   -0.5289    1.8773    0.9072 H   0  0  0  0  0  0  0  0  0  0  0  0
    0.5123   -0.3556   -0.8948 H   0  0  0  0  0  0  0  0  0  0  0  0
    0.5293   -0.3651    0.8851 H   0  0  0  0  0  0  0  0  0  0  0  0
   -0.8943   -2.4742   -0.0027 H   0  0  0  0  0  0  0  0  0  0  0  0
   -2.9235   -3.0728   -2.0131 H   0  0  0  0  0  0  0  0  0  0  0  0
   -4.5727   -2.7892   -1.4064 H   0  0  0  0  0  0  0  0  0  0  0  0
   -4.0126   -0.9156   -3.3704 H   0  0  0  0  0  0  0  0  0  0  0  0
   -5.0248   -4.0045    0.4215 H   0  0  0  0  0  0  0  0  0  0  0  0
   -3.5920   -6.4222    0.7007 H   0  0  0  0  0  0  0  0  0  0  0  0
   -3.8369   -5.7252    2.3201 H   0  0  0  0  0  0  0  0  0  0  0  0
    1.5937    2.0603    2.0325 H   0  0  0  0  0  0  0  0  0  0  0  0
    2.1039    0.6630    1.3237 H   0  0  0  0  0  0  0  0  0  0  0  0
    3.0372    2.0182    1.2392 H   0  0  0  0  0  0  0  0  0  0  0  0
  1  2  1  0  0  0  0
  1 17  1  0  0  0  0
  1 23  1  0  0  0  0
  1 24  1  0  0  0  0
  2  3  1  0  0  0  0
  2 25  1  0  0  0  0
  2 26  1  0  0  0  0
  3  4  2  0  0  0  0
  3  5  1  0  0  0  0
  5  6  1  0  0  0  0
  5 27  1  0  0  0  0
  6  7  1  1  0  0  0
  6  8  1  0  0  0  0
  6 10  1  0  0  0  0
  8  9  1  0  0  0  0
  8 28  1  0  0  0  0
  8 29  1  0  0  0  0
  9 30  1  0  0  0  0
 10 11  2  0  0  0  0
 10 12  1  0  0  0  0
 12 13  1  0  0  0  0
 12 31  1  0  0  0  0
 13 14  1  0  0  0  0
 13 32  1  0  0  0  0
 13 33  1  0  0  0  0
 14 15  2  0  0  0  0
 14 16  1  0  0  0  0
 17 18  1  6  0  0  0
 17 19  1  0  0  0  0
 17 22  1  0  0  0  0
 19 20  2  0  0  0  0
 19 21  1  0  0  0  0
 22 34  1  0  0  0  0
 22 35  1  0  0  0  0
 22 36  1  0  0  0  0
M  CHG  1  22   1
M  END
$$$$
