ZINC00591993
 OpenBabel08292219463D

 52 53  0  0  1  0  0  0  0  0999 V2000
   -0.9523    1.7471    2.4510 C   0  0  0  0  0  0  0  0  0  0  0  0
   -0.9151    0.5612    1.5218 C   0  0  0  0  0  0  0  0  0  0  0  0
   -2.0152   -0.1958    1.3672 C   0  0  0  0  0  0  0  0  0  0  0  0
   -2.0213   -1.3924    0.4588 C   0  0  1  0  0  0  0  0  0  0  0  0
   -2.9432   -1.3969   -0.1226 H   0  0  0  0  0  0  0  0  0  0  0  0
   -0.8464   -1.3560   -0.4769 C   0  0  0  0  0  0  0  0  0  0  0  0
    0.2068   -0.5526   -0.2485 C   0  0  0  0  0  0  0  0  0  0  0  0
    0.2361    0.2715    0.8416 N   0  0  0  0  0  0  0  0  0  0  0  0
    1.3676   -0.5559   -1.2096 C   0  0  0  0  0  0  0  0  0  0  0  0
   -0.8485   -2.1852   -1.6224 C   0  0  0  0  0  0  0  0  0  0  0  0
   -1.4124   -1.8199   -2.6370 O   0  0  0  0  0  0  0  0  0  0  0  0
   -0.2250   -3.3816   -1.5904 O   0  0  0  0  0  0  0  0  0  0  0  0
   -0.2670   -4.1672   -2.7834 C   0  0  0  0  0  0  0  0  0  0  0  0
    0.4875   -5.4788   -2.5572 C   0  0  0  0  0  0  0  0  0  0  0  0
    0.3373   -6.3726   -3.7899 C   0  0  0  0  0  0  0  0  0  0  0  0
    1.9694   -5.1805   -2.3210 C   0  0  0  0  0  0  0  0  0  0  0  0
   -1.9533   -2.6472    1.2907 C   0  0  0  0  0  0  0  0  0  0  0  0
   -0.9607   -2.7930    2.2419 C   0  0  0  0  0  0  0  0  0  0  0  0
   -0.8983   -3.9439    3.0048 C   0  0  0  0  0  0  0  0  0  0  0  0
   -1.8288   -4.9490    2.8170 C   0  0  0  0  0  0  0  0  0  0  0  0
   -2.8217   -4.8028    1.8667 C   0  0  0  0  0  0  0  0  0  0  0  0
   -2.8866   -3.6498    1.1065 C   0  0  0  0  0  0  0  0  0  0  0  0
   -3.9530   -3.4911    0.0923 N   0  0  0  0  0  4  0  0  0  0  0  0
   -4.9752   -4.1300    0.1848 O   0  0  0  0  0  0  0  0  0  0  0  0
   -3.8018   -2.7225   -0.8286 O   0  5  0  0  0  0  0  0  0  0  0  0
   -3.1919    0.1412    2.0754 C   0  0  0  0  0  0  0  0  0  0  0  0
   -3.2013    1.1075    2.8149 O   0  0  0  0  0  0  0  0  0  0  0  0
   -4.3045   -0.6088    1.9309 O   0  0  0  0  0  0  0  0  0  0  0  0
   -5.4567   -0.2104    2.6764 C   0  0  0  0  0  0  0  0  0  0  0  0
    0.0189    2.2421    2.4473 H   0  0  0  0  0  0  0  0  0  0  0  0
   -1.7180    2.4469    2.1164 H   0  0  0  0  0  0  0  0  0  0  0  0
   -1.1845    1.4100    3.4612 H   0  0  0  0  0  0  0  0  0  0  0  0
    1.0793    0.6495    1.1366 H   0  0  0  0  0  0  0  0  0  0  0  0
    1.2036    0.1977   -1.9799 H   0  0  0  0  0  0  0  0  0  0  0  0
    2.2870   -0.3294   -0.6696 H   0  0  0  0  0  0  0  0  0  0  0  0
    1.4517   -1.5382   -1.6743 H   0  0  0  0  0  0  0  0  0  0  0  0
   -1.3042   -4.3840   -3.0393 H   0  0  0  0  0  0  0  0  0  0  0  0
    0.2005   -3.6150   -3.5987 H   0  0  0  0  0  0  0  0  0  0  0  0
    0.0762   -5.9890   -1.6862 H   0  0  0  0  0  0  0  0  0  0  0  0
    0.7486   -5.8625   -4.6609 H   0  0  0  0  0  0  0  0  0  0  0  0
    0.8749   -7.3071   -3.6287 H   0  0  0  0  0  0  0  0  0  0  0  0
   -0.7184   -6.5851   -3.9582 H   0  0  0  0  0  0  0  0  0  0  0  0
    2.0763   -4.5438   -1.4428 H   0  0  0  0  0  0  0  0  0  0  0  0
    2.5069   -6.1150   -2.1598 H   0  0  0  0  0  0  0  0  0  0  0  0
    2.3807   -4.6703   -3.1920 H   0  0  0  0  0  0  0  0  0  0  0  0
   -0.2338   -2.0079    2.3886 H   0  0  0  0  0  0  0  0  0  0  0  0
   -0.1225   -4.0581    3.7474 H   0  0  0  0  0  0  0  0  0  0  0  0
   -1.7797   -5.8486    3.4127 H   0  0  0  0  0  0  0  0  0  0  0  0
   -3.5484   -5.5882    1.7197 H   0  0  0  0  0  0  0  0  0  0  0  0
   -6.2784   -0.8961    2.4693 H   0  0  0  0  0  0  0  0  0  0  0  0
   -5.2256   -0.2314    3.7414 H   0  0  0  0  0  0  0  0  0  0  0  0
   -5.7452    0.8001    2.3870 H   0  0  0  0  0  0  0  0  0  0  0  0
  1  2  1  0  0  0  0
  1 30  1  0  0  0  0
  1 31  1  0  0  0  0
  1 32  1  0  0  0  0
  2  8  1  0  0  0  0
  2  3  2  0  0  0  0
  3  4  1  0  0  0  0
  3 26  1  0  0  0  0
  4  5  1  6  0  0  0
  4  6  1  0  0  0  0
  4 17  1  0  0  0  0
  6  7  2  0  0  0  0
  6 10  1  0  0  0  0
  7  8  1  0  0  0  0
  7  9  1  0  0  0  0
  8 33  1  0  0  0  0
  9 34  1  0  0  0  0
  9 35  1  0  0  0  0
  9 36  1  0  0  0  0
 10 11  2  0  0  0  0
 10 12  1  0  0  0  0
 12 13  1  0  0  0  0
 13 14  1  0  0  0  0
 13 37  1  0  0  0  0
 13 38  1  0  0  0  0
 14 15  1  0  0  0  0
 14 16  1  0  0  0  0
 14 39  1  0  0  0  0
 15 40  1  0  0  0  0
 15 41  1  0  0  0  0
 15 42  1  0  0  0  0
 16 43  1  0  0  0  0
 16 44  1  0  0  0  0
 16 45  1  0  0  0  0
 17 22  2  0  0  0  0
 17 18  1  0  0  0  0
 18 19  2  0  0  0  0
 18 46  1  0  0  0  0
 19 20  1  0  0  0  0
 19 47  1  0  0  0  0
 20 21  2  0  0  0  0
 20 48  1  0  0  0  0
 21 22  1  0  0  0  0
 21 49  1  0  0  0  0
 22 23  1  0  0  0  0
 23 24  2  0  0  0  0
 23 25  1  0  0  0  0
 26 27  2  0  0  0  0
 26 28  1  0  0  0  0
 28 29  1  0  0  0  0
 29 50  1  0  0  0  0
 29 51  1  0  0  0  0
 29 52  1  0  0  0  0
M  CHG  1  25  -1
M  END
$$$$
