ZINC64622553
 OpenBabel08292219463D

 58 61  0  0  1  0  0  0  0  0999 V2000
    0.1150    1.3477   -0.2450 C   0  0  0  0  0  0  0  0  0  0  0  0
    1.2753    2.0616    0.0035 C   0  0  0  0  0  0  0  0  0  0  0  0
    2.4421    1.3997    0.3256 C   0  0  0  0  0  0  0  0  0  0  0  0
    2.4622    0.0103    0.4083 C   0  0  0  0  0  0  0  0  0  0  0  0
    1.2913   -0.7129    0.1670 C   0  0  0  0  0  0  0  0  0  0  0  0
    0.1173   -0.0279   -0.1665 C   0  0  0  0  0  0  0  0  0  0  0  0
    1.2466   -2.1817    0.2663 C   0  0  0  0  0  0  0  0  0  0  0  0
    0.0642   -2.7815    0.3112 C   0  0  0  0  0  0  0  0  0  0  0  0
   -0.0223   -4.2838    0.2296 C   0  0  0  0  0  0  0  0  0  0  0  0
   -0.6137   -4.8320    1.5298 C   0  0  0  0  0  0  0  0  0  0  0  0
   -0.6980   -6.2964    1.4502 N   0  3  0  0  0  0  0  0  0  0  0  0
   -1.6504   -6.6752    0.3981 C   0  0  0  0  0  0  0  0  0  0  0  0
   -1.7244   -8.2007    0.3021 C   0  0  0  0  0  0  0  0  0  0  0  0
   -2.1534   -8.7499    1.5961 N   0  0  0  0  0  0  0  0  0  0  0  0
   -1.2227   -8.3579    2.6639 C   0  0  0  0  0  0  0  0  0  0  0  0
   -1.1528   -6.8311    2.7404 C   0  0  0  0  0  0  0  0  0  0  0  0
   -2.2916  -10.2108    1.5282 C   0  0  0  0  0  0  0  0  0  0  0  0
   -2.9720  -10.7185    2.8011 C   0  0  0  0  0  0  0  0  0  0  0  0
   -4.3080  -10.2148    2.8604 O   0  0  0  0  0  0  0  0  0  0  0  0
    2.4808   -3.0235    0.3181 C   0  0  1  0  0  0  0  0  0  0  0  0
    2.2031   -4.0348    0.6150 H   0  0  0  0  0  0  0  0  0  0  0  0
    3.1739   -3.0843   -1.0146 C   0  0  0  0  0  0  0  0  0  0  0  0
    4.4517   -3.4660   -1.0542 C   0  0  0  0  0  0  0  0  0  0  0  0
    5.1352   -3.8263    0.2007 C   0  0  0  0  0  0  0  0  0  0  0  0
    4.6825   -3.3614    1.3622 C   0  0  0  0  0  0  0  0  0  0  0  0
    3.4652   -2.4591    1.3518 C   0  0  1  0  0  0  0  0  0  0  0  0
    3.0115   -2.4315    2.3425 H   0  0  0  0  0  0  0  0  0  0  0  0
    3.9732   -0.7992    0.8116 S   0  0  0  0  0  0  0  0  0  0  0  0
    5.1878   -3.5283   -2.3677 C   0  0  0  0  0  0  0  0  0  0  0  0
    5.8882   -2.3337   -2.5669 F   0  0  0  0  0  0  0  0  0  0  0  0
    6.0882   -4.5988   -2.3473 F   0  0  0  0  0  0  0  0  0  0  0  0
    4.2705   -3.7102   -3.4082 F   0  0  0  0  0  0  0  0  0  0  0  0
   -0.7955    1.8710   -0.4966 H   0  0  0  0  0  0  0  0  0  0  0  0
    1.2669    3.1400   -0.0554 H   0  0  0  0  0  0  0  0  0  0  0  0
    3.3444    1.9624    0.5148 H   0  0  0  0  0  0  0  0  0  0  0  0
   -0.7904   -0.5794   -0.3625 H   0  0  0  0  0  0  0  0  0  0  0  0
   -0.8365   -2.1931    0.4062 H   0  0  0  0  0  0  0  0  0  0  0  0
   -0.6609   -4.5660   -0.6075 H   0  0  0  0  0  0  0  0  0  0  0  0
    0.9751   -4.6976    0.0812 H   0  0  0  0  0  0  0  0  0  0  0  0
    0.0249   -4.5497    2.3668 H   0  0  0  0  0  0  0  0  0  0  0  0
   -1.6111   -4.4181    1.6781 H   0  0  0  0  0  0  0  0  0  0  0  0
   -2.6362   -6.2782    0.6402 H   0  0  0  0  0  0  0  0  0  0  0  0
   -1.3186   -6.2668   -0.5565 H   0  0  0  0  0  0  0  0  0  0  0  0
   -2.4422   -8.4822   -0.4684 H   0  0  0  0  0  0  0  0  0  0  0  0
   -0.7418   -8.5972    0.0465 H   0  0  0  0  0  0  0  0  0  0  0  0
   -1.5744   -8.7541    3.6165 H   0  0  0  0  0  0  0  0  0  0  0  0
   -0.2318   -8.7569    2.4473 H   0  0  0  0  0  0  0  0  0  0  0  0
   -0.4522   -6.5383    3.5224 H   0  0  0  0  0  0  0  0  0  0  0  0
   -2.1411   -6.4333    2.9706 H   0  0  0  0  0  0  0  0  0  0  0  0
   -2.8959  -10.4787    0.6616 H   0  0  0  0  0  0  0  0  0  0  0  0
   -1.3050  -10.6652    1.4376 H   0  0  0  0  0  0  0  0  0  0  0  0
   -2.9946  -11.8082    2.7911 H   0  0  0  0  0  0  0  0  0  0  0  0
   -2.4150  -10.3746    3.6727 H   0  0  0  0  0  0  0  0  0  0  0  0
   -4.8004  -10.4971    3.6433 H   0  0  0  0  0  0  0  0  0  0  0  0
    2.6481   -2.8247   -1.9216 H   0  0  0  0  0  0  0  0  0  0  0  0
    6.0034   -4.4682    0.1774 H   0  0  0  0  0  0  0  0  0  0  0  0
    5.1812   -3.6142    2.2863 H   0  0  0  0  0  0  0  0  0  0  0  0
    0.2118   -6.6741    1.2317 H   0  0  0  0  0  0  0  0  0  0  0  0
  1  6  2  0  0  0  0
  1  2  1  0  0  0  0
  1 33  1  0  0  0  0
  2  3  2  0  0  0  0
  2 34  1  0  0  0  0
  3  4  1  0  0  0  0
  3 35  1  0  0  0  0
  4 28  1  0  0  0  0
  4  5  2  0  0  0  0
  5  6  1  0  0  0  0
  5  7  1  0  0  0  0
  6 36  1  0  0  0  0
  7  8  2  0  0  0  0
  7 20  1  0  0  0  0
  8  9  1  0  0  0  0
  8 37  1  0  0  0  0
  9 10  1  0  0  0  0
  9 38  1  0  0  0  0
  9 39  1  0  0  0  0
 10 11  1  0  0  0  0
 10 40  1  0  0  0  0
 10 41  1  0  0  0  0
 11 16  1  0  0  0  0
 11 12  1  0  0  0  0
 11 58  1  0  0  0  0
 12 13  1  0  0  0  0
 12 42  1  0  0  0  0
 12 43  1  0  0  0  0
 13 14  1  0  0  0  0
 13 44  1  0  0  0  0
 13 45  1  0  0  0  0
 14 15  1  0  0  0  0
 14 17  1  0  0  0  0
 15 16  1  0  0  0  0
 15 46  1  0  0  0  0
 15 47  1  0  0  0  0
 16 48  1  0  0  0  0
 16 49  1  0  0  0  0
 17 18  1  0  0  0  0
 17 50  1  0  0  0  0
 17 51  1  0  0  0  0
 18 19  1  0  0  0  0
 18 52  1  0  0  0  0
 18 53  1  0  0  0  0
 19 54  1  0  0  0  0
 20 21  1  1  0  0  0
 20 26  1  0  0  0  0
 20 22  1  0  0  0  0
 22 23  2  0  0  0  0
 22 55  1  0  0  0  0
 23 24  1  0  0  0  0
 23 29  1  0  0  0  0
 24 25  2  0  0  0  0
 24 56  1  0  0  0  0
 25 26  1  0  0  0  0
 25 57  1  0  0  0  0
 26 27  1  1  0  0  0
 26 28  1  0  0  0  0
 29 30  1  0  0  0  0
 29 31  1  0  0  0  0
 29 32  1  0  0  0  0
M  CHG  1  11   1
M  END
$$$$
