ZINC00968303
 OpenBabel08292219463D

 31 31  0  0  0  0  0  0  0  0999 V2000
   -0.0187    1.5258    0.0104 C   0  0  0  0  0  0  0  0  0  0  0  0
    0.0021   -0.0041    0.0020 C   0  0  0  0  0  0  0  0  0  0  0  0
    0.7421   -0.5109    1.2415 C   0  0  0  0  0  0  0  0  0  0  0  0
   -1.4117   -0.5257    0.0127 C   0  0  0  0  0  0  0  0  0  0  0  0
   -2.2591   -0.2048    1.0555 C   0  0  0  0  0  0  0  0  0  0  0  0
   -3.5563   -0.6832    1.0659 C   0  0  0  0  0  0  0  0  0  0  0  0
   -4.0089   -1.4835    0.0333 C   0  0  0  0  0  0  0  0  0  0  0  0
   -3.1655   -1.8072   -1.0118 C   0  0  0  0  0  0  0  0  0  0  0  0
   -1.8651   -1.3238   -1.0275 C   0  0  0  0  0  0  0  0  0  0  0  0
   -1.0353   -1.6359   -2.0575 O   0  0  0  0  0  0  0  0  0  0  0  0
   -3.6593   -2.6796   -2.1370 C   0  0  0  0  0  0  0  0  0  0  0  0
   -4.0923   -4.0364   -1.5781 C   0  0  0  0  0  0  0  0  0  0  0  0
   -4.8512   -2.0054   -2.8196 C   0  0  0  0  0  0  0  0  0  0  0  0
    1.0039    1.9031    0.0027 H   0  0  0  0  0  0  0  0  0  0  0  0
   -0.5459    1.8868   -0.8726 H   0  0  0  0  0  0  0  0  0  0  0  0
   -0.5289    1.8773    0.9072 H   0  0  0  0  0  0  0  0  0  0  0  0
    0.5123   -0.3556   -0.8948 H   0  0  0  0  0  0  0  0  0  0  0  0
    1.7647   -0.1336    1.2338 H   0  0  0  0  0  0  0  0  0  0  0  0
    0.2319   -0.1594    2.1383 H   0  0  0  0  0  0  0  0  0  0  0  0
    0.7568   -1.6008    1.2356 H   0  0  0  0  0  0  0  0  0  0  0  0
   -1.9078    0.4198    1.8635 H   0  0  0  0  0  0  0  0  0  0  0  0
   -4.2171   -0.4315    1.8823 H   0  0  0  0  0  0  0  0  0  0  0  0
   -5.0225   -1.8561    0.0439 H   0  0  0  0  0  0  0  0  0  0  0  0
   -0.5259   -2.4463   -1.9205 H   0  0  0  0  0  0  0  0  0  0  0  0
   -2.8591   -2.8242   -2.8628 H   0  0  0  0  0  0  0  0  0  0  0  0
   -4.8926   -3.8918   -0.8523 H   0  0  0  0  0  0  0  0  0  0  0  0
   -4.4495   -4.6674   -2.3919 H   0  0  0  0  0  0  0  0  0  0  0  0
   -3.2432   -4.5167   -1.0918 H   0  0  0  0  0  0  0  0  0  0  0  0
   -5.6515   -1.8608   -2.0939 H   0  0  0  0  0  0  0  0  0  0  0  0
   -4.5428   -1.0388   -3.2178 H   0  0  0  0  0  0  0  0  0  0  0  0
   -5.2084   -2.6364   -3.6335 H   0  0  0  0  0  0  0  0  0  0  0  0
  1  2  1  0  0  0  0
  1 14  1  0  0  0  0
  1 15  1  0  0  0  0
  1 16  1  0  0  0  0
  2  3  1  0  0  0  0
  2  4  1  0  0  0  0
  2 17  1  0  0  0  0
  3 18  1  0  0  0  0
  3 19  1  0  0  0  0
  3 20  1  0  0  0  0
  4  9  2  0  0  0  0
  4  5  1  0  0  0  0
  5  6  2  0  0  0  0
  5 21  1  0  0  0  0
  6  7  1  0  0  0  0
  6 22  1  0  0  0  0
  7  8  2  0  0  0  0
  7 23  1  0  0  0  0
  8  9  1  0  0  0  0
  8 11  1  0  0  0  0
  9 10  1  0  0  0  0
 10 24  1  0  0  0  0
 11 12  1  0  0  0  0
 11 13  1  0  0  0  0
 11 25  1  0  0  0  0
 12 26  1  0  0  0  0
 12 27  1  0  0  0  0
 12 28  1  0  0  0  0
 13 29  1  0  0  0  0
 13 30  1  0  0  0  0
 13 31  1  0  0  0  0
M  END
$$$$
