ZINC00896836
 OpenBabel08292219463D

 42 43  0  0  1  0  0  0  0  0999 V2000
   -0.0187    1.5258    0.0104 C   0  0  0  0  0  0  0  0  0  0  0  0
    0.0021   -0.0041    0.0020 C   0  0  0  0  0  0  0  0  0  0  0  0
   -1.4333   -0.5336    0.0129 C   0  0  0  0  0  0  0  0  0  0  0  0
    0.6897   -0.4778   -1.2066 N   0  3  0  0  0  0  0  0  0  0  0  0
    2.1002   -0.0703   -1.1590 C   0  0  0  0  0  0  0  0  0  0  0  0
    2.8163   -0.5637   -2.4178 C   0  0  2  0  0  0  0  0  0  0  0  0
    2.8341   -1.6535   -2.4291 H   0  0  0  0  0  0  0  0  0  0  0  0
    4.2509   -0.0203   -2.4463 C   0  0  0  0  0  0  0  0  0  0  0  0
    4.9671   -0.5816   -3.6745 C   0  0  0  0  0  0  0  0  0  0  0  0
    4.1453   -0.3507   -4.9151 C   0  0  0  0  0  0  0  0  0  0  0  0
    4.7724   -0.3817   -6.1497 C   0  0  0  0  0  0  0  0  0  0  0  0
    4.0455   -0.1761   -7.3060 C   0  0  0  0  0  0  0  0  0  0  0  0
    2.6846    0.0614   -7.2384 C   0  0  0  0  0  0  0  0  0  0  0  0
    2.0518    0.0944   -6.0122 C   0  0  0  0  0  0  0  0  0  0  0  0
    2.7820   -0.1104   -4.8464 C   0  0  0  0  0  0  0  0  0  0  0  0
    2.1223   -0.0650   -3.6129 N   0  0  0  0  0  0  0  0  0  0  0  0
    1.9079    0.2794   -8.4792 N   0  0  0  0  0  4  0  0  0  0  0  0
    0.7184    0.4870   -8.4192 O   0  0  0  0  0  0  0  0  0  0  0  0
    2.4629    0.2500   -9.5529 O   0  5  0  0  0  0  0  0  0  0  0  0
    4.7370   -0.2102   -8.6446 C   0  0  0  0  0  0  0  0  0  0  0  0
    6.1293   -0.4699   -8.4550 O   0  0  0  0  0  0  0  0  0  0  0  0
    1.0039    1.9031    0.0027 H   0  0  0  0  0  0  0  0  0  0  0  0
   -0.5459    1.8868   -0.8726 H   0  0  0  0  0  0  0  0  0  0  0  0
   -0.5289    1.8773    0.9072 H   0  0  0  0  0  0  0  0  0  0  0  0
    0.5293   -0.3651    0.8851 H   0  0  0  0  0  0  0  0  0  0  0  0
   -1.9605   -0.1726   -0.8702 H   0  0  0  0  0  0  0  0  0  0  0  0
   -1.4185   -1.6235    0.0069 H   0  0  0  0  0  0  0  0  0  0  0  0
   -1.9435   -0.1821    0.9097 H   0  0  0  0  0  0  0  0  0  0  0  0
    0.6317   -1.4840   -1.2540 H   0  0  0  0  0  0  0  0  0  0  0  0
    2.1628    1.0167   -1.1079 H   0  0  0  0  0  0  0  0  0  0  0  0
    2.5740   -0.5034   -0.2781 H   0  0  0  0  0  0  0  0  0  0  0  0
    4.2282    1.0680   -2.5023 H   0  0  0  0  0  0  0  0  0  0  0  0
    4.7769   -0.3305   -1.5433 H   0  0  0  0  0  0  0  0  0  0  0  0
    5.9329   -0.0883   -3.7851 H   0  0  0  0  0  0  0  0  0  0  0  0
    5.1258   -1.6517   -3.5414 H   0  0  0  0  0  0  0  0  0  0  0  0
    5.8347   -0.5672   -6.2084 H   0  0  0  0  0  0  0  0  0  0  0  0
    0.9892    0.2796   -5.9581 H   0  0  0  0  0  0  0  0  0  0  0  0
    1.2220    0.2901   -3.5479 H   0  0  0  0  0  0  0  0  0  0  0  0
    4.3008   -0.9979   -9.2589 H   0  0  0  0  0  0  0  0  0  0  0  0
    4.6112    0.7509   -9.1431 H   0  0  0  0  0  0  0  0  0  0  0  0
    6.6382   -0.5058   -9.2765 H   0  0  0  0  0  0  0  0  0  0  0  0
    0.2511   -0.0769   -2.0221 H   0  0  0  0  0  0  0  0  0  0  0  0
  1  2  1  0  0  0  0
  1 22  1  0  0  0  0
  1 23  1  0  0  0  0
  1 24  1  0  0  0  0
  2  3  1  0  0  0  0
  2  4  1  0  0  0  0
  2 25  1  0  0  0  0
  3 26  1  0  0  0  0
  3 27  1  0  0  0  0
  3 28  1  0  0  0  0
  4  5  1  0  0  0  0
  4 29  1  0  0  0  0
  4 42  1  0  0  0  0
  5  6  1  0  0  0  0
  5 30  1  0  0  0  0
  5 31  1  0  0  0  0
  6  7  1  6  0  0  0
  6 16  1  0  0  0  0
  6  8  1  0  0  0  0
  8  9  1  0  0  0  0
  8 32  1  0  0  0  0
  8 33  1  0  0  0  0
  9 10  1  0  0  0  0
  9 34  1  0  0  0  0
  9 35  1  0  0  0  0
 10 15  2  0  0  0  0
 10 11  1  0  0  0  0
 11 12  2  0  0  0  0
 11 36  1  0  0  0  0
 12 13  1  0  0  0  0
 12 20  1  0  0  0  0
 13 14  2  0  0  0  0
 13 17  1  0  0  0  0
 14 15  1  0  0  0  0
 14 37  1  0  0  0  0
 15 16  1  0  0  0  0
 16 38  1  0  0  0  0
 17 18  2  0  0  0  0
 17 19  1  0  0  0  0
 20 21  1  0  0  0  0
 20 39  1  0  0  0  0
 20 40  1  0  0  0  0
 21 41  1  0  0  0  0
M  CHG  2   4   1  19  -1
M  END
$$$$
