ZINC00020237
 OpenBabel08292219463D

 40 40  0  0  0  0  0  0  0  0999 V2000
   -3.0258    1.0703    1.2910 C   0  0  0  0  0  0  0  0  0  0  0  0
   -2.0090   -0.0625    1.1370 C   0  0  0  0  0  0  0  0  0  0  0  0
   -2.7034   -1.2923    0.7328 N   0  3  0  0  0  0  0  0  0  0  0  0
   -3.2718   -1.1148   -0.6102 C   0  0  0  0  0  0  0  0  0  0  0  0
   -4.1198   -2.3362   -0.9706 C   0  0  0  0  0  0  0  0  0  0  0  0
   -1.7506   -2.4102    0.7174 C   0  0  0  0  0  0  0  0  0  0  0  0
   -1.2601   -2.6714    2.1182 C   0  0  0  0  0  0  0  0  0  0  0  0
   -1.6645   -1.9931    3.0388 O   0  0  0  0  0  0  0  0  0  0  0  0
   -0.3721   -3.6589    2.3481 N   0  0  0  0  0  0  0  0  0  0  0  0
    0.0434   -3.9358    3.6553 C   0  0  0  0  0  0  0  0  0  0  0  0
   -0.1264   -5.2084    4.1845 C   0  0  0  0  0  0  0  0  0  0  0  0
    0.2847   -5.4785    5.4751 C   0  0  0  0  0  0  0  0  0  0  0  0
    0.8650   -4.4834    6.2400 C   0  0  0  0  0  0  0  0  0  0  0  0
    1.0351   -3.2150    5.7161 C   0  0  0  0  0  0  0  0  0  0  0  0
    0.6317   -2.9401    4.4241 C   0  0  0  0  0  0  0  0  0  0  0  0
    0.8241   -1.5595    3.8514 C   0  0  0  0  0  0  0  0  0  0  0  0
   -0.7592   -6.2934    3.3518 C   0  0  0  0  0  0  0  0  0  0  0  0
   -2.5301    1.9503    1.7008 H   0  0  0  0  0  0  0  0  0  0  0  0
   -3.4498    1.3129    0.3166 H   0  0  0  0  0  0  0  0  0  0  0  0
   -3.8220    0.7547    1.9653 H   0  0  0  0  0  0  0  0  0  0  0  0
   -1.2764    0.2078    0.3766 H   0  0  0  0  0  0  0  0  0  0  0  0
   -1.5020   -0.2273    2.0877 H   0  0  0  0  0  0  0  0  0  0  0  0
   -3.8963   -0.2216   -0.6253 H   0  0  0  0  0  0  0  0  0  0  0  0
   -2.4648   -1.0062   -1.3348 H   0  0  0  0  0  0  0  0  0  0  0  0
   -4.6331   -2.1563   -1.9152 H   0  0  0  0  0  0  0  0  0  0  0  0
   -3.4755   -3.2100   -1.0679 H   0  0  0  0  0  0  0  0  0  0  0  0
   -4.8550   -2.5126   -0.1854 H   0  0  0  0  0  0  0  0  0  0  0  0
   -2.2440   -3.3028    0.3329 H   0  0  0  0  0  0  0  0  0  0  0  0
   -0.9050   -2.1582    0.0775 H   0  0  0  0  0  0  0  0  0  0  0  0
   -0.0210   -4.1776    1.6075 H   0  0  0  0  0  0  0  0  0  0  0  0
    0.1526   -6.4679    5.8874 H   0  0  0  0  0  0  0  0  0  0  0  0
    1.1857   -4.6971    7.2489 H   0  0  0  0  0  0  0  0  0  0  0  0
    1.4883   -2.4398    6.3161 H   0  0  0  0  0  0  0  0  0  0  0  0
    0.0032   -0.9167    4.1693 H   0  0  0  0  0  0  0  0  0  0  0  0
    1.7678   -1.1466    4.2076 H   0  0  0  0  0  0  0  0  0  0  0  0
    0.8403   -1.6166    2.7630 H   0  0  0  0  0  0  0  0  0  0  0  0
    0.0205   -6.8768    2.8620 H   0  0  0  0  0  0  0  0  0  0  0  0
   -1.3516   -6.9453    3.9938 H   0  0  0  0  0  0  0  0  0  0  0  0
   -1.4040   -5.8429    2.5973 H   0  0  0  0  0  0  0  0  0  0  0  0
   -3.4445   -1.4909    1.3880 H   0  0  0  0  0  0  0  0  0  0  0  0
  1  2  1  0  0  0  0
  1 18  1  0  0  0  0
  1 19  1  0  0  0  0
  1 20  1  0  0  0  0
  2  3  1  0  0  0  0
  2 21  1  0  0  0  0
  2 22  1  0  0  0  0
  3  4  1  0  0  0  0
  3  6  1  0  0  0  0
  3 40  1  0  0  0  0
  4  5  1  0  0  0  0
  4 23  1  0  0  0  0
  4 24  1  0  0  0  0
  5 25  1  0  0  0  0
  5 26  1  0  0  0  0
  5 27  1  0  0  0  0
  6  7  1  0  0  0  0
  6 28  1  0  0  0  0
  6 29  1  0  0  0  0
  7  8  2  0  0  0  0
  7  9  1  0  0  0  0
  9 10  1  0  0  0  0
  9 30  1  0  0  0  0
 10 15  2  0  0  0  0
 10 11  1  0  0  0  0
 11 12  2  0  0  0  0
 11 17  1  0  0  0  0
 12 13  1  0  0  0  0
 12 31  1  0  0  0  0
 13 14  2  0  0  0  0
 13 32  1  0  0  0  0
 14 15  1  0  0  0  0
 14 33  1  0  0  0  0
 15 16  1  0  0  0  0
 16 34  1  0  0  0  0
 16 35  1  0  0  0  0
 16 36  1  0  0  0  0
 17 37  1  0  0  0  0
 17 38  1  0  0  0  0
 17 39  1  0  0  0  0
M  CHG  1   3   1
M  END
$$$$
