ZINC18456289
 OpenBabel08292219463D

 49 51  0  0  1  0  0  0  0  0999 V2000
   -0.0169    1.3937    0.0097 C   0  0  0  0  0  0  0  0  0  0  0  0
    1.1662    2.0965    0.0022 C   0  0  0  0  0  0  0  0  0  0  0  0
    2.3811    1.4169   -0.0131 C   0  0  0  0  0  0  0  0  0  0  0  0
    2.4034    0.0249   -0.0208 C   0  0  0  0  0  0  0  0  0  0  0  0
    1.2237   -0.6836   -0.0138 C   0  0  0  0  0  0  0  0  0  0  0  0
    0.0021   -0.0041    0.0020 C   0  0  0  0  0  0  0  0  0  0  0  0
   -1.2644   -0.7605    0.0105 C   0  0  0  0  0  0  0  0  0  0  0  0
   -2.3263   -0.1682    0.0243 O   0  0  0  0  0  0  0  0  0  0  0  0
   -1.2445   -2.1081    0.0031 N   0  0  0  0  0  0  0  0  0  0  0  0
   -2.5022   -2.8593    0.0116 C   0  0  1  0  0  0  0  0  0  0  0  0
   -3.2516   -2.3197   -0.5676 H   0  0  0  0  0  0  0  0  0  0  0  0
   -2.2758   -4.2399   -0.6078 C   0  0  0  0  0  0  0  0  0  0  0  0
   -1.9084   -4.0824   -2.0846 C   0  0  0  0  0  0  0  0  0  0  0  0
   -1.6854   -5.4422   -2.6946 C   0  0  0  0  0  0  0  0  0  0  0  0
   -1.8089   -6.4445   -2.0115 O   0  0  0  0  0  0  0  0  0  0  0  0
   -1.3815   -5.5401   -3.8713 O   0  0  0  0  0  1  0  0  0  0  0  0
   -2.9829   -3.0182    1.4310 C   0  0  0  0  0  0  0  0  0  0  0  0
   -2.3350   -2.5475    2.3503 O   0  0  0  0  0  0  0  0  0  0  0  0
   -4.0198   -3.6173    1.6600 O   0  0  0  0  0  1  0  0  0  0  0  0
    3.5749    2.1299   -0.0211 N   0  0  0  0  0  0  0  0  0  0  0  0
    4.8542    1.4162   -0.0371 C   0  0  0  0  0  0  0  0  0  0  0  0
    5.9850    2.4124   -0.0431 C   0  0  0  0  0  0  0  0  0  0  0  0
    6.5880    2.7792    1.1560 C   0  0  0  0  0  0  0  0  0  0  0  0
    7.5783    3.6491    1.1730 N   0  0  0  0  0  0  0  0  0  0  0  0
    8.0071    4.1829    0.0286 C   0  0  0  0  0  0  0  0  0  0  0  0
    7.3904    3.8055   -1.1863 C   0  0  0  0  0  0  0  0  0  0  0  0
    6.3986    2.9251   -1.1847 N   0  0  0  0  0  0  0  0  0  0  0  0
    7.8862    4.4130   -2.4332 C   0  0  0  0  0  0  0  0  0  0  0  0
    7.3975    4.1302   -3.5112 O   0  0  0  0  0  0  0  0  0  0  0  0
    8.9054    5.2978   -2.3348 N   0  0  0  0  0  0  0  0  0  0  0  0
    9.4401    5.6027   -1.1180 C   0  0  0  0  0  0  0  0  0  0  0  0
    9.0149    5.0747    0.0031 N   0  0  0  0  0  0  0  0  0  0  0  0
   10.8043    6.9084   -1.8819 H   0  0  0  0  0  0  0  0  0  0  0  0
   10.4715    6.5039   -1.0654 N   0  0  0  0  0  0  0  0  0  0  0  0
   -0.9590    1.9215    0.0260 H   0  0  0  0  0  0  0  0  0  0  0  0
    1.1522    3.1764    0.0078 H   0  0  0  0  0  0  0  0  0  0  0  0
    3.3474   -0.4995   -0.0326 H   0  0  0  0  0  0  0  0  0  0  0  0
    1.2416   -1.7634   -0.0204 H   0  0  0  0  0  0  0  0  0  0  0  0
   -0.3974   -2.5806   -0.0078 H   0  0  0  0  0  0  0  0  0  0  0  0
   -1.4645   -4.7448   -0.0833 H   0  0  0  0  0  0  0  0  0  0  0  0
   -3.1876   -4.8309   -0.5212 H   0  0  0  0  0  0  0  0  0  0  0  0
   -2.7197   -3.5775   -2.6090 H   0  0  0  0  0  0  0  0  0  0  0  0
   -0.9966   -3.4914   -2.1711 H   0  0  0  0  0  0  0  0  0  0  0  0
    3.5606    3.0997   -0.0161 H   0  0  0  0  0  0  0  0  0  0  0  0
    4.9299    0.7860    0.8490 H   0  0  0  0  0  0  0  0  0  0  0  0
    4.9126    0.7950   -0.9309 H   0  0  0  0  0  0  0  0  0  0  0  0
    6.2408    2.3469    2.0828 H   0  0  0  0  0  0  0  0  0  0  0  0
   10.8687    6.7372   -0.2118 H   0  0  0  0  0  0  0  0  0  0  0  0
    9.2581    5.7176   -3.1350 H   0  0  0  0  0  0  0  0  0  0  0  0
  1  6  2  0  0  0  0
  1  2  1  0  0  0  0
  1 35  1  0  0  0  0
  2  3  2  0  0  0  0
  2 36  1  0  0  0  0
  3  4  1  0  0  0  0
  3 20  1  0  0  0  0
  4  5  2  0  0  0  0
  4 37  1  0  0  0  0
  5  6  1  0  0  0  0
  5 38  1  0  0  0  0
  6  7  1  0  0  0  0
  7  8  2  0  0  0  0
  7  9  1  0  0  0  0
  9 10  1  0  0  0  0
  9 39  1  0  0  0  0
 10 11  1  6  0  0  0
 10 12  1  0  0  0  0
 10 17  1  0  0  0  0
 12 13  1  0  0  0  0
 12 40  1  0  0  0  0
 12 41  1  0  0  0  0
 13 14  1  0  0  0  0
 13 42  1  0  0  0  0
 13 43  1  0  0  0  0
 14 15  2  0  0  0  0
 14 16  1  0  0  0  0
 17 18  2  0  0  0  0
 17 19  1  0  0  0  0
 20 21  1  0  0  0  0
 20 44  1  0  0  0  0
 21 45  1  0  0  0  0
 21 46  1  0  0  0  0
 21 22  1  0  0  0  0
 22 27  2  0  0  0  0
 22 23  1  0  0  0  0
 23 47  1  0  0  0  0
 23 24  2  0  0  0  0
 24 25  1  0  0  0  0
 25 26  2  0  0  0  0
 25 32  1  0  0  0  0
 26 28  1  0  0  0  0
 26 27  1  0  0  0  0
 28 29  2  0  0  0  0
 28 30  1  0  0  0  0
 30 31  1  0  0  0  0
 30 49  1  0  0  0  0
 31 32  2  0  0  0  0
 31 34  1  0  0  0  0
 33 34  1  0  0  0  0
 34 48  1  0  0  0  0
M  END
$$$$
