ZINC05224164
 OpenBabel08292219463D

  7  6  0  0  0  0  0  0  0  0999 V2000
    1.2350    3.0943    0.0069 C   0  0  0  0  0  0  0  0  0  0  0  0
    1.1765    1.5884   -0.0006 C   0  0  0  0  0  0  0  0  0  0  0  0
    2.1986    0.9442   -0.0139 O   0  0  0  0  0  0  0  0  0  0  0  0
    0.7441    3.4725    0.9036 H   0  0  0  0  0  0  0  0  0  0  0  0
    2.2759    3.4175   -0.0013 H   0  0  0  0  0  0  0  0  0  0  0  0
    0.7272    3.4820   -0.8762 H   0  0  0  0  0  0  0  0  0  0  0  0
   -0.0110    0.9628    0.0073 O   0  0  0  0  0  1  0  0  0  0  0  0
  1  2  1  0  0  0  0
  1  4  1  0  0  0  0
  1  5  1  0  0  0  0
  1  6  1  0  0  0  0
  2  3  2  0  0  0  0
  2  7  1  0  0  0  0
M  END
$$$$
