ZINC00057341
 OpenBabel08292219463D

 32 32  0  0  1  0  0  0  0  0999 V2000
   -0.0173    1.4248    0.0099 C   0  0  0  0  0  0  0  0  0  0  0  0
    0.0021   -0.0041    0.0020 O   0  0  0  0  0  0  0  0  0  0  0  0
    0.6062   -0.6075   -1.0564 C   0  0  0  0  0  0  0  0  0  0  0  0
    1.1729    0.1590   -2.0621 C   0  0  0  0  0  0  0  0  0  0  0  0
    1.7870   -0.4560   -3.1371 C   0  0  0  0  0  0  0  0  0  0  0  0
    1.8372   -1.8356   -3.2121 C   0  0  0  0  0  0  0  0  0  0  0  0
    1.2734   -2.6062   -2.2124 C   0  0  0  0  0  0  0  0  0  0  0  0
    0.6617   -1.9961   -1.1290 C   0  0  0  0  0  0  0  0  0  0  0  0
    0.1119   -2.7526   -0.1417 O   0  0  0  0  0  0  0  0  0  0  0  0
    0.2064   -4.1715   -0.2827 C   0  0  0  0  0  0  0  0  0  0  0  0
   -0.4630   -4.8487    0.9148 C   0  0  2  0  0  0  0  0  0  0  0  0
   -0.0216   -4.4734    1.8380 H   0  0  0  0  0  0  0  0  0  0  0  0
   -0.2536   -6.3618    0.8278 C   0  0  0  0  0  0  0  0  0  0  0  0
   -0.7767   -6.9835    2.0033 O   0  0  0  0  0  0  0  0  0  0  0  0
   -0.6710   -8.3233    2.0849 C   0  0  0  0  0  0  0  0  0  0  0  0
   -0.1490   -8.9476    1.1825 O   0  0  0  0  0  0  0  0  0  0  0  0
   -1.1443   -8.9719    3.1673 N   0  0  0  0  0  0  0  0  0  0  0  0
   -1.8625   -4.5601    0.9043 O   0  0  0  0  0  0  0  0  0  0  0  0
    1.0053    1.8021    0.0021 H   0  0  0  0  0  0  0  0  0  0  0  0
   -0.5445    1.7859   -0.8732 H   0  0  0  0  0  0  0  0  0  0  0  0
   -0.5275    1.7763    0.9067 H   0  0  0  0  0  0  0  0  0  0  0  0
    1.1344    1.2368   -2.0063 H   0  0  0  0  0  0  0  0  0  0  0  0
    2.2283    0.1425   -3.9203 H   0  0  0  0  0  0  0  0  0  0  0  0
    2.3175   -2.3124   -4.0537 H   0  0  0  0  0  0  0  0  0  0  0  0
    1.3136   -3.6837   -2.2735 H   0  0  0  0  0  0  0  0  0  0  0  0
   -0.2940   -4.4795   -1.2008 H   0  0  0  0  0  0  0  0  0  0  0  0
    1.2558   -4.4633   -0.3254 H   0  0  0  0  0  0  0  0  0  0  0  0
   -0.7709   -6.7503   -0.0495 H   0  0  0  0  0  0  0  0  0  0  0  0
    0.8118   -6.5771    0.7463 H   0  0  0  0  0  0  0  0  0  0  0  0
   -1.5610   -8.4736    3.8876 H   0  0  0  0  0  0  0  0  0  0  0  0
   -1.0681   -9.9372    3.2260 H   0  0  0  0  0  0  0  0  0  0  0  0
   -2.3213   -4.8665    0.1101 H   0  0  0  0  0  0  0  0  0  0  0  0
  1  2  1  0  0  0  0
  1 19  1  0  0  0  0
  1 20  1  0  0  0  0
  1 21  1  0  0  0  0
  2  3  1  0  0  0  0
  3  8  2  0  0  0  0
  3  4  1  0  0  0  0
  4  5  2  0  0  0  0
  4 22  1  0  0  0  0
  5  6  1  0  0  0  0
  5 23  1  0  0  0  0
  6  7  2  0  0  0  0
  6 24  1  0  0  0  0
  7  8  1  0  0  0  0
  7 25  1  0  0  0  0
  8  9  1  0  0  0  0
  9 10  1  0  0  0  0
 10 11  1  0  0  0  0
 10 26  1  0  0  0  0
 10 27  1  0  0  0  0
 11 12  1  1  0  0  0
 11 13  1  0  0  0  0
 11 18  1  0  0  0  0
 13 14  1  0  0  0  0
 13 28  1  0  0  0  0
 13 29  1  0  0  0  0
 14 15  1  0  0  0  0
 15 16  2  0  0  0  0
 15 17  1  0  0  0  0
 17 30  1  0  0  0  0
 17 31  1  0  0  0  0
 18 32  1  0  0  0  0
M  END
$$$$
