ZINC09224016
 OpenBabel08292219463D

 25 26  0  0  0  0  0  0  0  0999 V2000
   -0.0184    1.5028    0.0103 C   0  0  0  0  0  0  0  0  0  0  0  0
    0.0021   -0.0041    0.0020 C   0  0  0  0  0  0  0  0  0  0  0  0
   -1.1906   -0.6918    0.0041 C   0  0  0  0  0  0  0  0  0  0  0  0
   -1.1990   -2.0975   -0.0031 C   0  0  0  0  0  0  0  0  0  0  0  0
    0.0161   -2.7742   -0.0126 C   0  0  0  0  0  0  0  0  0  0  0  0
    1.2525   -1.9900   -0.0149 C   0  0  0  0  0  0  0  0  0  0  0  0
    1.1865   -0.6449   -0.0127 N   0  0  0  0  0  0  0  0  0  0  0  0
    2.3345   -2.5509   -0.0232 O   0  0  0  0  0  0  0  0  0  0  0  0
    0.0570   -4.2056   -0.0197 C   0  0  0  0  0  0  0  0  0  0  0  0
    0.0895   -5.3411   -0.0253 N   0  0  0  0  0  0  0  0  0  0  0  0
   -2.4728    0.0540    0.0144 C   0  0  0  0  0  0  0  0  0  0  0  0
   -2.8306    0.8519    1.1050 C   0  0  0  0  0  0  0  0  0  0  0  0
   -4.0319    1.5289    1.0733 C   0  0  0  0  0  0  0  0  0  0  0  0
   -4.8375    1.4306    0.0329 N   0  0  0  0  0  0  0  0  0  0  0  0
   -4.5375    0.6886   -1.0161 C   0  0  0  0  0  0  0  0  0  0  0  0
   -3.3536   -0.0172   -1.0689 C   0  0  0  0  0  0  0  0  0  0  0  0
    1.0042    1.8801    0.0026 H   0  0  0  0  0  0  0  0  0  0  0  0
   -0.5455    1.8639   -0.8728 H   0  0  0  0  0  0  0  0  0  0  0  0
   -0.5286    1.8543    0.9071 H   0  0  0  0  0  0  0  0  0  0  0  0
   -2.1318   -2.6419   -0.0008 H   0  0  0  0  0  0  0  0  0  0  0  0
   -2.1762    0.9367    1.9600 H   0  0  0  0  0  0  0  0  0  0  0  0
   -4.3172    2.1475    1.9114 H   0  0  0  0  0  0  0  0  0  0  0  0
   -5.2263    0.6366   -1.8464 H   0  0  0  0  0  0  0  0  0  0  0  0
   -3.1125   -0.6192   -1.9325 H   0  0  0  0  0  0  0  0  0  0  0  0
    2.0073   -0.1280   -0.0178 H   0  0  0  0  0  0  0  0  0  0  0  0
  1  2  1  0  0  0  0
  1 17  1  0  0  0  0
  1 18  1  0  0  0  0
  1 19  1  0  0  0  0
  2  7  1  0  0  0  0
  2  3  2  0  0  0  0
  3  4  1  0  0  0  0
  3 11  1  0  0  0  0
  4  5  2  0  0  0  0
  4 20  1  0  0  0  0
  5  6  1  0  0  0  0
  5  9  1  0  0  0  0
  6  7  1  0  0  0  0
  6  8  2  0  0  0  0
  7 25  1  0  0  0  0
  9 10  3  0  0  0  0
 11 16  2  0  0  0  0
 11 12  1  0  0  0  0
 12 13  2  0  0  0  0
 12 21  1  0  0  0  0
 13 14  1  0  0  0  0
 13 22  1  0  0  0  0
 14 15  2  0  0  0  0
 15 16  1  0  0  0  0
 15 23  1  0  0  0  0
 16 24  1  0  0  0  0
M  END
$$$$
