ZINC01530706
 OpenBabel08292219463D

 51 52  0  0  1  0  0  0  0  0999 V2000
    5.3610   -2.1457    3.1337 C   0  0  0  0  0  0  0  0  0  0  0  0
    4.5162   -1.1926    2.2859 C   0  0  0  0  0  0  0  0  0  0  0  0
    4.5714   -1.6214    0.8423 C   0  0  0  0  0  0  0  0  0  0  0  0
    5.1359   -2.6445    0.5374 O   0  0  0  0  0  0  0  0  0  0  0  0
    3.9222   -0.7734   -0.2210 C   0  0  0  0  0  0  0  0  0  0  0  0
    4.7053    0.5312   -0.3815 C   0  0  0  0  0  0  0  0  0  0  0  0
    6.1910    0.2150   -0.5651 C   0  0  1  0  0  0  0  0  0  0  0  0
    6.5330   -0.4137    0.2571 H   0  0  0  0  0  0  0  0  0  0  0  0
    6.3955   -0.5223   -1.8901 C   0  0  0  0  0  0  0  0  0  0  0  0
    6.8256    2.1796    0.6999 C   0  0  0  0  0  0  0  0  0  0  0  0
    8.3724    1.2133   -0.8927 C   0  0  0  0  0  0  0  0  0  0  0  0
    2.5039   -0.4616    0.1817 C   0  0  0  0  0  0  0  0  0  0  0  0
    1.6183   -1.4897    0.4454 C   0  0  0  0  0  0  0  0  0  0  0  0
    0.3173   -1.2037    0.8147 C   0  0  0  0  0  0  0  0  0  0  0  0
   -0.0981    0.1104    0.9204 C   0  0  0  0  0  0  0  0  0  0  0  0
    0.7875    1.1386    0.6572 C   0  0  0  0  0  0  0  0  0  0  0  0
    2.0885    0.8526    0.2878 C   0  0  0  0  0  0  0  0  0  0  0  0
    3.9201   -1.5221   -1.5288 C   0  0  0  0  0  0  0  0  0  0  0  0
    3.9922   -0.8285   -2.7224 C   0  0  0  0  0  0  0  0  0  0  0  0
    3.9955   -1.5156   -3.9219 C   0  0  0  0  0  0  0  0  0  0  0  0
    3.9157   -2.8957   -3.9282 C   0  0  0  0  0  0  0  0  0  0  0  0
    3.8379   -3.5889   -2.7347 C   0  0  0  0  0  0  0  0  0  0  0  0
    3.8403   -2.9021   -1.5351 C   0  0  0  0  0  0  0  0  0  0  0  0
    5.2682   -1.8757    4.1856 H   0  0  0  0  0  0  0  0  0  0  0  0
    5.0113   -3.1679    2.9887 H   0  0  0  0  0  0  0  0  0  0  0  0
    6.4055   -2.0727    2.8307 H   0  0  0  0  0  0  0  0  0  0  0  0
    4.8752   -0.2632    2.3715 H   0  0  0  0  0  0  0  0  0  0  0  0
    3.4831   -1.2165    2.6328 H   0  0  0  0  0  0  0  0  0  0  0  0
    4.3380    1.0704   -1.2546 H   0  0  0  0  0  0  0  0  0  0  0  0
    4.5722    1.1467    0.5082 H   0  0  0  0  0  0  0  0  0  0  0  0
    5.9434   -1.5123   -1.8285 H   0  0  0  0  0  0  0  0  0  0  0  0
    5.9263    0.0419   -2.6960 H   0  0  0  0  0  0  0  0  0  0  0  0
    7.4624   -0.6219   -2.0895 H   0  0  0  0  0  0  0  0  0  0  0  0
    7.0775    1.5071    1.5198 H   0  0  0  0  0  0  0  0  0  0  0  0
    7.5007    3.0352    0.7111 H   0  0  0  0  0  0  0  0  0  0  0  0
    5.7985    2.5256    0.8163 H   0  0  0  0  0  0  0  0  0  0  0  0
    8.4475    0.7473   -1.8752 H   0  0  0  0  0  0  0  0  0  0  0  0
    8.9188    2.1564   -0.8951 H   0  0  0  0  0  0  0  0  0  0  0  0
    8.7988    0.5483   -0.1416 H   0  0  0  0  0  0  0  0  0  0  0  0
    1.9428   -2.5165    0.3625 H   0  0  0  0  0  0  0  0  0  0  0  0
   -0.3746   -2.0070    1.0204 H   0  0  0  0  0  0  0  0  0  0  0  0
   -1.1159    0.3338    1.2043 H   0  0  0  0  0  0  0  0  0  0  0  0
    0.4628    2.1654    0.7395 H   0  0  0  0  0  0  0  0  0  0  0  0
    2.7805    1.6559    0.0822 H   0  0  0  0  0  0  0  0  0  0  0  0
    4.0500    0.2499   -2.7177 H   0  0  0  0  0  0  0  0  0  0  0  0
    4.0567   -0.9740   -4.8543 H   0  0  0  0  0  0  0  0  0  0  0  0
    3.9146   -3.4323   -4.8654 H   0  0  0  0  0  0  0  0  0  0  0  0
    3.7756   -4.6671   -2.7396 H   0  0  0  0  0  0  0  0  0  0  0  0
    3.7795   -3.4437   -0.6027 H   0  0  0  0  0  0  0  0  0  0  0  0
    6.9494    1.4832   -0.5980 N   0  3  0  0  0  0  0  0  0  0  0  0
    6.5639    2.0833   -1.3365 H   0  0  0  0  0  0  0  0  0  0  0  0
  1  2  1  0  0  0  0
  1 24  1  0  0  0  0
  1 25  1  0  0  0  0
  1 26  1  0  0  0  0
  2  3  1  0  0  0  0
  2 27  1  0  0  0  0
  2 28  1  0  0  0  0
  3  4  2  0  0  0  0
  3  5  1  0  0  0  0
  5  6  1  0  0  0  0
  5 12  1  0  0  0  0
  5 18  1  0  0  0  0
  6  7  1  0  0  0  0
  6 29  1  0  0  0  0
  6 30  1  0  0  0  0
  7  8  1  1  0  0  0
  7  9  1  0  0  0  0
  7 50  1  0  0  0  0
  9 31  1  0  0  0  0
  9 32  1  0  0  0  0
  9 33  1  0  0  0  0
 10 34  1  0  0  0  0
 10 35  1  0  0  0  0
 10 36  1  0  0  0  0
 10 50  1  0  0  0  0
 11 37  1  0  0  0  0
 11 38  1  0  0  0  0
 11 39  1  0  0  0  0
 11 50  1  0  0  0  0
 12 17  2  0  0  0  0
 12 13  1  0  0  0  0
 13 14  2  0  0  0  0
 13 40  1  0  0  0  0
 14 15  1  0  0  0  0
 14 41  1  0  0  0  0
 15 16  2  0  0  0  0
 15 42  1  0  0  0  0
 16 17  1  0  0  0  0
 16 43  1  0  0  0  0
 17 44  1  0  0  0  0
 18 23  2  0  0  0  0
 18 19  1  0  0  0  0
 19 20  2  0  0  0  0
 19 45  1  0  0  0  0
 20 21  1  0  0  0  0
 20 46  1  0  0  0  0
 21 22  2  0  0  0  0
 21 47  1  0  0  0  0
 22 23  1  0  0  0  0
 22 48  1  0  0  0  0
 23 49  1  0  0  0  0
 50 51  1  0  0  0  0
M  CHG  1  50   1
M  END
$$$$
