ZINC64622552
 OpenBabel08292219463D

 58 61  0  0  1  0  0  0  0  0999 V2000
    0.7636    0.8455    2.2460 C   0  0  0  0  0  0  0  0  0  0  0  0
    2.0635    1.3134    2.1511 C   0  0  0  0  0  0  0  0  0  0  0  0
    2.9686    0.6834    1.3218 C   0  0  0  0  0  0  0  0  0  0  0  0
    2.5834   -0.4263    0.5760 C   0  0  0  0  0  0  0  0  0  0  0  0
    1.2729   -0.9041    0.6710 C   0  0  0  0  0  0  0  0  0  0  0  0
    0.3660   -0.2526    1.5150 C   0  0  0  0  0  0  0  0  0  0  0  0
    0.8058   -2.0820   -0.0855 C   0  0  0  0  0  0  0  0  0  0  0  0
   -0.3137   -2.6924    0.2806 C   0  0  0  0  0  0  0  0  0  0  0  0
   -0.3905   -4.1974    0.2670 C   0  0  0  0  0  0  0  0  0  0  0  0
   -0.8791   -4.6955    1.6286 C   0  0  0  0  0  0  0  0  0  0  0  0
   -0.8355   -6.1635    1.6575 N   0  3  0  0  0  0  0  0  0  0  0  0
   -1.7972   -6.7009    0.6859 C   0  0  0  0  0  0  0  0  0  0  0  0
   -1.7386   -8.2299    0.7022 C   0  0  0  0  0  0  0  0  0  0  0  0
   -2.0571   -8.7152    2.0525 N   0  0  0  0  0  0  0  0  0  0  0  0
   -1.1173   -8.1655    3.0398 C   0  0  0  0  0  0  0  0  0  0  0  0
   -1.1810   -6.6370    3.0043 C   0  0  0  0  0  0  0  0  0  0  0  0
   -2.0667  -10.1835    2.0955 C   0  0  0  0  0  0  0  0  0  0  0  0
   -2.6400  -10.6507    3.4349 C   0  0  0  0  0  0  0  0  0  0  0  0
   -4.0116  -10.2608    3.5280 O   0  0  0  0  0  0  0  0  0  0  0  0
    1.5810   -2.6002   -1.2666 C   0  0  2  0  0  0  0  0  0  0  0  0
    1.5545   -1.8660   -2.0717 H   0  0  0  0  0  0  0  0  0  0  0  0
    0.9960   -3.8998   -1.7496 C   0  0  0  0  0  0  0  0  0  0  0  0
    1.7628   -4.7587   -2.4166 C   0  0  0  0  0  0  0  0  0  0  0  0
    3.1716   -4.4225   -2.6843 C   0  0  0  0  0  0  0  0  0  0  0  0
    3.7870   -3.5152   -1.9302 C   0  0  0  0  0  0  0  0  0  0  0  0
    3.0344   -2.8253   -0.8226 C   0  0  1  0  0  0  0  0  0  0  0  0
    3.0532   -3.4493    0.0709 H   0  0  0  0  0  0  0  0  0  0  0  0
    3.7684   -1.2012   -0.4758 S   0  0  0  0  0  0  0  0  0  0  0  0
    1.1927   -6.0691   -2.8953 C   0  0  0  0  0  0  0  0  0  0  0  0
    0.7914   -5.9434   -4.2295 F   0  0  0  0  0  0  0  0  0  0  0  0
    2.1681   -7.0668   -2.7937 F   0  0  0  0  0  0  0  0  0  0  0  0
    0.0895   -6.4134   -2.1069 F   0  0  0  0  0  0  0  0  0  0  0  0
    0.0601    1.3406    2.8989 H   0  0  0  0  0  0  0  0  0  0  0  0
    2.3696    2.1739    2.7275 H   0  0  0  0  0  0  0  0  0  0  0  0
    3.9807    1.0536    1.2510 H   0  0  0  0  0  0  0  0  0  0  0  0
   -0.6494   -0.6120    1.5935 H   0  0  0  0  0  0  0  0  0  0  0  0
   -1.1701   -2.1108    0.5884 H   0  0  0  0  0  0  0  0  0  0  0  0
   -1.0860   -4.5187   -0.5084 H   0  0  0  0  0  0  0  0  0  0  0  0
    0.5975   -4.6098    0.0624 H   0  0  0  0  0  0  0  0  0  0  0  0
   -0.2359   -4.2973    2.4133 H   0  0  0  0  0  0  0  0  0  0  0  0
   -1.9029   -4.3591    1.7925 H   0  0  0  0  0  0  0  0  0  0  0  0
   -2.8025   -6.3730    0.9504 H   0  0  0  0  0  0  0  0  0  0  0  0
   -1.5474   -6.3383   -0.3112 H   0  0  0  0  0  0  0  0  0  0  0  0
   -2.4628   -8.6292   -0.0079 H   0  0  0  0  0  0  0  0  0  0  0  0
   -0.7371   -8.5585    0.4245 H   0  0  0  0  0  0  0  0  0  0  0  0
   -1.3882   -8.5177    4.0351 H   0  0  0  0  0  0  0  0  0  0  0  0
   -0.1056   -8.4930    2.8006 H   0  0  0  0  0  0  0  0  0  0  0  0
   -0.4744   -6.2270    3.7259 H   0  0  0  0  0  0  0  0  0  0  0  0
   -2.1895   -6.3094    3.2569 H   0  0  0  0  0  0  0  0  0  0  0  0
   -2.6837  -10.5668    1.2827 H   0  0  0  0  0  0  0  0  0  0  0  0
   -1.0486  -10.5570    1.9860 H   0  0  0  0  0  0  0  0  0  0  0  0
   -2.5654  -11.7360    3.5033 H   0  0  0  0  0  0  0  0  0  0  0  0
   -2.0768  -10.1957    4.2497 H   0  0  0  0  0  0  0  0  0  0  0  0
   -4.4404  -10.5248    4.3535 H   0  0  0  0  0  0  0  0  0  0  0  0
   -0.0404   -4.1338   -1.5564 H   0  0  0  0  0  0  0  0  0  0  0  0
    3.7026   -4.9103   -3.4884 H   0  0  0  0  0  0  0  0  0  0  0  0
    4.8223   -3.2684   -2.1135 H   0  0  0  0  0  0  0  0  0  0  0  0
    0.0935   -6.4769    1.4191 H   0  0  0  0  0  0  0  0  0  0  0  0
  1  6  2  0  0  0  0
  1  2  1  0  0  0  0
  1 33  1  0  0  0  0
  2  3  2  0  0  0  0
  2 34  1  0  0  0  0
  3  4  1  0  0  0  0
  3 35  1  0  0  0  0
  4 28  1  0  0  0  0
  4  5  2  0  0  0  0
  5  6  1  0  0  0  0
  5  7  1  0  0  0  0
  6 36  1  0  0  0  0
  7  8  2  0  0  0  0
  7 20  1  0  0  0  0
  8  9  1  0  0  0  0
  8 37  1  0  0  0  0
  9 10  1  0  0  0  0
  9 38  1  0  0  0  0
  9 39  1  0  0  0  0
 10 11  1  0  0  0  0
 10 40  1  0  0  0  0
 10 41  1  0  0  0  0
 11 16  1  0  0  0  0
 11 12  1  0  0  0  0
 11 58  1  0  0  0  0
 12 13  1  0  0  0  0
 12 42  1  0  0  0  0
 12 43  1  0  0  0  0
 13 14  1  0  0  0  0
 13 44  1  0  0  0  0
 13 45  1  0  0  0  0
 14 15  1  0  0  0  0
 14 17  1  0  0  0  0
 15 16  1  0  0  0  0
 15 46  1  0  0  0  0
 15 47  1  0  0  0  0
 16 48  1  0  0  0  0
 16 49  1  0  0  0  0
 17 18  1  0  0  0  0
 17 50  1  0  0  0  0
 17 51  1  0  0  0  0
 18 19  1  0  0  0  0
 18 52  1  0  0  0  0
 18 53  1  0  0  0  0
 19 54  1  0  0  0  0
 20 21  1  6  0  0  0
 20 26  1  0  0  0  0
 20 22  1  0  0  0  0
 22 23  2  0  0  0  0
 22 55  1  0  0  0  0
 23 24  1  0  0  0  0
 23 29  1  0  0  0  0
 24 25  2  0  0  0  0
 24 56  1  0  0  0  0
 25 26  1  0  0  0  0
 25 57  1  0  0  0  0
 26 27  1  1  0  0  0
 26 28  1  0  0  0  0
 29 30  1  0  0  0  0
 29 31  1  0  0  0  0
 29 32  1  0  0  0  0
M  CHG  1  11   1
M  END
$$$$
