ZINC35342787
 OpenBabel08292219463D

 37 37  0  0  0  0  0  0  0  0999 V2000
    0.4732    1.0649   -0.3870 C   0  0  0  0  0  0  0  0  0  0  0  0
    0.3053   -0.4530   -0.4791 C   0  0  0  0  0  0  0  0  0  0  0  0
   -1.0729   -0.8135   -0.1375 N   0  0  0  0  0  0  0  0  0  0  0  0
   -2.0933   -0.8832   -1.1865 C   0  0  0  0  0  0  0  0  0  0  0  0
   -2.1916   -2.3182   -1.7079 C   0  0  0  0  0  0  0  0  0  0  0  0
   -1.4022   -1.0811    1.1417 C   0  0  0  0  0  0  0  0  0  0  0  0
   -0.5818   -0.9254    2.0263 O   0  0  0  0  0  0  0  0  0  0  0  0
   -2.7540   -1.5616    1.4683 C   0  0  0  0  0  0  0  0  0  0  0  0
   -3.1328   -1.7106    2.7846 C   0  0  0  0  0  0  0  0  0  0  0  0
   -4.4138   -2.3406    3.1110 C   0  0  0  0  0  0  0  0  0  0  0  0
   -5.1157   -1.9528    4.2614 C   0  0  0  0  0  0  0  0  0  0  0  0
   -6.3196   -2.5468    4.5648 C   0  0  0  0  0  0  0  0  0  0  0  0
   -6.8423   -3.5308    3.7344 C   0  0  0  0  0  0  0  0  0  0  0  0
   -6.1505   -3.9231    2.5879 C   0  0  0  0  0  0  0  0  0  0  0  0
   -4.9458   -3.3296    2.2712 C   0  0  0  0  0  0  0  0  0  0  0  0
   -6.6664   -4.8872    1.7794 O   0  0  0  0  0  0  0  0  0  0  0  0
   -8.0302   -4.1128    4.0399 O   0  0  0  0  0  0  0  0  0  0  0  0
   -7.0595   -2.1366    5.7794 N   0  0  0  0  0  4  0  0  0  0  0  0
   -6.6061   -1.2810    6.5033 O   0  0  0  0  0  0  0  0  0  0  0  0
   -8.1172   -2.6572    6.0476 O   0  5  0  0  0  0  0  0  0  0  0  0
   -3.6758   -1.8744    0.4181 C   0  0  0  0  0  0  0  0  0  0  0  0
   -4.4071   -2.1226   -0.4150 N   0  0  0  0  0  0  0  0  0  0  0  0
    1.4987    1.3332   -0.6411 H   0  0  0  0  0  0  0  0  0  0  0  0
   -0.2121    1.5491   -1.0828 H   0  0  0  0  0  0  0  0  0  0  0  0
    0.2526    1.3940    0.6285 H   0  0  0  0  0  0  0  0  0  0  0  0
    0.5259   -0.7820   -1.4946 H   0  0  0  0  0  0  0  0  0  0  0  0
    0.9906   -0.9372    0.2167 H   0  0  0  0  0  0  0  0  0  0  0  0
   -3.0565   -0.5785   -0.7772 H   0  0  0  0  0  0  0  0  0  0  0  0
   -1.8192   -0.2173   -2.0048 H   0  0  0  0  0  0  0  0  0  0  0  0
   -2.9507   -2.3700   -2.4884 H   0  0  0  0  0  0  0  0  0  0  0  0
   -1.2284   -2.6229   -2.1172 H   0  0  0  0  0  0  0  0  0  0  0  0
   -2.4657   -2.9841   -0.8896 H   0  0  0  0  0  0  0  0  0  0  0  0
   -2.4851   -1.3627    3.5757 H   0  0  0  0  0  0  0  0  0  0  0  0
   -4.7116   -1.1889    4.9091 H   0  0  0  0  0  0  0  0  0  0  0  0
   -4.4118   -3.6292    1.3815 H   0  0  0  0  0  0  0  0  0  0  0  0
   -7.2392   -4.5475    1.0783 H   0  0  0  0  0  0  0  0  0  0  0  0
   -8.7977   -3.6624    3.6615 H   0  0  0  0  0  0  0  0  0  0  0  0
  1  2  1  0  0  0  0
  1 23  1  0  0  0  0
  1 24  1  0  0  0  0
  1 25  1  0  0  0  0
  2  3  1  0  0  0  0
  2 26  1  0  0  0  0
  2 27  1  0  0  0  0
  3  4  1  0  0  0  0
  3  6  1  0  0  0  0
  4  5  1  0  0  0  0
  4 28  1  0  0  0  0
  4 29  1  0  0  0  0
  5 30  1  0  0  0  0
  5 31  1  0  0  0  0
  5 32  1  0  0  0  0
  6  7  2  0  0  0  0
  6  8  1  0  0  0  0
  8  9  2  0  0  0  0
  8 21  1  0  0  0  0
  9 10  1  0  0  0  0
  9 33  1  0  0  0  0
 10 15  2  0  0  0  0
 10 11  1  0  0  0  0
 11 12  2  0  0  0  0
 11 34  1  0  0  0  0
 12 13  1  0  0  0  0
 12 18  1  0  0  0  0
 13 14  2  0  0  0  0
 13 17  1  0  0  0  0
 14 15  1  0  0  0  0
 14 16  1  0  0  0  0
 15 35  1  0  0  0  0
 16 36  1  0  0  0  0
 17 37  1  0  0  0  0
 18 19  2  0  0  0  0
 18 20  1  0  0  0  0
 21 22  3  0  0  0  0
M  CHG  1  20  -1
M  END
$$$$
