ZINC07997897
 OpenBabel08292219463D

 44 46  0  0  1  0  0  0  0  0999 V2000
    0.1701    1.2459    0.5568 C   0  0  0  0  0  0  0  0  0  0  0  0
   -0.2152   -0.1717    0.5468 N   0  3  2  0  0  0  0  0  0  0  0  0
    0.8106   -0.9629    1.2393 C   0  0  0  0  0  0  0  0  0  0  0  0
    0.8503   -0.5708    2.6939 C   0  0  0  0  0  0  0  0  0  0  0  0
    0.7539   -1.5006    3.6339 C   0  0  0  0  0  0  0  0  0  0  0  0
    0.7959   -2.9314    3.2652 C   0  0  0  0  0  0  0  0  0  0  0  0
    1.6993   -3.3803    2.3011 C   0  0  0  0  0  0  0  0  0  0  0  0
    1.7335   -4.7171    1.9614 C   0  0  0  0  0  0  0  0  0  0  0  0
    0.8743   -5.6117    2.5741 C   0  0  0  0  0  0  0  0  0  0  0  0
   -0.0240   -5.1731    3.5304 C   0  0  0  0  0  0  0  0  0  0  0  0
   -0.0636   -3.8399    3.8839 C   0  0  0  0  0  0  0  0  0  0  0  0
   -0.3373   -0.6361   -0.8415 C   0  0  0  0  0  0  0  0  0  0  0  0
   -1.4859    0.0747   -1.5098 C   0  0  0  0  0  0  0  0  0  0  0  0
   -1.2457    1.0631   -2.4144 C   0  0  0  0  0  0  0  0  0  0  0  0
   -2.2947    1.7314   -3.0423 C   0  0  0  0  0  0  0  0  0  0  0  0
   -3.5903    1.4156   -2.7691 C   0  0  0  0  0  0  0  0  0  0  0  0
   -3.8776    0.4008   -1.8408 C   0  0  0  0  0  0  0  0  0  0  0  0
   -2.8103   -0.2833   -1.2067 C   0  0  0  0  0  0  0  0  0  0  0  0
   -3.0978   -1.3025   -0.2825 C   0  0  0  0  0  0  0  0  0  0  0  0
   -4.3930   -1.6221   -0.0138 C   0  0  0  0  0  0  0  0  0  0  0  0
   -5.4424   -0.9538   -0.6423 C   0  0  0  0  0  0  0  0  0  0  0  0
   -5.2025    0.0473   -1.5325 C   0  0  0  0  0  0  0  0  0  0  0  0
    1.1653    1.3549    0.1257 H   0  0  0  0  0  0  0  0  0  0  0  0
   -0.5454    1.8210   -0.0308 H   0  0  0  0  0  0  0  0  0  0  0  0
    0.1764    1.6134    1.5830 H   0  0  0  0  0  0  0  0  0  0  0  0
    0.5703   -2.0227    1.1551 H   0  0  0  0  0  0  0  0  0  0  0  0
    1.7833   -0.7737    0.7854 H   0  0  0  0  0  0  0  0  0  0  0  0
    0.9573    0.4676    2.9706 H   0  0  0  0  0  0  0  0  0  0  0  0
    0.6446   -1.2127    4.6690 H   0  0  0  0  0  0  0  0  0  0  0  0
    2.3700   -2.6827    1.8215 H   0  0  0  0  0  0  0  0  0  0  0  0
    2.4322   -5.0658    1.2153 H   0  0  0  0  0  0  0  0  0  0  0  0
    0.9048   -6.6571    2.3044 H   0  0  0  0  0  0  0  0  0  0  0  0
   -0.6925   -5.8764    4.0045 H   0  0  0  0  0  0  0  0  0  0  0  0
   -0.7618   -3.4996    4.6343 H   0  0  0  0  0  0  0  0  0  0  0  0
    0.5858   -0.4203   -1.3794 H   0  0  0  0  0  0  0  0  0  0  0  0
   -0.5203   -1.7106   -0.8504 H   0  0  0  0  0  0  0  0  0  0  0  0
   -0.2267    1.3335   -2.6486 H   0  0  0  0  0  0  0  0  0  0  0  0
   -2.0766    2.5119   -3.7562 H   0  0  0  0  0  0  0  0  0  0  0  0
   -4.3933    1.9427   -3.2630 H   0  0  0  0  0  0  0  0  0  0  0  0
   -2.2950   -1.8295    0.2116 H   0  0  0  0  0  0  0  0  0  0  0  0
   -4.6111   -2.4056    0.6967 H   0  0  0  0  0  0  0  0  0  0  0  0
   -6.4614   -1.2273   -0.4113 H   0  0  0  0  0  0  0  0  0  0  0  0
   -6.0257    0.5569   -2.0112 H   0  0  0  0  0  0  0  0  0  0  0  0
   -1.1006   -0.2829    1.0177 H   0  0  0  0  0  0  0  0  0  0  0  0
  1  2  1  0  0  0  0
  1 23  1  0  0  0  0
  1 24  1  0  0  0  0
  1 25  1  0  0  0  0
  2  3  1  0  0  0  0
  2 12  1  0  0  0  0
  2 44  1  1  0  0  0
  3  4  1  0  0  0  0
  3 26  1  0  0  0  0
  3 27  1  0  0  0  0
  4  5  2  0  0  0  0
  4 28  1  0  0  0  0
  5  6  1  0  0  0  0
  5 29  1  0  0  0  0
  6 11  2  0  0  0  0
  6  7  1  0  0  0  0
  7  8  2  0  0  0  0
  7 30  1  0  0  0  0
  8  9  1  0  0  0  0
  8 31  1  0  0  0  0
  9 10  2  0  0  0  0
  9 32  1  0  0  0  0
 10 11  1  0  0  0  0
 10 33  1  0  0  0  0
 11 34  1  0  0  0  0
 12 13  1  0  0  0  0
 12 35  1  0  0  0  0
 12 36  1  0  0  0  0
 13 18  2  0  0  0  0
 13 14  1  0  0  0  0
 14 15  2  0  0  0  0
 14 37  1  0  0  0  0
 15 16  1  0  0  0  0
 15 38  1  0  0  0  0
 16 17  2  0  0  0  0
 16 39  1  0  0  0  0
 17 22  1  0  0  0  0
 17 18  1  0  0  0  0
 18 19  1  0  0  0  0
 19 20  2  0  0  0  0
 19 40  1  0  0  0  0
 20 21  1  0  0  0  0
 20 41  1  0  0  0  0
 21 22  2  0  0  0  0
 21 42  1  0  0  0  0
 22 43  1  0  0  0  0
M  CHG  1   2   1
M  END
$$$$
