ZINC07997952
 OpenBabel08292219463D

 43 44  0  0  1  0  0  0  0  0999 V2000
   -0.5694    1.2544    0.1112 C   0  0  0  0  0  0  0  0  0  0  0  0
    0.0003   -0.1578   -0.0372 C   0  0  1  0  0  0  0  0  0  0  0  0
    0.6117   -0.5927    1.2698 C   0  0  0  0  0  0  0  0  0  0  0  0
   -0.1888   -0.7673    2.3832 C   0  0  0  0  0  0  0  0  0  0  0  0
    0.3720   -1.1662    3.5820 C   0  0  0  0  0  0  0  0  0  0  0  0
    1.7332   -1.3910    3.6674 C   0  0  0  0  0  0  0  0  0  0  0  0
    2.5337   -1.2172    2.5538 C   0  0  0  0  0  0  0  0  0  0  0  0
    1.9722   -0.8225    1.3539 C   0  0  0  0  0  0  0  0  0  0  0  0
   -1.1060   -1.1087   -0.4152 C   0  0  0  0  0  0  0  0  0  0  0  0
   -2.4060   -0.6462   -0.4972 C   0  0  0  0  0  0  0  0  0  0  0  0
   -3.4164   -1.5291   -0.8458 C   0  0  0  0  0  0  0  0  0  0  0  0
   -3.0799   -2.8501   -1.1000 C   0  0  0  0  0  0  0  0  0  0  0  0
   -1.7581   -3.2398   -0.9982 C   0  0  0  0  0  0  0  0  0  0  0  0
   -0.8220   -2.3710   -0.6692 N   0  0  0  0  0  0  0  0  0  0  0  0
    1.0018   -0.1628   -1.0565 O   0  0  0  0  0  0  0  0  0  0  0  0
    0.5234    0.2344   -2.3432 C   0  0  0  0  0  0  0  0  0  0  0  0
    1.6611    0.1393   -3.3619 C   0  0  0  0  0  0  0  0  0  0  0  0
    2.0660   -1.2645   -3.5141 N   0  3  0  0  0  0  0  0  0  0  0  0
    0.9579   -2.0334   -4.0962 C   0  0  0  0  0  0  0  0  0  0  0  0
    3.2352   -1.3436   -4.3999 C   0  0  0  0  0  0  0  0  0  0  0  0
    0.2308    1.9421    0.3846 H   0  0  0  0  0  0  0  0  0  0  0  0
   -1.0116    1.5689   -0.8341 H   0  0  0  0  0  0  0  0  0  0  0  0
   -1.3333    1.2581    0.8887 H   0  0  0  0  0  0  0  0  0  0  0  0
   -1.2524   -0.5917    2.3164 H   0  0  0  0  0  0  0  0  0  0  0  0
   -0.2534   -1.3020    4.4520 H   0  0  0  0  0  0  0  0  0  0  0  0
    2.1715   -1.7019    4.6042 H   0  0  0  0  0  0  0  0  0  0  0  0
    3.5972   -1.3925    2.6206 H   0  0  0  0  0  0  0  0  0  0  0  0
    2.5970   -0.6903    0.4829 H   0  0  0  0  0  0  0  0  0  0  0  0
   -2.6319    0.3898   -0.2919 H   0  0  0  0  0  0  0  0  0  0  0  0
   -4.4413   -1.1960   -0.9173 H   0  0  0  0  0  0  0  0  0  0  0  0
   -3.8413   -3.5654   -1.3738 H   0  0  0  0  0  0  0  0  0  0  0  0
   -1.4878   -4.2669   -1.1946 H   0  0  0  0  0  0  0  0  0  0  0  0
   -0.2917   -0.4226   -2.6465 H   0  0  0  0  0  0  0  0  0  0  0  0
    0.1633    1.2620   -2.2956 H   0  0  0  0  0  0  0  0  0  0  0  0
    1.3215    0.5258   -4.3228 H   0  0  0  0  0  0  0  0  0  0  0  0
    2.5106    0.7268   -3.0136 H   0  0  0  0  0  0  0  0  0  0  0  0
    1.2583   -3.0751   -4.2092 H   0  0  0  0  0  0  0  0  0  0  0  0
    0.0903   -1.9747   -3.4390 H   0  0  0  0  0  0  0  0  0  0  0  0
    0.7028   -1.6209   -5.0724 H   0  0  0  0  0  0  0  0  0  0  0  0
    4.0575   -0.7731   -3.9680 H   0  0  0  0  0  0  0  0  0  0  0  0
    3.5357   -2.3852   -4.5129 H   0  0  0  0  0  0  0  0  0  0  0  0
    2.9801   -0.9311   -5.3760 H   0  0  0  0  0  0  0  0  0  0  0  0
    2.3021   -1.6464   -2.6105 H   0  0  0  0  0  0  0  0  0  0  0  0
  1  2  1  0  0  0  0
  1 21  1  0  0  0  0
  1 22  1  0  0  0  0
  1 23  1  0  0  0  0
  2  3  1  0  0  0  0
  2  9  1  0  0  0  0
  2 15  1  6  0  0  0
  3  8  2  0  0  0  0
  3  4  1  0  0  0  0
  4  5  2  0  0  0  0
  4 24  1  0  0  0  0
  5  6  1  0  0  0  0
  5 25  1  0  0  0  0
  6  7  2  0  0  0  0
  6 26  1  0  0  0  0
  7  8  1  0  0  0  0
  7 27  1  0  0  0  0
  8 28  1  0  0  0  0
  9 14  2  0  0  0  0
  9 10  1  0  0  0  0
 10 11  2  0  0  0  0
 10 29  1  0  0  0  0
 11 12  1  0  0  0  0
 11 30  1  0  0  0  0
 12 13  2  0  0  0  0
 12 31  1  0  0  0  0
 13 14  1  0  0  0  0
 13 32  1  0  0  0  0
 15 16  1  0  0  0  0
 16 17  1  0  0  0  0
 16 33  1  0  0  0  0
 16 34  1  0  0  0  0
 17 18  1  0  0  0  0
 17 35  1  0  0  0  0
 17 36  1  0  0  0  0
 18 19  1  0  0  0  0
 18 20  1  0  0  0  0
 18 43  1  0  0  0  0
 19 37  1  0  0  0  0
 19 38  1  0  0  0  0
 19 39  1  0  0  0  0
 20 40  1  0  0  0  0
 20 41  1  0  0  0  0
 20 42  1  0  0  0  0
M  CHG  1  18   1
M  END
$$$$
