ZINC04097305
 OpenBabel08292219463D

 62 66  0  0  1  0  0  0  0  0999 V2000
   -0.7155    1.7622   -0.2627 C   0  0  0  0  0  0  0  0  0  0  0  0
   -0.9990    0.2605   -0.1887 C   0  0  2  0  0  0  0  0  0  0  0  0
   -2.3290    0.0061    0.4981 C   0  0  0  0  0  0  0  0  0  0  0  0
   -2.2706    0.6952    1.8704 C   0  0  1  0  0  0  0  0  0  0  0  0
   -3.2027    0.5067    2.4030 H   0  0  0  0  0  0  0  0  0  0  0  0
   -1.1051    0.1810    2.7096 C   0  0  1  0  0  0  0  0  0  0  0  0
   -1.2720   -0.8689    2.9500 H   0  0  0  0  0  0  0  0  0  0  0  0
    0.2339    0.3234    1.9682 C   0  0  2  0  0  0  0  0  0  0  0  0
    0.4379    1.3769    1.7771 H   0  0  0  0  0  0  0  0  0  0  0  0
    0.0886   -0.4581    0.6536 C   0  0  2  0  0  0  0  0  0  0  0  0
   -0.2137   -1.4879    0.8439 H   0  0  0  0  0  0  0  0  0  0  0  0
    1.3095   -0.4409   -0.2602 C   0  0  0  0  0  0  0  0  0  0  0  0
    0.7456   -0.4526   -1.7004 C   0  0  2  0  0  0  0  0  0  0  0  0
    1.1362    0.3735   -2.2948 H   0  0  0  0  0  0  0  0  0  0  0  0
   -0.8080   -0.3889   -1.5643 C   0  0  1  0  0  0  0  0  0  0  0  0
   -1.1907   -1.7739   -1.4899 O   0  0  0  0  0  0  0  0  0  0  0  0
   -0.1847   -2.5219   -2.1785 C   0  0  0  0  0  0  0  0  0  0  0  0
    1.0182   -1.7215   -2.3075 O   0  0  0  0  0  0  0  0  0  0  0  0
   -0.6924   -2.8974   -3.5721 C   0  0  0  0  0  0  0  0  0  0  0  0
    0.1325   -3.7953   -1.3919 C   0  0  0  0  0  0  0  0  0  0  0  0
   -1.4791    0.3706   -2.6796 C   0  0  0  0  0  0  0  0  0  0  0  0
   -0.8752    1.2324   -3.2719 O   0  0  0  0  0  0  0  0  0  0  0  0
   -2.9038    0.0547   -3.0556 C   0  0  0  0  0  0  0  0  0  0  0  0
   -3.3504    0.9793   -4.0494 O   0  0  0  0  0  0  0  0  0  0  0  0
    1.3572   -0.2734    2.8183 C   0  0  0  0  0  0  0  0  0  0  0  0
    1.4997    0.5238    4.1189 C   0  0  1  0  0  0  0  0  0  0  0  0
    1.8147    1.5427    3.8934 H   0  0  0  0  0  0  0  0  0  0  0  0
    0.1487    0.5462    4.8090 C   0  0  0  0  0  0  0  0  0  0  0  0
    0.0702    0.1792    6.0804 C   0  0  0  0  0  0  0  0  0  0  0  0
   -1.2257    0.1677    6.7768 C   0  0  0  0  0  0  0  0  0  0  0  0
   -1.2968   -0.1325    7.9539 O   0  0  0  0  0  0  0  0  0  0  0  0
   -2.4347    0.5282    6.0172 C   0  0  0  0  0  0  0  0  0  0  0  0
   -2.3317    0.8977    4.7503 C   0  0  0  0  0  0  0  0  0  0  0  0
   -1.0192    0.9875    4.0087 C   0  0  2  0  0  0  0  0  0  0  0  0
   -0.7922    2.4534    3.6337 C   0  0  0  0  0  0  0  0  0  0  0  0
    2.4446   -0.0901    4.9481 F   0  0  0  0  0  0  0  0  0  0  0  0
   -2.1200    2.1033    1.6790 O   0  0  0  0  0  0  0  0  0  0  0  0
    0.1389    1.9389   -0.9160 H   0  0  0  0  0  0  0  0  0  0  0  0
   -1.5897    2.2779   -0.6603 H   0  0  0  0  0  0  0  0  0  0  0  0
   -0.4939    2.1397    0.7356 H   0  0  0  0  0  0  0  0  0  0  0  0
   -3.1400    0.4285   -0.0952 H   0  0  0  0  0  0  0  0  0  0  0  0
   -2.4813   -1.0655    0.6269 H   0  0  0  0  0  0  0  0  0  0  0  0
    1.8945    0.4631   -0.0913 H   0  0  0  0  0  0  0  0  0  0  0  0
    1.9224   -1.3256   -0.0877 H   0  0  0  0  0  0  0  0  0  0  0  0
   -0.8328   -1.9927   -4.1636 H   0  0  0  0  0  0  0  0  0  0  0  0
    0.0363   -3.5428   -4.0626 H   0  0  0  0  0  0  0  0  0  0  0  0
   -1.6425   -3.4243   -3.4829 H   0  0  0  0  0  0  0  0  0  0  0  0
   -0.7700   -4.3995   -1.2994 H   0  0  0  0  0  0  0  0  0  0  0  0
    0.8991   -4.3652   -1.9169 H   0  0  0  0  0  0  0  0  0  0  0  0
    0.4943   -3.5283   -0.3989 H   0  0  0  0  0  0  0  0  0  0  0  0
   -2.9587   -0.9593   -3.4518 H   0  0  0  0  0  0  0  0  0  0  0  0
   -3.5388    0.1348   -2.1733 H   0  0  0  0  0  0  0  0  0  0  0  0
   -4.2615    0.8353   -4.3395 H   0  0  0  0  0  0  0  0  0  0  0  0
    1.1219   -1.3114    3.0531 H   0  0  0  0  0  0  0  0  0  0  0  0
    2.2940   -0.2313    2.2626 H   0  0  0  0  0  0  0  0  0  0  0  0
    0.9649   -0.1142    6.6093 H   0  0  0  0  0  0  0  0  0  0  0  0
   -3.4036    0.4909    6.4928 H   0  0  0  0  0  0  0  0  0  0  0  0
   -3.2386    1.1490    4.2205 H   0  0  0  0  0  0  0  0  0  0  0  0
   -1.7367    2.8990    3.3215 H   0  0  0  0  0  0  0  0  0  0  0  0
   -0.4036    2.9934    4.4972 H   0  0  0  0  0  0  0  0  0  0  0  0
   -0.0746    2.5122    2.8153 H   0  0  0  0  0  0  0  0  0  0  0  0
   -2.8410    2.5118    1.1807 H   0  0  0  0  0  0  0  0  0  0  0  0
  1 38  1  0  0  0  0
  1 39  1  0  0  0  0
  1 40  1  0  0  0  0
  2  1  1  6  0  0  0
  2 10  1  0  0  0  0
  2 15  1  0  0  0  0
  2  3  1  0  0  0  0
  3  4  1  0  0  0  0
  3 41  1  0  0  0  0
  3 42  1  0  0  0  0
  4  5  1  1  0  0  0
  4  6  1  0  0  0  0
  4 37  1  0  0  0  0
  6  7  1  1  0  0  0
  6 34  1  0  0  0  0
  6  8  1  0  0  0  0
  8  9  1  6  0  0  0
  8 10  1  0  0  0  0
  8 25  1  0  0  0  0
 10 11  1  1  0  0  0
 10 12  1  0  0  0  0
 12 13  1  0  0  0  0
 12 43  1  0  0  0  0
 12 44  1  0  0  0  0
 13 14  1  6  0  0  0
 13 18  1  0  0  0  0
 13 15  1  0  0  0  0
 15 16  1  0  0  0  0
 15 21  1  6  0  0  0
 16 17  1  0  0  0  0
 17 18  1  0  0  0  0
 17 19  1  0  0  0  0
 17 20  1  0  0  0  0
 19 45  1  0  0  0  0
 19 46  1  0  0  0  0
 19 47  1  0  0  0  0
 20 48  1  0  0  0  0
 20 49  1  0  0  0  0
 20 50  1  0  0  0  0
 21 22  2  0  0  0  0
 21 23  1  0  0  0  0
 23 24  1  0  0  0  0
 23 51  1  0  0  0  0
 23 52  1  0  0  0  0
 24 53  1  0  0  0  0
 25 26  1  0  0  0  0
 25 54  1  0  0  0  0
 25 55  1  0  0  0  0
 26 27  1  6  0  0  0
 26 28  1  0  0  0  0
 26 36  1  0  0  0  0
 28 34  1  0  0  0  0
 28 29  2  0  0  0  0
 29 30  1  0  0  0  0
 29 56  1  0  0  0  0
 30 31  2  0  0  0  0
 30 32  1  0  0  0  0
 32 33  2  0  0  0  0
 32 57  1  0  0  0  0
 33 34  1  0  0  0  0
 33 58  1  0  0  0  0
 34 35  1  6  0  0  0
 35 59  1  0  0  0  0
 35 60  1  0  0  0  0
 35 61  1  0  0  0  0
 37 62  1  0  0  0  0
M  END
$$$$
