ZINC03830993
 OpenBabel08292219463D

 35 36  0  0  1  0  0  0  0  0999 V2000
    4.1790    5.0962    1.1874 C   0  0  0  0  0  0  0  0  0  0  0  0
    4.7728    5.4341   -0.0147 C   0  0  0  0  0  0  0  0  0  0  0  0
    4.1570    5.1075   -1.2089 C   0  0  0  0  0  0  0  0  0  0  0  0
    2.9458    4.4421   -1.2039 C   0  0  0  0  0  0  0  0  0  0  0  0
    2.3476    4.1013    0.0012 C   0  0  0  0  0  0  0  0  0  0  0  0
    2.9655    4.4351    1.1984 C   0  0  0  0  0  0  0  0  0  0  0  0
    2.0624    3.9313    3.0204 I   0  0  0  0  0  0  0  0  0  0  0  0
    1.1566    3.4470    0.0091 O   0  0  0  0  0  0  0  0  0  0  0  0
    1.1751    2.0875    0.0020 C   0  0  0  0  0  0  0  0  0  0  0  0
   -0.0167    1.3776    0.0096 C   0  0  0  0  0  0  0  0  0  0  0  0
    0.0021   -0.0041    0.0020 C   0  0  0  0  0  0  0  0  0  0  0  0
    1.2128   -0.6813   -0.0132 C   0  0  0  0  0  0  0  0  0  0  0  0
    2.4047    0.0288   -0.0207 C   0  0  0  0  0  0  0  0  0  0  0  0
    2.3858    1.4105   -0.0131 C   0  0  0  0  0  0  0  0  0  0  0  0
    4.2331   -0.9937   -0.0429 I   0  0  0  0  0  0  0  0  0  0  0  0
    1.2314   -2.0411   -0.0202 O   0  0  0  0  0  0  0  0  0  0  0  0
   -1.7978   -1.0762    0.0141 I   0  0  0  0  0  0  0  0  0  0  0  0
    2.0130    3.9490   -3.0138 I   0  0  0  0  0  0  0  0  0  0  0  0
    6.0934    6.1601   -0.0234 C   0  0  0  0  0  0  0  0  0  0  0  0
    5.8454    7.6698   -0.0138 C   0  0  1  0  0  0  0  0  0  0  0  0
    5.2127    7.9287    0.8352 H   0  0  0  0  0  0  0  0  0  0  0  0
    7.1618    8.3943    0.1014 C   0  0  0  0  0  0  0  0  0  0  0  0
    7.6813    8.8636   -0.8834 O   0  0  0  0  0  0  0  0  0  0  0  0
    4.6620    5.3529    2.1186 H   0  0  0  0  0  0  0  0  0  0  0  0
    4.6229    5.3729   -2.1464 H   0  0  0  0  0  0  0  0  0  0  0  0
   -0.9592    1.9048    0.0169 H   0  0  0  0  0  0  0  0  0  0  0  0
    3.3136    1.9632   -0.0190 H   0  0  0  0  0  0  0  0  0  0  0  0
    1.2281   -2.4299   -0.9056 H   0  0  0  0  0  0  0  0  0  0  0  0
    6.6675    5.8805    0.8599 H   0  0  0  0  0  0  0  0  0  0  0  0
    6.6510    5.8892   -0.9200 H   0  0  0  0  0  0  0  0  0  0  0  0
    4.9442    9.0460   -1.2516 H   0  0  0  0  0  0  0  0  0  0  0  0
    5.7438    7.8346   -2.0634 H   0  0  0  0  0  0  0  0  0  0  0  0
    7.7572    8.5183    1.2980 O   0  0  0  0  0  1  0  0  0  0  0  0
    5.1562    8.0497   -1.2596 N   0  3  0  0  0  0  0  0  0  0  0  0
    4.2791    7.5211   -1.3348 H   0  0  0  0  0  0  0  0  0  0  0  0
  1  6  2  0  0  0  0
  1  2  1  0  0  0  0
  1 24  1  0  0  0  0
  2  3  2  0  0  0  0
  2 19  1  0  0  0  0
  3  4  1  0  0  0  0
  3 25  1  0  0  0  0
  4  5  2  0  0  0  0
  4 18  1  0  0  0  0
  5  6  1  0  0  0  0
  5  8  1  0  0  0  0
  6  7  1  0  0  0  0
  8  9  1  0  0  0  0
  9 14  2  0  0  0  0
  9 10  1  0  0  0  0
 10 11  2  0  0  0  0
 10 26  1  0  0  0  0
 11 12  1  0  0  0  0
 11 17  1  0  0  0  0
 12 13  2  0  0  0  0
 12 16  1  0  0  0  0
 13 14  1  0  0  0  0
 13 15  1  0  0  0  0
 14 27  1  0  0  0  0
 16 28  1  0  0  0  0
 19 20  1  0  0  0  0
 19 29  1  0  0  0  0
 19 30  1  0  0  0  0
 20 21  1  1  0  0  0
 20 22  1  0  0  0  0
 20 34  1  0  0  0  0
 22 23  2  0  0  0  0
 22 33  1  0  0  0  0
 31 34  1  0  0  0  0
 32 34  1  0  0  0  0
 34 35  1  0  0  0  0
M  CHG  1  34   1
M  END
$$$$
