ZINC12466745
 OpenBabel08292219463D

 71 73  0  0  1  0  0  0  0  0999 V2000
    0.9384   -1.7702    0.1612 C   0  0  0  0  0  0  0  0  0  0  0  0
    0.2088   -2.6476    1.1804 C   0  0  2  0  0  0  0  0  0  0  0  0
    0.2891   -3.6931    0.8829 H   0  0  0  0  0  0  0  0  0  0  0  0
   -1.2667   -2.2452    1.2360 C   0  0  0  0  0  0  0  0  0  0  0  0
   -1.3743   -0.7663    1.6210 C   0  0  0  0  0  0  0  0  0  0  0  0
   -0.6421   -0.5500    2.8763 N   0  0  0  0  0  0  0  0  0  0  0  0
    0.7590   -0.9841    2.9607 C   0  0  2  0  0  0  0  0  0  0  0  0
    1.3681   -0.3866    2.2824 H   0  0  0  0  0  0  0  0  0  0  0  0
    0.8425   -2.4602    2.5608 C   0  0  0  0  0  0  0  0  0  0  0  0
    1.2573   -0.8111    4.3724 C   0  0  0  0  0  0  0  0  0  0  0  0
    0.6397   -1.3031    5.3014 O   0  0  0  0  0  0  0  0  0  0  0  0
    2.2779   -0.1792    4.5855 O   0  0  0  0  0  1  0  0  0  0  0  0
   -1.2442    0.0359    3.9302 C   0  0  0  0  0  0  0  0  0  0  0  0
   -0.6566    0.1345    4.9865 O   0  0  0  0  0  0  0  0  0  0  0  0
   -2.6475    0.5686    3.7960 C   0  0  2  0  0  0  0  0  0  0  0  0
   -3.2577   -0.1491    3.2476 H   0  0  0  0  0  0  0  0  0  0  0  0
   -2.6184    1.8974    3.0382 C   0  0  0  0  0  0  0  0  0  0  0  0
   -4.0509    2.3657    2.7745 C   0  0  0  0  0  0  0  0  0  0  0  0
   -4.0217    3.6945    2.0167 C   0  0  0  0  0  0  0  0  0  0  0  0
   -5.3934    4.1429    1.7643 N   0  0  0  0  0  4  0  0  0  0  0  0
   -5.6071    5.2601    1.1277 C   0  0  0  0  0  0  0  0  0  0  0  0
   -4.5453    6.0177    0.6933 N   0  0  0  0  0  0  0  0  0  0  0  0
   -6.8943    5.6809    0.8908 N   0  0  0  0  0  0  0  0  0  0  0  0
   -3.2196    0.7786    5.1282 N   0  0  0  0  0  0  0  0  0  0  0  0
   -4.1336   -0.4087    5.8334 S   0  0  0  0  0  0  0  0  0  0  0  0
   -3.3908   -1.6147    5.7193 O   0  0  0  0  0  0  0  0  0  0  0  0
   -4.5677    0.1030    7.0860 O   0  0  0  0  0  0  0  0  0  0  0  0
   -5.5777   -0.6111    4.8443 C   0  0  0  0  0  0  0  0  0  0  0  0
   -5.7737   -1.7830    4.1411 C   0  0  0  0  0  0  0  0  0  0  0  0
   -6.9076   -1.9403    3.3657 C   0  0  0  0  0  0  0  0  0  0  0  0
   -7.8455   -0.9282    3.2939 C   0  0  0  0  0  0  0  0  0  0  0  0
   -7.6570    0.2501    3.9962 C   0  0  0  0  0  0  0  0  0  0  0  0
   -6.5220    0.4071    4.7769 C   0  0  0  0  0  0  0  0  0  0  0  0
   -6.3034    1.5878    5.4951 N   0  0  0  0  0  0  0  0  0  0  0  0
   -7.4163    2.5315    5.6665 C   0  0  0  0  0  0  0  0  0  0  0  0
   -8.1196    2.6783    4.3108 C   0  0  1  0  0  0  0  0  0  0  0  0
   -7.3993    3.0004    3.5587 H   0  0  0  0  0  0  0  0  0  0  0  0
   -8.7011    1.3310    3.8995 C   0  0  0  0  0  0  0  0  0  0  0  0
   -9.2400    3.7140    4.4240 C   0  0  0  0  0  0  0  0  0  0  0  0
    1.9892   -2.0570    0.1211 H   0  0  0  0  0  0  0  0  0  0  0  0
    0.4875   -1.9039   -0.8221 H   0  0  0  0  0  0  0  0  0  0  0  0
    0.8583   -0.7246    0.4585 H   0  0  0  0  0  0  0  0  0  0  0  0
   -1.7233   -2.4008    0.2585 H   0  0  0  0  0  0  0  0  0  0  0  0
   -1.7819   -2.8531    1.9797 H   0  0  0  0  0  0  0  0  0  0  0  0
   -0.9391   -0.1511    0.8334 H   0  0  0  0  0  0  0  0  0  0  0  0
   -2.4223   -0.4999    1.7586 H   0  0  0  0  0  0  0  0  0  0  0  0
    0.3075   -3.0662    3.2920 H   0  0  0  0  0  0  0  0  0  0  0  0
    1.8873   -2.7689    2.5264 H   0  0  0  0  0  0  0  0  0  0  0  0
   -2.0959    2.6448    3.6354 H   0  0  0  0  0  0  0  0  0  0  0  0
   -2.0995    1.7631    2.0891 H   0  0  0  0  0  0  0  0  0  0  0  0
   -4.5733    1.6183    2.1774 H   0  0  0  0  0  0  0  0  0  0  0  0
   -4.5697    2.5000    3.7236 H   0  0  0  0  0  0  0  0  0  0  0  0
   -3.4993    4.4419    2.6139 H   0  0  0  0  0  0  0  0  0  0  0  0
   -3.5028    3.5603    1.0676 H   0  0  0  0  0  0  0  0  0  0  0  0
   -3.6371    5.7208    0.8605 H   0  0  0  0  0  0  0  0  0  0  0  0
   -4.7043    6.8491    0.2196 H   0  0  0  0  0  0  0  0  0  0  0  0
   -7.6434    5.1463    1.1973 H   0  0  0  0  0  0  0  0  0  0  0  0
   -7.0533    6.5123    0.4171 H   0  0  0  0  0  0  0  0  0  0  0  0
   -3.0630    1.6131    5.5973 H   0  0  0  0  0  0  0  0  0  0  0  0
   -5.0422   -2.5756    4.1964 H   0  0  0  0  0  0  0  0  0  0  0  0
   -7.0604   -2.8563    2.8144 H   0  0  0  0  0  0  0  0  0  0  0  0
   -8.7295   -1.0566    2.6869 H   0  0  0  0  0  0  0  0  0  0  0  0
   -5.4313    1.7800    5.8740 H   0  0  0  0  0  0  0  0  0  0  0  0
   -8.1175    2.1450    6.4061 H   0  0  0  0  0  0  0  0  0  0  0  0
   -7.0333    3.4992    5.9903 H   0  0  0  0  0  0  0  0  0  0  0  0
   -9.0703    1.3847    2.8753 H   0  0  0  0  0  0  0  0  0  0  0  0
   -9.5300    1.0919    4.5658 H   0  0  0  0  0  0  0  0  0  0  0  0
   -8.8182    4.6747    4.7194 H   0  0  0  0  0  0  0  0  0  0  0  0
   -9.7384    3.8170    3.4601 H   0  0  0  0  0  0  0  0  0  0  0  0
   -9.9616    3.3882    5.1732 H   0  0  0  0  0  0  0  0  0  0  0  0
   -6.1425    3.6084    2.0708 H   0  0  0  0  0  0  0  0  0  0  0  0
  1  2  1  0  0  0  0
  1 40  1  0  0  0  0
  1 41  1  0  0  0  0
  1 42  1  0  0  0  0
  2  3  1  6  0  0  0
  2  9  1  0  0  0  0
  2  4  1  0  0  0  0
  4  5  1  0  0  0  0
  4 43  1  0  0  0  0
  4 44  1  0  0  0  0
  5  6  1  0  0  0  0
  5 45  1  0  0  0  0
  5 46  1  0  0  0  0
  6  7  1  0  0  0  0
  6 13  1  0  0  0  0
  7  8  1  6  0  0  0
  7  9  1  0  0  0  0
  7 10  1  0  0  0  0
  9 47  1  0  0  0  0
  9 48  1  0  0  0  0
 10 11  2  0  0  0  0
 10 12  1  0  0  0  0
 13 14  2  0  0  0  0
 13 15  1  0  0  0  0
 15 16  1  6  0  0  0
 15 17  1  0  0  0  0
 15 24  1  0  0  0  0
 17 18  1  0  0  0  0
 17 49  1  0  0  0  0
 17 50  1  0  0  0  0
 18 19  1  0  0  0  0
 18 51  1  0  0  0  0
 18 52  1  0  0  0  0
 19 20  1  0  0  0  0
 19 53  1  0  0  0  0
 19 54  1  0  0  0  0
 20 21  2  0  0  0  0
 20 71  1  0  0  0  0
 21 22  1  0  0  0  0
 21 23  1  0  0  0  0
 22 55  1  0  0  0  0
 22 56  1  0  0  0  0
 23 57  1  0  0  0  0
 23 58  1  0  0  0  0
 24 25  1  0  0  0  0
 24 59  1  0  0  0  0
 25 26  2  0  0  0  0
 25 27  2  0  0  0  0
 25 28  1  0  0  0  0
 28 33  2  0  0  0  0
 28 29  1  0  0  0  0
 29 30  2  0  0  0  0
 29 60  1  0  0  0  0
 30 31  1  0  0  0  0
 30 61  1  0  0  0  0
 31 32  2  0  0  0  0
 31 62  1  0  0  0  0
 32 38  1  0  0  0  0
 32 33  1  0  0  0  0
 33 34  1  0  0  0  0
 34 35  1  0  0  0  0
 34 63  1  0  0  0  0
 35 36  1  0  0  0  0
 35 64  1  0  0  0  0
 35 65  1  0  0  0  0
 36 37  1  6  0  0  0
 36 38  1  0  0  0  0
 36 39  1  0  0  0  0
 38 66  1  0  0  0  0
 38 67  1  0  0  0  0
 39 68  1  0  0  0  0
 39 69  1  0  0  0  0
 39 70  1  0  0  0  0
M  END
$$$$
