ZINC00057490
 OpenBabel08292219463D

 35 37  0  0  0  0  0  0  0  0999 V2000
   -0.0167    1.3786    0.0096 C   0  0  0  0  0  0  0  0  0  0  0  0
    1.1697    2.0890    0.0021 C   0  0  0  0  0  0  0  0  0  0  0  0
    2.3774    1.4191   -0.0130 C   0  0  0  0  0  0  0  0  0  0  0  0
    2.3994    0.0308   -0.0207 C   0  0  0  0  0  0  0  0  0  0  0  0
    1.2066   -0.6797   -0.0132 C   0  0  0  0  0  0  0  0  0  0  0  0
    0.0021   -0.0041    0.0020 C   0  0  0  0  0  0  0  0  0  0  0  0
    3.6234   -0.6519   -0.0366 N   0  0  0  0  0  0  0  0  0  0  0  0
    3.8897   -1.8353    0.5806 C   0  0  0  0  0  0  0  0  0  0  0  0
    5.1884   -2.1493    0.3177 C   0  0  0  0  0  0  0  0  0  0  0  0
    5.7230   -1.1320   -0.4782 C   0  0  0  0  0  0  0  0  0  0  0  0
    4.7893   -0.2412   -0.6955 N   0  0  0  0  0  0  0  0  0  0  0  0
    2.9986   -2.5862    1.3415 N   0  0  0  0  0  2  0  0  0  0  0  0
    3.4907   -4.0118    2.0255 S   0  0  0  0  0  0  0  0  0  0  0  0
    3.7568   -4.9059    0.9535 O   0  0  0  0  0  0  0  0  0  0  0  0
    4.4696   -3.6781    3.0000 O   0  0  0  0  0  0  0  0  0  0  0  0
    2.1122   -4.6723    2.9019 C   0  0  0  0  0  0  0  0  0  0  0  0
    1.9124   -4.3357    4.2282 C   0  0  0  0  0  0  0  0  0  0  0  0
    0.8330   -4.8516    4.9181 C   0  0  0  0  0  0  0  0  0  0  0  0
   -0.0525   -5.7097    4.2782 C   0  0  0  0  0  0  0  0  0  0  0  0
    0.1513   -6.0458    2.9459 C   0  0  0  0  0  0  0  0  0  0  0  0
    1.2296   -5.5218    2.2603 C   0  0  0  0  0  0  0  0  0  0  0  0
   -1.1449   -6.2336    4.9731 N   0  0  0  0  0  0  0  0  0  0  0  0
   -0.9597    1.9047    0.0260 H   0  0  0  0  0  0  0  0  0  0  0  0
    1.1518    3.1689    0.0077 H   0  0  0  0  0  0  0  0  0  0  0  0
    3.3036    1.9745   -0.0193 H   0  0  0  0  0  0  0  0  0  0  0  0
    1.2206   -1.7596   -0.0195 H   0  0  0  0  0  0  0  0  0  0  0  0
   -0.9261   -0.5562    0.0079 H   0  0  0  0  0  0  0  0  0  0  0  0
    5.7124   -3.0284    0.6628 H   0  0  0  0  0  0  0  0  0  0  0  0
    6.7345   -1.0907   -0.8545 H   0  0  0  0  0  0  0  0  0  0  0  0
    2.6014   -3.6688    4.7251 H   0  0  0  0  0  0  0  0  0  0  0  0
    0.6776   -4.5886    5.9539 H   0  0  0  0  0  0  0  0  0  0  0  0
   -0.5351   -6.7129    2.4456 H   0  0  0  0  0  0  0  0  0  0  0  0
    1.3861   -5.7792    1.2232 H   0  0  0  0  0  0  0  0  0  0  0  0
   -1.2860   -5.9985    5.9035 H   0  0  0  0  0  0  0  0  0  0  0  0
   -1.7626   -6.8327    4.5253 H   0  0  0  0  0  0  0  0  0  0  0  0
  1  6  2  0  0  0  0
  1  2  1  0  0  0  0
  1 23  1  0  0  0  0
  2  3  2  0  0  0  0
  2 24  1  0  0  0  0
  3  4  1  0  0  0  0
  3 25  1  0  0  0  0
  4  5  2  0  0  0  0
  4  7  1  0  0  0  0
  5  6  1  0  0  0  0
  5 26  1  0  0  0  0
  6 27  1  0  0  0  0
  7 11  1  0  0  0  0
  7  8  1  0  0  0  0
  8  9  2  0  0  0  0
  8 12  1  0  0  0  0
  9 10  1  0  0  0  0
  9 28  1  0  0  0  0
 10 11  2  0  0  0  0
 10 29  1  0  0  0  0
 12 13  1  0  0  0  0
 13 14  2  0  0  0  0
 13 15  2  0  0  0  0
 13 16  1  0  0  0  0
 16 21  2  0  0  0  0
 16 17  1  0  0  0  0
 17 18  2  0  0  0  0
 17 30  1  0  0  0  0
 18 19  1  0  0  0  0
 18 31  1  0  0  0  0
 19 20  2  0  0  0  0
 19 22  1  0  0  0  0
 20 21  1  0  0  0  0
 20 32  1  0  0  0  0
 21 33  1  0  0  0  0
 22 34  1  0  0  0  0
 22 35  1  0  0  0  0
M  END
$$$$
