ZINC00001621
 OpenBabel08292219463D

 18 18  0  0  1  0  0  0  0  0999 V2000
   -0.7385    2.2922    1.2707 C   0  0  2  0  0  0  0  0  0  0  0  0
   -2.1739    1.7626    1.2816 C   0  0  2  0  0  0  0  0  0  0  0  0
   -2.9139    2.2694    0.0421 C   0  0  2  0  0  0  0  0  0  0  0  0
   -2.1978    1.7760   -1.2167 C   0  0  2  0  0  0  0  0  0  0  0  0
   -0.7624    2.3056   -1.2276 C   0  0  2  0  0  0  0  0  0  0  0  0
   -0.0224    1.7987    0.0119 C   0  0  2  0  0  0  0  0  0  0  0  0
    0.0021   -0.0041    0.0020 Cl  0  0  0  0  0  0  0  0  0  0  0  0
   -0.7868    4.1084   -1.2177 Cl  0  0  0  0  0  0  0  0  0  0  0  0
   -3.0698    2.3733   -2.6774 Cl  0  0  0  0  0  0  0  0  0  0  0  0
   -2.9383    4.0722    0.0520 Cl  0  0  0  0  0  0  0  0  0  0  0  0
   -3.0178    2.3440    2.7650 Cl  0  0  0  0  0  0  0  0  0  0  0  0
    0.1335    1.6949    2.7314 Cl  0  0  0  0  0  0  0  0  0  0  0  0
   -0.7533    3.3820    1.2767 H   0  0  0  0  0  0  0  0  0  0  0  0
   -2.1591    0.6727    1.2756 H   0  0  0  0  0  0  0  0  0  0  0  0
   -3.9365    1.8921    0.0498 H   0  0  0  0  0  0  0  0  0  0  0  0
   -2.1830    0.6861   -1.2227 H   0  0  0  0  0  0  0  0  0  0  0  0
   -0.2522    1.9541   -2.1244 H   0  0  0  0  0  0  0  0  0  0  0  0
    1.0002    2.1760    0.0042 H   0  0  0  0  0  0  0  0  0  0  0  0
  1  6  1  0  0  0  0
  1  2  1  0  0  0  0
  1 12  1  0  0  0  0
  1 13  1  1  0  0  0
  2  3  1  0  0  0  0
  2 11  1  0  0  0  0
  2 14  1  6  0  0  0
  3  4  1  0  0  0  0
  3 10  1  0  0  0  0
  3 15  1  1  0  0  0
  4  5  1  0  0  0  0
  4  9  1  0  0  0  0
  4 16  1  6  0  0  0
  5  6  1  0  0  0  0
  5  8  1  0  0  0  0
  5 17  1  6  0  0  0
  6  7  1  0  0  0  0
  6 18  1  6  0  0  0
M  END
$$$$
