ZINC03872738
 OpenBabel08292219463D

 24 24  0  0  0  0  0  0  0  0999 V2000
   -0.0142    1.4327    0.1067 C   0  0  0  0  0  0  0  0  0  0  0  0
    1.1858    2.1135    0.0238 C   0  0  0  0  0  0  0  0  0  0  0  0
    2.3782    1.4126   -0.0120 C   0  0  0  0  0  0  0  0  0  0  0  0
    2.3692    0.0302    0.0357 C   0  0  0  0  0  0  0  0  0  0  0  0
    1.1679   -0.6507    0.1191 C   0  0  0  0  0  0  0  0  0  0  0  0
   -0.0238    0.0513    0.1543 C   0  0  0  0  0  0  0  0  0  0  0  0
    1.1556   -2.3856    0.1784 Cl  0  0  0  0  0  0  0  0  0  0  0  0
    3.6675   -0.7339   -0.0038 C   0  0  0  0  0  0  0  0  0  0  0  0
    4.1719   -0.9401    1.4013 C   0  0  0  0  0  0  0  0  0  0  0  0
    3.5380   -0.5082    2.3441 O   0  0  0  0  0  0  0  0  0  0  0  0
    5.3120   -1.5955    1.6099 N   0  0  0  0  0  0  0  0  0  0  0  0
    5.3418   -2.6253    2.4463 C   0  0  0  0  0  0  0  0  0  0  0  0
    4.1857   -3.0879    2.9987 N   0  0  0  0  0  0  0  0  0  0  0  0
    6.5287   -3.2199    2.7525 N   0  0  0  0  0  0  0  0  0  0  0  0
    3.8852    2.2679   -0.1173 Cl  0  0  0  0  0  0  0  0  0  0  0  0
   -0.9445    1.9804    0.1388 H   0  0  0  0  0  0  0  0  0  0  0  0
    1.1927    3.1929   -0.0134 H   0  0  0  0  0  0  0  0  0  0  0  0
   -0.9617   -0.4801    0.2195 H   0  0  0  0  0  0  0  0  0  0  0  0
    3.5051   -1.7022   -0.4773 H   0  0  0  0  0  0  0  0  0  0  0  0
    4.4043   -0.1691   -0.5750 H   0  0  0  0  0  0  0  0  0  0  0  0
    3.3334   -2.7163    2.7223 H   0  0  0  0  0  0  0  0  0  0  0  0
    4.2147   -3.7889    3.6686 H   0  0  0  0  0  0  0  0  0  0  0  0
    7.3519   -2.8905    2.3592 H   0  0  0  0  0  0  0  0  0  0  0  0
    6.5505   -3.9726    3.3640 H   0  0  0  0  0  0  0  0  0  0  0  0
  1  6  2  0  0  0  0
  1  2  1  0  0  0  0
  1 16  1  0  0  0  0
  2  3  2  0  0  0  0
  2 17  1  0  0  0  0
  3  4  1  0  0  0  0
  3 15  1  0  0  0  0
  4  5  2  0  0  0  0
  4  8  1  0  0  0  0
  5  6  1  0  0  0  0
  5  7  1  0  0  0  0
  6 18  1  0  0  0  0
  8  9  1  0  0  0  0
  8 19  1  0  0  0  0
  8 20  1  0  0  0  0
  9 10  2  0  0  0  0
  9 11  1  0  0  0  0
 11 12  2  0  0  0  0
 12 13  1  0  0  0  0
 12 14  1  0  0  0  0
 13 21  1  0  0  0  0
 13 22  1  0  0  0  0
 14 23  1  0  0  0  0
 14 24  1  0  0  0  0
M  END
$$$$
