ZINC03918087
 OpenBabel08292219463D

 69 73  0  0  1  0  0  0  0  0999 V2000
    0.5150    0.0942    7.2444 C   0  0  0  0  0  0  0  0  0  0  0  0
    0.1900   -0.3014    5.8026 C   0  0  1  0  0  0  0  0  0  0  0  0
    1.1127   -0.3614    5.2254 H   0  0  0  0  0  0  0  0  0  0  0  0
   -0.5085   -1.6636    5.7921 C   0  0  2  0  0  0  0  0  0  0  0  0
    0.1643   -2.4212    6.1939 H   0  0  0  0  0  0  0  0  0  0  0  0
   -0.8843   -2.0248    4.3517 C   0  0  2  0  0  0  0  0  0  0  0  0
    0.0209   -2.1235    3.7526 H   0  0  0  0  0  0  0  0  0  0  0  0
   -1.7663   -0.9147    3.7721 C   0  0  0  0  0  0  0  0  0  0  0  0
   -1.0192    0.4186    3.8607 C   0  0  1  0  0  0  0  0  0  0  0  0
   -1.6586    1.2192    3.4888 H   0  0  0  0  0  0  0  0  0  0  0  0
   -0.6723    0.6792    5.2222 O   0  0  0  0  0  0  0  0  0  0  0  0
    0.1696    0.3521    3.0704 O   0  0  0  0  0  0  0  0  0  0  0  0
    0.7875    1.6202    2.8423 C   0  0  1  0  0  0  0  0  0  0  0  0
    0.0364    2.4057    2.9245 H   0  0  0  0  0  0  0  0  0  0  0  0
    1.8713    1.8482    3.8936 C   0  0  0  0  0  0  0  0  0  0  0  0
    2.6612    3.1042    3.5067 C   0  0  1  0  0  0  0  0  0  0  0  0
    3.4811    2.7902    2.2574 C   0  0  0  0  0  0  0  0  0  0  0  0
    2.6090    2.1869    1.1864 C   0  0  0  0  0  0  0  0  0  0  0  0
    1.3765    1.6468    1.4552 C   0  0  0  0  0  0  0  0  0  0  0  0
    0.6155    1.0847    0.4217 C   0  0  0  0  0  0  0  0  0  0  0  0
    1.0919    1.0819   -0.8875 C   0  0  0  0  0  0  0  0  0  0  0  0
    2.3535    1.6455   -1.1656 C   0  0  0  0  0  0  0  0  0  0  0  0
    3.1021    2.1926   -0.1251 C   0  0  0  0  0  0  0  0  0  0  0  0
    4.3175    2.7354   -0.3842 O   0  0  0  0  0  0  0  0  0  0  0  0
    2.8707    1.6513   -2.5448 C   0  0  0  0  0  0  0  0  0  0  0  0
    3.9582    2.1389   -2.7855 O   0  0  0  0  0  0  0  0  0  0  0  0
    2.0646    1.0643   -3.6354 C   0  0  0  0  0  0  0  0  0  0  0  0
    2.5444    1.0651   -4.9411 C   0  0  0  0  0  0  0  0  0  0  0  0
    1.7841    0.5148   -5.9600 C   0  0  0  0  0  0  0  0  0  0  0  0
    0.5481   -0.0381   -5.6929 C   0  0  0  0  0  0  0  0  0  0  0  0
    0.0493   -0.0508   -4.3941 C   0  0  0  0  0  0  0  0  0  0  0  0
    0.8055    0.5015   -3.3556 C   0  0  0  0  0  0  0  0  0  0  0  0
    0.2887    0.4960   -1.9751 C   0  0  0  0  0  0  0  0  0  0  0  0
   -0.7994    0.0089   -1.7342 O   0  0  0  0  0  0  0  0  0  0  0  0
   -1.1652   -0.5961   -4.1364 O   0  0  0  0  0  0  0  0  0  0  0  0
   -1.8803   -1.1413   -5.2470 C   0  0  0  0  0  0  0  0  0  0  0  0
   -0.5973    0.5440    0.6972 O   0  0  0  0  0  0  0  0  0  0  0  0
    1.7077    4.2347    3.2174 C   0  0  0  0  0  0  0  0  0  0  0  0
    1.3555    4.4523    2.0830 O   0  0  0  0  0  0  0  0  0  0  0  0
    1.1935    5.0937    4.3439 C   0  0  0  0  0  0  0  0  0  0  0  0
    0.3120    6.0889    3.8199 O   0  0  0  0  0  0  0  0  0  0  0  0
    3.5348    3.4728    4.5758 O   0  0  0  0  0  0  0  0  0  0  0  0
   -1.6907   -1.6002    6.5925 O   0  0  0  0  0  0  0  0  0  0  0  0
   -0.4077    0.1538    7.8216 H   0  0  0  0  0  0  0  0  0  0  0  0
    1.1728   -0.6538    7.6870 H   0  0  0  0  0  0  0  0  0  0  0  0
    1.0115    1.0646    7.2518 H   0  0  0  0  0  0  0  0  0  0  0  0
   -2.6934   -0.8513    4.3418 H   0  0  0  0  0  0  0  0  0  0  0  0
   -1.9930   -1.1367    2.7293 H   0  0  0  0  0  0  0  0  0  0  0  0
    2.5404    0.9883    3.9239 H   0  0  0  0  0  0  0  0  0  0  0  0
    1.4112    1.9903    4.8714 H   0  0  0  0  0  0  0  0  0  0  0  0
    4.2726    2.0865    2.5147 H   0  0  0  0  0  0  0  0  0  0  0  0
    3.9280    3.7102    1.8805 H   0  0  0  0  0  0  0  0  0  0  0  0
    4.2898    3.6779   -0.5986 H   0  0  0  0  0  0  0  0  0  0  0  0
    3.5102    1.4955   -5.1607 H   0  0  0  0  0  0  0  0  0  0  0  0
    2.1617    0.5187   -6.9718 H   0  0  0  0  0  0  0  0  0  0  0  0
   -0.0349   -0.4635   -6.4964 H   0  0  0  0  0  0  0  0  0  0  0  0
   -2.8331   -1.5440   -4.9033 H   0  0  0  0  0  0  0  0  0  0  0  0
   -2.0613   -0.3577   -5.9827 H   0  0  0  0  0  0  0  0  0  0  0  0
   -1.2921   -1.9382   -5.7021 H   0  0  0  0  0  0  0  0  0  0  0  0
   -0.5786   -0.4124    0.8386 H   0  0  0  0  0  0  0  0  0  0  0  0
    0.6995    4.5228    4.9997 H   0  0  0  0  0  0  0  0  0  0  0  0
    2.0325    5.5781    4.8435 H   0  0  0  0  0  0  0  0  0  0  0  0
   -0.0576    6.6794    4.4906 H   0  0  0  0  0  0  0  0  0  0  0  0
    4.0772    4.2515    4.3898 H   0  0  0  0  0  0  0  0  0  0  0  0
   -1.8810   -3.5544    3.4001 H   0  0  0  0  0  0  0  0  0  0  0  0
   -1.0879   -4.0276    4.7832 H   0  0  0  0  0  0  0  0  0  0  0  0
   -1.5275   -1.3709    7.5176 H   0  0  0  0  0  0  0  0  0  0  0  0
   -1.6423   -3.2885    4.3540 N   0  3  0  0  0  0  0  0  0  0  0  0
   -2.5070   -3.1624    4.8930 H   0  0  0  0  0  0  0  0  0  0  0  0
  1  2  1  0  0  0  0
  1 44  1  0  0  0  0
  1 45  1  0  0  0  0
  1 46  1  0  0  0  0
  2  3  1  6  0  0  0
  2 11  1  0  0  0  0
  2  4  1  0  0  0  0
  4  5  1  1  0  0  0
  4  6  1  0  0  0  0
  4 43  1  0  0  0  0
  6  7  1  6  0  0  0
  6  8  1  0  0  0  0
  6 68  1  0  0  0  0
  8  9  1  0  0  0  0
  8 47  1  0  0  0  0
  8 48  1  0  0  0  0
  9 10  1  6  0  0  0
  9 11  1  0  0  0  0
  9 12  1  0  0  0  0
 12 13  1  0  0  0  0
 13 14  1  1  0  0  0
 13 19  1  0  0  0  0
 13 15  1  0  0  0  0
 15 16  1  0  0  0  0
 15 49  1  0  0  0  0
 15 50  1  0  0  0  0
 16 17  1  0  0  0  0
 16 38  1  6  0  0  0
 16 42  1  0  0  0  0
 17 18  1  0  0  0  0
 17 51  1  0  0  0  0
 17 52  1  0  0  0  0
 18 23  2  0  0  0  0
 18 19  1  0  0  0  0
 19 20  2  0  0  0  0
 20 21  1  0  0  0  0
 20 37  1  0  0  0  0
 21 33  1  0  0  0  0
 21 22  2  0  0  0  0
 22 23  1  0  0  0  0
 22 25  1  0  0  0  0
 23 24  1  0  0  0  0
 24 53  1  0  0  0  0
 25 26  2  0  0  0  0
 25 27  1  0  0  0  0
 27 32  2  0  0  0  0
 27 28  1  0  0  0  0
 28 29  2  0  0  0  0
 28 54  1  0  0  0  0
 29 30  1  0  0  0  0
 29 55  1  0  0  0  0
 30 31  2  0  0  0  0
 30 56  1  0  0  0  0
 31 32  1  0  0  0  0
 31 35  1  0  0  0  0
 32 33  1  0  0  0  0
 33 34  2  0  0  0  0
 35 36  1  0  0  0  0
 36 57  1  0  0  0  0
 36 58  1  0  0  0  0
 36 59  1  0  0  0  0
 37 60  1  0  0  0  0
 38 39  2  0  0  0  0
 38 40  1  0  0  0  0
 40 41  1  0  0  0  0
 40 61  1  0  0  0  0
 40 62  1  0  0  0  0
 41 63  1  0  0  0  0
 42 64  1  0  0  0  0
 43 67  1  0  0  0  0
 65 68  1  0  0  0  0
 66 68  1  0  0  0  0
 68 69  1  0  0  0  0
M  CHG  1  68   1
M  END
$$$$
