ZINC00896918
 OpenBabel08292219463D

 22 22  0  0  0  0  0  0  0  0999 V2000
   -0.0167    1.3778    0.0096 C   0  0  0  0  0  0  0  0  0  0  0  0
    1.1707    2.0862    0.0021 C   0  0  0  0  0  0  0  0  0  0  0  0
    2.3777    1.4131   -0.0135 C   0  0  0  0  0  0  0  0  0  0  0  0
    2.3983    0.0299   -0.0210 C   0  0  0  0  0  0  0  0  0  0  0  0
    1.2094   -0.6794   -0.0130 C   0  0  0  0  0  0  0  0  0  0  0  0
    0.0021   -0.0041    0.0020 C   0  0  0  0  0  0  0  0  0  0  0  0
   -1.5117   -0.9057    0.0122 S   0  0  0  0  0  0  0  0  0  0  0  0
   -1.3921   -1.8888    1.0313 O   0  0  0  0  0  0  0  0  0  0  0  0
   -2.5575    0.0562    0.0006 O   0  0  0  0  0  0  0  0  0  0  0  0
   -1.6044   -1.7230   -1.4251 N   0  0  0  0  0  0  0  0  0  0  0  0
    1.2335   -2.4152   -0.0231 Cl  0  0  0  0  0  0  0  0  0  0  0  0
    3.9142   -0.8161   -0.0412 Cl  0  0  0  0  0  0  0  0  0  0  0  0
    1.1451    3.8480    0.0117 S   0  0  0  0  0  0  0  0  0  0  0  0
    2.3791    4.2752   -0.5486 O   0  0  0  0  0  0  0  0  0  0  0  0
   -0.1113    4.2388   -0.5251 O   0  0  0  0  0  0  0  0  0  0  0  0
    1.1530    4.3291    1.5963 N   0  0  0  0  0  0  0  0  0  0  0  0
   -0.9593    1.9047    0.0259 H   0  0  0  0  0  0  0  0  0  0  0  0
    3.3048    1.9671   -0.0201 H   0  0  0  0  0  0  0  0  0  0  0  0
   -0.8907   -1.6407   -2.0768 H   0  0  0  0  0  0  0  0  0  0  0  0
   -2.3725   -2.2840   -1.6154 H   0  0  0  0  0  0  0  0  0  0  0  0
    1.1694    3.6663    2.3043 H   0  0  0  0  0  0  0  0  0  0  0  0
    1.1413    5.2737    1.8164 H   0  0  0  0  0  0  0  0  0  0  0  0
  1  6  2  0  0  0  0
  1  2  1  0  0  0  0
  1 17  1  0  0  0  0
  2  3  2  0  0  0  0
  2 13  1  0  0  0  0
  3  4  1  0  0  0  0
  3 18  1  0  0  0  0
  4  5  2  0  0  0  0
  4 12  1  0  0  0  0
  5  6  1  0  0  0  0
  5 11  1  0  0  0  0
  6  7  1  0  0  0  0
  7  8  2  0  0  0  0
  7  9  2  0  0  0  0
  7 10  1  0  0  0  0
 10 19  1  0  0  0  0
 10 20  1  0  0  0  0
 13 14  2  0  0  0  0
 13 15  2  0  0  0  0
 13 16  1  0  0  0  0
 16 21  1  0  0  0  0
 16 22  1  0  0  0  0
M  END
$$$$
