ZINC00137884
 OpenBabel08292219463D

 28 29  0  0  1  0  0  0  0  0999 V2000
   -0.0184    1.5028    0.0103 C   0  0  0  0  0  0  0  0  0  0  0  0
    0.0021   -0.0041    0.0020 C   0  0  0  0  0  0  0  0  0  0  0  0
   -1.1526   -0.7039    0.0037 C   0  0  0  0  0  0  0  0  0  0  0  0
   -1.1160   -2.0718   -0.0039 N   0  0  0  0  0  0  0  0  0  0  0  0
    0.0598   -2.7257   -0.0125 C   0  0  0  0  0  0  0  0  0  0  0  0
    0.0693   -3.9416   -0.0187 O   0  0  0  0  0  0  0  0  0  0  0  0
    1.2256   -2.0531   -0.0148 N   0  0  0  0  0  0  0  0  0  0  0  0
    2.0644   -2.5402   -0.0217 H   0  0  0  0  0  0  0  0  0  0  0  0
    1.2322   -0.7047   -0.0135 C   0  0  0  0  0  0  0  0  0  0  0  0
    2.2865   -0.0953   -0.0208 O   0  0  0  0  0  0  0  0  0  0  0  0
   -2.3687   -2.8312   -0.0021 C   0  0  1  0  0  0  0  0  0  0  0  0
   -3.2174   -2.1561    0.1072 H   0  0  0  0  0  0  0  0  0  0  0  0
   -2.4974   -3.6288   -1.2797 C   0  0  0  0  0  0  0  0  0  0  0  0
   -2.9247   -4.8319   -0.9753 C   0  0  0  0  0  0  0  0  0  0  0  0
   -3.1064   -4.9081    0.5235 C   0  0  2  0  0  0  0  0  0  0  0  0
   -4.1615   -4.8130    0.7800 H   0  0  0  0  0  0  0  0  0  0  0  0
   -2.3622   -3.7987    1.0650 O   0  0  0  0  0  0  0  0  0  0  0  0
   -2.5509   -6.2303    1.0564 C   0  0  0  0  0  0  0  0  0  0  0  0
   -2.8341   -6.3376    2.4529 O   0  0  0  0  0  0  0  0  0  0  0  0
    1.0042    1.8801    0.0026 H   0  0  0  0  0  0  0  0  0  0  0  0
   -0.5455    1.8639   -0.8728 H   0  0  0  0  0  0  0  0  0  0  0  0
   -0.5286    1.8543    0.9071 H   0  0  0  0  0  0  0  0  0  0  0  0
   -2.1006   -0.1866    0.0113 H   0  0  0  0  0  0  0  0  0  0  0  0
   -2.2758   -3.2697   -2.2738 H   0  0  0  0  0  0  0  0  0  0  0  0
   -3.1140   -5.6314   -1.6762 H   0  0  0  0  0  0  0  0  0  0  0  0
   -3.0175   -7.0605    0.5262 H   0  0  0  0  0  0  0  0  0  0  0  0
   -1.4724   -6.2602    0.9010 H   0  0  0  0  0  0  0  0  0  0  0  0
   -2.5099   -7.1534    2.8585 H   0  0  0  0  0  0  0  0  0  0  0  0
  1  2  1  0  0  0  0
  1 20  1  0  0  0  0
  1 21  1  0  0  0  0
  1 22  1  0  0  0  0
  2  9  1  0  0  0  0
  2  3  2  0  0  0  0
  3  4  1  0  0  0  0
  3 23  1  0  0  0  0
  4  5  1  0  0  0  0
  4 11  1  0  0  0  0
  5  6  2  0  0  0  0
  5  7  1  0  0  0  0
  7  8  1  0  0  0  0
  7  9  1  0  0  0  0
  9 10  2  0  0  0  0
 11 12  1  1  0  0  0
 11 17  1  0  0  0  0
 11 13  1  0  0  0  0
 13 14  2  0  0  0  0
 13 24  1  0  0  0  0
 14 15  1  0  0  0  0
 14 25  1  0  0  0  0
 15 16  1  1  0  0  0
 15 17  1  0  0  0  0
 15 18  1  0  0  0  0
 18 19  1  0  0  0  0
 18 26  1  0  0  0  0
 18 27  1  0  0  0  0
 19 28  1  0  0  0  0
M  END
$$$$
