ZINC02036848
 OpenBabel08292219463D

 47 49  0  0  1  0  0  0  0  0999 V2000
   -0.0184    1.5028    0.0103 C   0  0  0  0  0  0  0  0  0  0  0  0
    0.0021   -0.0041    0.0020 C   0  0  0  0  0  0  0  0  0  0  0  0
    0.0055   -0.6709   -1.1857 C   0  0  0  0  0  0  0  0  0  0  0  0
    0.0245   -2.0794   -1.2010 C   0  0  0  0  0  0  0  0  0  0  0  0
    0.0399   -2.7830    0.0248 C   0  0  0  0  0  0  0  0  0  0  0  0
    0.0360   -2.0753    1.2236 C   0  0  0  0  0  0  0  0  0  0  0  0
    0.0229   -0.6981    1.2072 C   0  0  0  0  0  0  0  0  0  0  0  0
    0.0249    0.0638    2.5074 C   0  0  0  0  0  0  0  0  0  0  0  0
    0.0577   -4.1618    0.0359 N   0  0  0  0  0  0  0  0  0  0  0  0
    0.0606   -4.8214   -1.1563 C   0  0  0  0  0  0  0  0  0  0  0  0
    0.0765   -6.1417   -1.2331 N   0  0  0  0  0  0  0  0  0  0  0  0
    0.0788   -6.7708   -2.4056 C   0  0  0  0  0  0  0  0  0  0  0  0
    0.0937   -7.9892   -2.4003 O   0  0  0  0  0  0  0  0  0  0  0  0
    0.0651   -6.1474   -3.5924 N   0  0  0  0  0  0  0  0  0  0  0  0
    0.0672   -6.6747   -4.4065 H   0  0  0  0  0  0  0  0  0  0  0  0
    0.0480   -4.7969   -3.6768 C   0  0  0  0  0  0  0  0  0  0  0  0
    0.0361   -4.2291   -4.7517 O   0  0  0  0  0  0  0  0  0  0  0  0
    0.0451   -4.0410   -2.4046 C   0  0  0  0  0  0  0  0  0  0  0  0
    0.0273   -2.7330   -2.3704 N   0  0  0  0  0  0  0  0  0  0  0  0
    0.0735   -4.9006    1.3009 C   0  0  0  0  0  0  0  0  0  0  0  0
   -1.3633   -5.1763    1.7485 C   0  0  1  0  0  0  0  0  0  0  0  0
   -1.8734   -5.7681    0.9885 H   0  0  0  0  0  0  0  0  0  0  0  0
   -1.3467   -5.9479    3.0696 C   0  0  1  0  0  0  0  0  0  0  0  0
   -0.8366   -5.3560    3.8297 H   0  0  0  0  0  0  0  0  0  0  0  0
   -2.7836   -6.2236    3.5172 C   0  0  1  0  0  0  0  0  0  0  0  0
   -3.2937   -6.8154    2.7572 H   0  0  0  0  0  0  0  0  0  0  0  0
   -2.7670   -6.9952    4.8383 C   0  0  0  0  0  0  0  0  0  0  0  0
   -4.1029   -7.3540    5.1972 O   0  0  0  0  0  0  0  0  0  0  0  0
   -3.4723   -4.9846    3.6978 O   0  0  0  0  0  0  0  0  0  0  0  0
   -0.6580   -7.1868    2.8890 O   0  0  0  0  0  0  0  0  0  0  0  0
   -2.0520   -3.9373    1.9291 O   0  0  0  0  0  0  0  0  0  0  0  0
    1.0042    1.8801    0.0026 H   0  0  0  0  0  0  0  0  0  0  0  0
   -0.5455    1.8639   -0.8728 H   0  0  0  0  0  0  0  0  0  0  0  0
   -0.5286    1.8543    0.9071 H   0  0  0  0  0  0  0  0  0  0  0  0
   -0.0067   -0.1204   -2.1147 H   0  0  0  0  0  0  0  0  0  0  0  0
    0.0477   -2.6050    2.1647 H   0  0  0  0  0  0  0  0  0  0  0  0
   -1.0022    0.2336    2.8306 H   0  0  0  0  0  0  0  0  0  0  0  0
    0.5538   -0.5132    3.2659 H   0  0  0  0  0  0  0  0  0  0  0  0
    0.5244    1.0223    2.3661 H   0  0  0  0  0  0  0  0  0  0  0  0
    0.5989   -5.8456    1.1631 H   0  0  0  0  0  0  0  0  0  0  0  0
    0.5836   -4.3087    2.0609 H   0  0  0  0  0  0  0  0  0  0  0  0
   -2.1665   -7.8977    4.7245 H   0  0  0  0  0  0  0  0  0  0  0  0
   -2.3368   -6.3686    5.6197 H   0  0  0  0  0  0  0  0  0  0  0  0
   -4.1684   -7.8469    6.0265 H   0  0  0  0  0  0  0  0  0  0  0  0
   -3.0728   -4.4057    4.3614 H   0  0  0  0  0  0  0  0  0  0  0  0
   -1.0575   -7.7658    2.2254 H   0  0  0  0  0  0  0  0  0  0  0  0
   -1.6526   -3.3583    2.5927 H   0  0  0  0  0  0  0  0  0  0  0  0
  1  2  1  0  0  0  0
  1 32  1  0  0  0  0
  1 33  1  0  0  0  0
  1 34  1  0  0  0  0
  2  7  2  0  0  0  0
  2  3  1  0  0  0  0
  3  4  2  0  0  0  0
  3 35  1  0  0  0  0
  4 19  1  0  0  0  0
  4  5  1  0  0  0  0
  5  6  2  0  0  0  0
  5  9  1  0  0  0  0
  6  7  1  0  0  0  0
  6 36  1  0  0  0  0
  7  8  1  0  0  0  0
  8 37  1  0  0  0  0
  8 38  1  0  0  0  0
  8 39  1  0  0  0  0
  9 10  1  0  0  0  0
  9 20  1  0  0  0  0
 10 18  1  0  0  0  0
 10 11  2  0  0  0  0
 11 12  1  0  0  0  0
 12 13  2  0  0  0  0
 12 14  1  0  0  0  0
 14 15  1  0  0  0  0
 14 16  1  0  0  0  0
 16 17  2  0  0  0  0
 16 18  1  0  0  0  0
 18 19  2  0  0  0  0
 20 21  1  0  0  0  0
 20 40  1  0  0  0  0
 20 41  1  0  0  0  0
 21 22  1  6  0  0  0
 21 23  1  0  0  0  0
 21 31  1  0  0  0  0
 23 24  1  1  0  0  0
 23 25  1  0  0  0  0
 23 30  1  0  0  0  0
 25 26  1  6  0  0  0
 25 27  1  0  0  0  0
 25 29  1  0  0  0  0
 27 28  1  0  0  0  0
 27 42  1  0  0  0  0
 27 43  1  0  0  0  0
 28 44  1  0  0  0  0
 29 45  1  0  0  0  0
 30 46  1  0  0  0  0
 31 47  1  0  0  0  0
M  END
$$$$
