ZINC00001554
 OpenBabel08292219463D

 15 15  0  0  0  0  0  0  0  0999 V2000
   -0.0166    1.3729    0.0096 C   0  0  0  0  0  0  0  0  0  0  0  0
    1.1702    2.0889    0.0021 C   0  0  0  0  0  0  0  0  0  0  0  0
    2.3835    1.4309   -0.0134 C   0  0  0  0  0  0  0  0  0  0  0  0
    2.4229    0.0443   -0.0217 C   0  0  0  0  0  0  0  0  0  0  0  0
    1.2241   -0.6847   -0.0137 C   0  0  0  0  0  0  0  0  0  0  0  0
    0.0021   -0.0041    0.0020 C   0  0  0  0  0  0  0  0  0  0  0  0
    1.2522   -2.1560   -0.0228 C   0  0  0  0  0  0  0  0  0  0  0  0
    0.2046   -2.7878   -0.0157 O   0  0  0  0  0  0  0  0  0  0  0  0
    2.3231   -2.7473   -0.0373 O   0  0  0  0  0  1  0  0  0  0  0  0
    3.6142   -0.6033   -0.0378 O   0  0  0  0  0  0  0  0  0  0  0  0
   -0.9605    1.8974    0.0259 H   0  0  0  0  0  0  0  0  0  0  0  0
    1.1454    3.1686    0.0081 H   0  0  0  0  0  0  0  0  0  0  0  0
    3.3036    1.9965   -0.0195 H   0  0  0  0  0  0  0  0  0  0  0  0
   -0.9253   -0.5576    0.0082 H   0  0  0  0  0  0  0  0  0  0  0  0
    3.9689   -0.7962    0.8408 H   0  0  0  0  0  0  0  0  0  0  0  0
  1  6  2  0  0  0  0
  1  2  1  0  0  0  0
  1 11  1  0  0  0  0
  2  3  2  0  0  0  0
  2 12  1  0  0  0  0
  3  4  1  0  0  0  0
  3 13  1  0  0  0  0
  4  5  2  0  0  0  0
  4 10  1  0  0  0  0
  5  6  1  0  0  0  0
  5  7  1  0  0  0  0
  6 14  1  0  0  0  0
  7  8  2  0  0  0  0
  7  9  1  0  0  0  0
 10 15  1  0  0  0  0
M  END
$$$$
