ZINC01530814
 OpenBabel08292219463D

 50 51  0  0  1  0  0  0  0  0999 V2000
    0.0007    1.2716   -4.2231 C   0  0  0  0  0  0  0  0  0  0  0  0
   -0.0123    0.0314   -3.3271 C   0  0  0  0  0  0  0  0  0  0  0  0
    0.9355   -1.0231   -3.9020 C   0  0  0  0  0  0  0  0  0  0  0  0
    0.9225   -2.2632   -3.0060 C   0  0  0  0  0  0  0  0  0  0  0  0
    1.8326   -3.2757   -3.5579 N   0  3  1  0  0  0  0  0  0  0  0  0
    3.2124   -2.7797   -3.4909 C   0  0  0  0  0  0  0  0  0  0  0  0
    4.1557   -3.7958   -4.1382 C   0  0  0  0  0  0  0  0  0  0  0  0
    4.0536   -5.1279   -3.3897 C   0  0  0  0  0  0  0  0  0  0  0  0
    2.5964   -5.5988   -3.4022 C   0  0  0  0  0  0  0  0  0  0  0  0
    1.7109   -4.5158   -2.7822 C   0  0  2  0  0  0  0  0  0  0  0  0
    2.0260   -4.3335   -1.7548 H   0  0  0  0  0  0  0  0  0  0  0  0
    0.2755   -4.9749   -2.7920 C   0  0  0  0  0  0  0  0  0  0  0  0
   -0.4515   -4.6728   -3.7146 O   0  0  0  0  0  0  0  0  0  0  0  0
   -0.2003   -5.7212   -1.7756 N   0  0  0  0  0  0  0  0  0  0  0  0
   -1.4965   -6.2444   -1.8388 C   0  0  0  0  0  0  0  0  0  0  0  0
   -1.7012   -7.6126   -1.7182 C   0  0  0  0  0  0  0  0  0  0  0  0
   -2.9819   -8.1259   -1.7810 C   0  0  0  0  0  0  0  0  0  0  0  0
   -4.0596   -7.2790   -1.9639 C   0  0  0  0  0  0  0  0  0  0  0  0
   -3.8590   -5.9162   -2.0848 C   0  0  0  0  0  0  0  0  0  0  0  0
   -2.5814   -5.3960   -2.0166 C   0  0  0  0  0  0  0  0  0  0  0  0
   -2.3644   -3.9099   -2.1413 C   0  0  0  0  0  0  0  0  0  0  0  0
   -0.5272   -8.5364   -1.5193 C   0  0  0  0  0  0  0  0  0  0  0  0
    1.0114    1.6771   -4.2675 H   0  0  0  0  0  0  0  0  0  0  0  0
   -0.3255    0.9982   -5.2266 H   0  0  0  0  0  0  0  0  0  0  0  0
   -0.6746    2.0228   -3.8136 H   0  0  0  0  0  0  0  0  0  0  0  0
    0.3139    0.3048   -2.3236 H   0  0  0  0  0  0  0  0  0  0  0  0
   -1.0231   -0.3741   -3.2827 H   0  0  0  0  0  0  0  0  0  0  0  0
    0.6093   -1.2964   -4.9055 H   0  0  0  0  0  0  0  0  0  0  0  0
    1.9463   -0.6175   -3.9464 H   0  0  0  0  0  0  0  0  0  0  0  0
    1.2487   -1.9899   -2.0025 H   0  0  0  0  0  0  0  0  0  0  0  0
   -0.0883   -2.6688   -2.9616 H   0  0  0  0  0  0  0  0  0  0  0  0
    3.2828   -1.8300   -4.0213 H   0  0  0  0  0  0  0  0  0  0  0  0
    3.4956   -2.6344   -2.4484 H   0  0  0  0  0  0  0  0  0  0  0  0
    3.8736   -3.9417   -5.1809 H   0  0  0  0  0  0  0  0  0  0  0  0
    5.1799   -3.4265   -4.0859 H   0  0  0  0  0  0  0  0  0  0  0  0
    4.6810   -5.8714   -3.8814 H   0  0  0  0  0  0  0  0  0  0  0  0
    4.3844   -4.9937   -2.3599 H   0  0  0  0  0  0  0  0  0  0  0  0
    2.2819   -5.7820   -4.4296 H   0  0  0  0  0  0  0  0  0  0  0  0
    2.5060   -6.5182   -2.8237 H   0  0  0  0  0  0  0  0  0  0  0  0
    0.3559   -5.8956   -1.0002 H   0  0  0  0  0  0  0  0  0  0  0  0
   -3.1417   -9.1899   -1.6876 H   0  0  0  0  0  0  0  0  0  0  0  0
   -5.0601   -7.6829   -2.0127 H   0  0  0  0  0  0  0  0  0  0  0  0
   -4.7028   -5.2574   -2.2279 H   0  0  0  0  0  0  0  0  0  0  0  0
   -2.3523   -3.6316   -3.1951 H   0  0  0  0  0  0  0  0  0  0  0  0
   -3.1720   -3.3810   -1.6352 H   0  0  0  0  0  0  0  0  0  0  0  0
   -1.4120   -3.6422   -1.6839 H   0  0  0  0  0  0  0  0  0  0  0  0
   -0.3888   -8.7239   -0.4546 H   0  0  0  0  0  0  0  0  0  0  0  0
   -0.7157   -9.4792   -2.0329 H   0  0  0  0  0  0  0  0  0  0  0  0
    0.3719   -8.0741   -1.9268 H   0  0  0  0  0  0  0  0  0  0  0  0
    1.5888   -3.4568   -4.5202 H   0  0  0  0  0  0  0  0  0  0  0  0
  1  2  1  0  0  0  0
  1 23  1  0  0  0  0
  1 24  1  0  0  0  0
  1 25  1  0  0  0  0
  2  3  1  0  0  0  0
  2 26  1  0  0  0  0
  2 27  1  0  0  0  0
  3  4  1  0  0  0  0
  3 28  1  0  0  0  0
  3 29  1  0  0  0  0
  4  5  1  0  0  0  0
  4 30  1  0  0  0  0
  4 31  1  0  0  0  0
  5 10  1  0  0  0  0
  5  6  1  0  0  0  0
  5 50  1  6  0  0  0
  6  7  1  0  0  0  0
  6 32  1  0  0  0  0
  6 33  1  0  0  0  0
  7  8  1  0  0  0  0
  7 34  1  0  0  0  0
  7 35  1  0  0  0  0
  8  9  1  0  0  0  0
  8 36  1  0  0  0  0
  8 37  1  0  0  0  0
  9 10  1  0  0  0  0
  9 38  1  0  0  0  0
  9 39  1  0  0  0  0
 10 11  1  1  0  0  0
 10 12  1  0  0  0  0
 12 13  2  0  0  0  0
 12 14  1  0  0  0  0
 14 15  1  0  0  0  0
 14 40  1  0  0  0  0
 15 20  2  0  0  0  0
 15 16  1  0  0  0  0
 16 17  2  0  0  0  0
 16 22  1  0  0  0  0
 17 18  1  0  0  0  0
 17 41  1  0  0  0  0
 18 19  2  0  0  0  0
 18 42  1  0  0  0  0
 19 20  1  0  0  0  0
 19 43  1  0  0  0  0
 20 21  1  0  0  0  0
 21 44  1  0  0  0  0
 21 45  1  0  0  0  0
 21 46  1  0  0  0  0
 22 47  1  0  0  0  0
 22 48  1  0  0  0  0
 22 49  1  0  0  0  0
M  CHG  1   5   1
M  END
$$$$
