ZINC01187543
 OpenBabel08292219463D

 13 13  0  0  0  0  0  0  0  0999 V2000
   -0.0127    1.0858    0.0080 C   0  0  0  0  0  0  0  0  0  0  0  0
   -0.7213    1.5711   -1.1789 N   0  0  0  0  0  0  0  0  0  0  0  0
   -0.1501    1.8515   -2.4107 C   0  0  0  0  0  0  0  0  0  0  0  0
   -1.1158    2.2662   -3.2241 C   0  0  0  0  0  0  0  0  0  0  0  0
   -2.3067    2.2519   -2.5144 N   0  0  0  0  0  0  0  0  0  0  0  0
   -2.0432    1.8176   -1.2662 C   0  0  0  0  0  0  0  0  0  0  0  0
   -3.1880    1.6181   -0.0090 S   0  0  0  0  0  0  0  0  0  0  0  0
    0.0021   -0.0041    0.0020 H   0  0  0  0  0  0  0  0  0  0  0  0
    1.0099    1.4631    0.0003 H   0  0  0  0  0  0  0  0  0  0  0  0
   -0.5229    1.4373    0.9048 H   0  0  0  0  0  0  0  0  0  0  0  0
    0.8949    1.7511   -2.6643 H   0  0  0  0  0  0  0  0  0  0  0  0
   -0.9942    2.5623   -4.2556 H   0  0  0  0  0  0  0  0  0  0  0  0
   -3.1776    2.5065   -2.8574 H   0  0  0  0  0  0  0  0  0  0  0  0
  1  8  1  0  0  0  0
  1  9  1  0  0  0  0
  1 10  1  0  0  0  0
  1  2  1  0  0  0  0
  2  6  1  0  0  0  0
  2  3  1  0  0  0  0
  3 11  1  0  0  0  0
  3  4  2  0  0  0  0
  4 12  1  0  0  0  0
  4  5  1  0  0  0  0
  5  6  1  0  0  0  0
  5 13  1  0  0  0  0
  6  7  2  0  0  0  0
M  END
$$$$
