ZINC03913937
 OpenBabel08292219463D

 62 65  0  0  1  0  0  0  0  0999 V2000
   -0.7416   -0.3449   -0.2728 C   0  0  0  0  0  0  0  0  0  0  0  0
   -0.2308    0.8626    0.5159 C   0  0  0  0  0  0  0  0  0  0  0  0
    0.6080    0.4021    1.6252 N   0  0  0  0  0  0  0  0  0  0  0  0
    0.0031    0.1099    2.9250 C   0  0  0  0  0  0  0  0  0  0  0  0
    0.6711   -1.1032    3.5660 C   0  0  0  0  0  0  0  0  0  0  0  0
    2.1249   -0.9389    3.5840 N   0  0  0  0  0  0  0  0  0  0  0  0
    2.7532   -0.3513    2.5461 C   0  0  0  0  0  0  0  0  0  0  0  0
    3.9648   -0.3090    2.5047 O   0  0  0  0  0  0  0  0  0  0  0  0
    1.9343    0.2431    1.4442 C   0  0  0  0  0  0  0  0  0  0  0  0
    2.4580    0.5810    0.4029 O   0  0  0  0  0  0  0  0  0  0  0  0
    2.8377   -1.3757    4.6412 C   0  0  0  0  0  0  0  0  0  0  0  0
    4.0517   -1.3209    4.6200 O   0  0  0  0  0  0  0  0  0  0  0  0
    2.2043   -1.8732    5.7218 N   0  0  0  0  0  0  0  0  0  0  0  0
    2.9707   -2.2433    6.9142 C   0  0  2  0  0  0  0  0  0  0  0  0
    3.8053   -1.5533    7.0384 H   0  0  0  0  0  0  0  0  0  0  0  0
    3.4981   -3.6463    6.7569 C   0  0  0  0  0  0  0  0  0  0  0  0
    2.7067   -4.6215    6.1794 C   0  0  0  0  0  0  0  0  0  0  0  0
    3.1904   -5.9083    6.0351 C   0  0  0  0  0  0  0  0  0  0  0  0
    4.4658   -6.2199    6.4679 C   0  0  0  0  0  0  0  0  0  0  0  0
    5.2576   -5.2445    7.0446 C   0  0  0  0  0  0  0  0  0  0  0  0
    4.7754   -3.9566    7.1849 C   0  0  0  0  0  0  0  0  0  0  0  0
    2.0779   -2.1753    8.1263 C   0  0  0  0  0  0  0  0  0  0  0  0
    0.9159   -1.8496    8.0061 O   0  0  0  0  0  0  0  0  0  0  0  0
    2.5709   -2.4763    9.3441 N   0  0  0  0  0  0  0  0  0  0  0  0
    1.7029   -2.4101   10.5225 C   0  0  1  0  0  0  0  0  0  0  0  0
    0.6497   -2.5452   10.2765 H   0  0  0  0  0  0  0  0  0  0  0  0
    2.1741   -3.2951   11.6711 C   0  0  2  0  0  0  0  0  0  0  0  0
    1.4086   -3.8764   12.1851 H   0  0  0  0  0  0  0  0  0  0  0  0
    2.5914   -2.0188   12.2890 N   0  0  0  0  0  0  0  0  0  0  0  0
    1.9648   -1.2051   11.3917 C   0  0  0  0  0  0  0  0  0  0  0  0
    1.7215   -0.0190   11.3217 O   0  0  0  0  0  0  0  0  0  0  0  0
    4.0376   -1.8241   12.4389 C   0  0  2  0  0  0  0  0  0  0  0  0
    4.4136   -1.2742   11.5761 H   0  0  0  0  0  0  0  0  0  0  0  0
    4.7927   -3.1779   12.5453 C   0  0  0  0  0  0  0  0  0  0  0  0
    3.7560   -4.1752   11.3517 S   0  0  0  0  0  0  0  0  0  0  0  0
    6.2406   -3.0536   12.0667 C   0  0  0  0  0  0  0  0  0  0  0  0
    4.7202   -3.7527   13.9613 C   0  0  0  0  0  0  0  0  0  0  0  0
    4.2986   -1.0191   13.6859 C   0  0  0  0  0  0  0  0  0  0  0  0
    3.3868   -0.7802   14.4592 O   0  0  0  0  0  0  0  0  0  0  0  0
    5.4215   -0.6068   13.9214 O   0  0  0  0  0  1  0  0  0  0  0  0
   -1.3286   -0.9863    0.3846 H   0  0  0  0  0  0  0  0  0  0  0  0
   -1.3657   -0.0022   -1.0981 H   0  0  0  0  0  0  0  0  0  0  0  0
    0.1056   -0.9064   -0.6666 H   0  0  0  0  0  0  0  0  0  0  0  0
    0.3562    1.5040   -0.1415 H   0  0  0  0  0  0  0  0  0  0  0  0
   -1.0780    1.4241    0.9097 H   0  0  0  0  0  0  0  0  0  0  0  0
    0.1221    0.9735    3.5793 H   0  0  0  0  0  0  0  0  0  0  0  0
   -1.0591   -0.0942    2.7896 H   0  0  0  0  0  0  0  0  0  0  0  0
    0.3092   -1.2149    4.5880 H   0  0  0  0  0  0  0  0  0  0  0  0
    0.4173   -1.9967    2.9956 H   0  0  0  0  0  0  0  0  0  0  0  0
    1.2410   -1.9862    5.7100 H   0  0  0  0  0  0  0  0  0  0  0  0
    1.7103   -4.3780    5.8412 H   0  0  0  0  0  0  0  0  0  0  0  0
    2.5719   -6.6704    5.5845 H   0  0  0  0  0  0  0  0  0  0  0  0
    4.8435   -7.2255    6.3558 H   0  0  0  0  0  0  0  0  0  0  0  0
    6.2538   -5.4880    7.3830 H   0  0  0  0  0  0  0  0  0  0  0  0
    5.3953   -3.1936    7.6321 H   0  0  0  0  0  0  0  0  0  0  0  0
    3.5003   -2.7367    9.4403 H   0  0  0  0  0  0  0  0  0  0  0  0
    6.7637   -2.3187   12.6786 H   0  0  0  0  0  0  0  0  0  0  0  0
    6.7369   -4.0200   12.1558 H   0  0  0  0  0  0  0  0  0  0  0  0
    6.2527   -2.7337   11.0248 H   0  0  0  0  0  0  0  0  0  0  0  0
    3.6777   -3.9176   14.2336 H   0  0  0  0  0  0  0  0  0  0  0  0
    5.2592   -4.6994   13.9972 H   0  0  0  0  0  0  0  0  0  0  0  0
    5.1720   -3.0506   14.6620 H   0  0  0  0  0  0  0  0  0  0  0  0
  1  2  1  0  0  0  0
  1 41  1  0  0  0  0
  1 42  1  0  0  0  0
  1 43  1  0  0  0  0
  2  3  1  0  0  0  0
  2 44  1  0  0  0  0
  2 45  1  0  0  0  0
  3  9  1  0  0  0  0
  3  4  1  0  0  0  0
  4  5  1  0  0  0  0
  4 46  1  0  0  0  0
  4 47  1  0  0  0  0
  5  6  1  0  0  0  0
  5 48  1  0  0  0  0
  5 49  1  0  0  0  0
  6  7  1  0  0  0  0
  6 11  1  0  0  0  0
  7  8  2  0  0  0  0
  7  9  1  0  0  0  0
  9 10  2  0  0  0  0
 11 12  2  0  0  0  0
 11 13  1  0  0  0  0
 13 14  1  0  0  0  0
 13 50  1  0  0  0  0
 14 15  1  1  0  0  0
 14 16  1  0  0  0  0
 14 22  1  0  0  0  0
 16 21  2  0  0  0  0
 16 17  1  0  0  0  0
 17 18  2  0  0  0  0
 17 51  1  0  0  0  0
 18 19  1  0  0  0  0
 18 52  1  0  0  0  0
 19 20  2  0  0  0  0
 19 53  1  0  0  0  0
 20 21  1  0  0  0  0
 20 54  1  0  0  0  0
 21 55  1  0  0  0  0
 22 23  2  0  0  0  0
 22 24  1  0  0  0  0
 24 25  1  0  0  0  0
 24 56  1  0  0  0  0
 25 26  1  6  0  0  0
 25 30  1  0  0  0  0
 25 27  1  0  0  0  0
 27 28  1  1  0  0  0
 27 35  1  0  0  0  0
 27 29  1  0  0  0  0
 29 30  1  0  0  0  0
 29 32  1  0  0  0  0
 30 31  2  0  0  0  0
 32 33  1  6  0  0  0
 32 34  1  0  0  0  0
 32 38  1  0  0  0  0
 34 35  1  0  0  0  0
 34 36  1  0  0  0  0
 34 37  1  0  0  0  0
 36 57  1  0  0  0  0
 36 58  1  0  0  0  0
 36 59  1  0  0  0  0
 37 60  1  0  0  0  0
 37 61  1  0  0  0  0
 37 62  1  0  0  0  0
 38 39  2  0  0  0  0
 38 40  1  0  0  0  0
M  END
$$$$
