ZINC06845860
 OpenBabel08292219463D

 53 52  0  0  0  0  0  0  0  0999 V2000
    0.0625    2.5023   -8.6169 C   0  0  0  0  0  0  0  0  0  0  0  0
    0.6195    1.7877   -7.3840 C   0  0  0  0  0  0  0  0  0  0  0  0
   -0.1205    2.2727   -6.1358 C   0  0  0  0  0  0  0  0  0  0  0  0
    0.4365    1.5582   -4.9028 C   0  0  0  0  0  0  0  0  0  0  0  0
   -0.3035    2.0432   -3.6546 C   0  0  0  0  0  0  0  0  0  0  0  0
    0.2535    1.3286   -2.4217 C   0  0  0  0  0  0  0  0  0  0  0  0
   -0.4865    1.8136   -1.1734 C   0  0  0  0  0  0  0  0  0  0  0  0
    0.0704    1.0991    0.0595 C   0  0  0  0  0  0  0  0  0  0  0  0
   -0.6584    1.5768    1.2890 C   0  0  0  0  0  0  0  0  0  0  0  0
   -1.1961    0.7092    2.1102 C   0  0  0  0  0  0  0  0  0  0  0  0
   -0.9432   -0.7643    1.9210 C   0  0  0  0  0  0  0  0  0  0  0  0
   -0.4114   -1.3620    3.2252 C   0  0  0  0  0  0  0  0  0  0  0  0
   -0.1547   -2.8581    3.0332 C   0  0  0  0  0  0  0  0  0  0  0  0
    0.3771   -3.4558    4.3373 C   0  0  0  0  0  0  0  0  0  0  0  0
    0.6338   -4.9518    4.1453 C   0  0  0  0  0  0  0  0  0  0  0  0
    1.1656   -5.5496    5.4494 C   0  0  0  0  0  0  0  0  0  0  0  0
    1.4223   -7.0456    5.2574 C   0  0  0  0  0  0  0  0  0  0  0  0
    1.9461   -7.6343    6.5420 C   0  0  0  0  0  0  0  0  0  0  0  0
    2.0984   -6.9297    7.5116 O   0  0  0  0  0  0  0  0  0  0  0  0
    0.2014    3.5778   -8.5072 H   0  0  0  0  0  0  0  0  0  0  0  0
    0.5897    2.1567   -9.5062 H   0  0  0  0  0  0  0  0  0  0  0  0
   -1.0002    2.2813   -8.7158 H   0  0  0  0  0  0  0  0  0  0  0  0
    1.6823    2.0087   -7.2852 H   0  0  0  0  0  0  0  0  0  0  0  0
    0.4807    0.7122   -7.4938 H   0  0  0  0  0  0  0  0  0  0  0  0
   -1.1833    2.0518   -6.2346 H   0  0  0  0  0  0  0  0  0  0  0  0
    0.0183    3.3483   -6.0260 H   0  0  0  0  0  0  0  0  0  0  0  0
    1.4993    1.7791   -4.8040 H   0  0  0  0  0  0  0  0  0  0  0  0
    0.2977    0.4826   -5.0126 H   0  0  0  0  0  0  0  0  0  0  0  0
   -1.3663    1.8222   -3.7534 H   0  0  0  0  0  0  0  0  0  0  0  0
   -0.1647    3.1187   -3.5449 H   0  0  0  0  0  0  0  0  0  0  0  0
    1.3162    1.5496   -2.3228 H   0  0  0  0  0  0  0  0  0  0  0  0
    0.1146    0.2531   -2.5314 H   0  0  0  0  0  0  0  0  0  0  0  0
   -1.5493    1.5927   -1.2723 H   0  0  0  0  0  0  0  0  0  0  0  0
   -0.3477    2.8892   -1.0637 H   0  0  0  0  0  0  0  0  0  0  0  0
   -0.0684    0.0235   -0.0502 H   0  0  0  0  0  0  0  0  0  0  0  0
    1.1332    1.3200    0.1583 H   0  0  0  0  0  0  0  0  0  0  0  0
   -0.7375    2.6344    1.4931 H   0  0  0  0  0  0  0  0  0  0  0  0
   -1.8206    1.0500    2.9228 H   0  0  0  0  0  0  0  0  0  0  0  0
   -1.8742   -1.2605    1.6470 H   0  0  0  0  0  0  0  0  0  0  0  0
   -0.2081   -0.9081    1.1292 H   0  0  0  0  0  0  0  0  0  0  0  0
    0.5196   -0.8659    3.4992 H   0  0  0  0  0  0  0  0  0  0  0  0
   -1.1465   -1.2183    4.0171 H   0  0  0  0  0  0  0  0  0  0  0  0
   -1.0857   -3.3543    2.7591 H   0  0  0  0  0  0  0  0  0  0  0  0
    0.5804   -3.0019    2.2413 H   0  0  0  0  0  0  0  0  0  0  0  0
    1.3081   -2.9596    4.6114 H   0  0  0  0  0  0  0  0  0  0  0  0
   -0.3580   -3.3120    5.1292 H   0  0  0  0  0  0  0  0  0  0  0  0
   -0.2972   -5.4480    3.8712 H   0  0  0  0  0  0  0  0  0  0  0  0
    1.3689   -5.0956    3.3534 H   0  0  0  0  0  0  0  0  0  0  0  0
    2.0966   -5.0534    5.7235 H   0  0  0  0  0  0  0  0  0  0  0  0
    0.4305   -5.4058    6.2413 H   0  0  0  0  0  0  0  0  0  0  0  0
    0.4913   -7.5418    4.9834 H   0  0  0  0  0  0  0  0  0  0  0  0
    2.1574   -7.1894    4.4655 H   0  0  0  0  0  0  0  0  0  0  0  0
    2.2434   -8.9416    6.6090 O   0  0  0  0  0  1  0  0  0  0  0  0
  1  2  1  0  0  0  0
  1 20  1  0  0  0  0
  1 21  1  0  0  0  0
  1 22  1  0  0  0  0
  2  3  1  0  0  0  0
  2 23  1  0  0  0  0
  2 24  1  0  0  0  0
  3  4  1  0  0  0  0
  3 25  1  0  0  0  0
  3 26  1  0  0  0  0
  4  5  1  0  0  0  0
  4 27  1  0  0  0  0
  4 28  1  0  0  0  0
  5  6  1  0  0  0  0
  5 29  1  0  0  0  0
  5 30  1  0  0  0  0
  6  7  1  0  0  0  0
  6 31  1  0  0  0  0
  6 32  1  0  0  0  0
  7  8  1  0  0  0  0
  7 33  1  0  0  0  0
  7 34  1  0  0  0  0
  8  9  1  0  0  0  0
  8 35  1  0  0  0  0
  8 36  1  0  0  0  0
  9 10  2  0  0  0  0
  9 37  1  0  0  0  0
 10 11  1  0  0  0  0
 10 38  1  0  0  0  0
 11 12  1  0  0  0  0
 11 39  1  0  0  0  0
 11 40  1  0  0  0  0
 12 13  1  0  0  0  0
 12 41  1  0  0  0  0
 12 42  1  0  0  0  0
 13 14  1  0  0  0  0
 13 43  1  0  0  0  0
 13 44  1  0  0  0  0
 14 15  1  0  0  0  0
 14 45  1  0  0  0  0
 14 46  1  0  0  0  0
 15 16  1  0  0  0  0
 15 47  1  0  0  0  0
 15 48  1  0  0  0  0
 16 17  1  0  0  0  0
 16 49  1  0  0  0  0
 16 50  1  0  0  0  0
 17 18  1  0  0  0  0
 17 51  1  0  0  0  0
 17 52  1  0  0  0  0
 18 19  2  0  0  0  0
 18 53  1  0  0  0  0
M  END
$$$$
