ZINC00002212
 OpenBabel08292219463D

 35 38  0  0  0  0  0  0  0  0999 V2000
   -0.1800    1.6644    0.3442 C   0  0  0  0  0  0  0  0  0  0  0  0
   -0.0939    0.1664    0.2042 C   0  0  0  0  0  0  0  0  0  0  0  0
   -0.1449   -0.5158   -0.9102 N   0  0  0  0  0  0  0  0  0  0  0  0
   -0.0224   -1.7733   -0.6608 N   0  0  0  0  0  0  0  0  0  0  0  0
    0.1215   -1.9531    0.6205 C   0  0  0  0  0  0  0  0  0  0  0  0
    0.0575   -0.7333    1.2116 N   0  0  0  0  0  0  0  0  0  0  0  0
    0.0987   -0.4829    2.5839 C   0  0  0  0  0  0  0  0  0  0  0  0
   -0.6900    0.5444    3.0915 C   0  0  0  0  0  0  0  0  0  0  0  0
   -0.7091    0.8088    4.4449 C   0  0  0  0  0  0  0  0  0  0  0  0
    0.0590    0.0461    5.3103 C   0  0  0  0  0  0  0  0  0  0  0  0
    0.8551   -0.9653    4.8215 C   0  0  0  0  0  0  0  0  0  0  0  0
    0.8992   -1.2357    3.4455 C   0  0  0  0  0  0  0  0  0  0  0  0
    1.8245   -2.2729    2.9757 C   0  0  0  0  0  0  0  0  0  0  0  0
    1.6250   -3.1562    2.0605 N   0  0  0  0  0  0  0  0  0  0  0  0
    0.3412   -3.2568    1.3455 C   0  0  0  0  0  0  0  0  0  0  0  0
    3.1504   -2.3077    3.6344 C   0  0  0  0  0  0  0  0  0  0  0  0
    3.5159   -3.4041    4.4157 C   0  0  0  0  0  0  0  0  0  0  0  0
    4.7524   -3.4310    5.0264 C   0  0  0  0  0  0  0  0  0  0  0  0
    5.6306   -2.3735    4.8658 C   0  0  0  0  0  0  0  0  0  0  0  0
    5.2753   -1.2830    4.0933 C   0  0  0  0  0  0  0  0  0  0  0  0
    4.0421   -1.2462    3.4716 C   0  0  0  0  0  0  0  0  0  0  0  0
    3.6000    0.1198    2.4956 Cl  0  0  0  0  0  0  0  0  0  0  0  0
    0.0177    0.3673    7.0159 Cl  0  0  0  0  0  0  0  0  0  0  0  0
    0.8252    2.0836    0.3876 H   0  0  0  0  0  0  0  0  0  0  0  0
   -0.7101    2.0796   -0.5130 H   0  0  0  0  0  0  0  0  0  0  0  0
   -0.7174    1.9136    1.2592 H   0  0  0  0  0  0  0  0  0  0  0  0
   -1.2916    1.1397    2.4206 H   0  0  0  0  0  0  0  0  0  0  0  0
   -1.3227    1.6096    4.8303 H   0  0  0  0  0  0  0  0  0  0  0  0
    1.4503   -1.5552    5.5027 H   0  0  0  0  0  0  0  0  0  0  0  0
   -0.4718   -3.4285    2.0511 H   0  0  0  0  0  0  0  0  0  0  0  0
    0.3870   -4.0755    0.6275 H   0  0  0  0  0  0  0  0  0  0  0  0
    2.8318   -4.2302    4.5425 H   0  0  0  0  0  0  0  0  0  0  0  0
    5.0359   -4.2794    5.6317 H   0  0  0  0  0  0  0  0  0  0  0  0
    6.5975   -2.3998    5.3463 H   0  0  0  0  0  0  0  0  0  0  0  0
    5.9647   -0.4605    3.9724 H   0  0  0  0  0  0  0  0  0  0  0  0
  1  2  1  0  0  0  0
  1 24  1  0  0  0  0
  1 25  1  0  0  0  0
  1 26  1  0  0  0  0
  2  6  1  0  0  0  0
  2  3  2  0  0  0  0
  3  4  1  0  0  0  0
  4  5  2  0  0  0  0
  5 15  1  0  0  0  0
  5  6  1  0  0  0  0
  6  7  1  0  0  0  0
  7 12  2  0  0  0  0
  7  8  1  0  0  0  0
  8  9  2  0  0  0  0
  8 27  1  0  0  0  0
  9 10  1  0  0  0  0
  9 28  1  0  0  0  0
 10 11  2  0  0  0  0
 10 23  1  0  0  0  0
 11 12  1  0  0  0  0
 11 29  1  0  0  0  0
 12 13  1  0  0  0  0
 13 14  2  0  0  0  0
 13 16  1  0  0  0  0
 14 15  1  0  0  0  0
 15 30  1  0  0  0  0
 15 31  1  0  0  0  0
 16 21  2  0  0  0  0
 16 17  1  0  0  0  0
 17 18  2  0  0  0  0
 17 32  1  0  0  0  0
 18 19  1  0  0  0  0
 18 33  1  0  0  0  0
 19 20  2  0  0  0  0
 19 34  1  0  0  0  0
 20 21  1  0  0  0  0
 20 35  1  0  0  0  0
 21 22  1  0  0  0  0
M  END
$$$$
