ZINC00057406
 OpenBabel08292219463D

 33 33  0  0  1  0  0  0  0  0999 V2000
   -0.0187    1.5258    0.0104 C   0  0  0  0  0  0  0  0  0  0  0  0
    0.0021   -0.0041    0.0020 C   0  0  1  0  0  0  0  0  0  0  0  0
   -1.0205   -0.3814    0.0098 H   0  0  0  0  0  0  0  0  0  0  0  0
    0.7182   -0.4975   -1.2568 C   0  0  1  0  0  0  0  0  0  0  0  0
    1.7408   -0.1202   -1.2645 H   0  0  0  0  0  0  0  0  0  0  0  0
    0.7387   -2.0043   -1.2651 C   0  0  0  0  0  0  0  0  0  0  0  0
   -0.2352   -2.7046   -1.9505 C   0  0  0  0  0  0  0  0  0  0  0  0
   -0.2161   -4.0912   -1.9586 C   0  0  0  0  0  0  0  0  0  0  0  0
    0.7808   -4.7751   -1.2783 C   0  0  0  0  0  0  0  0  0  0  0  0
    1.7543   -4.0750   -0.5931 C   0  0  0  0  0  0  0  0  0  0  0  0
    1.7383   -2.6879   -0.5894 C   0  0  0  0  0  0  0  0  0  0  0  0
    2.7000   -1.9986    0.0806 O   0  0  0  0  0  0  0  0  0  0  0  0
    3.6987   -2.7671    0.7544 C   0  0  0  0  0  0  0  0  0  0  0  0
   -1.1749   -4.7805   -2.6329 O   0  0  0  0  0  0  0  0  0  0  0  0
   -1.0938   -6.2068   -2.5986 C   0  0  0  0  0  0  0  0  0  0  0  0
    0.0271   -0.0241   -2.4145 O   0  0  0  0  0  0  0  0  0  0  0  0
    0.7126   -0.4907    1.1921 N   0  3  0  0  0  0  0  0  0  0  0  0
    1.0039    1.9031    0.0027 H   0  0  0  0  0  0  0  0  0  0  0  0
   -0.5459    1.8868   -0.8726 H   0  0  0  0  0  0  0  0  0  0  0  0
   -0.5289    1.8773    0.9072 H   0  0  0  0  0  0  0  0  0  0  0  0
   -1.0115   -2.1722   -2.4799 H   0  0  0  0  0  0  0  0  0  0  0  0
    0.7955   -5.8550   -1.2843 H   0  0  0  0  0  0  0  0  0  0  0  0
    2.5301   -4.6075   -0.0628 H   0  0  0  0  0  0  0  0  0  0  0  0
    4.4025   -2.0962    1.2471 H   0  0  0  0  0  0  0  0  0  0  0  0
    3.2243   -3.4065    1.4988 H   0  0  0  0  0  0  0  0  0  0  0  0
    4.2312   -3.3848    0.0312 H   0  0  0  0  0  0  0  0  0  0  0  0
   -0.1452   -6.5272   -3.0293 H   0  0  0  0  0  0  0  0  0  0  0  0
   -1.1582   -6.5496   -1.5659 H   0  0  0  0  0  0  0  0  0  0  0  0
   -1.9161   -6.6314   -3.1744 H   0  0  0  0  0  0  0  0  0  0  0  0
    0.4265   -0.2995   -3.2510 H   0  0  0  0  0  0  0  0  0  0  0  0
    0.2403   -0.1653    2.0223 H   0  0  0  0  0  0  0  0  0  0  0  0
    0.7262   -1.4996    1.1866 H   0  0  0  0  0  0  0  0  0  0  0  0
    1.6592   -0.1414    1.1850 H   0  0  0  0  0  0  0  0  0  0  0  0
  1  2  1  0  0  0  0
  1 18  1  0  0  0  0
  1 19  1  0  0  0  0
  1 20  1  0  0  0  0
  2  3  1  1  0  0  0
  2  4  1  0  0  0  0
  2 17  1  0  0  0  0
  4  5  1  6  0  0  0
  4  6  1  0  0  0  0
  4 16  1  0  0  0  0
  6 11  2  0  0  0  0
  6  7  1  0  0  0  0
  7  8  2  0  0  0  0
  7 21  1  0  0  0  0
  8  9  1  0  0  0  0
  8 14  1  0  0  0  0
  9 10  2  0  0  0  0
  9 22  1  0  0  0  0
 10 11  1  0  0  0  0
 10 23  1  0  0  0  0
 11 12  1  0  0  0  0
 12 13  1  0  0  0  0
 13 24  1  0  0  0  0
 13 25  1  0  0  0  0
 13 26  1  0  0  0  0
 14 15  1  0  0  0  0
 15 27  1  0  0  0  0
 15 28  1  0  0  0  0
 15 29  1  0  0  0  0
 16 30  1  0  0  0  0
 17 31  1  0  0  0  0
 17 32  1  0  0  0  0
 17 33  1  0  0  0  0
M  CHG  1  17   1
M  END
$$$$
