ZINC00968257
 OpenBabel08292219463D

 45 47  0  0  0  0  0  0  0  0999 V2000
   -0.0178    1.4648    0.0101 C   0  0  0  0  0  0  0  0  0  0  0  0
    0.0021   -0.0041    0.0020 N   0  3  0  0  0  0  0  0  0  0  0  0
   -1.3761   -0.5125    0.0124 C   0  0  0  0  0  0  0  0  0  0  0  0
    0.6897   -0.4778   -1.2066 C   0  0  0  0  0  0  0  0  0  0  0  0
    2.1588   -0.0534   -1.1571 C   0  0  0  0  0  0  0  0  0  0  0  0
    2.8641   -0.5394   -2.3970 C   0  0  0  0  0  0  0  0  0  0  0  0
    3.5250    0.3270   -3.1738 C   0  0  0  0  0  0  0  0  0  0  0  0
    3.5927    1.7771   -2.8453 C   0  0  0  0  0  0  0  0  0  0  0  0
    4.0673    2.1470   -1.5880 C   0  0  0  0  0  0  0  0  0  0  0  0
    4.1752    3.4781   -1.2462 C   0  0  0  0  0  0  0  0  0  0  0  0
    3.8096    4.4415   -2.1695 C   0  0  0  0  0  0  0  0  0  0  0  0
    3.3311    4.0773   -3.4068 C   0  0  0  0  0  0  0  0  0  0  0  0
    3.1954    2.7364   -3.7740 C   0  0  0  0  0  0  0  0  0  0  0  0
    2.5869    2.5170   -5.1377 C   0  0  0  0  0  0  0  0  0  0  0  0
    2.3799    1.0595   -5.4939 C   0  0  0  0  0  0  0  0  0  0  0  0
    3.6776    0.3005   -5.5991 C   0  0  0  0  0  0  0  0  0  0  0  0
    4.2334   -0.1117   -4.4047 C   0  0  0  0  0  0  0  0  0  0  0  0
    5.3905   -0.8775   -4.3777 C   0  0  0  0  0  0  0  0  0  0  0  0
    6.0025   -1.1900   -5.5806 C   0  0  0  0  0  0  0  0  0  0  0  0
    5.4694   -0.7426   -6.7762 C   0  0  0  0  0  0  0  0  0  0  0  0
    4.2868    0.0121   -6.7962 C   0  0  0  0  0  0  0  0  0  0  0  0
    1.0047    1.8421    0.0024 H   0  0  0  0  0  0  0  0  0  0  0  0
   -0.5450    1.8259   -0.8730 H   0  0  0  0  0  0  0  0  0  0  0  0
   -0.5280    1.8163    0.9069 H   0  0  0  0  0  0  0  0  0  0  0  0
   -1.9033   -0.1515   -0.8706 H   0  0  0  0  0  0  0  0  0  0  0  0
   -1.3613   -1.6024    0.0065 H   0  0  0  0  0  0  0  0  0  0  0  0
   -1.8863   -0.1610    0.9092 H   0  0  0  0  0  0  0  0  0  0  0  0
    0.6270   -1.5648   -1.2578 H   0  0  0  0  0  0  0  0  0  0  0  0
    0.2158   -0.0447   -2.0875 H   0  0  0  0  0  0  0  0  0  0  0  0
    2.2214    1.0336   -1.1059 H   0  0  0  0  0  0  0  0  0  0  0  0
    2.6326   -0.4865   -0.2761 H   0  0  0  0  0  0  0  0  0  0  0  0
    2.8363   -1.5868   -2.6585 H   0  0  0  0  0  0  0  0  0  0  0  0
    4.3519    1.3857   -0.8767 H   0  0  0  0  0  0  0  0  0  0  0  0
    4.5405    3.7651   -0.2712 H   0  0  0  0  0  0  0  0  0  0  0  0
    3.9003    5.4876   -1.9168 H   0  0  0  0  0  0  0  0  0  0  0  0
    3.0534    4.8470   -4.1116 H   0  0  0  0  0  0  0  0  0  0  0  0
    1.6223    3.0233   -5.1729 H   0  0  0  0  0  0  0  0  0  0  0  0
    3.2393    2.9678   -5.8855 H   0  0  0  0  0  0  0  0  0  0  0  0
    1.7604    0.5939   -4.7274 H   0  0  0  0  0  0  0  0  0  0  0  0
    1.8587    1.0007   -6.4494 H   0  0  0  0  0  0  0  0  0  0  0  0
    5.8038   -1.2219   -3.4413 H   0  0  0  0  0  0  0  0  0  0  0  0
    6.9025   -1.7870   -5.5850 H   0  0  0  0  0  0  0  0  0  0  0  0
    5.9677   -0.9772   -7.7052 H   0  0  0  0  0  0  0  0  0  0  0  0
    3.8663    0.3630   -7.7270 H   0  0  0  0  0  0  0  0  0  0  0  0
    0.4901   -0.3383    0.8195 H   0  0  0  0  0  0  0  0  0  0  0  0
  1  2  1  0  0  0  0
  1 22  1  0  0  0  0
  1 23  1  0  0  0  0
  1 24  1  0  0  0  0
  2  3  1  0  0  0  0
  2  4  1  0  0  0  0
  2 45  1  0  0  0  0
  3 25  1  0  0  0  0
  3 26  1  0  0  0  0
  3 27  1  0  0  0  0
  4  5  1  0  0  0  0
  4 28  1  0  0  0  0
  4 29  1  0  0  0  0
  5  6  1  0  0  0  0
  5 30  1  0  0  0  0
  5 31  1  0  0  0  0
  6  7  2  0  0  0  0
  6 32  1  0  0  0  0
  7 17  1  0  0  0  0
  7  8  1  0  0  0  0
  8 13  2  0  0  0  0
  8  9  1  0  0  0  0
  9 10  2  0  0  0  0
  9 33  1  0  0  0  0
 10 11  1  0  0  0  0
 10 34  1  0  0  0  0
 11 12  2  0  0  0  0
 11 35  1  0  0  0  0
 12 13  1  0  0  0  0
 12 36  1  0  0  0  0
 13 14  1  0  0  0  0
 14 15  1  0  0  0  0
 14 37  1  0  0  0  0
 14 38  1  0  0  0  0
 15 16  1  0  0  0  0
 15 39  1  0  0  0  0
 15 40  1  0  0  0  0
 16 21  2  0  0  0  0
 16 17  1  0  0  0  0
 17 18  2  0  0  0  0
 18 19  1  0  0  0  0
 18 41  1  0  0  0  0
 19 20  2  0  0  0  0
 19 42  1  0  0  0  0
 20 21  1  0  0  0  0
 20 43  1  0  0  0  0
 21 44  1  0  0  0  0
M  CHG  1   2   1
M  END
$$$$
