ZINC00004234
 OpenBabel08292219463D

 35 36  0  0  0  0  0  0  0  0999 V2000
    0.0729    1.7554   -0.4720 C   0  0  0  0  0  0  0  0  0  0  0  0
    0.1706    0.2329   -0.3560 C   0  0  0  0  0  0  0  0  0  0  0  0
    1.0880   -0.1317    0.8129 C   0  0  0  0  0  0  0  0  0  0  0  0
   -1.2017   -0.3416   -0.1157 C   0  0  0  0  0  0  0  0  0  0  0  0
   -1.8609   -1.2697   -0.9470 C   0  0  0  0  0  0  0  0  0  0  0  0
   -3.1131   -1.5327   -0.3485 C   0  0  0  0  0  0  0  0  0  0  0  0
   -4.1847   -2.3576   -0.7070 C   0  0  0  0  0  0  0  0  0  0  0  0
   -5.2900   -2.4020    0.0938 C   0  0  0  0  0  0  0  0  0  0  0  0
   -5.3279   -1.6216    1.2564 C   0  0  0  0  0  0  0  0  0  0  0  0
   -4.2794   -0.8317    1.5824 C   0  0  0  0  0  0  0  0  0  0  0  0
   -3.1735   -0.7815    0.7895 N   0  0  0  0  0  0  0  0  0  0  0  0
   -1.9748   -0.0665    0.9000 N   0  0  0  0  0  0  0  0  0  0  0  0
   -1.3659   -1.8278   -2.1462 C   0  0  0  0  0  0  0  0  0  0  0  0
   -0.8133   -2.9094   -2.1300 O   0  0  0  0  0  0  0  0  0  0  0  0
   -1.5232   -1.0814   -3.4459 C   0  0  0  0  0  0  0  0  0  0  0  0
   -0.3994   -1.4824   -4.4036 C   0  0  0  0  0  0  0  0  0  0  0  0
   -2.8753   -1.4278   -4.0726 C   0  0  0  0  0  0  0  0  0  0  0  0
    1.0655    2.1710   -0.6458 H   0  0  0  0  0  0  0  0  0  0  0  0
   -0.5806    2.0152   -1.3048 H   0  0  0  0  0  0  0  0  0  0  0  0
   -0.3356    2.1647    0.4519 H   0  0  0  0  0  0  0  0  0  0  0  0
    0.5792   -0.1764   -1.2800 H   0  0  0  0  0  0  0  0  0  0  0  0
    0.6794    0.2776    1.7368 H   0  0  0  0  0  0  0  0  0  0  0  0
    1.1576   -1.2163    0.8955 H   0  0  0  0  0  0  0  0  0  0  0  0
    2.0806    0.2839    0.6391 H   0  0  0  0  0  0  0  0  0  0  0  0
   -4.1385   -2.9523   -1.6074 H   0  0  0  0  0  0  0  0  0  0  0  0
   -6.1271   -3.0326   -0.1670 H   0  0  0  0  0  0  0  0  0  0  0  0
   -6.1983   -1.6505    1.8951 H   0  0  0  0  0  0  0  0  0  0  0  0
   -4.3200   -0.2341    2.4810 H   0  0  0  0  0  0  0  0  0  0  0  0
   -1.4743   -0.0089   -3.2572 H   0  0  0  0  0  0  0  0  0  0  0  0
   -0.4483   -2.5549   -4.5923 H   0  0  0  0  0  0  0  0  0  0  0  0
   -0.5132   -0.9426   -5.3437 H   0  0  0  0  0  0  0  0  0  0  0  0
    0.5638   -1.2356   -3.9572 H   0  0  0  0  0  0  0  0  0  0  0  0
   -2.9242   -2.5002   -4.2613 H   0  0  0  0  0  0  0  0  0  0  0  0
   -3.6759   -1.1421   -3.3903 H   0  0  0  0  0  0  0  0  0  0  0  0
   -2.9891   -0.8879   -5.0126 H   0  0  0  0  0  0  0  0  0  0  0  0
  1  2  1  0  0  0  0
  1 18  1  0  0  0  0
  1 19  1  0  0  0  0
  1 20  1  0  0  0  0
  2  3  1  0  0  0  0
  2  4  1  0  0  0  0
  2 21  1  0  0  0  0
  3 22  1  0  0  0  0
  3 23  1  0  0  0  0
  3 24  1  0  0  0  0
  4 12  2  0  0  0  0
  4  5  1  0  0  0  0
  5  6  2  0  0  0  0
  5 13  1  0  0  0  0
  6 11  1  0  0  0  0
  6  7  1  0  0  0  0
  7  8  2  0  0  0  0
  7 25  1  0  0  0  0
  8  9  1  0  0  0  0
  8 26  1  0  0  0  0
  9 10  2  0  0  0  0
  9 27  1  0  0  0  0
 10 11  1  0  0  0  0
 10 28  1  0  0  0  0
 11 12  1  0  0  0  0
 13 14  2  0  0  0  0
 13 15  1  0  0  0  0
 15 16  1  0  0  0  0
 15 17  1  0  0  0  0
 15 29  1  0  0  0  0
 16 30  1  0  0  0  0
 16 31  1  0  0  0  0
 16 32  1  0  0  0  0
 17 33  1  0  0  0  0
 17 34  1  0  0  0  0
 17 35  1  0  0  0  0
M  END
$$$$
