ZINC00004321
 OpenBabel08292219463D

 22 23  0  0  0  0  0  0  0  0999 V2000
   -0.0165    1.3620    0.0095 C   0  0  0  0  0  0  0  0  0  0  0  0
    1.1695    2.0829    0.0021 C   0  0  0  0  0  0  0  0  0  0  0  0
    2.3849    1.4337   -0.0130 C   0  0  0  0  0  0  0  0  0  0  0  0
    2.4258    0.0445   -0.0209 C   0  0  0  0  0  0  0  0  0  0  0  0
    1.2235   -0.6815   -0.0133 C   0  0  0  0  0  0  0  0  0  0  0  0
    0.0021   -0.0041    0.0020 C   0  0  0  0  0  0  0  0  0  0  0  0
    1.5960   -2.0991   -0.0245 C   0  0  0  0  0  0  0  0  0  0  0  0
    2.8919   -2.1600   -0.0372 N   0  0  0  0  0  0  0  0  0  0  0  0
    3.4313   -0.8535   -0.0353 O   0  0  0  0  0  0  0  0  0  0  0  0
    0.6479   -3.2705   -0.0218 C   0  0  0  0  0  0  0  0  0  0  0  0
    0.2511   -3.7312   -1.7309 S   0  0  0  0  0  0  0  0  0  0  0  0
   -0.5174   -2.7076   -2.3479 O   0  0  0  0  0  0  0  0  0  0  0  0
    1.4018   -4.2610   -2.3747 O   0  0  0  0  0  0  0  0  0  0  0  0
   -0.7861   -5.0151   -1.5957 N   0  0  0  0  0  0  0  0  0  0  0  0
   -0.9613    1.8850    0.0259 H   0  0  0  0  0  0  0  0  0  0  0  0
    1.1395    3.1624    0.0078 H   0  0  0  0  0  0  0  0  0  0  0  0
    3.3029    2.0027   -0.0191 H   0  0  0  0  0  0  0  0  0  0  0  0
   -0.9248   -0.5584    0.0083 H   0  0  0  0  0  0  0  0  0  0  0  0
    1.1159   -4.1156    0.4830 H   0  0  0  0  0  0  0  0  0  0  0  0
   -0.2675   -2.9958    0.5023 H   0  0  0  0  0  0  0  0  0  0  0  0
   -1.4598   -5.1681   -2.2765 H   0  0  0  0  0  0  0  0  0  0  0  0
   -0.7200   -5.6141   -0.8356 H   0  0  0  0  0  0  0  0  0  0  0  0
  1  6  2  0  0  0  0
  1  2  1  0  0  0  0
  1 15  1  0  0  0  0
  2  3  2  0  0  0  0
  2 16  1  0  0  0  0
  3  4  1  0  0  0  0
  3 17  1  0  0  0  0
  4  9  1  0  0  0  0
  4  5  2  0  0  0  0
  5  6  1  0  0  0  0
  5  7  1  0  0  0  0
  6 18  1  0  0  0  0
  7  8  2  0  0  0  0
  7 10  1  0  0  0  0
  8  9  1  0  0  0  0
 10 11  1  0  0  0  0
 10 19  1  0  0  0  0
 10 20  1  0  0  0  0
 11 12  2  0  0  0  0
 11 13  2  0  0  0  0
 11 14  1  0  0  0  0
 14 21  1  0  0  0  0
 14 22  1  0  0  0  0
M  END
$$$$
