ZINC12495103
 OpenBabel08292219463D

 48 47  0  0  1  0  0  0  0  0999 V2000
   -6.8203    1.4785    0.0805 C   0  0  0  0  0  0  0  0  0  0  0  0
   -5.3996    2.0454    0.0475 C   0  0  0  0  0  0  0  0  0  0  0  0
   -4.4537    1.0939    0.7829 C   0  0  0  0  0  0  0  0  0  0  0  0
   -3.0543    1.6523    0.7504 C   0  0  0  0  0  0  0  0  0  0  0  0
   -2.8360    2.7034    0.1960 O   0  0  0  0  0  0  0  0  0  0  0  0
   -2.0504    0.9819    1.3374 O   0  0  0  0  0  0  0  0  0  0  0  0
   -0.7288    1.5792    1.2668 C   0  0  2  0  0  0  0  0  0  0  0  0
   -0.8222    2.6646    1.2299 H   0  0  0  0  0  0  0  0  0  0  0  0
   -0.0127    1.0858    0.0080 C   0  0  0  0  0  0  0  0  0  0  0  0
   -0.7150    1.5668   -1.1683 O   0  0  0  0  0  0  0  0  0  0  0  0
   -0.2114    1.2195   -2.3631 C   0  0  0  0  0  0  0  0  0  0  0  0
    0.7832    0.5362   -2.4240 O   0  0  0  0  0  0  0  0  0  0  0  0
   -0.8867    1.6818   -3.6286 C   0  0  0  0  0  0  0  0  0  0  0  0
   -0.1172    1.1518   -4.8402 C   0  0  0  0  0  0  0  0  0  0  0  0
    0.0786    1.1786    2.5031 C   0  0  0  0  0  0  0  0  0  0  0  0
   -0.5275    1.7384    3.6699 O   0  0  0  0  0  0  0  0  0  0  0  0
    0.0589    1.5198    5.1533 P   0  0  1  0  0  0  0  0  0  0  0  0
    1.4756    1.9464    5.1915 O   0  0  0  0  0  0  0  0  0  0  0  0
   -0.7936    2.3952    6.2017 O   0  0  0  0  0  0  0  0  0  0  0  0
   -0.4557    2.4973    7.5864 C   0  0  0  0  0  0  0  0  0  0  0  0
   -1.4673    3.4019    8.2929 C   0  0  1  0  0  0  0  0  0  0  0  0
   -2.4753    3.0257    8.1181 H   0  0  0  0  0  0  0  0  0  0  0  0
   -1.1845    3.4118    9.7731 C   0  0  0  0  0  0  0  0  0  0  0  0
   -0.5791    4.3338   10.2663 O   0  0  0  0  0  0  0  0  0  0  0  0
   -6.8340    0.5037   -0.4072 H   0  0  0  0  0  0  0  0  0  0  0  0
   -7.1449    1.3715    1.1155 H   0  0  0  0  0  0  0  0  0  0  0  0
   -7.4942    2.1563   -0.4434 H   0  0  0  0  0  0  0  0  0  0  0  0
   -5.3859    3.0201    0.5352 H   0  0  0  0  0  0  0  0  0  0  0  0
   -5.0750    2.1524   -0.9875 H   0  0  0  0  0  0  0  0  0  0  0  0
   -4.4673    0.1192    0.2952 H   0  0  0  0  0  0  0  0  0  0  0  0
   -4.7782    0.9869    1.8179 H   0  0  0  0  0  0  0  0  0  0  0  0
    0.0021   -0.0041    0.0020 H   0  0  0  0  0  0  0  0  0  0  0  0
    1.0099    1.4631    0.0003 H   0  0  0  0  0  0  0  0  0  0  0  0
   -1.9089    1.3042   -3.6538 H   0  0  0  0  0  0  0  0  0  0  0  0
   -0.9010    2.7714   -3.6555 H   0  0  0  0  0  0  0  0  0  0  0  0
   -0.6056    1.4862   -5.7555 H   0  0  0  0  0  0  0  0  0  0  0  0
    0.9050    1.5294   -4.8150 H   0  0  0  0  0  0  0  0  0  0  0  0
   -0.1028    0.0622   -4.8132 H   0  0  0  0  0  0  0  0  0  0  0  0
    0.0967    0.0921    2.5888 H   0  0  0  0  0  0  0  0  0  0  0  0
    1.0980    1.5526    2.4082 H   0  0  0  0  0  0  0  0  0  0  0  0
   -0.4761    1.5061    8.0394 H   0  0  0  0  0  0  0  0  0  0  0  0
    0.5433    2.9218    7.6863 H   0  0  0  0  0  0  0  0  0  0  0  0
   -2.0569    5.3704    8.1682 H   0  0  0  0  0  0  0  0  0  0  0  0
   -0.4297    5.1392    7.9139 H   0  0  0  0  0  0  0  0  0  0  0  0
   -0.0433   -0.0380    5.5466 O   0  0  0  0  0  1  0  0  0  0  0  0
   -1.6050    2.3962   10.5435 O   0  0  0  0  0  1  0  0  0  0  0  0
   -1.3603    4.7633    7.7394 N   0  3  0  0  0  0  0  0  0  0  0  0
   -1.5234    4.7296    6.7263 H   0  0  0  0  0  0  0  0  0  0  0  0
  1  2  1  0  0  0  0
  1 25  1  0  0  0  0
  1 26  1  0  0  0  0
  1 27  1  0  0  0  0
  2  3  1  0  0  0  0
  2 28  1  0  0  0  0
  2 29  1  0  0  0  0
  3  4  1  0  0  0  0
  3 30  1  0  0  0  0
  3 31  1  0  0  0  0
  4  5  2  0  0  0  0
  4  6  1  0  0  0  0
  6  7  1  0  0  0  0
  7  8  1  6  0  0  0
  7  9  1  0  0  0  0
  7 15  1  0  0  0  0
  9 10  1  0  0  0  0
  9 32  1  0  0  0  0
  9 33  1  0  0  0  0
 10 11  1  0  0  0  0
 11 12  2  0  0  0  0
 11 13  1  0  0  0  0
 13 14  1  0  0  0  0
 13 34  1  0  0  0  0
 13 35  1  0  0  0  0
 14 36  1  0  0  0  0
 14 37  1  0  0  0  0
 14 38  1  0  0  0  0
 15 16  1  0  0  0  0
 15 39  1  0  0  0  0
 15 40  1  0  0  0  0
 16 17  1  0  0  0  0
 17 18  2  1  0  0  0
 17 19  1  0  0  0  0
 17 45  1  0  0  0  0
 19 20  1  0  0  0  0
 20 21  1  0  0  0  0
 20 41  1  0  0  0  0
 20 42  1  0  0  0  0
 21 22  1  6  0  0  0
 21 23  1  0  0  0  0
 21 47  1  0  0  0  0
 23 24  2  0  0  0  0
 23 46  1  0  0  0  0
 43 47  1  0  0  0  0
 44 47  1  0  0  0  0
 47 48  1  0  0  0  0
M  CHG  1  47   1
M  END
$$$$
