ZINC03876158
 OpenBabel08292219463D

 56 59  0  0  1  0  0  0  0  0999 V2000
    0.6007    0.5908   -0.1910 C   0  0  0  0  0  0  0  0  0  0  0  0
    0.6285   -0.9323   -0.0491 C   0  0  1  0  0  0  0  0  0  0  0  0
   -0.3905   -1.3158    0.0023 H   0  0  0  0  0  0  0  0  0  0  0  0
    1.3541   -1.5505   -1.2486 C   0  0  0  0  0  0  0  0  0  0  0  0
    1.4931   -3.0599   -1.0424 C   0  0  1  0  0  0  0  0  0  0  0  0
    0.5087   -3.5017   -0.8877 H   0  0  0  0  0  0  0  0  0  0  0  0
    2.1509   -3.6888   -2.2571 C   0  0  2  0  0  0  0  0  0  0  0  0
    3.1626   -3.3032   -2.3831 H   0  0  0  0  0  0  0  0  0  0  0  0
    1.3678   -3.5749   -3.5701 C   0  0  0  0  0  0  0  0  0  0  0  0
    1.9321   -4.7495   -4.4149 C   0  0  0  0  0  0  0  0  0  0  0  0
    2.4922   -5.7836   -3.4067 C   0  0  1  0  0  0  0  0  0  0  0  0
    2.1796   -5.2225   -2.0175 C   0  0  1  0  0  0  0  0  0  0  0  0
    3.1884   -5.4848   -0.9161 C   0  0  0  0  0  0  0  0  0  0  0  0
    2.6452   -4.8273    0.3625 C   0  0  1  0  0  0  0  0  0  0  0  0
    3.3662   -4.9670    1.1680 H   0  0  0  0  0  0  0  0  0  0  0  0
    2.3819   -3.3339    0.1811 C   0  0  2  0  0  0  0  0  0  0  0  0
    1.6967   -2.7668    1.4282 C   0  0  2  0  0  0  0  0  0  0  0  0
    1.3844   -1.3159    1.2092 C   0  0  0  0  0  0  0  0  0  0  0  0
    1.7367   -0.3636    2.0618 C   0  0  0  0  0  0  0  0  0  0  0  0
    2.4883   -0.6937    3.2826 C   0  0  0  0  0  0  0  0  0  0  0  0
    2.7796    0.1717    4.0870 O   0  0  0  0  0  0  0  0  0  0  0  0
    2.8805   -2.0950    3.5089 C   0  0  0  0  0  0  0  0  0  0  0  0
    2.5145   -3.0303    2.6458 C   0  0  0  0  0  0  0  0  0  0  0  0
    0.3603   -3.4927    1.5959 C   0  0  0  0  0  0  0  0  0  0  0  0
    3.6087   -2.6824    0.0146 F   0  0  0  0  0  0  0  0  0  0  0  0
    1.4149   -5.4579    0.7243 O   0  0  0  0  0  0  0  0  0  0  0  0
    0.7950   -5.7045   -1.5799 C   0  0  0  0  0  0  0  0  0  0  0  0
    1.8239   -7.1199   -3.6039 C   0  0  0  0  0  0  0  0  0  0  0  0
    0.7261   -7.1781   -4.1035 O   0  0  0  0  0  0  0  0  0  0  0  0
    2.5257   -8.3835   -3.1776 C   0  0  0  0  0  0  0  0  0  0  0  0
    3.9073   -5.9091   -3.5609 O   0  0  0  0  0  0  0  0  0  0  0  0
    1.6214    0.9697   -0.2420 H   0  0  0  0  0  0  0  0  0  0  0  0
    0.0668    0.8612   -1.1020 H   0  0  0  0  0  0  0  0  0  0  0  0
    0.0939    1.0268    0.6700 H   0  0  0  0  0  0  0  0  0  0  0  0
    0.7821   -1.3595   -2.1566 H   0  0  0  0  0  0  0  0  0  0  0  0
    2.3441   -1.1044   -1.3432 H   0  0  0  0  0  0  0  0  0  0  0  0
    0.2998   -3.7043   -3.3946 H   0  0  0  0  0  0  0  0  0  0  0  0
    1.5668   -2.6198   -4.0561 H   0  0  0  0  0  0  0  0  0  0  0  0
    1.1364   -5.1991   -5.0089 H   0  0  0  0  0  0  0  0  0  0  0  0
    2.7297   -4.3923   -5.0664 H   0  0  0  0  0  0  0  0  0  0  0  0
    3.3003   -6.5582   -0.7629 H   0  0  0  0  0  0  0  0  0  0  0  0
    4.1497   -5.0443   -1.1805 H   0  0  0  0  0  0  0  0  0  0  0  0
    1.4693    0.6628    1.8586 H   0  0  0  0  0  0  0  0  0  0  0  0
    3.4678   -2.3592    4.3759 H   0  0  0  0  0  0  0  0  0  0  0  0
    2.8248   -4.0468    2.8377 H   0  0  0  0  0  0  0  0  0  0  0  0
    0.5338   -4.4779    2.0289 H   0  0  0  0  0  0  0  0  0  0  0  0
   -0.2868   -2.9147    2.2556 H   0  0  0  0  0  0  0  0  0  0  0  0
   -0.1181   -3.6027    0.6227 H   0  0  0  0  0  0  0  0  0  0  0  0
    1.4951   -6.4058    0.8980 H   0  0  0  0  0  0  0  0  0  0  0  0
    0.1168   -5.6841   -2.4329 H   0  0  0  0  0  0  0  0  0  0  0  0
    0.8686   -6.7229   -1.1984 H   0  0  0  0  0  0  0  0  0  0  0  0
    0.4132   -5.0498   -0.7965 H   0  0  0  0  0  0  0  0  0  0  0  0
    2.7257   -8.3445   -2.1068 H   0  0  0  0  0  0  0  0  0  0  0  0
    1.8924   -9.2429   -3.3979 H   0  0  0  0  0  0  0  0  0  0  0  0
    3.4667   -8.4772   -3.7197 H   0  0  0  0  0  0  0  0  0  0  0  0
    4.1816   -6.2224   -4.4337 H   0  0  0  0  0  0  0  0  0  0  0  0
  1  2  1  0  0  0  0
  1 32  1  0  0  0  0
  1 33  1  0  0  0  0
  1 34  1  0  0  0  0
  2  3  1  1  0  0  0
  2 18  1  0  0  0  0
  2  4  1  0  0  0  0
  4  5  1  0  0  0  0
  4 35  1  0  0  0  0
  4 36  1  0  0  0  0
  5  6  1  1  0  0  0
  5 16  1  0  0  0  0
  5  7  1  0  0  0  0
  7  8  1  6  0  0  0
  7 12  1  0  0  0  0
  7  9  1  0  0  0  0
  9 10  1  0  0  0  0
  9 37  1  0  0  0  0
  9 38  1  0  0  0  0
 10 11  1  0  0  0  0
 10 39  1  0  0  0  0
 10 40  1  0  0  0  0
 11 12  1  0  0  0  0
 11 28  1  6  0  0  0
 11 31  1  0  0  0  0
 12 13  1  0  0  0  0
 12 27  1  1  0  0  0
 13 14  1  0  0  0  0
 13 41  1  0  0  0  0
 13 42  1  0  0  0  0
 14 15  1  1  0  0  0
 14 16  1  0  0  0  0
 14 26  1  0  0  0  0
 16 17  1  0  0  0  0
 16 25  1  6  0  0  0
 17 23  1  0  0  0  0
 17 18  1  0  0  0  0
 17 24  1  1  0  0  0
 18 19  2  0  0  0  0
 19 20  1  0  0  0  0
 19 43  1  0  0  0  0
 20 21  2  0  0  0  0
 20 22  1  0  0  0  0
 22 23  2  0  0  0  0
 22 44  1  0  0  0  0
 23 45  1  0  0  0  0
 24 46  1  0  0  0  0
 24 47  1  0  0  0  0
 24 48  1  0  0  0  0
 26 49  1  0  0  0  0
 27 50  1  0  0  0  0
 27 51  1  0  0  0  0
 27 52  1  0  0  0  0
 28 29  2  0  0  0  0
 28 30  1  0  0  0  0
 30 53  1  0  0  0  0
 30 54  1  0  0  0  0
 30 55  1  0  0  0  0
 31 56  1  0  0  0  0
M  END
$$$$
