ZINC04811698
 OpenBabel08292219463D

 34 34  0  0  0  0  0  0  0  0999 V2000
   -0.0187    1.5258    0.0104 C   0  0  0  0  0  0  0  0  0  0  0  0
    0.0021   -0.0041    0.0020 C   0  0  0  0  0  0  0  0  0  0  0  0
    0.7421   -0.5109    1.2415 C   0  0  0  0  0  0  0  0  0  0  0  0
    2.1995   -0.1084    1.1187 C   0  0  0  0  0  0  0  0  0  0  0  0
    2.8721   -0.4626    0.1742 O   0  0  0  0  0  0  0  0  0  0  0  0
    2.7200    0.6584    2.1002 N   0  0  0  0  0  0  0  0  0  0  0  0
    1.9914    1.0572    3.1491 C   0  0  0  0  0  0  0  0  0  0  0  0
    2.5397    1.7460    3.9863 O   0  0  0  0  0  0  0  0  0  0  0  0
    0.7030    0.7533    3.3432 N   0  0  0  0  0  0  0  0  0  0  0  0
    0.0081   -0.0053    2.4691 C   0  0  0  0  0  0  0  0  0  0  0  0
   -1.1591   -0.2729    2.6584 O   0  0  0  0  0  0  0  0  0  0  0  0
    0.6729   -2.0393    1.2414 C   0  0  0  0  0  0  0  0  0  0  0  0
    1.4046   -2.5831    2.4702 C   0  0  0  0  0  0  0  0  0  0  0  0
    1.3355   -4.1115    2.4701 C   0  0  0  0  0  0  0  0  0  0  0  0
    2.1713   -4.6599    3.6283 C   0  0  0  0  0  0  0  0  0  0  0  0
   -0.1191   -4.5562    2.6355 C   0  0  0  0  0  0  0  0  0  0  0  0
    1.0039    1.9031    0.0027 H   0  0  0  0  0  0  0  0  0  0  0  0
   -0.5459    1.8868   -0.8726 H   0  0  0  0  0  0  0  0  0  0  0  0
   -0.5289    1.8773    0.9072 H   0  0  0  0  0  0  0  0  0  0  0  0
   -1.0205   -0.3814    0.0098 H   0  0  0  0  0  0  0  0  0  0  0  0
    0.5123   -0.3556   -0.8948 H   0  0  0  0  0  0  0  0  0  0  0  0
    3.6500    0.9281    2.0436 H   0  0  0  0  0  0  0  0  0  0  0  0
    0.2549    1.0878    4.1358 H   0  0  0  0  0  0  0  0  0  0  0  0
   -0.3697   -2.3559    1.2698 H   0  0  0  0  0  0  0  0  0  0  0  0
    1.1450   -2.4243    0.3375 H   0  0  0  0  0  0  0  0  0  0  0  0
    2.4473   -2.2665    2.4418 H   0  0  0  0  0  0  0  0  0  0  0  0
    0.9325   -2.1981    3.3741 H   0  0  0  0  0  0  0  0  0  0  0  0
    1.7270   -4.4928    1.5270 H   0  0  0  0  0  0  0  0  0  0  0  0
    1.7798   -4.2786    4.5714 H   0  0  0  0  0  0  0  0  0  0  0  0
    2.1220   -5.7488    3.6282 H   0  0  0  0  0  0  0  0  0  0  0  0
    3.2076   -4.3431    3.5105 H   0  0  0  0  0  0  0  0  0  0  0  0
   -0.1684   -5.6451    2.6354 H   0  0  0  0  0  0  0  0  0  0  0  0
   -0.5106   -4.1749    3.5785 H   0  0  0  0  0  0  0  0  0  0  0  0
   -0.7145   -4.1655    1.8103 H   0  0  0  0  0  0  0  0  0  0  0  0
  1  2  1  0  0  0  0
  1 17  1  0  0  0  0
  1 18  1  0  0  0  0
  1 19  1  0  0  0  0
  2  3  1  0  0  0  0
  2 20  1  0  0  0  0
  2 21  1  0  0  0  0
  3 10  1  0  0  0  0
  3  4  1  0  0  0  0
  3 12  1  0  0  0  0
  4  5  2  0  0  0  0
  4  6  1  0  0  0  0
  6  7  1  0  0  0  0
  6 22  1  0  0  0  0
  7  8  2  0  0  0  0
  7  9  1  0  0  0  0
  9 10  1  0  0  0  0
  9 23  1  0  0  0  0
 10 11  2  0  0  0  0
 12 13  1  0  0  0  0
 12 24  1  0  0  0  0
 12 25  1  0  0  0  0
 13 14  1  0  0  0  0
 13 26  1  0  0  0  0
 13 27  1  0  0  0  0
 14 15  1  0  0  0  0
 14 16  1  0  0  0  0
 14 28  1  0  0  0  0
 15 29  1  0  0  0  0
 15 30  1  0  0  0  0
 15 31  1  0  0  0  0
 16 32  1  0  0  0  0
 16 33  1  0  0  0  0
 16 34  1  0  0  0  0
M  END
$$$$
