ZINC19632891
 OpenBabel08292219463D

 57 60  0  0  0  0  0  0  0  0999 V2000
   -0.5628    1.2510    0.7251 C   0  0  0  0  0  0  0  0  0  0  0  0
    0.5431    2.0576    0.9261 C   0  0  0  0  0  0  0  0  0  0  0  0
    1.8090    1.5087    0.9326 C   0  0  0  0  0  0  0  0  0  0  0  0
    1.9723    0.1369    0.7362 C   0  0  0  0  0  0  0  0  0  0  0  0
    0.8527   -0.6711    0.5345 C   0  0  0  0  0  0  0  0  0  0  0  0
   -0.4076   -0.1097    0.5298 C   0  0  0  0  0  0  0  0  0  0  0  0
    3.3255   -0.4577    0.7415 C   0  0  0  0  0  0  0  0  0  0  0  0
    3.4775   -1.7613    0.5547 C   0  0  0  0  0  0  0  0  0  0  0  0
    4.8572   -2.3675    0.5600 C   0  0  0  0  0  0  0  0  0  0  0  0
    4.9119   -3.4516    1.5498 N   0  3  0  0  0  0  0  0  0  0  0  0
    4.0107   -4.5360    1.1382 C   0  0  0  0  0  0  0  0  0  0  0  0
    4.0531   -5.6573    2.1786 C   0  0  0  0  0  0  0  0  0  0  0  0
    5.4293   -6.1593    2.2978 N   0  0  0  0  0  0  0  0  0  0  0  0
    6.3474   -5.0790    2.6852 C   0  0  0  0  0  0  0  0  0  0  0  0
    6.2860   -3.9624    1.6406 C   0  0  0  0  0  0  0  0  0  0  0  0
    5.5014   -7.2775    3.2479 C   0  0  0  0  0  0  0  0  0  0  0  0
    4.5653   -8.3728    2.8065 C   0  0  0  0  0  0  0  0  0  0  0  0
    4.5133   -8.7430    1.4756 C   0  0  0  0  0  0  0  0  0  0  0  0
    3.6546   -9.7478    1.0707 C   0  0  0  0  0  0  0  0  0  0  0  0
    2.8482  -10.3827    1.9967 C   0  0  0  0  0  0  0  0  0  0  0  0
    2.9008  -10.0131    3.3277 C   0  0  0  0  0  0  0  0  0  0  0  0
    3.7627   -9.0113    3.7333 C   0  0  0  0  0  0  0  0  0  0  0  0
    6.9109   -7.8088    3.2923 C   0  0  0  0  0  0  0  0  0  0  0  0
    7.6131   -8.0045    2.1177 C   0  0  0  0  0  0  0  0  0  0  0  0
    8.9061   -8.4919    2.1585 C   0  0  0  0  0  0  0  0  0  0  0  0
    9.4969   -8.7833    3.3737 C   0  0  0  0  0  0  0  0  0  0  0  0
    8.7950   -8.5868    4.5483 C   0  0  0  0  0  0  0  0  0  0  0  0
    7.5036   -8.0953    4.5078 C   0  0  0  0  0  0  0  0  0  0  0  0
   -1.5518    1.6849    0.7250 H   0  0  0  0  0  0  0  0  0  0  0  0
    0.4154    3.1192    1.0779 H   0  0  0  0  0  0  0  0  0  0  0  0
    2.6716    2.1395    1.0889 H   0  0  0  0  0  0  0  0  0  0  0  0
    0.9726   -1.7335    0.3816 H   0  0  0  0  0  0  0  0  0  0  0  0
   -1.2750   -0.7340    0.3735 H   0  0  0  0  0  0  0  0  0  0  0  0
    4.1905    0.1699    0.8975 H   0  0  0  0  0  0  0  0  0  0  0  0
    2.6125   -2.3889    0.3986 H   0  0  0  0  0  0  0  0  0  0  0  0
    5.0824   -2.7668   -0.4289 H   0  0  0  0  0  0  0  0  0  0  0  0
    5.5892   -1.6023    0.8183 H   0  0  0  0  0  0  0  0  0  0  0  0
    2.9935   -4.1526    1.0586 H   0  0  0  0  0  0  0  0  0  0  0  0
    4.3289   -4.9254    0.1712 H   0  0  0  0  0  0  0  0  0  0  0  0
    3.7220   -5.2716    3.1428 H   0  0  0  0  0  0  0  0  0  0  0  0
    3.3958   -6.4687    1.8659 H   0  0  0  0  0  0  0  0  0  0  0  0
    6.0540   -4.6837    3.6578 H   0  0  0  0  0  0  0  0  0  0  0  0
    7.3638   -5.4683    2.7421 H   0  0  0  0  0  0  0  0  0  0  0  0
    6.5926   -4.3548    0.6710 H   0  0  0  0  0  0  0  0  0  0  0  0
    6.9556   -3.1537    1.9335 H   0  0  0  0  0  0  0  0  0  0  0  0
    5.2125   -6.9305    4.2399 H   0  0  0  0  0  0  0  0  0  0  0  0
    5.1433   -8.2470    0.7521 H   0  0  0  0  0  0  0  0  0  0  0  0
    3.6135  -10.0365    0.0308 H   0  0  0  0  0  0  0  0  0  0  0  0
    2.1768  -11.1672    1.6803 H   0  0  0  0  0  0  0  0  0  0  0  0
    2.2706  -10.5089    4.0512 H   0  0  0  0  0  0  0  0  0  0  0  0
    3.8065   -8.7251    4.7738 H   0  0  0  0  0  0  0  0  0  0  0  0
    7.1515   -7.7768    1.1683 H   0  0  0  0  0  0  0  0  0  0  0  0
    9.4544   -8.6454    1.2408 H   0  0  0  0  0  0  0  0  0  0  0  0
   10.5068   -9.1648    3.4055 H   0  0  0  0  0  0  0  0  0  0  0  0
    9.2565   -8.8148    5.4978 H   0  0  0  0  0  0  0  0  0  0  0  0
    6.9565   -7.9383    5.4257 H   0  0  0  0  0  0  0  0  0  0  0  0
    4.6240   -3.0992    2.4505 H   0  0  0  0  0  0  0  0  0  0  0  0
  1  6  2  0  0  0  0
  1  2  1  0  0  0  0
  1 29  1  0  0  0  0
  2  3  2  0  0  0  0
  2 30  1  0  0  0  0
  3  4  1  0  0  0  0
  3 31  1  0  0  0  0
  4  5  2  0  0  0  0
  4  7  1  0  0  0  0
  5  6  1  0  0  0  0
  5 32  1  0  0  0  0
  6 33  1  0  0  0  0
  7  8  2  0  0  0  0
  7 34  1  0  0  0  0
  8  9  1  0  0  0  0
  8 35  1  0  0  0  0
  9 10  1  0  0  0  0
  9 36  1  0  0  0  0
  9 37  1  0  0  0  0
 10 15  1  0  0  0  0
 10 11  1  0  0  0  0
 10 57  1  0  0  0  0
 11 12  1  0  0  0  0
 11 38  1  0  0  0  0
 11 39  1  0  0  0  0
 12 13  1  0  0  0  0
 12 40  1  0  0  0  0
 12 41  1  0  0  0  0
 13 14  1  0  0  0  0
 13 16  1  0  0  0  0
 14 15  1  0  0  0  0
 14 42  1  0  0  0  0
 14 43  1  0  0  0  0
 15 44  1  0  0  0  0
 15 45  1  0  0  0  0
 16 17  1  0  0  0  0
 16 23  1  0  0  0  0
 16 46  1  0  0  0  0
 17 22  2  0  0  0  0
 17 18  1  0  0  0  0
 18 19  2  0  0  0  0
 18 47  1  0  0  0  0
 19 20  1  0  0  0  0
 19 48  1  0  0  0  0
 20 21  2  0  0  0  0
 20 49  1  0  0  0  0
 21 22  1  0  0  0  0
 21 50  1  0  0  0  0
 22 51  1  0  0  0  0
 23 28  2  0  0  0  0
 23 24  1  0  0  0  0
 24 25  2  0  0  0  0
 24 52  1  0  0  0  0
 25 26  1  0  0  0  0
 25 53  1  0  0  0  0
 26 27  2  0  0  0  0
 26 54  1  0  0  0  0
 27 28  1  0  0  0  0
 27 55  1  0  0  0  0
 28 56  1  0  0  0  0
M  CHG  1  10   1
M  END
$$$$
