ZINC01542907
 OpenBabel08292219463D

 26 26  0  0  1  0  0  0  0  0999 V2000
   -0.0187    1.5258    0.0104 C   0  0  0  0  0  0  0  0  0  0  0  0
    1.4167    2.0553   -0.0004 C   0  0  0  0  0  0  0  0  0  0  0  0
    2.1567    1.5485    1.2391 C   0  0  1  0  0  0  0  0  0  0  0  0
    2.1775    0.0187    1.2307 C   0  0  0  0  0  0  0  0  0  0  0  0
    0.7421   -0.5109    1.2415 C   0  0  0  0  0  0  0  0  0  0  0  0
    0.0021   -0.0041    0.0020 C   0  0  1  0  0  0  0  0  0  0  0  0
   -1.4333   -0.5336    0.0129 C   0  0  0  0  0  0  0  0  0  0  0  0
   -1.4164   -1.9969   -0.1159 N   0  3  0  0  0  0  0  0  0  0  0  0
    3.5705    2.0701    1.2284 C   0  0  0  0  0  0  0  0  0  0  0  0
    4.0889    2.4476    2.2654 O   0  0  0  0  0  0  0  0  0  0  0  0
    4.1959    2.1147    0.1828 O   0  0  0  0  0  1  0  0  0  0  0  0
   -0.5289    1.8773    0.9072 H   0  0  0  0  0  0  0  0  0  0  0  0
   -0.5459    1.8868   -0.8726 H   0  0  0  0  0  0  0  0  0  0  0  0
    1.9269    1.7038   -0.8972 H   0  0  0  0  0  0  0  0  0  0  0  0
    1.4019    3.1452    0.0056 H   0  0  0  0  0  0  0  0  0  0  0  0
    1.6465    1.9000    2.1359 H   0  0  0  0  0  0  0  0  0  0  0  0
    2.6876   -0.3328    0.3339 H   0  0  0  0  0  0  0  0  0  0  0  0
    2.7046   -0.3424    2.1137 H   0  0  0  0  0  0  0  0  0  0  0  0
    0.7568   -1.6008    1.2356 H   0  0  0  0  0  0  0  0  0  0  0  0
    0.2319   -0.1594    2.1383 H   0  0  0  0  0  0  0  0  0  0  0  0
    0.5123   -0.3556   -0.8948 H   0  0  0  0  0  0  0  0  0  0  0  0
   -1.9156   -0.2570    0.9504 H   0  0  0  0  0  0  0  0  0  0  0  0
   -1.9862   -0.1019   -0.8214 H   0  0  0  0  0  0  0  0  0  0  0  0
   -2.3630   -2.3461   -0.1087 H   0  0  0  0  0  0  0  0  0  0  0  0
   -0.9699   -2.2530   -0.9837 H   0  0  0  0  0  0  0  0  0  0  0  0
   -0.9046   -2.3966    0.6564 H   0  0  0  0  0  0  0  0  0  0  0  0
  1  6  1  0  0  0  0
  1  2  1  0  0  0  0
  1 12  1  0  0  0  0
  1 13  1  0  0  0  0
  2  3  1  0  0  0  0
  2 14  1  0  0  0  0
  2 15  1  0  0  0  0
  3  4  1  0  0  0  0
  3  9  1  0  0  0  0
  3 16  1  1  0  0  0
  4  5  1  0  0  0  0
  4 17  1  0  0  0  0
  4 18  1  0  0  0  0
  5  6  1  0  0  0  0
  5 19  1  0  0  0  0
  5 20  1  0  0  0  0
  6  7  1  0  0  0  0
  6 21  1  6  0  0  0
  7  8  1  0  0  0  0
  7 22  1  0  0  0  0
  7 23  1  0  0  0  0
  8 24  1  0  0  0  0
  8 25  1  0  0  0  0
  8 26  1  0  0  0  0
  9 10  2  0  0  0  0
  9 11  1  0  0  0  0
M  CHG  1   8   1
M  END
$$$$
