ZINC00001145
 OpenBabel08292219463D

 31 32  0  0  0  0  0  0  0  0999 V2000
   -0.0184    1.5028    0.0103 C   0  0  0  0  0  0  0  0  0  0  0  0
    0.0021   -0.0041    0.0020 C   0  0  0  0  0  0  0  0  0  0  0  0
   -1.1978   -0.7292    0.0037 C   0  0  0  0  0  0  0  0  0  0  0  0
   -1.1696   -2.0823   -0.0043 C   0  0  0  0  0  0  0  0  0  0  0  0
    0.0120   -2.7510   -0.0139 N   0  0  0  0  0  0  0  0  0  0  0  0
    1.1811   -2.0829   -0.0153 C   0  0  0  0  0  0  0  0  0  0  0  0
    2.2353   -2.6982   -0.0236 O   0  0  0  0  0  0  0  0  0  0  0  0
    1.1881   -0.6775   -0.0129 C   0  0  0  0  0  0  0  0  0  0  0  0
    0.0149   -4.1669   -0.0221 O   0  0  0  0  0  1  0  0  0  0  0  0
   -2.4634   -2.8550   -0.0019 C   0  0  0  0  0  0  0  0  0  0  0  0
   -2.5381   -3.7285   -1.2558 C   0  0  0  0  0  0  0  0  0  0  0  0
   -3.8516   -4.5130   -1.2534 C   0  0  0  0  0  0  0  0  0  0  0  0
   -3.9131   -5.4009   -0.0089 C   0  0  0  0  0  0  0  0  0  0  0  0
   -3.8385   -4.5274    1.2450 C   0  0  0  0  0  0  0  0  0  0  0  0
   -2.5249   -3.7429    1.2426 C   0  0  0  0  0  0  0  0  0  0  0  0
    1.0042    1.8801    0.0026 H   0  0  0  0  0  0  0  0  0  0  0  0
   -0.5455    1.8639   -0.8728 H   0  0  0  0  0  0  0  0  0  0  0  0
   -0.5286    1.8543    0.9071 H   0  0  0  0  0  0  0  0  0  0  0  0
   -2.1439   -0.2084    0.0117 H   0  0  0  0  0  0  0  0  0  0  0  0
    2.1228   -0.1365   -0.0186 H   0  0  0  0  0  0  0  0  0  0  0  0
   -3.3022   -2.1590    0.0066 H   0  0  0  0  0  0  0  0  0  0  0  0
   -2.4943   -3.0959   -2.1424 H   0  0  0  0  0  0  0  0  0  0  0  0
   -1.6992   -4.4245   -1.2643 H   0  0  0  0  0  0  0  0  0  0  0  0
   -4.6905   -3.8170   -1.2450 H   0  0  0  0  0  0  0  0  0  0  0  0
   -3.9048   -5.1353   -2.1467 H   0  0  0  0  0  0  0  0  0  0  0  0
   -4.8489   -5.9598   -0.0072 H   0  0  0  0  0  0  0  0  0  0  0  0
   -3.0743   -6.0969   -0.0174 H   0  0  0  0  0  0  0  0  0  0  0  0
   -4.6773   -3.8314    1.2534 H   0  0  0  0  0  0  0  0  0  0  0  0
   -3.8823   -5.1600    2.1316 H   0  0  0  0  0  0  0  0  0  0  0  0
   -1.6861   -4.4389    1.2341 H   0  0  0  0  0  0  0  0  0  0  0  0
   -2.4717   -3.1206    2.1359 H   0  0  0  0  0  0  0  0  0  0  0  0
  1  2  1  0  0  0  0
  1 16  1  0  0  0  0
  1 17  1  0  0  0  0
  1 18  1  0  0  0  0
  2  8  2  0  0  0  0
  2  3  1  0  0  0  0
  3  4  2  0  0  0  0
  3 19  1  0  0  0  0
  4  5  1  0  0  0  0
  4 10  1  0  0  0  0
  5  6  1  0  0  0  0
  5  9  1  0  0  0  0
  6  7  2  0  0  0  0
  6  8  1  0  0  0  0
  8 20  1  0  0  0  0
 10 15  1  0  0  0  0
 10 11  1  0  0  0  0
 10 21  1  0  0  0  0
 11 12  1  0  0  0  0
 11 22  1  0  0  0  0
 11 23  1  0  0  0  0
 12 13  1  0  0  0  0
 12 24  1  0  0  0  0
 12 25  1  0  0  0  0
 13 14  1  0  0  0  0
 13 26  1  0  0  0  0
 13 27  1  0  0  0  0
 14 15  1  0  0  0  0
 14 28  1  0  0  0  0
 14 29  1  0  0  0  0
 15 30  1  0  0  0  0
 15 31  1  0  0  0  0
M  END
$$$$
