ZINC03831070
 OpenBabel08292219463D

 45 47  0  0  1  0  0  0  0  0999 V2000
   -0.0187    1.5258    0.0104 C   0  0  0  0  0  0  0  0  0  0  0  0
    0.0021   -0.0041    0.0020 C   0  0  0  0  0  0  0  0  0  0  0  0
    0.9183   -0.5578   -1.1267 C   0  0  1  0  0  0  0  0  0  0  0  0
    1.7655    0.1146   -1.2616 H   0  0  0  0  0  0  0  0  0  0  0  0
    1.4152   -1.8973   -0.7968 N   0  0  0  0  0  0  0  0  0  0  0  0
    1.5639   -2.1961    0.6340 C   0  0  2  0  0  0  0  0  0  0  0  0
    1.1313   -3.1348    0.9800 H   0  0  0  0  0  0  0  0  0  0  0  0
    0.9226   -0.6800    1.4567 S   0  0  0  0  0  0  0  0  0  0  0  0
    3.0673   -2.2015    0.4210 C   0  0  1  0  0  0  0  0  0  0  0  0
    3.5574   -3.1223    0.7376 H   0  0  0  0  0  0  0  0  0  0  0  0
    2.7129   -2.1678   -1.0358 C   0  0  0  0  0  0  0  0  0  0  0  0
    3.3561   -2.3252   -2.0520 O   0  0  0  0  0  0  0  0  0  0  0  0
    3.7428   -0.9941    0.9027 N   0  0  0  0  0  0  0  0  0  0  0  0
    5.0446   -1.0426    1.2482 C   0  0  0  0  0  0  0  0  0  0  0  0
    5.6586   -2.0888    1.1601 O   0  0  0  0  0  0  0  0  0  0  0  0
    5.7235    0.1709    1.7324 C   0  0  0  0  0  0  0  0  0  0  0  0
    5.7419    0.4710    3.1023 C   0  0  0  0  0  0  0  0  0  0  0  0
    6.3841    1.6153    3.5470 C   0  0  0  0  0  0  0  0  0  0  0  0
    7.0051    2.4598    2.6458 C   0  0  0  0  0  0  0  0  0  0  0  0
    6.9927    2.1739    1.2933 C   0  0  0  0  0  0  0  0  0  0  0  0
    6.3614    1.0319    0.8275 C   0  0  0  0  0  0  0  0  0  0  0  0
    6.3558    0.7504   -0.4995 O   0  0  0  0  0  0  0  0  0  0  0  0
    7.0257    1.6728   -1.3612 C   0  0  0  0  0  0  0  0  0  0  0  0
    5.1328   -0.3560    3.9886 O   0  0  0  0  0  0  0  0  0  0  0  0
    5.1925    0.0138    5.3676 C   0  0  0  0  0  0  0  0  0  0  0  0
    0.1332   -0.6267   -2.4112 C   0  0  0  0  0  0  0  0  0  0  0  0
    0.1177    0.3290   -3.1682 O   0  0  0  0  0  0  0  0  0  0  0  0
   -0.4864   -1.6381   -2.6935 O   0  0  0  0  0  1  0  0  0  0  0  0
   -1.4126   -0.5802   -0.0861 C   0  0  0  0  0  0  0  0  0  0  0  0
    1.0039    1.9031    0.0027 H   0  0  0  0  0  0  0  0  0  0  0  0
   -0.5459    1.8868   -0.8726 H   0  0  0  0  0  0  0  0  0  0  0  0
   -0.5289    1.8773    0.9072 H   0  0  0  0  0  0  0  0  0  0  0  0
    3.2531   -0.1597    0.9729 H   0  0  0  0  0  0  0  0  0  0  0  0
    6.3992    1.8484    4.6014 H   0  0  0  0  0  0  0  0  0  0  0  0
    7.5034    3.3498    3.0010 H   0  0  0  0  0  0  0  0  0  0  0  0
    7.4804    2.8408    0.5978 H   0  0  0  0  0  0  0  0  0  0  0  0
    6.9458    1.3299   -2.3928 H   0  0  0  0  0  0  0  0  0  0  0  0
    6.5654    2.6565   -1.2686 H   0  0  0  0  0  0  0  0  0  0  0  0
    8.0768    1.7355   -1.0796 H   0  0  0  0  0  0  0  0  0  0  0  0
    4.6680   -0.7307    5.9664 H   0  0  0  0  0  0  0  0  0  0  0  0
    6.2340    0.0671    5.6847 H   0  0  0  0  0  0  0  0  0  0  0  0
    4.7211    0.9872    5.5035 H   0  0  0  0  0  0  0  0  0  0  0  0
   -1.8843   -0.2455   -1.0100 H   0  0  0  0  0  0  0  0  0  0  0  0
   -1.3627   -1.6690   -0.0774 H   0  0  0  0  0  0  0  0  0  0  0  0
   -1.9986   -0.2365    0.7662 H   0  0  0  0  0  0  0  0  0  0  0  0
  1  2  1  0  0  0  0
  1 30  1  0  0  0  0
  1 31  1  0  0  0  0
  1 32  1  0  0  0  0
  2  8  1  0  0  0  0
  2  3  1  0  0  0  0
  2 29  1  0  0  0  0
  3  4  1  6  0  0  0
  3  5  1  0  0  0  0
  3 26  1  0  0  0  0
  5 11  1  0  0  0  0
  5  6  1  0  0  0  0
  6  7  1  1  0  0  0
  6  8  1  0  0  0  0
  6  9  1  0  0  0  0
  9 10  1  1  0  0  0
  9 11  1  0  0  0  0
  9 13  1  0  0  0  0
 11 12  2  0  0  0  0
 13 14  1  0  0  0  0
 13 33  1  0  0  0  0
 14 15  2  0  0  0  0
 14 16  1  0  0  0  0
 16 21  2  0  0  0  0
 16 17  1  0  0  0  0
 17 18  2  0  0  0  0
 17 24  1  0  0  0  0
 18 19  1  0  0  0  0
 18 34  1  0  0  0  0
 19 20  2  0  0  0  0
 19 35  1  0  0  0  0
 20 21  1  0  0  0  0
 20 36  1  0  0  0  0
 21 22  1  0  0  0  0
 22 23  1  0  0  0  0
 23 37  1  0  0  0  0
 23 38  1  0  0  0  0
 23 39  1  0  0  0  0
 24 25  1  0  0  0  0
 25 40  1  0  0  0  0
 25 41  1  0  0  0  0
 25 42  1  0  0  0  0
 26 27  2  0  0  0  0
 26 28  1  0  0  0  0
 29 43  1  0  0  0  0
 29 44  1  0  0  0  0
 29 45  1  0  0  0  0
M  END
$$$$
