ZINC00896487
 OpenBabel08292219463D

 32 34  0  0  1  0  0  0  0  0999 V2000
    5.7001    4.0276   -0.0528 C   0  0  0  0  0  0  0  0  0  0  0  0
    4.7290    4.9074    0.3909 C   0  0  0  0  0  0  0  0  0  0  0  0
    3.4013    4.5319    0.3895 C   0  0  0  0  0  0  0  0  0  0  0  0
    3.0391    3.2624   -0.0605 C   0  0  0  0  0  0  0  0  0  0  0  0
    4.0233    2.3781   -0.5017 C   0  0  0  0  0  0  0  0  0  0  0  0
    5.3472    2.7669   -0.5000 C   0  0  0  0  0  0  0  0  0  0  0  0
    1.6154    2.8528   -0.0642 C   0  0  0  0  0  0  0  0  0  0  0  0
    1.3587    1.5932   -0.0290 N   0  0  0  0  0  0  0  0  0  0  0  0
   -0.0122    1.0844   -0.0212 C   0  0  1  0  0  0  0  0  0  0  0  0
    0.0025   -0.0050   -0.0519 H   0  0  0  0  0  0  0  0  0  0  0  0
   -0.6951    1.5439    1.2380 C   0  0  0  0  0  0  0  0  0  0  0  0
   -1.0677    0.7170    2.0432 O   0  0  0  0  0  0  0  0  0  0  0  0
   -0.9015    2.8335    1.4912 N   0  0  0  0  0  0  0  0  0  0  0  0
   -0.5769    3.8760    0.6363 C   0  0  0  0  0  0  0  0  0  0  0  0
    0.6009    3.9176   -0.1073 C   0  0  0  0  0  0  0  0  0  0  0  0
    0.8483    5.0178   -0.9420 C   0  0  0  0  0  0  0  0  0  0  0  0
   -0.0620    6.0471   -1.0303 C   0  0  0  0  0  0  0  0  0  0  0  0
   -1.2335    6.0015   -0.2915 C   0  0  0  0  0  0  0  0  0  0  0  0
   -1.4888    4.9281    0.5335 C   0  0  0  0  0  0  0  0  0  0  0  0
    0.2576    7.4018   -2.0678 Cl  0  0  0  0  0  0  0  0  0  0  0  0
   -0.7536    1.6131   -1.2220 C   0  0  0  0  0  0  0  0  0  0  0  0
   -0.3466    2.5929   -1.8001 O   0  0  0  0  0  0  0  0  0  0  0  0
    6.7381    4.3261   -0.0498 H   0  0  0  0  0  0  0  0  0  0  0  0
    5.0108    5.8900    0.7395 H   0  0  0  0  0  0  0  0  0  0  0  0
    2.6441    5.2194    0.7364 H   0  0  0  0  0  0  0  0  0  0  0  0
    3.7493    1.3923   -0.8475 H   0  0  0  0  0  0  0  0  0  0  0  0
    6.1098    2.0842   -0.8445 H   0  0  0  0  0  0  0  0  0  0  0  0
   -1.3114    3.0623    2.3400 H   0  0  0  0  0  0  0  0  0  0  0  0
    1.7597    5.0576   -1.5201 H   0  0  0  0  0  0  0  0  0  0  0  0
   -1.9473    6.8089   -0.3623 H   0  0  0  0  0  0  0  0  0  0  0  0
   -2.4040    4.9000    1.1062 H   0  0  0  0  0  0  0  0  0  0  0  0
   -1.8661    0.9955   -1.6494 O   0  0  0  0  0  1  0  0  0  0  0  0
  1  6  2  0  0  0  0
  1  2  1  0  0  0  0
  1 23  1  0  0  0  0
  2  3  2  0  0  0  0
  2 24  1  0  0  0  0
  3  4  1  0  0  0  0
  3 25  1  0  0  0  0
  4  5  2  0  0  0  0
  4  7  1  0  0  0  0
  5  6  1  0  0  0  0
  5 26  1  0  0  0  0
  6 27  1  0  0  0  0
  7 15  1  0  0  0  0
  7  8  2  0  0  0  0
  8  9  1  0  0  0  0
  9 10  1  6  0  0  0
  9 11  1  0  0  0  0
  9 21  1  0  0  0  0
 11 12  2  0  0  0  0
 11 13  1  0  0  0  0
 13 14  1  0  0  0  0
 13 28  1  0  0  0  0
 14 19  2  0  0  0  0
 14 15  1  0  0  0  0
 15 16  2  0  0  0  0
 16 17  1  0  0  0  0
 16 29  1  0  0  0  0
 17 18  2  0  0  0  0
 17 20  1  0  0  0  0
 18 19  1  0  0  0  0
 18 30  1  0  0  0  0
 19 31  1  0  0  0  0
 21 22  2  0  0  0  0
 21 32  1  0  0  0  0
M  END
$$$$
