ZINC00001894
 OpenBabel08292219463D

 44 46  0  0  1  0  0  0  0  0999 V2000
   -0.0187    1.5258    0.0104 C   0  0  0  0  0  0  0  0  0  0  0  0
    0.0021   -0.0041    0.0020 C   0  0  0  0  0  0  0  0  0  0  0  0
   -1.3723   -0.5112    0.0124 N   0  0  0  0  0  0  0  0  0  0  0  0
   -1.9640   -0.7340    1.1919 C   0  0  0  0  0  0  0  0  0  0  0  0
   -3.2572   -1.2114    1.2875 C   0  0  0  0  0  0  0  0  0  0  0  0
   -4.0090   -1.4834    0.0501 C   0  0  0  0  0  0  0  0  0  0  0  0
   -5.1521   -1.9047    0.0814 O   0  0  0  0  0  0  0  0  0  0  0  0
   -3.3216   -1.2243   -1.2260 C   0  0  0  0  0  0  0  0  0  0  0  0
   -2.0034   -0.7332   -1.1939 C   0  0  0  0  0  0  0  0  0  0  0  0
   -1.3444   -0.4805   -2.3909 C   0  0  0  0  0  0  0  0  0  0  0  0
   -1.9911   -0.7088   -3.5951 C   0  0  0  0  0  0  0  0  0  0  0  0
   -3.3021   -1.1916   -3.6164 C   0  0  0  0  0  0  0  0  0  0  0  0
   -3.9589   -1.4546   -2.4475 C   0  0  0  0  0  0  0  0  0  0  0  0
   -3.9194   -1.4093   -4.7982 F   0  0  0  0  0  0  0  0  0  0  0  0
   -1.3292   -0.4545   -4.7937 N   0  0  0  0  0  0  0  0  0  0  0  0
   -1.4013    0.8692   -5.4315 C   0  0  0  0  0  0  0  0  0  0  0  0
   -1.7920    0.6797   -6.9010 C   0  0  0  0  0  0  0  0  0  0  0  0
   -0.8528   -0.2507   -7.5401 N   0  3  1  0  0  0  0  0  0  0  0  0
   -0.9692   -1.5794   -6.9259 C   0  0  0  0  0  0  0  0  0  0  0  0
   -0.5331   -1.5001   -5.4548 C   0  0  0  0  0  0  0  0  0  0  0  0
   -1.1608   -0.3471   -8.9732 C   0  0  0  0  0  0  0  0  0  0  0  0
   -3.8708   -1.4439    2.5989 C   0  0  0  0  0  0  0  0  0  0  0  0
   -3.2368   -1.2149    3.6206 O   0  0  0  0  0  0  0  0  0  0  0  0
   -5.0172   -1.8671    2.6718 O   0  0  0  0  0  1  0  0  0  0  0  0
    1.0039    1.9031    0.0027 H   0  0  0  0  0  0  0  0  0  0  0  0
   -0.5459    1.8868   -0.8726 H   0  0  0  0  0  0  0  0  0  0  0  0
   -0.5289    1.8773    0.9072 H   0  0  0  0  0  0  0  0  0  0  0  0
    0.5123   -0.3556   -0.8948 H   0  0  0  0  0  0  0  0  0  0  0  0
    0.5293   -0.3651    0.8851 H   0  0  0  0  0  0  0  0  0  0  0  0
   -1.4126   -0.5346    2.0989 H   0  0  0  0  0  0  0  0  0  0  0  0
   -0.3312   -0.1069   -2.3828 H   0  0  0  0  0  0  0  0  0  0  0  0
   -4.9720   -1.8282   -2.4678 H   0  0  0  0  0  0  0  0  0  0  0  0
   -2.1526    1.4778   -4.9283 H   0  0  0  0  0  0  0  0  0  0  0  0
   -0.4290    1.3582   -5.3712 H   0  0  0  0  0  0  0  0  0  0  0  0
   -2.8019    0.2738   -6.9591 H   0  0  0  0  0  0  0  0  0  0  0  0
   -1.7565    1.6411   -7.4134 H   0  0  0  0  0  0  0  0  0  0  0  0
   -2.0040   -1.9169   -6.9832 H   0  0  0  0  0  0  0  0  0  0  0  0
   -0.3274   -2.2826   -7.4566 H   0  0  0  0  0  0  0  0  0  0  0  0
    0.5253   -1.2463   -5.3967 H   0  0  0  0  0  0  0  0  0  0  0  0
   -0.7101   -2.4587   -4.9670 H   0  0  0  0  0  0  0  0  0  0  0  0
   -1.0670    0.6372   -9.4320 H   0  0  0  0  0  0  0  0  0  0  0  0
   -0.4642   -1.0375   -9.4489 H   0  0  0  0  0  0  0  0  0  0  0  0
   -2.1796   -0.7124   -9.1022 H   0  0  0  0  0  0  0  0  0  0  0  0
    0.0893    0.0911   -7.4233 H   0  0  0  0  0  0  0  0  0  0  0  0
  1  2  1  0  0  0  0
  1 25  1  0  0  0  0
  1 26  1  0  0  0  0
  1 27  1  0  0  0  0
  2  3  1  0  0  0  0
  2 28  1  0  0  0  0
  2 29  1  0  0  0  0
  3  9  1  0  0  0  0
  3  4  1  0  0  0  0
  4  5  2  0  0  0  0
  4 30  1  0  0  0  0
  5  6  1  0  0  0  0
  5 22  1  0  0  0  0
  6  7  2  0  0  0  0
  6  8  1  0  0  0  0
  8 13  2  0  0  0  0
  8  9  1  0  0  0  0
  9 10  2  0  0  0  0
 10 11  1  0  0  0  0
 10 31  1  0  0  0  0
 11 12  2  0  0  0  0
 11 15  1  0  0  0  0
 12 13  1  0  0  0  0
 12 14  1  0  0  0  0
 13 32  1  0  0  0  0
 15 20  1  0  0  0  0
 15 16  1  0  0  0  0
 16 17  1  0  0  0  0
 16 33  1  0  0  0  0
 16 34  1  0  0  0  0
 17 18  1  0  0  0  0
 17 35  1  0  0  0  0
 17 36  1  0  0  0  0
 18 19  1  0  0  0  0
 18 21  1  0  0  0  0
 18 44  1  1  0  0  0
 19 20  1  0  0  0  0
 19 37  1  0  0  0  0
 19 38  1  0  0  0  0
 20 39  1  0  0  0  0
 20 40  1  0  0  0  0
 21 41  1  0  0  0  0
 21 42  1  0  0  0  0
 21 43  1  0  0  0  0
 22 23  2  0  0  0  0
 22 24  1  0  0  0  0
M  CHG  1  18   1
M  END
$$$$
