ZINC00596881
 OpenBabel08292219463D

 40 42  0  0  1  0  0  0  0  0999 V2000
   -0.0167    1.3782    0.0096 C   0  0  0  0  0  0  0  0  0  0  0  0
    1.1706    2.0858    0.0021 C   0  0  0  0  0  0  0  0  0  0  0  0
    2.3780    1.4104   -0.0130 C   0  0  0  0  0  0  0  0  0  0  0  0
    2.3961    0.0270   -0.0206 C   0  0  0  0  0  0  0  0  0  0  0  0
    1.2082   -0.6795   -0.0130 C   0  0  0  0  0  0  0  0  0  0  0  0
    0.0021   -0.0041    0.0020 C   0  0  0  0  0  0  0  0  0  0  0  0
   -1.2928   -0.7750    0.0107 C   0  0  0  0  0  0  0  0  0  0  0  0
   -1.7154   -1.0114   -1.3338 O   0  0  0  0  0  0  0  0  0  0  0  0
   -2.9406   -1.7395   -1.4384 C   0  0  2  0  0  0  0  0  0  0  0  0
   -3.5665   -1.5238   -0.5725 H   0  0  0  0  0  0  0  0  0  0  0  0
   -2.6400   -3.2388   -1.4897 C   0  0  0  0  0  0  0  0  0  0  0  0
   -2.0453   -3.6614   -0.2192 N   0  0  0  0  0  0  0  0  0  0  0  0
   -0.7116   -3.6750    0.0885 C   0  0  0  0  0  0  0  0  0  0  0  0
   -0.6078   -4.1306    1.3515 C   0  0  0  0  0  0  0  0  0  0  0  0
   -1.8444   -4.3881    1.8027 N   0  0  0  0  0  4  0  0  0  0  0  0
   -2.7109   -4.1046    0.8690 C   0  0  0  0  0  0  0  0  0  0  0  0
   -3.6632   -1.3287   -2.6954 C   0  0  0  0  0  0  0  0  0  0  0  0
   -2.9524   -0.8197   -3.7662 C   0  0  0  0  0  0  0  0  0  0  0  0
   -3.6144   -0.4428   -4.9193 C   0  0  0  0  0  0  0  0  0  0  0  0
   -4.9894   -0.5752   -5.0028 C   0  0  0  0  0  0  0  0  0  0  0  0
   -5.7010   -1.0849   -3.9319 C   0  0  0  0  0  0  0  0  0  0  0  0
   -5.0372   -1.4665   -2.7796 C   0  0  0  0  0  0  0  0  0  0  0  0
   -5.9289   -2.1120   -1.4372 Cl  0  0  0  0  0  0  0  0  0  0  0  0
   -5.8209   -0.1012   -6.4511 Cl  0  0  0  0  0  0  0  0  0  0  0  0
    3.8696    2.2984   -0.0231 Cl  0  0  0  0  0  0  0  0  0  0  0  0
   -0.9592    1.9053    0.0259 H   0  0  0  0  0  0  0  0  0  0  0  0
    1.1558    3.1656    0.0076 H   0  0  0  0  0  0  0  0  0  0  0  0
    3.3383   -0.5007   -0.0327 H   0  0  0  0  0  0  0  0  0  0  0  0
    1.2222   -1.7594   -0.0193 H   0  0  0  0  0  0  0  0  0  0  0  0
   -1.1447   -1.7283    0.5180 H   0  0  0  0  0  0  0  0  0  0  0  0
   -2.0551   -0.1989    0.5352 H   0  0  0  0  0  0  0  0  0  0  0  0
   -3.5655   -3.7893   -1.6585 H   0  0  0  0  0  0  0  0  0  0  0  0
   -1.9429   -3.4420   -2.3026 H   0  0  0  0  0  0  0  0  0  0  0  0
    0.1013   -3.3779   -0.5575 H   0  0  0  0  0  0  0  0  0  0  0  0
    0.3102   -4.2651    1.9043 H   0  0  0  0  0  0  0  0  0  0  0  0
   -3.7826   -4.2096    0.9518 H   0  0  0  0  0  0  0  0  0  0  0  0
   -1.8793   -0.7161   -3.7015 H   0  0  0  0  0  0  0  0  0  0  0  0
   -3.0587   -0.0445   -5.7553 H   0  0  0  0  0  0  0  0  0  0  0  0
   -6.7741   -1.1884   -3.9966 H   0  0  0  0  0  0  0  0  0  0  0  0
   -2.0608   -4.7279    2.6851 H   0  0  0  0  0  0  0  0  0  0  0  0
  1  6  2  0  0  0  0
  1  2  1  0  0  0  0
  1 26  1  0  0  0  0
  2  3  2  0  0  0  0
  2 27  1  0  0  0  0
  3  4  1  0  0  0  0
  3 25  1  0  0  0  0
  4  5  2  0  0  0  0
  4 28  1  0  0  0  0
  5  6  1  0  0  0  0
  5 29  1  0  0  0  0
  6  7  1  0  0  0  0
  7  8  1  0  0  0  0
  7 30  1  0  0  0  0
  7 31  1  0  0  0  0
  8  9  1  0  0  0  0
  9 10  1  1  0  0  0
  9 11  1  0  0  0  0
  9 17  1  0  0  0  0
 11 12  1  0  0  0  0
 11 32  1  0  0  0  0
 11 33  1  0  0  0  0
 12 16  1  0  0  0  0
 12 13  1  0  0  0  0
 13 14  2  0  0  0  0
 13 34  1  0  0  0  0
 14 15  1  0  0  0  0
 14 35  1  0  0  0  0
 15 16  2  0  0  0  0
 15 40  1  0  0  0  0
 16 36  1  0  0  0  0
 17 22  2  0  0  0  0
 17 18  1  0  0  0  0
 18 19  2  0  0  0  0
 18 37  1  0  0  0  0
 19 20  1  0  0  0  0
 19 38  1  0  0  0  0
 20 21  2  0  0  0  0
 20 24  1  0  0  0  0
 21 22  1  0  0  0  0
 21 39  1  0  0  0  0
 22 23  1  0  0  0  0
M  END
$$$$
