ZINC05764759
 OpenBabel08292219463D

 52 57  0  0  1  0  0  0  0  0999 V2000
   -2.1030    1.3776   -1.1449 C   0  0  0  0  0  0  0  0  0  0  0  0
   -0.6574    1.6373   -1.1719 N   0  3  2  0  0  0  0  0  0  0  0  0
    0.0214    0.6829   -0.2895 C   0  0  0  0  0  0  0  0  0  0  0  0
   -0.5184    0.8199    1.1389 C   0  0  0  0  0  0  0  0  0  0  0  0
   -0.3383    2.2626    1.6056 C   0  0  2  0  0  0  0  0  0  0  0  0
    1.1302    2.6069    1.5473 C   0  0  0  0  0  0  0  0  0  0  0  0
    1.8194    3.0690    0.4499 C   0  0  0  0  0  0  0  0  0  0  0  0
    3.1785    3.2563    0.6309 C   0  0  0  0  0  0  0  0  0  0  0  0
    3.7552    3.0273    1.8698 C   0  0  0  0  0  0  0  0  0  0  0  0
    3.0312    2.6208    2.9883 C   0  0  0  0  0  0  0  0  0  0  0  0
    1.6580    2.4143    2.8149 C   0  0  0  0  0  0  0  0  0  0  0  0
    0.6783    2.0735    3.6801 O   0  0  0  0  0  0  0  0  0  0  0  0
   -0.6112    2.4289    3.0947 C   0  0  1  0  0  0  0  0  0  0  0  0
   -1.3799    1.8467    3.3598 H   0  0  0  0  0  0  0  0  0  0  0  0
   -0.8862    3.8598    3.4553 C   0  0  0  0  0  0  0  0  0  0  0  0
   -0.6482    4.2264    4.5810 O   0  0  0  0  0  0  0  0  0  0  0  0
   -1.4059    4.8430    2.5003 C   0  0  0  0  0  0  0  0  0  0  0  0
   -0.7767    4.6618    1.1177 C   0  0  0  0  0  0  0  0  0  0  0  0
   -1.0034    3.2216    0.6593 C   0  0  1  0  0  0  0  0  0  0  0  0
   -0.4054    3.0159   -0.7354 C   0  0  1  0  0  0  0  0  0  0  0  0
   -0.9279    3.6812   -1.4227 H   0  0  0  0  0  0  0  0  0  0  0  0
    1.0781    3.3342   -0.8193 C   0  0  0  0  0  0  0  0  0  0  0  0
   -2.4023    2.9315    0.6291 O   0  0  0  0  0  0  0  0  0  0  0  0
    3.6317    2.4326    4.1939 O   0  0  0  0  0  0  0  0  0  0  0  0
   -0.1605    1.4662   -2.5436 C   0  0  0  0  0  0  0  0  0  0  0  0
   -0.9064    2.4200   -3.4789 C   0  0  0  0  0  0  0  0  0  0  0  0
   -1.7978    1.7994   -4.5566 C   0  0  0  0  0  0  0  0  0  0  0  0
   -0.4708    2.4561   -4.9452 C   0  0  0  0  0  0  0  0  0  0  0  0
   -2.4229    1.2100   -0.1164 H   0  0  0  0  0  0  0  0  0  0  0  0
   -2.6341    2.2365   -1.5551 H   0  0  0  0  0  0  0  0  0  0  0  0
   -2.3247    0.4938   -1.7430 H   0  0  0  0  0  0  0  0  0  0  0  0
   -0.1562   -0.3311   -0.6480 H   0  0  0  0  0  0  0  0  0  0  0  0
    1.0924    0.8855   -0.2928 H   0  0  0  0  0  0  0  0  0  0  0  0
   -1.5828    0.5853    1.1522 H   0  0  0  0  0  0  0  0  0  0  0  0
    0.0178    0.1389    1.7999 H   0  0  0  0  0  0  0  0  0  0  0  0
    3.7917    3.5824   -0.1962 H   0  0  0  0  0  0  0  0  0  0  0  0
    4.8206    3.1711    1.9736 H   0  0  0  0  0  0  0  0  0  0  0  0
   -1.2004    5.7656    2.8267 H   0  0  0  0  0  0  0  0  0  0  0  0
   -2.4833    4.6933    2.4293 H   0  0  0  0  0  0  0  0  0  0  0  0
    0.2930    4.8633    1.1739 H   0  0  0  0  0  0  0  0  0  0  0  0
   -1.2412    5.3481    0.4097 H   0  0  0  0  0  0  0  0  0  0  0  0
    1.5196    2.7319   -1.6133 H   0  0  0  0  0  0  0  0  0  0  0  0
    1.1949    4.3872   -1.0756 H   0  0  0  0  0  0  0  0  0  0  0  0
   -2.9063    3.4875    0.0192 H   0  0  0  0  0  0  0  0  0  0  0  0
    3.6524    3.2230    4.7507 H   0  0  0  0  0  0  0  0  0  0  0  0
    0.9063    1.6878   -2.5740 H   0  0  0  0  0  0  0  0  0  0  0  0
   -0.3272    0.4380   -2.8649 H   0  0  0  0  0  0  0  0  0  0  0  0
   -1.2379    3.3559   -3.0292 H   0  0  0  0  0  0  0  0  0  0  0  0
   -1.8528    0.7117   -4.5992 H   0  0  0  0  0  0  0  0  0  0  0  0
   -2.7154    2.3273   -4.8161 H   0  0  0  0  0  0  0  0  0  0  0  0
   -0.5160    3.4157   -5.4601 H   0  0  0  0  0  0  0  0  0  0  0  0
    0.3475    1.8007   -5.2434 H   0  0  0  0  0  0  0  0  0  0  0  0
  1 29  1  0  0  0  0
  1 30  1  0  0  0  0
  1 31  1  0  0  0  0
  2  1  1  1  0  0  0
  2 20  1  0  0  0  0
  2  3  1  0  0  0  0
  2 25  1  0  0  0  0
  3  4  1  0  0  0  0
  3 32  1  0  0  0  0
  3 33  1  0  0  0  0
  4  5  1  0  0  0  0
  4 34  1  0  0  0  0
  4 35  1  0  0  0  0
  5 13  1  0  0  0  0
  5 19  1  0  0  0  0
  5  6  1  6  0  0  0
  6 11  2  0  0  0  0
  6  7  1  0  0  0  0
  7 22  1  0  0  0  0
  7  8  2  0  0  0  0
  8  9  1  0  0  0  0
  8 36  1  0  0  0  0
  9 10  2  0  0  0  0
  9 37  1  0  0  0  0
 10 11  1  0  0  0  0
 10 24  1  0  0  0  0
 11 12  1  0  0  0  0
 12 13  1  0  0  0  0
 13 14  1  1  0  0  0
 13 15  1  0  0  0  0
 15 16  2  0  0  0  0
 15 17  1  0  0  0  0
 17 18  1  0  0  0  0
 17 38  1  0  0  0  0
 17 39  1  0  0  0  0
 18 19  1  0  0  0  0
 18 40  1  0  0  0  0
 18 41  1  0  0  0  0
 19 20  1  0  0  0  0
 19 23  1  6  0  0  0
 20 21  1  6  0  0  0
 20 22  1  0  0  0  0
 22 42  1  0  0  0  0
 22 43  1  0  0  0  0
 23 44  1  0  0  0  0
 24 45  1  0  0  0  0
 25 26  1  0  0  0  0
 25 46  1  0  0  0  0
 25 47  1  0  0  0  0
 26 28  1  0  0  0  0
 26 27  1  0  0  0  0
 26 48  1  0  0  0  0
 27 28  1  0  0  0  0
 27 49  1  0  0  0  0
 27 50  1  0  0  0  0
 28 51  1  0  0  0  0
 28 52  1  0  0  0  0
M  CHG  1   2   1
M  END
$$$$
