ZINC00006923
 OpenBabel08292219463D

 47 49  0  0  1  0  0  0  0  0999 V2000
   -0.0241    1.4833   -0.0247 C   0  0  0  0  0  0  0  0  0  0  0  0
    0.1908   -0.0289   -0.1147 C   0  0  0  0  0  0  0  0  0  0  0  0
    0.8097   -0.4943    1.0863 O   0  0  0  0  0  0  0  0  0  0  0  0
    1.0721   -1.8261    1.1696 C   0  0  0  0  0  0  0  0  0  0  0  0
    0.7463   -2.6652    0.1162 C   0  0  0  0  0  0  0  0  0  0  0  0
    1.0142   -4.0187    0.2023 C   0  0  0  0  0  0  0  0  0  0  0  0
    1.6066   -4.5383    1.3382 C   0  0  0  0  0  0  0  0  0  0  0  0
    1.9338   -3.7068    2.3930 C   0  0  0  0  0  0  0  0  0  0  0  0
    1.6737   -2.3482    2.3106 C   0  0  0  0  0  0  0  0  0  0  0  0
    2.0003   -1.5279    3.3449 O   0  0  0  0  0  0  0  0  0  0  0  0
    2.5664   -2.1407    4.5051 C   0  0  1  0  0  0  0  0  0  0  0  0
    3.0287   -3.0878    4.2269 H   0  0  0  0  0  0  0  0  0  0  0  0
    3.6090   -1.2277    5.0973 C   0  0  0  0  0  0  0  0  0  0  0  0
    3.3847    0.1353    5.1497 C   0  0  0  0  0  0  0  0  0  0  0  0
    4.3410    0.9727    5.6930 C   0  0  0  0  0  0  0  0  0  0  0  0
    5.5214    0.4471    6.1842 C   0  0  0  0  0  0  0  0  0  0  0  0
    5.7453   -0.9160    6.1326 C   0  0  0  0  0  0  0  0  0  0  0  0
    4.7872   -1.7539    5.5933 C   0  0  0  0  0  0  0  0  0  0  0  0
    1.4653   -2.3942    5.5367 C   0  0  2  0  0  0  0  0  0  0  0  0
    1.8791   -2.9409    6.3840 H   0  0  0  0  0  0  0  0  0  0  0  0
    0.3443   -3.2164    4.8961 C   0  0  0  0  0  0  0  0  0  0  0  0
   -0.7378   -3.4087    5.8715 N   0  3  0  0  0  0  0  0  0  0  0  0
   -1.2628   -2.0996    6.2834 C   0  0  0  0  0  0  0  0  0  0  0  0
   -0.1388   -1.2794    6.9214 C   0  0  0  0  0  0  0  0  0  0  0  0
    0.9360   -1.1442    5.9874 O   0  0  0  0  0  0  0  0  0  0  0  0
    0.9375    1.9799    0.1045 H   0  0  0  0  0  0  0  0  0  0  0  0
   -0.4962    1.8383   -0.9408 H   0  0  0  0  0  0  0  0  0  0  0  0
   -0.6668    1.7089    0.8262 H   0  0  0  0  0  0  0  0  0  0  0  0
   -0.7708   -0.5255   -0.2438 H   0  0  0  0  0  0  0  0  0  0  0  0
    0.8335   -0.2545   -0.9656 H   0  0  0  0  0  0  0  0  0  0  0  0
    0.2828   -2.2619   -0.7720 H   0  0  0  0  0  0  0  0  0  0  0  0
    0.7598   -4.6716   -0.6195 H   0  0  0  0  0  0  0  0  0  0  0  0
    1.8140   -5.5963    1.4018 H   0  0  0  0  0  0  0  0  0  0  0  0
    2.3962   -4.1153    3.2794 H   0  0  0  0  0  0  0  0  0  0  0  0
    2.4625    0.5460    4.7660 H   0  0  0  0  0  0  0  0  0  0  0  0
    4.1661    2.0377    5.7333 H   0  0  0  0  0  0  0  0  0  0  0  0
    6.2688    1.1014    6.6079 H   0  0  0  0  0  0  0  0  0  0  0  0
    6.6676   -1.3267    6.5160 H   0  0  0  0  0  0  0  0  0  0  0  0
    4.9605   -2.8193    5.5563 H   0  0  0  0  0  0  0  0  0  0  0  0
   -0.0417   -2.6880    4.0244 H   0  0  0  0  0  0  0  0  0  0  0  0
    0.7346   -4.1870    4.5900 H   0  0  0  0  0  0  0  0  0  0  0  0
   -1.4776   -3.9507    5.4508 H   0  0  0  0  0  0  0  0  0  0  0  0
   -1.6482   -1.5716    5.4112 H   0  0  0  0  0  0  0  0  0  0  0  0
   -2.0655   -2.2411    7.0071 H   0  0  0  0  0  0  0  0  0  0  0  0
   -0.5153   -0.2920    7.1887 H   0  0  0  0  0  0  0  0  0  0  0  0
    0.2196   -1.7877    7.8166 H   0  0  0  0  0  0  0  0  0  0  0  0
   -0.3801   -3.8969    6.6789 H   0  0  0  0  0  0  0  0  0  0  0  0
  1  2  1  0  0  0  0
  1 26  1  0  0  0  0
  1 27  1  0  0  0  0
  1 28  1  0  0  0  0
  2  3  1  0  0  0  0
  2 29  1  0  0  0  0
  2 30  1  0  0  0  0
  3  4  1  0  0  0  0
  4  9  2  0  0  0  0
  4  5  1  0  0  0  0
  5  6  2  0  0  0  0
  5 31  1  0  0  0  0
  6  7  1  0  0  0  0
  6 32  1  0  0  0  0
  7  8  2  0  0  0  0
  7 33  1  0  0  0  0
  8  9  1  0  0  0  0
  8 34  1  0  0  0  0
  9 10  1  0  0  0  0
 10 11  1  0  0  0  0
 11 12  1  6  0  0  0
 11 13  1  0  0  0  0
 11 19  1  0  0  0  0
 13 18  2  0  0  0  0
 13 14  1  0  0  0  0
 14 15  2  0  0  0  0
 14 35  1  0  0  0  0
 15 16  1  0  0  0  0
 15 36  1  0  0  0  0
 16 17  2  0  0  0  0
 16 37  1  0  0  0  0
 17 18  1  0  0  0  0
 17 38  1  0  0  0  0
 18 39  1  0  0  0  0
 19 20  1  1  0  0  0
 19 25  1  0  0  0  0
 19 21  1  0  0  0  0
 21 22  1  0  0  0  0
 21 40  1  0  0  0  0
 21 41  1  0  0  0  0
 22 23  1  0  0  0  0
 22 42  1  0  0  0  0
 22 47  1  0  0  0  0
 23 24  1  0  0  0  0
 23 43  1  0  0  0  0
 23 44  1  0  0  0  0
 24 25  1  0  0  0  0
 24 45  1  0  0  0  0
 24 46  1  0  0  0  0
M  CHG  1  22   1
M  END
$$$$
