ZINC03779720
 OpenBabel08292219463D

 52 54  0  0  1  0  0  0  0  0999 V2000
    0.3446    1.8685   -0.4643 C   0  0  0  0  0  0  0  0  0  0  0  0
    0.5582    0.3881   -0.1423 C   0  0  0  0  0  0  0  0  0  0  0  0
    1.3170    0.2580    1.1799 C   0  0  0  0  0  0  0  0  0  0  0  0
   -0.7785   -0.2983   -0.0241 C   0  0  0  0  0  0  0  0  0  0  0  0
   -1.6327    0.0265    1.0085 C   0  0  0  0  0  0  0  0  0  0  0  0
   -2.8705   -0.5972    1.1294 C   0  0  0  0  0  0  0  0  0  0  0  0
   -3.2335   -1.5491    0.2018 C   0  0  0  0  0  0  0  0  0  0  0  0
   -2.3768   -1.8777   -0.8346 C   0  0  0  0  0  0  0  0  0  0  0  0
   -1.1496   -1.2541   -0.9507 C   0  0  0  0  0  0  0  0  0  0  0  0
   -0.0651   -1.6754   -2.2734 S   0  0  0  0  0  0  0  0  0  0  0  0
    0.9003   -2.6250   -1.7420 O   0  0  0  0  0  0  0  0  0  0  0  0
   -0.8852   -2.2632   -3.3212 O   0  0  0  0  0  0  0  0  0  0  0  0
    0.5699   -0.4411   -2.7085 O   0  0  0  0  0  1  0  0  0  0  0  0
   -4.5722   -2.2526    0.2847 C   0  0  1  0  0  0  0  0  0  0  0  0
   -4.4375   -3.6924   -0.2014 C   0  0  0  0  0  0  0  0  0  0  0  0
   -5.7701   -4.4208   -0.0206 C   0  0  0  0  0  0  0  0  0  0  0  0
   -6.1560   -4.4502    1.4522 C   0  0  0  0  0  0  0  0  0  0  0  0
   -6.2560   -3.0456    2.0498 C   0  0  1  0  0  0  0  0  0  0  0  0
   -5.0348   -2.2144    1.7294 C   0  0  2  0  0  0  0  0  0  0  0  0
   -4.1963   -2.6477    2.3324 H   0  0  0  0  0  0  0  0  0  0  0  0
   -5.1520   -0.7609    2.1839 C   0  0  0  0  0  0  0  0  0  0  0  0
   -3.7394   -0.1811    2.2845 C   0  0  0  0  0  0  0  0  0  0  0  0
   -7.5564   -2.3768    1.6049 C   0  0  0  0  0  0  0  0  0  0  0  0
   -6.3325   -3.2197    3.5631 C   0  0  0  0  0  0  0  0  0  0  0  0
   -6.3068   -4.3372    4.0501 O   0  0  0  0  0  0  0  0  0  0  0  0
   -6.4193   -2.2416    4.2857 O   0  0  0  0  0  1  0  0  0  0  0  0
   -5.5203   -1.5024   -0.6505 C   0  0  0  0  0  0  0  0  0  0  0  0
    1.3113    2.3649   -0.5498 H   0  0  0  0  0  0  0  0  0  0  0  0
   -0.1960    1.9612   -1.4062 H   0  0  0  0  0  0  0  0  0  0  0  0
   -0.2336    2.3342    0.3338 H   0  0  0  0  0  0  0  0  0  0  0  0
    1.1364   -0.0775   -0.9404 H   0  0  0  0  0  0  0  0  0  0  0  0
    1.4692   -0.7967    1.4092 H   0  0  0  0  0  0  0  0  0  0  0  0
    2.2837    0.7544    1.0944 H   0  0  0  0  0  0  0  0  0  0  0  0
    0.7388    0.7237    1.9780 H   0  0  0  0  0  0  0  0  0  0  0  0
   -1.3408    0.7727    1.7324 H   0  0  0  0  0  0  0  0  0  0  0  0
   -2.6608   -2.6219   -1.5633 H   0  0  0  0  0  0  0  0  0  0  0  0
   -4.1662   -3.6977   -1.2589 H   0  0  0  0  0  0  0  0  0  0  0  0
   -3.6609   -4.2010    0.3715 H   0  0  0  0  0  0  0  0  0  0  0  0
   -6.5514   -3.9519   -0.6108 H   0  0  0  0  0  0  0  0  0  0  0  0
   -5.6533   -5.4537   -0.3744 H   0  0  0  0  0  0  0  0  0  0  0  0
   -7.1228   -4.9516    1.5608 H   0  0  0  0  0  0  0  0  0  0  0  0
   -5.4098   -5.0236    2.0096 H   0  0  0  0  0  0  0  0  0  0  0  0
   -5.7455   -0.1659    1.4984 H   0  0  0  0  0  0  0  0  0  0  0  0
   -5.6148   -0.7109    3.1745 H   0  0  0  0  0  0  0  0  0  0  0  0
   -3.2839   -0.5244    3.2151 H   0  0  0  0  0  0  0  0  0  0  0  0
   -3.8057    0.9077    2.3069 H   0  0  0  0  0  0  0  0  0  0  0  0
   -8.4054   -2.9329    2.0024 H   0  0  0  0  0  0  0  0  0  0  0  0
   -7.5851   -1.3534    1.9790 H   0  0  0  0  0  0  0  0  0  0  0  0
   -7.6060   -2.3672    0.5161 H   0  0  0  0  0  0  0  0  0  0  0  0
   -5.0768   -1.4406   -1.6443 H   0  0  0  0  0  0  0  0  0  0  0  0
   -6.4697   -2.0346   -0.7088 H   0  0  0  0  0  0  0  0  0  0  0  0
   -5.6904   -0.4970   -0.2653 H   0  0  0  0  0  0  0  0  0  0  0  0
  1  2  1  0  0  0  0
  1 28  1  0  0  0  0
  1 29  1  0  0  0  0
  1 30  1  0  0  0  0
  2  3  1  0  0  0  0
  2  4  1  0  0  0  0
  2 31  1  0  0  0  0
  3 32  1  0  0  0  0
  3 33  1  0  0  0  0
  3 34  1  0  0  0  0
  4  9  2  0  0  0  0
  4  5  1  0  0  0  0
  5  6  2  0  0  0  0
  5 35  1  0  0  0  0
  6 22  1  0  0  0  0
  6  7  1  0  0  0  0
  7  8  2  0  0  0  0
  7 14  1  0  0  0  0
  8  9  1  0  0  0  0
  8 36  1  0  0  0  0
  9 10  1  0  0  0  0
 10 11  2  0  0  0  0
 10 12  2  0  0  0  0
 10 13  1  0  0  0  0
 14 19  1  0  0  0  0
 14 15  1  0  0  0  0
 14 27  1  6  0  0  0
 15 16  1  0  0  0  0
 15 37  1  0  0  0  0
 15 38  1  0  0  0  0
 16 17  1  0  0  0  0
 16 39  1  0  0  0  0
 16 40  1  0  0  0  0
 17 18  1  0  0  0  0
 17 41  1  0  0  0  0
 17 42  1  0  0  0  0
 18 19  1  0  0  0  0
 18 23  1  0  0  0  0
 18 24  1  1  0  0  0
 19 20  1  1  0  0  0
 19 21  1  0  0  0  0
 21 22  1  0  0  0  0
 21 43  1  0  0  0  0
 21 44  1  0  0  0  0
 22 45  1  0  0  0  0
 22 46  1  0  0  0  0
 23 47  1  0  0  0  0
 23 48  1  0  0  0  0
 23 49  1  0  0  0  0
 24 25  2  0  0  0  0
 24 26  1  0  0  0  0
 27 50  1  0  0  0  0
 27 51  1  0  0  0  0
 27 52  1  0  0  0  0
M  END
$$$$
