ZINC03782807
 OpenBabel08292219463D

 42 44  0  0  0  0  0  0  0  0999 V2000
   -3.3613    1.4567   -1.3604 C   0  0  0  0  0  0  0  0  0  0  0  0
   -2.4429    0.3729   -0.7923 C   0  0  0  0  0  0  0  0  0  0  0  0
   -3.2841   -0.8218   -0.3382 C   0  0  0  0  0  0  0  0  0  0  0  0
   -2.3740   -1.9281    0.1295 C   0  0  0  0  0  0  0  0  0  0  0  0
   -1.7356   -2.7397   -0.7992 C   0  0  0  0  0  0  0  0  0  0  0  0
   -0.8788   -3.7748   -0.3596 C   0  0  0  0  0  0  0  0  0  0  0  0
   -0.6726   -3.9879    0.9989 C   0  0  0  0  0  0  0  0  0  0  0  0
   -1.3165   -3.1691    1.9174 C   0  0  0  0  0  0  0  0  0  0  0  0
   -2.1711   -2.1301    1.4850 C   0  0  0  0  0  0  0  0  0  0  0  0
   -2.7949   -1.3486    2.3883 O   0  0  0  0  0  0  0  0  0  0  0  0
   -2.4118   -1.3095    3.6724 C   0  0  0  0  0  0  0  0  0  0  0  0
   -1.6052   -2.2449    4.2275 C   0  0  0  0  0  0  0  0  0  0  0  0
   -1.1242   -3.3494    3.3703 C   0  0  0  0  0  0  0  0  0  0  0  0
   -0.5908   -4.3419    3.8326 O   0  0  0  0  0  0  0  0  0  0  0  0
   -2.8920   -0.1952    4.5209 C   0  0  0  0  0  0  0  0  0  0  0  0
   -2.5589   -0.1338    5.6953 O   0  0  0  0  0  0  0  0  0  0  0  0
   -3.6215    0.6634    4.0469 O   0  0  0  0  0  1  0  0  0  0  0  0
   -0.2135   -4.6101   -1.3756 C   0  0  0  0  0  0  0  0  0  0  0  0
    0.3509   -5.6482   -1.0772 O   0  0  0  0  0  0  0  0  0  0  0  0
   -0.2627   -4.1336   -2.7655 C   0  0  0  0  0  0  0  0  0  0  0  0
   -1.1145   -3.1238   -3.0821 C   0  0  0  0  0  0  0  0  0  0  0  0
   -1.9297   -2.5483   -2.1467 N   0  0  0  0  0  0  0  0  0  0  0  0
   -3.0410   -1.7046   -2.5932 C   0  0  0  0  0  0  0  0  0  0  0  0
   -4.3678   -2.3817   -2.2437 C   0  0  0  0  0  0  0  0  0  0  0  0
   -1.1615   -2.6322   -4.4789 C   0  0  0  0  0  0  0  0  0  0  0  0
   -1.0088   -3.4127   -5.4069 O   0  0  0  0  0  0  0  0  0  0  0  0
   -1.3530   -1.4462   -4.7032 O   0  0  0  0  0  1  0  0  0  0  0  0
   -2.7726    2.3416   -1.6025 H   0  0  0  0  0  0  0  0  0  0  0  0
   -3.8468    1.0852   -2.2628 H   0  0  0  0  0  0  0  0  0  0  0  0
   -4.1188    1.7155   -0.6205 H   0  0  0  0  0  0  0  0  0  0  0  0
   -1.7410    0.0515   -1.5617 H   0  0  0  0  0  0  0  0  0  0  0  0
   -1.8914    0.7732    0.0584 H   0  0  0  0  0  0  0  0  0  0  0  0
   -3.9359   -0.5169    0.4806 H   0  0  0  0  0  0  0  0  0  0  0  0
   -3.8898   -1.1775   -1.1716 H   0  0  0  0  0  0  0  0  0  0  0  0
   -0.0204   -4.7802    1.3354 H   0  0  0  0  0  0  0  0  0  0  0  0
   -1.3273   -2.1893    5.2696 H   0  0  0  0  0  0  0  0  0  0  0  0
    0.3671   -4.5787   -3.5216 H   0  0  0  0  0  0  0  0  0  0  0  0
   -2.9850   -0.7365   -2.0955 H   0  0  0  0  0  0  0  0  0  0  0  0
   -2.9787   -1.5626   -3.6721 H   0  0  0  0  0  0  0  0  0  0  0  0
   -4.4300   -3.3436   -2.7527 H   0  0  0  0  0  0  0  0  0  0  0  0
   -4.4240   -2.5365   -1.1662 H   0  0  0  0  0  0  0  0  0  0  0  0
   -5.1947   -1.7475   -2.5633 H   0  0  0  0  0  0  0  0  0  0  0  0
  1  2  1  0  0  0  0
  1 28  1  0  0  0  0
  1 29  1  0  0  0  0
  1 30  1  0  0  0  0
  2  3  1  0  0  0  0
  2 31  1  0  0  0  0
  2 32  1  0  0  0  0
  3  4  1  0  0  0  0
  3 33  1  0  0  0  0
  3 34  1  0  0  0  0
  4  9  2  0  0  0  0
  4  5  1  0  0  0  0
  5 22  1  0  0  0  0
  5  6  2  0  0  0  0
  6  7  1  0  0  0  0
  6 18  1  0  0  0  0
  7  8  2  0  0  0  0
  7 35  1  0  0  0  0
  8 13  1  0  0  0  0
  8  9  1  0  0  0  0
  9 10  1  0  0  0  0
 10 11  1  0  0  0  0
 11 12  2  0  0  0  0
 11 15  1  0  0  0  0
 12 13  1  0  0  0  0
 12 36  1  0  0  0  0
 13 14  2  0  0  0  0
 15 16  2  0  0  0  0
 15 17  1  0  0  0  0
 18 19  2  0  0  0  0
 18 20  1  0  0  0  0
 20 21  2  0  0  0  0
 20 37  1  0  0  0  0
 21 22  1  0  0  0  0
 21 25  1  0  0  0  0
 22 23  1  0  0  0  0
 23 24  1  0  0  0  0
 23 38  1  0  0  0  0
 23 39  1  0  0  0  0
 24 40  1  0  0  0  0
 24 41  1  0  0  0  0
 24 42  1  0  0  0  0
 25 26  2  0  0  0  0
 25 27  1  0  0  0  0
M  END
$$$$
