ZINC02007680
 OpenBabel08292219463D

 58 59  0  0  1  0  0  0  0  0999 V2000
   -4.9455    1.4173   -0.3557 C   0  0  0  0  0  0  0  0  0  0  0  0
   -3.5897    2.0471   -0.6816 C   0  0  0  0  0  0  0  0  0  0  0  0
   -3.2497    3.1006    0.3745 C   0  0  2  0  0  0  0  0  0  0  0  0
   -4.0096    3.8820    0.3661 H   0  0  0  0  0  0  0  0  0  0  0  0
   -1.8836    3.7142    0.0614 C   0  0  0  0  0  0  0  0  0  0  0  0
   -1.8791    4.2432   -1.3743 C   0  0  0  0  0  0  0  0  0  0  0  0
   -3.0819    5.1657   -1.5816 C   0  0  1  0  0  0  0  0  0  0  0  0
   -3.9862    4.6680   -1.2315 H   0  0  0  0  0  0  0  0  0  0  0  0
   -2.8741    6.4599   -0.7925 C   0  0  0  0  0  0  0  0  0  0  0  0
   -3.5994    4.2867   -3.7776 C   0  0  0  0  0  0  0  0  0  0  0  0
   -4.1788    6.5707   -3.2205 C   0  0  0  0  0  0  0  0  0  0  0  0
   -0.8142    2.6633    0.2129 C   0  0  0  0  0  0  0  0  0  0  0  0
   -1.1393    1.4117    0.7016 C   0  0  0  0  0  0  0  0  0  0  0  0
   -0.1575    0.4493    0.8450 C   0  0  0  0  0  0  0  0  0  0  0  0
    1.1475    0.7350    0.4899 C   0  0  0  0  0  0  0  0  0  0  0  0
    1.4717    1.9848   -0.0038 C   0  0  0  0  0  0  0  0  0  0  0  0
    0.4909    2.9490   -0.1423 C   0  0  0  0  0  0  0  0  0  0  0  0
   -1.6118    4.8486    1.0155 C   0  0  0  0  0  0  0  0  0  0  0  0
   -2.4827    5.0970    2.0599 C   0  0  0  0  0  0  0  0  0  0  0  0
   -2.2309    6.1346    2.9380 C   0  0  0  0  0  0  0  0  0  0  0  0
   -1.1137    6.9302    2.7655 C   0  0  0  0  0  0  0  0  0  0  0  0
   -0.2456    6.6851    1.7180 C   0  0  0  0  0  0  0  0  0  0  0  0
   -0.4947    5.6443    0.8430 C   0  0  0  0  0  0  0  0  0  0  0  0
   -3.2112    2.4771    1.6853 O   0  0  0  0  0  0  0  0  0  0  0  0
   -4.3596    2.4467    2.3796 C   0  0  0  0  0  0  0  0  0  0  0  0
   -5.3637    2.9252    1.9078 O   0  0  0  0  0  0  0  0  0  0  0  0
   -4.3965    1.8157    3.7477 C   0  0  0  0  0  0  0  0  0  0  0  0
   -4.8980    0.9384    0.6223 H   0  0  0  0  0  0  0  0  0  0  0  0
   -5.7125    2.1918   -0.3442 H   0  0  0  0  0  0  0  0  0  0  0  0
   -5.1920    0.6732   -1.1131 H   0  0  0  0  0  0  0  0  0  0  0  0
   -3.6346    2.5182   -1.6635 H   0  0  0  0  0  0  0  0  0  0  0  0
   -2.8213    1.2740   -0.6842 H   0  0  0  0  0  0  0  0  0  0  0  0
   -0.9592    4.7997   -1.5536 H   0  0  0  0  0  0  0  0  0  0  0  0
   -1.9389    3.4063   -2.0700 H   0  0  0  0  0  0  0  0  0  0  0  0
   -2.9879    6.2583    0.2727 H   0  0  0  0  0  0  0  0  0  0  0  0
   -1.8728    6.8456   -0.9842 H   0  0  0  0  0  0  0  0  0  0  0  0
   -3.6135    7.1979   -1.1036 H   0  0  0  0  0  0  0  0  0  0  0  0
   -4.5480    3.9020   -3.4031 H   0  0  0  0  0  0  0  0  0  0  0  0
   -3.7040    4.5498   -4.8301 H   0  0  0  0  0  0  0  0  0  0  0  0
   -2.8293    3.5230   -3.6688 H   0  0  0  0  0  0  0  0  0  0  0  0
   -3.8354    7.4632   -2.6975 H   0  0  0  0  0  0  0  0  0  0  0  0
   -4.2601    6.7828   -4.2865 H   0  0  0  0  0  0  0  0  0  0  0  0
   -5.1540    6.2753   -2.8334 H   0  0  0  0  0  0  0  0  0  0  0  0
   -2.1598    1.1871    0.9748 H   0  0  0  0  0  0  0  0  0  0  0  0
   -0.4108   -0.5273    1.2304 H   0  0  0  0  0  0  0  0  0  0  0  0
    1.9138   -0.0184    0.5977 H   0  0  0  0  0  0  0  0  0  0  0  0
    2.4913    2.2079   -0.2816 H   0  0  0  0  0  0  0  0  0  0  0  0
    0.7441    3.9253   -0.5283 H   0  0  0  0  0  0  0  0  0  0  0  0
   -3.3579    4.4782    2.1920 H   0  0  0  0  0  0  0  0  0  0  0  0
   -2.9093    6.3263    3.7561 H   0  0  0  0  0  0  0  0  0  0  0  0
   -0.9193    7.7436    3.4489 H   0  0  0  0  0  0  0  0  0  0  0  0
    0.6270    7.3069    1.5831 H   0  0  0  0  0  0  0  0  0  0  0  0
    0.1834    5.4530    0.0245 H   0  0  0  0  0  0  0  0  0  0  0  0
   -3.4047    1.4420    4.0023 H   0  0  0  0  0  0  0  0  0  0  0  0
   -4.7042    2.5594    4.4826 H   0  0  0  0  0  0  0  0  0  0  0  0
   -5.1072    0.9892    3.7475 H   0  0  0  0  0  0  0  0  0  0  0  0
   -3.1921    5.4886   -3.0198 N   0  3  0  0  0  0  0  0  0  0  0  0
   -2.2768    5.8042   -3.3618 H   0  0  0  0  0  0  0  0  0  0  0  0
  1  2  1  0  0  0  0
  1 28  1  0  0  0  0
  1 29  1  0  0  0  0
  1 30  1  0  0  0  0
  2  3  1  0  0  0  0
  2 31  1  0  0  0  0
  2 32  1  0  0  0  0
  3  4  1  6  0  0  0
  3  5  1  0  0  0  0
  3 24  1  0  0  0  0
  5  6  1  0  0  0  0
  5 12  1  0  0  0  0
  5 18  1  0  0  0  0
  6  7  1  0  0  0  0
  6 33  1  0  0  0  0
  6 34  1  0  0  0  0
  7  8  1  1  0  0  0
  7  9  1  0  0  0  0
  7 57  1  0  0  0  0
  9 35  1  0  0  0  0
  9 36  1  0  0  0  0
  9 37  1  0  0  0  0
 10 38  1  0  0  0  0
 10 39  1  0  0  0  0
 10 40  1  0  0  0  0
 10 57  1  0  0  0  0
 11 41  1  0  0  0  0
 11 42  1  0  0  0  0
 11 43  1  0  0  0  0
 11 57  1  0  0  0  0
 12 17  2  0  0  0  0
 12 13  1  0  0  0  0
 13 14  2  0  0  0  0
 13 44  1  0  0  0  0
 14 15  1  0  0  0  0
 14 45  1  0  0  0  0
 15 16  2  0  0  0  0
 15 46  1  0  0  0  0
 16 17  1  0  0  0  0
 16 47  1  0  0  0  0
 17 48  1  0  0  0  0
 18 23  2  0  0  0  0
 18 19  1  0  0  0  0
 19 20  2  0  0  0  0
 19 49  1  0  0  0  0
 20 21  1  0  0  0  0
 20 50  1  0  0  0  0
 21 22  2  0  0  0  0
 21 51  1  0  0  0  0
 22 23  1  0  0  0  0
 22 52  1  0  0  0  0
 23 53  1  0  0  0  0
 24 25  1  0  0  0  0
 25 26  2  0  0  0  0
 25 27  1  0  0  0  0
 27 54  1  0  0  0  0
 27 55  1  0  0  0  0
 27 56  1  0  0  0  0
 57 58  1  0  0  0  0
M  CHG  1  57   1
M  END
$$$$
