ZINC03995811
 OpenBabel08292219463D

 88 91  0  0  1  0  0  0  0  0999 V2000
    5.5507   -6.7768   -3.3493 C   0  0  0  0  0  0  0  0  0  0  0  0
    5.3614   -8.2566   -3.6681 C   0  0  2  0  0  0  0  0  0  0  0  0
    6.1457   -8.6385   -4.9085 C   0  0  0  0  0  0  0  0  0  0  0  0
    5.4828   -8.0016   -6.1330 C   0  0  0  0  0  0  0  0  0  0  0  0
    4.0273   -8.4453   -6.2749 C   0  0  2  0  0  0  0  0  0  0  0  0
    4.0067   -9.5361   -6.3637 H   0  0  0  0  0  0  0  0  0  0  0  0
    3.4585   -7.8453   -7.5307 C   0  0  0  0  0  0  0  0  0  0  0  0
    3.9186   -8.3385   -8.7468 C   0  0  0  0  0  0  0  0  0  0  0  0
    3.4467   -7.8277   -9.9366 C   0  0  0  0  0  0  0  0  0  0  0  0
    2.5014   -6.8123   -9.9226 C   0  0  0  0  0  0  0  0  0  0  0  0
    2.0400   -6.3240   -8.7121 C   0  0  0  0  0  0  0  0  0  0  0  0
    2.5186   -6.8413   -7.5162 C   0  0  0  0  0  0  0  0  0  0  0  0
    1.9806   -6.2703   -6.2354 C   0  0  0  0  0  0  0  0  0  0  0  0
    2.9295   -6.5676   -5.0595 C   0  0  2  0  0  0  0  0  0  0  0  0
    3.8443   -5.9960   -5.2127 H   0  0  0  0  0  0  0  0  0  0  0  0
    3.2075   -8.0554   -5.0314 C   0  0  2  0  0  0  0  0  0  0  0  0
    2.2255   -8.5707   -5.1431 H   0  0  0  0  0  0  0  0  0  0  0  0
    3.8869   -8.6577   -3.8489 C   0  0  2  0  0  0  0  0  0  0  0  0
    3.8994   -9.7693   -4.0566 H   0  0  0  0  0  0  0  0  0  0  0  0
    3.3315   -8.5354   -2.4341 C   0  0  0  0  0  0  0  0  0  0  0  0
    4.4590   -9.2050   -1.5876 C   0  0  0  0  0  0  0  0  0  0  0  0
    5.7567   -9.0668   -2.4182 C   0  0  2  0  0  0  0  0  0  0  0  0
    6.1238  -10.0444   -2.7215 H   0  0  0  0  0  0  0  0  0  0  0  0
    6.7539   -8.3594   -1.6820 O   0  0  0  0  0  0  0  0  0  0  0  0
    2.2127   -6.0738   -3.7996 C   0  0  0  0  0  0  0  0  0  0  0  0
    2.0111   -4.5598   -3.8880 C   0  0  0  0  0  0  0  0  0  0  0  0
    1.2949   -4.0663   -2.6292 C   0  0  0  0  0  0  0  0  0  0  0  0
    1.0933   -2.5523   -2.7175 C   0  0  0  0  0  0  0  0  0  0  0  0
    0.3771   -2.0588   -1.4587 C   0  0  0  0  0  0  0  0  0  0  0  0
    0.1754   -0.5448   -1.5470 C   0  0  0  0  0  0  0  0  0  0  0  0
   -0.5407   -0.0513   -0.2882 C   0  0  0  0  0  0  0  0  0  0  0  0
   -0.7424    1.4627   -0.3766 C   0  0  0  0  0  0  0  0  0  0  0  0
   -1.4585    1.9561    0.8822 C   0  0  0  0  0  0  0  0  0  0  0  0
   -1.6976    3.7513    0.7775 S   0  0  2  0  0  0  0  0  0  0  0  0
   -0.4320    4.3964    0.7418 O   0  0  0  0  0  0  0  0  0  0  0  0
   -2.5472    4.1718    2.3241 C   0  0  0  0  0  0  0  0  0  0  0  0
   -2.8136    5.6778    2.3664 C   0  0  0  0  0  0  0  0  0  0  0  0
   -3.5302    6.0325    3.6708 C   0  0  0  0  0  0  0  0  0  0  0  0
   -3.7966    7.5386    3.7132 C   0  0  0  0  0  0  0  0  0  0  0  0
   -4.5132    7.8932    5.0176 C   0  0  0  0  0  0  0  0  0  0  0  0
   -3.7101    7.5310    6.1043 F   0  0  0  0  0  0  0  0  0  0  0  0
   -4.7568    9.2703    5.0564 F   0  0  0  0  0  0  0  0  0  0  0  0
   -5.7281    7.2027    5.0850 F   0  0  0  0  0  0  0  0  0  0  0  0
   -2.5818    8.2291    3.6459 F   0  0  0  0  0  0  0  0  0  0  0  0
   -4.5998    7.9008    2.6265 F   0  0  0  0  0  0  0  0  0  0  0  0
    2.0311   -6.2991  -11.0898 O   0  0  0  0  0  0  0  0  0  0  0  0
    5.0293   -6.5351   -2.4231 H   0  0  0  0  0  0  0  0  0  0  0  0
    6.6133   -6.5629   -3.2346 H   0  0  0  0  0  0  0  0  0  0  0  0
    5.1447   -6.1752   -4.1625 H   0  0  0  0  0  0  0  0  0  0  0  0
    7.1743   -8.2796   -4.8155 H   0  0  0  0  0  0  0  0  0  0  0  0
    6.1567   -9.7261   -5.0152 H   0  0  0  0  0  0  0  0  0  0  0  0
    5.5249   -6.9182   -6.0643 H   0  0  0  0  0  0  0  0  0  0  0  0
    6.0280   -8.3118   -7.0291 H   0  0  0  0  0  0  0  0  0  0  0  0
    4.6532   -9.1302   -8.7579 H   0  0  0  0  0  0  0  0  0  0  0  0
    3.8121   -8.2147  -10.8768 H   0  0  0  0  0  0  0  0  0  0  0  0
    1.3021   -5.5352   -8.6987 H   0  0  0  0  0  0  0  0  0  0  0  0
    1.0098   -6.7135   -6.0166 H   0  0  0  0  0  0  0  0  0  0  0  0
    1.8741   -5.1910   -6.3308 H   0  0  0  0  0  0  0  0  0  0  0  0
    3.2053   -7.5145   -2.0963 H   0  0  0  0  0  0  0  0  0  0  0  0
    2.4026   -9.0981   -2.3281 H   0  0  0  0  0  0  0  0  0  0  0  0
    4.2228  -10.2536   -1.4196 H   0  0  0  0  0  0  0  0  0  0  0  0
    4.5621   -8.6808   -0.6373 H   0  0  0  0  0  0  0  0  0  0  0  0
    7.0484   -8.8145   -0.8812 H   0  0  0  0  0  0  0  0  0  0  0  0
    2.8156   -6.3095   -2.9227 H   0  0  0  0  0  0  0  0  0  0  0  0
    1.2433   -6.5653   -3.7169 H   0  0  0  0  0  0  0  0  0  0  0  0
    1.4082   -4.3241   -4.7649 H   0  0  0  0  0  0  0  0  0  0  0  0
    2.9805   -4.0683   -3.9707 H   0  0  0  0  0  0  0  0  0  0  0  0
    1.8978   -4.3020   -1.7522 H   0  0  0  0  0  0  0  0  0  0  0  0
    0.3255   -4.5578   -2.5464 H   0  0  0  0  0  0  0  0  0  0  0  0
    0.4904   -2.3166   -3.5945 H   0  0  0  0  0  0  0  0  0  0  0  0
    2.0627   -2.0608   -2.8003 H   0  0  0  0  0  0  0  0  0  0  0  0
    0.9800   -2.2945   -0.5817 H   0  0  0  0  0  0  0  0  0  0  0  0
   -0.5923   -2.5503   -1.3759 H   0  0  0  0  0  0  0  0  0  0  0  0
   -0.4274   -0.3091   -2.4240 H   0  0  0  0  0  0  0  0  0  0  0  0
    1.1448   -0.0533   -1.6298 H   0  0  0  0  0  0  0  0  0  0  0  0
    0.0622   -0.2870    0.5887 H   0  0  0  0  0  0  0  0  0  0  0  0
   -1.5101   -0.5428   -0.2055 H   0  0  0  0  0  0  0  0  0  0  0  0
    0.2270    1.9542   -0.4593 H   0  0  0  0  0  0  0  0  0  0  0  0
   -1.3452    1.6984   -1.2535 H   0  0  0  0  0  0  0  0  0  0  0  0
   -2.4279    1.4647    0.9650 H   0  0  0  0  0  0  0  0  0  0  0  0
   -0.8556    1.7205    1.7592 H   0  0  0  0  0  0  0  0  0  0  0  0
   -3.4938    3.6338    2.3765 H   0  0  0  0  0  0  0  0  0  0  0  0
   -1.9215    3.8895    3.1707 H   0  0  0  0  0  0  0  0  0  0  0  0
   -1.8671    6.2158    2.3140 H   0  0  0  0  0  0  0  0  0  0  0  0
   -3.4394    5.9601    1.5197 H   0  0  0  0  0  0  0  0  0  0  0  0
   -4.4768    5.4945    3.7233 H   0  0  0  0  0  0  0  0  0  0  0  0
   -2.9045    5.7503    4.5175 H   0  0  0  0  0  0  0  0  0  0  0  0
    2.5418   -5.5489  -11.4237 H   0  0  0  0  0  0  0  0  0  0  0  0
  1 47  1  0  0  0  0
  1 48  1  0  0  0  0
  1 49  1  0  0  0  0
  2  1  1  1  0  0  0
  2 18  1  0  0  0  0
  2 22  1  0  0  0  0
  2  3  1  0  0  0  0
  3  4  1  0  0  0  0
  3 50  1  0  0  0  0
  3 51  1  0  0  0  0
  4  5  1  0  0  0  0
  4 52  1  0  0  0  0
  4 53  1  0  0  0  0
  5  6  1  6  0  0  0
  5 16  1  0  0  0  0
  5  7  1  0  0  0  0
  7 12  2  0  0  0  0
  7  8  1  0  0  0  0
  8  9  2  0  0  0  0
  8 54  1  0  0  0  0
  9 10  1  0  0  0  0
  9 55  1  0  0  0  0
 10 11  2  0  0  0  0
 10 46  1  0  0  0  0
 11 12  1  0  0  0  0
 11 56  1  0  0  0  0
 12 13  1  0  0  0  0
 13 14  1  0  0  0  0
 13 57  1  0  0  0  0
 13 58  1  0  0  0  0
 14 15  1  6  0  0  0
 14 16  1  0  0  0  0
 14 25  1  0  0  0  0
 16 17  1  6  0  0  0
 16 18  1  0  0  0  0
 18 19  1  6  0  0  0
 18 20  1  0  0  0  0
 20 21  1  0  0  0  0
 20 59  1  0  0  0  0
 20 60  1  0  0  0  0
 21 22  1  0  0  0  0
 21 61  1  0  0  0  0
 21 62  1  0  0  0  0
 22 23  1  6  0  0  0
 22 24  1  0  0  0  0
 24 63  1  0  0  0  0
 25 26  1  0  0  0  0
 25 64  1  0  0  0  0
 25 65  1  0  0  0  0
 26 27  1  0  0  0  0
 26 66  1  0  0  0  0
 26 67  1  0  0  0  0
 27 28  1  0  0  0  0
 27 68  1  0  0  0  0
 27 69  1  0  0  0  0
 28 29  1  0  0  0  0
 28 70  1  0  0  0  0
 28 71  1  0  0  0  0
 29 30  1  0  0  0  0
 29 72  1  0  0  0  0
 29 73  1  0  0  0  0
 30 31  1  0  0  0  0
 30 74  1  0  0  0  0
 30 75  1  0  0  0  0
 31 32  1  0  0  0  0
 31 76  1  0  0  0  0
 31 77  1  0  0  0  0
 32 33  1  0  0  0  0
 32 78  1  0  0  0  0
 32 79  1  0  0  0  0
 33 34  1  0  0  0  0
 33 80  1  0  0  0  0
 33 81  1  0  0  0  0
 34 35  2  1  0  0  0
 34 36  1  0  0  0  0
 36 37  1  0  0  0  0
 36 82  1  0  0  0  0
 36 83  1  0  0  0  0
 37 38  1  0  0  0  0
 37 84  1  0  0  0  0
 37 85  1  0  0  0  0
 38 39  1  0  0  0  0
 38 86  1  0  0  0  0
 38 87  1  0  0  0  0
 39 40  1  0  0  0  0
 39 44  1  0  0  0  0
 39 45  1  0  0  0  0
 40 41  1  0  0  0  0
 40 42  1  0  0  0  0
 40 43  1  0  0  0  0
 46 88  1  0  0  0  0
M  END
$$$$
