ZINC18043251
 OpenBabel08292219463D

 21 22  0  0  0  0  0  0  0  0999 V2000
   -0.0178    1.4608    0.0101 C   0  0  0  0  0  0  0  0  0  0  0  0
    0.0021   -0.0041    0.0020 N   0  0  0  0  0  0  0  0  0  0  0  0
   -1.1889   -0.7120    0.0039 C   0  0  0  0  0  0  0  0  0  0  0  0
   -1.1437   -2.1005   -0.0039 C   0  0  0  0  0  0  0  0  0  0  0  0
    0.1107   -2.7476   -0.0134 C   0  0  0  0  0  0  0  0  0  0  0  0
    0.1765   -3.9638   -0.0207 O   0  0  0  0  0  0  0  0  0  0  0  0
    1.2361   -2.0032   -0.0148 N   0  0  0  0  0  0  0  0  0  0  0  0
    1.1776   -0.6603   -0.0127 C   0  0  0  0  0  0  0  0  0  0  0  0
    2.2126   -0.0219   -0.0196 O   0  0  0  0  0  0  0  0  0  0  0  0
    2.5413   -2.6685   -0.0246 C   0  0  0  0  0  0  0  0  0  0  0  0
   -2.4557   -2.5297    0.0001 N   0  0  0  0  0  0  0  0  0  0  0  0
   -2.7618   -3.4502   -0.0030 H   0  0  0  0  0  0  0  0  0  0  0  0
   -3.2306   -1.4275    0.0098 C   0  0  0  0  0  0  0  0  0  0  0  0
   -2.4766   -0.3579    0.0120 N   0  0  0  0  0  0  0  0  0  0  0  0
    1.0048    1.8381    0.0023 H   0  0  0  0  0  0  0  0  0  0  0  0
   -0.5450    1.8219   -0.8730 H   0  0  0  0  0  0  0  0  0  0  0  0
   -0.5280    1.8123    0.9069 H   0  0  0  0  0  0  0  0  0  0  0  0
    2.3982   -3.7491   -0.0298 H   0  0  0  0  0  0  0  0  0  0  0  0
    3.0941   -2.3709   -0.9157 H   0  0  0  0  0  0  0  0  0  0  0  0
    3.1026   -2.3806    0.8643 H   0  0  0  0  0  0  0  0  0  0  0  0
   -4.3106   -1.4268    0.0144 H   0  0  0  0  0  0  0  0  0  0  0  0
  1  2  1  0  0  0  0
  1 15  1  0  0  0  0
  1 16  1  0  0  0  0
  1 17  1  0  0  0  0
  2  8  1  0  0  0  0
  2  3  1  0  0  0  0
  3 14  1  0  0  0  0
  3  4  2  0  0  0  0
  4  5  1  0  0  0  0
  4 11  1  0  0  0  0
  5  6  2  0  0  0  0
  5  7  1  0  0  0  0
  7  8  1  0  0  0  0
  7 10  1  0  0  0  0
  8  9  2  0  0  0  0
 10 18  1  0  0  0  0
 10 19  1  0  0  0  0
 10 20  1  0  0  0  0
 11 12  1  0  0  0  0
 11 13  1  0  0  0  0
 13 14  2  0  0  0  0
 13 21  1  0  0  0  0
M  END
$$$$
