ZINC00538065
 OpenBabel08292219463D

 66 69  0  0  0  0  0  0  0  0999 V2000
   -0.0477    1.5409    0.0081 C   0  0  0  0  0  0  0  0  0  0  0  0
   -0.0437    0.0109    0.0017 C   0  0  0  0  0  0  0  0  0  0  0  0
    0.6615   -0.4845   -1.2345 C   0  0  0  0  0  0  0  0  0  0  0  0
    1.1900    0.2619   -2.1500 N   0  0  0  0  0  0  0  0  0  0  0  0
    1.7454   -0.5746   -3.1281 N   0  0  0  0  0  0  0  0  0  0  0  0
    1.5180   -1.8479   -2.7434 C   0  0  0  0  0  0  0  0  0  0  0  0
    1.8554   -2.8534   -3.3425 O   0  0  0  0  0  0  0  0  0  0  0  0
    0.8538   -1.8022   -1.5711 N   0  0  0  0  0  0  0  0  0  0  0  0
    0.4094   -2.9602   -0.7915 C   0  0  0  0  0  0  0  0  0  0  0  0
   -0.9983   -3.3636   -1.2347 C   0  0  0  0  0  0  0  0  0  0  0  0
   -0.9603   -3.8129   -2.5907 O   0  0  0  0  0  0  0  0  0  0  0  0
   -2.1370   -4.2109   -3.1420 C   0  0  0  0  0  0  0  0  0  0  0  0
   -3.3051   -4.1645   -2.3951 C   0  0  0  0  0  0  0  0  0  0  0  0
   -4.5000   -4.5692   -2.9579 C   0  0  0  0  0  0  0  0  0  0  0  0
   -4.5323   -5.0206   -4.2644 C   0  0  0  0  0  0  0  0  0  0  0  0
   -3.3694   -5.0683   -5.0108 C   0  0  0  0  0  0  0  0  0  0  0  0
   -2.1730   -4.6589   -4.4545 C   0  0  0  0  0  0  0  0  0  0  0  0
    2.4430   -0.1459   -4.3429 C   0  0  0  0  0  0  0  0  0  0  0  0
    1.4339    0.0105   -5.4822 C   0  0  0  0  0  0  0  0  0  0  0  0
    2.1624    0.4582   -6.7510 C   0  0  0  0  0  0  0  0  0  0  0  0
    1.1935    0.6083   -7.8449 N   0  3  0  0  0  0  0  0  0  0  0  0
    0.6091   -0.7009   -8.1618 C   0  0  0  0  0  0  0  0  0  0  0  0
   -0.4832   -0.5282   -9.2224 C   0  0  0  0  0  0  0  0  0  0  0  0
    0.0958    0.1741  -10.3781 N   0  0  0  0  0  0  0  0  0  0  0  0
    0.8438    1.4164  -10.1308 C   0  0  0  0  0  0  0  0  0  0  0  0
    1.8734    1.1520   -9.0274 C   0  0  0  0  0  0  0  0  0  0  0  0
   -0.0599   -0.3248  -11.6734 C   0  0  0  0  0  0  0  0  0  0  0  0
   -0.6713   -1.5558  -11.8764 C   0  0  0  0  0  0  0  0  0  0  0  0
   -0.8244   -2.0465  -13.1581 C   0  0  0  0  0  0  0  0  0  0  0  0
   -0.3695   -1.3146  -14.2396 C   0  0  0  0  0  0  0  0  0  0  0  0
    0.2400   -0.0881  -14.0415 C   0  0  0  0  0  0  0  0  0  0  0  0
    0.3910    0.4111  -12.7613 C   0  0  0  0  0  0  0  0  0  0  0  0
    0.8099    0.8270  -15.4022 Cl  0  0  0  0  0  0  0  0  0  0  0  0
    0.9790    1.9069    0.0042 H   0  0  0  0  0  0  0  0  0  0  0  0
   -0.5671    1.9066   -0.8777 H   0  0  0  0  0  0  0  0  0  0  0  0
   -0.5578    1.8992    0.9023 H   0  0  0  0  0  0  0  0  0  0  0  0
    0.4757   -0.3547    0.8875 H   0  0  0  0  0  0  0  0  0  0  0  0
   -1.0704   -0.3551    0.0056 H   0  0  0  0  0  0  0  0  0  0  0  0
    1.0942   -3.7924   -0.9546 H   0  0  0  0  0  0  0  0  0  0  0  0
    0.3969   -2.7021    0.2674 H   0  0  0  0  0  0  0  0  0  0  0  0
   -1.3640   -4.1674   -0.5958 H   0  0  0  0  0  0  0  0  0  0  0  0
   -1.6645   -2.5045   -1.1551 H   0  0  0  0  0  0  0  0  0  0  0  0
   -3.2803   -3.8126   -1.3743 H   0  0  0  0  0  0  0  0  0  0  0  0
   -5.4097   -4.5332   -2.3768 H   0  0  0  0  0  0  0  0  0  0  0  0
   -5.4675   -5.3369   -4.7025 H   0  0  0  0  0  0  0  0  0  0  0  0
   -3.3972   -5.4217   -6.0310 H   0  0  0  0  0  0  0  0  0  0  0  0
   -1.2657   -4.6921   -5.0394 H   0  0  0  0  0  0  0  0  0  0  0  0
    2.9363    0.8089   -4.1609 H   0  0  0  0  0  0  0  0  0  0  0  0
    3.1877   -0.8932   -4.6171 H   0  0  0  0  0  0  0  0  0  0  0  0
    0.9406   -0.9443   -5.6643 H   0  0  0  0  0  0  0  0  0  0  0  0
    0.6892    0.7578   -5.2080 H   0  0  0  0  0  0  0  0  0  0  0  0
    2.6558    1.4130   -6.5689 H   0  0  0  0  0  0  0  0  0  0  0  0
    2.9071   -0.2891   -7.0252 H   0  0  0  0  0  0  0  0  0  0  0  0
    1.3860   -1.3627   -8.5446 H   0  0  0  0  0  0  0  0  0  0  0  0
    0.1751   -1.1330   -7.2601 H   0  0  0  0  0  0  0  0  0  0  0  0
   -0.8491   -1.5066   -9.5340 H   0  0  0  0  0  0  0  0  0  0  0  0
   -1.3041    0.0589   -8.8106 H   0  0  0  0  0  0  0  0  0  0  0  0
    1.3552    1.7237  -11.0430 H   0  0  0  0  0  0  0  0  0  0  0  0
    0.1570    2.1999   -9.8108 H   0  0  0  0  0  0  0  0  0  0  0  0
    2.3712    2.0851   -8.7635 H   0  0  0  0  0  0  0  0  0  0  0  0
    2.6121    0.4341   -9.3840 H   0  0  0  0  0  0  0  0  0  0  0  0
   -1.0263   -2.1287  -11.0325 H   0  0  0  0  0  0  0  0  0  0  0  0
   -1.2997   -3.0034  -13.3160 H   0  0  0  0  0  0  0  0  0  0  0  0
   -0.4899   -1.7011  -15.2409 H   0  0  0  0  0  0  0  0  0  0  0  0
    0.8626    1.3704  -12.6071 H   0  0  0  0  0  0  0  0  0  0  0  0
    0.4610    1.2407   -7.5592 H   0  0  0  0  0  0  0  0  0  0  0  0
  1  2  1  0  0  0  0
  1 34  1  0  0  0  0
  1 35  1  0  0  0  0
  1 36  1  0  0  0  0
  2  3  1  0  0  0  0
  2 37  1  0  0  0  0
  2 38  1  0  0  0  0
  3  8  1  0  0  0  0
  3  4  2  0  0  0  0
  4  5  1  0  0  0  0
  5  6  1  0  0  0  0
  5 18  1  0  0  0  0
  6  7  2  0  0  0  0
  6  8  1  0  0  0  0
  8  9  1  0  0  0  0
  9 10  1  0  0  0  0
  9 39  1  0  0  0  0
  9 40  1  0  0  0  0
 10 11  1  0  0  0  0
 10 41  1  0  0  0  0
 10 42  1  0  0  0  0
 11 12  1  0  0  0  0
 12 17  2  0  0  0  0
 12 13  1  0  0  0  0
 13 14  2  0  0  0  0
 13 43  1  0  0  0  0
 14 15  1  0  0  0  0
 14 44  1  0  0  0  0
 15 16  2  0  0  0  0
 15 45  1  0  0  0  0
 16 17  1  0  0  0  0
 16 46  1  0  0  0  0
 17 47  1  0  0  0  0
 18 19  1  0  0  0  0
 18 48  1  0  0  0  0
 18 49  1  0  0  0  0
 19 20  1  0  0  0  0
 19 50  1  0  0  0  0
 19 51  1  0  0  0  0
 20 21  1  0  0  0  0
 20 52  1  0  0  0  0
 20 53  1  0  0  0  0
 21 26  1  0  0  0  0
 21 22  1  0  0  0  0
 21 66  1  0  0  0  0
 22 23  1  0  0  0  0
 22 54  1  0  0  0  0
 22 55  1  0  0  0  0
 23 24  1  0  0  0  0
 23 56  1  0  0  0  0
 23 57  1  0  0  0  0
 24 25  1  0  0  0  0
 24 27  1  0  0  0  0
 25 26  1  0  0  0  0
 25 58  1  0  0  0  0
 25 59  1  0  0  0  0
 26 60  1  0  0  0  0
 26 61  1  0  0  0  0
 27 32  2  0  0  0  0
 27 28  1  0  0  0  0
 28 29  2  0  0  0  0
 28 62  1  0  0  0  0
 29 30  1  0  0  0  0
 29 63  1  0  0  0  0
 30 31  2  0  0  0  0
 30 64  1  0  0  0  0
 31 32  1  0  0  0  0
 31 33  1  0  0  0  0
 32 65  1  0  0  0  0
M  CHG  1  21   1
M  END
$$$$
