ZINC00621893
 OpenBabel08292219463D

 56 58  0  0  1  0  0  0  0  0999 V2000
   -1.8116    0.6359    0.1103 C   0  0  0  0  0  0  0  0  0  0  0  0
   -1.2733   -0.7661   -0.0154 C   0  0  0  0  0  0  0  0  0  0  0  0
   -1.2365   -1.4881    0.9527 O   0  0  0  0  0  0  0  0  0  0  0  0
   -0.8348   -1.2127   -1.2028 O   0  0  0  0  0  0  0  0  0  0  0  0
   -0.3379   -2.5517   -1.2491 C   0  0  2  0  0  0  0  0  0  0  0  0
    0.0909   -2.8105   -0.2809 H   0  0  0  0  0  0  0  0  0  0  0  0
    0.7511   -2.6529   -2.3310 C   0  0  1  0  0  0  0  0  0  0  0  0
    1.6870   -2.2400   -1.9546 H   0  0  0  0  0  0  0  0  0  0  0  0
    0.9666   -4.4216   -2.7229 S   0  0  0  0  0  0  0  0  0  0  0  0
    0.8947   -5.1967   -1.1401 C   0  0  0  0  0  0  0  0  0  0  0  0
    2.0380   -5.7182   -0.5569 C   0  0  0  0  0  0  0  0  0  0  0  0
    1.9577   -6.3228    0.6848 C   0  0  0  0  0  0  0  0  0  0  0  0
    0.7434   -6.4072    1.3414 C   0  0  0  0  0  0  0  0  0  0  0  0
   -0.4015   -5.8878    0.7635 C   0  0  0  0  0  0  0  0  0  0  0  0
   -0.3288   -5.2803   -0.4790 C   0  0  0  0  0  0  0  0  0  0  0  0
   -1.4766   -4.7426   -1.0813 N   0  0  0  0  0  0  0  0  0  0  0  0
   -1.4672   -3.4893   -1.5578 C   0  0  0  0  0  0  0  0  0  0  0  0
   -2.3887   -3.1045   -2.2463 O   0  0  0  0  0  0  0  0  0  0  0  0
   -2.6897   -5.5561   -1.1945 C   0  0  0  0  0  0  0  0  0  0  0  0
   -3.5576   -5.3533    0.0492 C   0  0  0  0  0  0  0  0  0  0  0  0
   -4.7740   -6.1690   -0.0643 N   0  3  0  0  0  0  0  0  0  0  0  0
   -4.4114   -7.5925   -0.0573 C   0  0  0  0  0  0  0  0  0  0  0  0
   -5.6621   -5.8842    1.0707 C   0  0  0  0  0  0  0  0  0  0  0  0
    0.3194   -1.9022   -3.5643 C   0  0  0  0  0  0  0  0  0  0  0  0
    0.9449   -0.7172   -3.9053 C   0  0  0  0  0  0  0  0  0  0  0  0
    0.5507   -0.0269   -5.0351 C   0  0  0  0  0  0  0  0  0  0  0  0
   -0.4735   -0.5239   -5.8281 C   0  0  0  0  0  0  0  0  0  0  0  0
   -1.0992   -1.7133   -5.4841 C   0  0  0  0  0  0  0  0  0  0  0  0
   -0.6978   -2.4025   -4.3561 C   0  0  0  0  0  0  0  0  0  0  0  0
   -0.8634    0.1536   -6.9398 O   0  0  0  0  0  0  0  0  0  0  0  0
   -1.9240   -0.4173   -7.7087 C   0  0  0  0  0  0  0  0  0  0  0  0
   -0.9977    1.3165    0.3603 H   0  0  0  0  0  0  0  0  0  0  0  0
   -2.2610    0.9387   -0.8354 H   0  0  0  0  0  0  0  0  0  0  0  0
   -2.5654    0.6665    0.8971 H   0  0  0  0  0  0  0  0  0  0  0  0
    2.9869   -5.6528   -1.0686 H   0  0  0  0  0  0  0  0  0  0  0  0
    2.8465   -6.7307    1.1431 H   0  0  0  0  0  0  0  0  0  0  0  0
    0.6884   -6.8814    2.3101 H   0  0  0  0  0  0  0  0  0  0  0  0
   -1.3480   -5.9562    1.2791 H   0  0  0  0  0  0  0  0  0  0  0  0
   -3.2482   -5.2542   -2.0805 H   0  0  0  0  0  0  0  0  0  0  0  0
   -2.4155   -6.6076   -1.2786 H   0  0  0  0  0  0  0  0  0  0  0  0
   -2.9990   -5.6551    0.9352 H   0  0  0  0  0  0  0  0  0  0  0  0
   -3.8318   -4.3017    0.1333 H   0  0  0  0  0  0  0  0  0  0  0  0
   -5.3140   -8.1978   -0.1414 H   0  0  0  0  0  0  0  0  0  0  0  0
   -3.7524   -7.8038   -0.8994 H   0  0  0  0  0  0  0  0  0  0  0  0
   -3.8988   -7.8323    0.8743 H   0  0  0  0  0  0  0  0  0  0  0  0
   -5.9312   -4.8280    1.0654 H   0  0  0  0  0  0  0  0  0  0  0  0
   -6.5647   -6.4895    0.9865 H   0  0  0  0  0  0  0  0  0  0  0  0
   -5.1495   -6.1240    2.0022 H   0  0  0  0  0  0  0  0  0  0  0  0
    1.7421   -0.3308   -3.2876 H   0  0  0  0  0  0  0  0  0  0  0  0
    1.0391    0.8990   -5.3006 H   0  0  0  0  0  0  0  0  0  0  0  0
   -1.8967   -2.1022   -6.0998 H   0  0  0  0  0  0  0  0  0  0  0  0
   -1.1816   -3.3308   -4.0903 H   0  0  0  0  0  0  0  0  0  0  0  0
   -1.6283   -1.4067   -8.0574 H   0  0  0  0  0  0  0  0  0  0  0  0
   -2.8169   -0.5022   -7.0893 H   0  0  0  0  0  0  0  0  0  0  0  0
   -2.1360    0.2217   -8.5660 H   0  0  0  0  0  0  0  0  0  0  0  0
   -5.2486   -5.9470   -0.9266 H   0  0  0  0  0  0  0  0  0  0  0  0
  1  2  1  0  0  0  0
  1 32  1  0  0  0  0
  1 33  1  0  0  0  0
  1 34  1  0  0  0  0
  2  3  2  0  0  0  0
  2  4  1  0  0  0  0
  4  5  1  0  0  0  0
  5  6  1  1  0  0  0
  5 17  1  0  0  0  0
  5  7  1  0  0  0  0
  7  8  1  1  0  0  0
  7  9  1  0  0  0  0
  7 24  1  0  0  0  0
  9 10  1  0  0  0  0
 10 15  2  0  0  0  0
 10 11  1  0  0  0  0
 11 12  2  0  0  0  0
 11 35  1  0  0  0  0
 12 13  1  0  0  0  0
 12 36  1  0  0  0  0
 13 14  2  0  0  0  0
 13 37  1  0  0  0  0
 14 15  1  0  0  0  0
 14 38  1  0  0  0  0
 15 16  1  0  0  0  0
 16 17  1  0  0  0  0
 16 19  1  0  0  0  0
 17 18  2  0  0  0  0
 19 20  1  0  0  0  0
 19 39  1  0  0  0  0
 19 40  1  0  0  0  0
 20 21  1  0  0  0  0
 20 41  1  0  0  0  0
 20 42  1  0  0  0  0
 21 22  1  0  0  0  0
 21 23  1  0  0  0  0
 21 56  1  0  0  0  0
 22 43  1  0  0  0  0
 22 44  1  0  0  0  0
 22 45  1  0  0  0  0
 23 46  1  0  0  0  0
 23 47  1  0  0  0  0
 23 48  1  0  0  0  0
 24 29  2  0  0  0  0
 24 25  1  0  0  0  0
 25 26  2  0  0  0  0
 25 49  1  0  0  0  0
 26 27  1  0  0  0  0
 26 50  1  0  0  0  0
 27 28  2  0  0  0  0
 27 30  1  0  0  0  0
 28 29  1  0  0  0  0
 28 51  1  0  0  0  0
 29 52  1  0  0  0  0
 30 31  1  0  0  0  0
 31 53  1  0  0  0  0
 31 54  1  0  0  0  0
 31 55  1  0  0  0  0
M  CHG  1  21   1
M  END
$$$$
