ZINC03794711
 OpenBabel08292219463D

 37 37  0  0  1  0  0  0  0  0999 V2000
   -0.5626    1.3318    0.0235 C   0  0  0  0  0  0  0  0  0  0  0  0
   -0.3431   -0.1823    0.0355 C   0  0  0  0  0  0  0  0  0  0  0  0
    0.4110   -0.5984   -1.2291 C   0  0  0  0  0  0  0  0  0  0  0  0
    0.6305   -2.1125   -1.2171 C   0  0  0  0  0  0  0  0  0  0  0  0
    1.3545   -2.5120   -2.4312 N   0  3  2  0  0  0  0  0  0  0  0  0
    0.5252   -2.2296   -3.6089 C   0  0  0  0  0  0  0  0  0  0  0  0
    1.3061   -2.5684   -4.8805 C   0  0  1  0  0  0  0  0  0  0  0  0
    2.2125   -1.9645   -4.9227 H   0  0  0  0  0  0  0  0  0  0  0  0
    1.6810   -4.0530   -4.8624 C   0  0  2  0  0  0  0  0  0  0  0  0
    0.7744   -4.6581   -4.8718 H   0  0  0  0  0  0  0  0  0  0  0  0
    2.4827   -4.3515   -3.5921 C   0  0  1  0  0  0  0  0  0  0  0  0
    3.4136   -3.7847   -3.6076 H   0  0  0  0  0  0  0  0  0  0  0  0
    1.6582   -3.9467   -2.3683 C   0  0  1  0  0  0  0  0  0  0  0  0
    0.7277   -4.5142   -2.3537 H   0  0  0  0  0  0  0  0  0  0  0  0
    2.4551   -4.2433   -1.0964 C   0  0  0  0  0  0  0  0  0  0  0  0
    3.7102   -3.5623   -1.1509 O   0  0  0  0  0  0  0  0  0  0  0  0
    2.7758   -5.7488   -3.5301 O   0  0  0  0  0  0  0  0  0  0  0  0
    2.4724   -4.3601   -6.0119 O   0  0  0  0  0  0  0  0  0  0  0  0
    0.4961   -2.2938   -6.0253 O   0  0  0  0  0  0  0  0  0  0  0  0
    0.4020    1.8385   -0.0076 H   0  0  0  0  0  0  0  0  0  0  0  0
   -1.1462    1.6074   -0.8548 H   0  0  0  0  0  0  0  0  0  0  0  0
   -1.0998    1.6282    0.9244 H   0  0  0  0  0  0  0  0  0  0  0  0
    0.2405   -0.4579    0.9138 H   0  0  0  0  0  0  0  0  0  0  0  0
   -1.3077   -0.6890    0.0666 H   0  0  0  0  0  0  0  0  0  0  0  0
   -0.1727   -0.3228   -2.1074 H   0  0  0  0  0  0  0  0  0  0  0  0
    1.3756   -0.0917   -1.2601 H   0  0  0  0  0  0  0  0  0  0  0  0
    1.2141   -2.3881   -0.3387 H   0  0  0  0  0  0  0  0  0  0  0  0
   -0.3341   -2.6192   -1.1860 H   0  0  0  0  0  0  0  0  0  0  0  0
   -0.3811   -2.8337   -3.5678 H   0  0  0  0  0  0  0  0  0  0  0  0
    0.2565   -1.1733   -3.6187 H   0  0  0  0  0  0  0  0  0  0  0  0
    1.8933   -3.9008   -0.2274 H   0  0  0  0  0  0  0  0  0  0  0  0
    2.6274   -5.3168   -1.0176 H   0  0  0  0  0  0  0  0  0  0  0  0
    4.2694   -3.7053   -0.3751 H   0  0  0  0  0  0  0  0  0  0  0  0
    3.2946   -6.0754   -4.2779 H   0  0  0  0  0  0  0  0  0  0  0  0
    2.0271   -4.1891   -6.8531 H   0  0  0  0  0  0  0  0  0  0  0  0
    0.9288   -2.4859   -6.8685 H   0  0  0  0  0  0  0  0  0  0  0  0
    2.2153   -1.9895   -2.4955 H   0  0  0  0  0  0  0  0  0  0  0  0
  1  2  1  0  0  0  0
  1 20  1  0  0  0  0
  1 21  1  0  0  0  0
  1 22  1  0  0  0  0
  2  3  1  0  0  0  0
  2 23  1  0  0  0  0
  2 24  1  0  0  0  0
  3  4  1  0  0  0  0
  3 25  1  0  0  0  0
  3 26  1  0  0  0  0
  4  5  1  0  0  0  0
  4 27  1  0  0  0  0
  4 28  1  0  0  0  0
  5 13  1  0  0  0  0
  5  6  1  0  0  0  0
  5 37  1  6  0  0  0
  6  7  1  0  0  0  0
  6 29  1  0  0  0  0
  6 30  1  0  0  0  0
  7  8  1  6  0  0  0
  7  9  1  0  0  0  0
  7 19  1  0  0  0  0
  9 10  1  6  0  0  0
  9 11  1  0  0  0  0
  9 18  1  0  0  0  0
 11 12  1  6  0  0  0
 11 13  1  0  0  0  0
 11 17  1  0  0  0  0
 13 14  1  1  0  0  0
 13 15  1  0  0  0  0
 15 16  1  0  0  0  0
 15 31  1  0  0  0  0
 15 32  1  0  0  0  0
 16 33  1  0  0  0  0
 17 34  1  0  0  0  0
 18 35  1  0  0  0  0
 19 36  1  0  0  0  0
M  CHG  1   5   1
M  END
$$$$
