ZINC00034157
 OpenBabel08292219463D

 27 27  0  0  1  0  0  0  0  0999 V2000
   -0.0187    1.5258    0.0104 C   0  0  0  0  0  0  0  0  0  0  0  0
    0.0021   -0.0041    0.0020 C   0  0  1  0  0  0  0  0  0  0  0  0
    0.5123   -0.3556   -0.8948 H   0  0  0  0  0  0  0  0  0  0  0  0
    0.7421   -0.5109    1.2415 C   0  0  1  0  0  0  0  0  0  0  0  0
    0.2319   -0.1594    2.1383 H   0  0  0  0  0  0  0  0  0  0  0  0
    0.7625   -2.0177    1.2333 C   0  0  0  0  0  0  0  0  0  0  0  0
    1.7500   -2.6903    0.5377 C   0  0  0  0  0  0  0  0  0  0  0  0
    1.7731   -4.0725    0.5270 C   0  0  0  0  0  0  0  0  0  0  0  0
    0.8054   -4.7869    1.2148 C   0  0  0  0  0  0  0  0  0  0  0  0
   -0.1883   -4.1099    1.9154 C   0  0  0  0  0  0  0  0  0  0  0  0
   -0.2029   -2.7244    1.9259 C   0  0  0  0  0  0  0  0  0  0  0  0
   -1.1403   -4.8066    2.5920 O   0  0  0  0  0  0  0  0  0  0  0  0
    0.8264   -6.1466    1.2050 O   0  0  0  0  0  0  0  0  0  0  0  0
    2.0827   -0.0163    1.2314 O   0  0  0  0  0  0  0  0  0  0  0  0
   -1.3761   -0.5125    0.0124 N   0  3  0  0  0  0  0  0  0  0  0  0
    1.0039    1.9031    0.0027 H   0  0  0  0  0  0  0  0  0  0  0  0
   -0.5459    1.8868   -0.8726 H   0  0  0  0  0  0  0  0  0  0  0  0
   -0.5289    1.8773    0.9072 H   0  0  0  0  0  0  0  0  0  0  0  0
    2.5049   -2.1347    0.0011 H   0  0  0  0  0  0  0  0  0  0  0  0
    2.5452   -4.5955   -0.0178 H   0  0  0  0  0  0  0  0  0  0  0  0
   -0.9708   -2.1966    2.4719 H   0  0  0  0  0  0  0  0  0  0  0  0
   -0.9053   -5.0052    3.5087 H   0  0  0  0  0  0  0  0  0  0  0  0
    1.3430   -6.5372    1.9231 H   0  0  0  0  0  0  0  0  0  0  0  0
    2.5972   -0.2904    0.4599 H   0  0  0  0  0  0  0  0  0  0  0  0
   -1.8641   -0.1783   -0.8050 H   0  0  0  0  0  0  0  0  0  0  0  0
   -1.3624   -1.5214    0.0069 H   0  0  0  0  0  0  0  0  0  0  0  0
   -1.8484   -0.1871    0.8426 H   0  0  0  0  0  0  0  0  0  0  0  0
  1  2  1  0  0  0  0
  1 16  1  0  0  0  0
  1 17  1  0  0  0  0
  1 18  1  0  0  0  0
  2  3  1  6  0  0  0
  2  4  1  0  0  0  0
  2 15  1  0  0  0  0
  4  5  1  1  0  0  0
  4  6  1  0  0  0  0
  4 14  1  0  0  0  0
  6 11  2  0  0  0  0
  6  7  1  0  0  0  0
  7  8  2  0  0  0  0
  7 19  1  0  0  0  0
  8  9  1  0  0  0  0
  8 20  1  0  0  0  0
  9 10  2  0  0  0  0
  9 13  1  0  0  0  0
 10 11  1  0  0  0  0
 10 12  1  0  0  0  0
 11 21  1  0  0  0  0
 12 22  1  0  0  0  0
 13 23  1  0  0  0  0
 14 24  1  0  0  0  0
 15 25  1  0  0  0  0
 15 26  1  0  0  0  0
 15 27  1  0  0  0  0
M  CHG  1  15   1
M  END
$$$$
