ZINC01530760
 OpenBabel08292219463D

 53 54  0  0  1  0  0  0  0  0999 V2000
   -0.0187    1.5258    0.0104 C   0  0  0  0  0  0  0  0  0  0  0  0
    0.0021   -0.0041    0.0020 C   0  0  0  0  0  0  0  0  0  0  0  0
    0.7421   -0.5109    1.2415 C   0  0  0  0  0  0  0  0  0  0  0  0
    0.7620   -1.9797    1.2335 N   0  3  0  0  0  0  0  0  0  0  0  0
    1.4725   -2.4664    2.4236 C   0  0  0  0  0  0  0  0  0  0  0  0
    1.4932   -3.9962    2.4152 C   0  0  2  0  0  0  0  0  0  0  0  0
    0.4737   -4.3730    2.3333 H   0  0  0  0  0  0  0  0  0  0  0  0
    2.1222   -4.5049    3.7138 C   0  0  0  0  0  0  0  0  0  0  0  0
    2.0363   -5.9306    3.7582 O   0  0  0  0  0  0  0  0  0  0  0  0
    2.5517   -6.5447    4.8518 C   0  0  0  0  0  0  0  0  0  0  0  0
    3.1247   -5.7939    5.8675 C   0  0  0  0  0  0  0  0  0  0  0  0
    3.6496   -6.4204    6.9801 C   0  0  0  0  0  0  0  0  0  0  0  0
    3.6095   -7.8015    7.0932 C   0  0  0  0  0  0  0  0  0  0  0  0
    3.0451   -8.5648    6.0961 C   0  0  0  0  0  0  0  0  0  0  0  0
    2.5030   -7.9437    4.9644 C   0  0  0  0  0  0  0  0  0  0  0  0
    1.8935   -8.7498    3.8998 C   0  0  0  0  0  0  0  0  0  0  0  0
    1.4299   -8.2079    2.9186 O   0  0  0  0  0  0  0  0  0  0  0  0
    1.8439  -10.2507    4.0258 C   0  0  0  0  0  0  0  0  0  0  0  0
    1.1630  -10.8440    2.7907 C   0  0  0  0  0  0  0  0  0  0  0  0
    1.1133  -12.3449    2.9167 C   0  0  0  0  0  0  0  0  0  0  0  0
    2.1552  -13.1139    2.4329 C   0  0  0  0  0  0  0  0  0  0  0  0
    2.1097  -14.4907    2.5485 C   0  0  0  0  0  0  0  0  0  0  0  0
    1.0225  -15.0984    3.1483 C   0  0  0  0  0  0  0  0  0  0  0  0
   -0.0189  -14.3293    3.6328 C   0  0  0  0  0  0  0  0  0  0  0  0
    0.0286  -12.9522    3.5211 C   0  0  0  0  0  0  0  0  0  0  0  0
    2.2618   -4.4560    1.3017 O   0  0  0  0  0  0  0  0  0  0  0  0
    1.0039    1.9031    0.0027 H   0  0  0  0  0  0  0  0  0  0  0  0
   -0.5459    1.8868   -0.8726 H   0  0  0  0  0  0  0  0  0  0  0  0
   -0.5289    1.8773    0.9072 H   0  0  0  0  0  0  0  0  0  0  0  0
   -1.0205   -0.3814    0.0098 H   0  0  0  0  0  0  0  0  0  0  0  0
    0.5123   -0.3556   -0.8948 H   0  0  0  0  0  0  0  0  0  0  0  0
    1.7647   -0.1336    1.2338 H   0  0  0  0  0  0  0  0  0  0  0  0
    0.2319   -0.1594    2.1383 H   0  0  0  0  0  0  0  0  0  0  0  0
   -0.1846   -2.3290    1.2406 H   0  0  0  0  0  0  0  0  0  0  0  0
    2.4951   -2.0891    2.4158 H   0  0  0  0  0  0  0  0  0  0  0  0
    0.9623   -2.1149    3.3204 H   0  0  0  0  0  0  0  0  0  0  0  0
    3.1686   -4.2025    3.7535 H   0  0  0  0  0  0  0  0  0  0  0  0
    1.5893   -4.0821    4.5656 H   0  0  0  0  0  0  0  0  0  0  0  0
    3.1607   -4.7175    5.7877 H   0  0  0  0  0  0  0  0  0  0  0  0
    4.0948   -5.8305    7.7676 H   0  0  0  0  0  0  0  0  0  0  0  0
    4.0234   -8.2811    7.9679 H   0  0  0  0  0  0  0  0  0  0  0  0
    3.0170   -9.6405    6.1886 H   0  0  0  0  0  0  0  0  0  0  0  0
    2.8580  -10.6424    4.1049 H   0  0  0  0  0  0  0  0  0  0  0  0
    1.2790  -10.5220    4.9176 H   0  0  0  0  0  0  0  0  0  0  0  0
    0.1489  -10.4523    2.7116 H   0  0  0  0  0  0  0  0  0  0  0  0
    1.7278  -10.5727    1.8989 H   0  0  0  0  0  0  0  0  0  0  0  0
    3.0045  -12.6391    1.9644 H   0  0  0  0  0  0  0  0  0  0  0  0
    2.9233  -15.0915    2.1699 H   0  0  0  0  0  0  0  0  0  0  0  0
    0.9866  -16.1740    3.2379 H   0  0  0  0  0  0  0  0  0  0  0  0
   -0.8684  -14.8041    4.1011 H   0  0  0  0  0  0  0  0  0  0  0  0
   -0.7833  -12.3511    3.9031 H   0  0  0  0  0  0  0  0  0  0  0  0
    3.1818   -4.1582    1.3089 H   0  0  0  0  0  0  0  0  0  0  0  0
    1.2343   -2.3051    0.4033 H   0  0  0  0  0  0  0  0  0  0  0  0
  1  2  1  0  0  0  0
  1 27  1  0  0  0  0
  1 28  1  0  0  0  0
  1 29  1  0  0  0  0
  2  3  1  0  0  0  0
  2 30  1  0  0  0  0
  2 31  1  0  0  0  0
  3  4  1  0  0  0  0
  3 32  1  0  0  0  0
  3 33  1  0  0  0  0
  4  5  1  0  0  0  0
  4 34  1  0  0  0  0
  4 53  1  0  0  0  0
  5  6  1  0  0  0  0
  5 35  1  0  0  0  0
  5 36  1  0  0  0  0
  6  7  1  6  0  0  0
  6  8  1  0  0  0  0
  6 26  1  0  0  0  0
  8  9  1  0  0  0  0
  8 37  1  0  0  0  0
  8 38  1  0  0  0  0
  9 10  1  0  0  0  0
 10 15  2  0  0  0  0
 10 11  1  0  0  0  0
 11 12  2  0  0  0  0
 11 39  1  0  0  0  0
 12 13  1  0  0  0  0
 12 40  1  0  0  0  0
 13 14  2  0  0  0  0
 13 41  1  0  0  0  0
 14 15  1  0  0  0  0
 14 42  1  0  0  0  0
 15 16  1  0  0  0  0
 16 17  2  0  0  0  0
 16 18  1  0  0  0  0
 18 19  1  0  0  0  0
 18 43  1  0  0  0  0
 18 44  1  0  0  0  0
 19 20  1  0  0  0  0
 19 45  1  0  0  0  0
 19 46  1  0  0  0  0
 20 25  2  0  0  0  0
 20 21  1  0  0  0  0
 21 22  2  0  0  0  0
 21 47  1  0  0  0  0
 22 23  1  0  0  0  0
 22 48  1  0  0  0  0
 23 24  2  0  0  0  0
 23 49  1  0  0  0  0
 24 25  1  0  0  0  0
 24 50  1  0  0  0  0
 25 51  1  0  0  0  0
 26 52  1  0  0  0  0
M  CHG  1   4   1
M  END
$$$$
