ZINC01999543
 OpenBabel08292219463D

 56 58  0  0  1  0  0  0  0  0999 V2000
    1.1686    1.3459    0.9953 C   0  0  0  0  0  0  0  0  0  0  0  0
    2.4921    1.8999    0.4638 C   0  0  0  0  0  0  0  0  0  0  0  0
    2.6866    1.4524   -0.9863 C   0  0  0  0  0  0  0  0  0  0  0  0
    2.7114   -0.0761   -1.0494 C   0  0  0  0  0  0  0  0  0  0  0  0
    1.3879   -0.6300   -0.5180 C   0  0  0  0  0  0  0  0  0  0  0  0
    1.1934   -0.1826    0.9321 C   0  0  0  0  0  0  0  0  0  0  0  0
    2.9060   -0.5236   -2.4996 C   0  0  0  0  0  0  0  0  0  0  0  0
    4.1503    0.1521   -3.0792 C   0  0  0  0  0  0  0  0  0  0  0  0
    4.2729   -0.1933   -4.5647 C   0  0  2  0  0  0  0  0  0  0  0  0
    4.3043   -1.2763   -4.6840 H   0  0  0  0  0  0  0  0  0  0  0  0
    5.5585    0.4185   -5.1255 C   0  0  0  0  0  0  0  0  0  0  0  0
    5.6770    0.0699   -6.6120 C   0  0  0  0  0  0  0  0  0  0  0  0
    4.4287    0.5700   -7.3445 C   0  0  0  0  0  0  0  0  0  0  0  0
    3.1850   -0.0473   -6.7015 C   0  0  0  0  0  0  0  0  0  0  0  0
    3.1151    0.3448   -5.2887 N   0  3  0  0  0  0  0  0  0  0  0  0
    3.0825   -2.0427   -2.5452 C   0  0  0  0  0  0  0  0  0  0  0  0
    1.7148   -2.7106   -2.7006 C   0  0  0  0  0  0  0  0  0  0  0  0
    1.8913   -4.2297   -2.7462 C   0  0  0  0  0  0  0  0  0  0  0  0
    2.5472   -4.7062   -1.4486 C   0  0  0  0  0  0  0  0  0  0  0  0
    3.9149   -4.0382   -1.2932 C   0  0  0  0  0  0  0  0  0  0  0  0
    3.7383   -2.5191   -1.2476 C   0  0  0  0  0  0  0  0  0  0  0  0
    1.0300    1.6647    2.0283 H   0  0  0  0  0  0  0  0  0  0  0  0
    0.3466    1.7214    0.3858 H   0  0  0  0  0  0  0  0  0  0  0  0
    2.4744    2.9888    0.5087 H   0  0  0  0  0  0  0  0  0  0  0  0
    3.3140    1.5243    1.0733 H   0  0  0  0  0  0  0  0  0  0  0  0
    1.8646    1.8279   -1.5958 H   0  0  0  0  0  0  0  0  0  0  0  0
    3.6295    1.8470   -1.3650 H   0  0  0  0  0  0  0  0  0  0  0  0
    3.5334   -0.4516   -0.4399 H   0  0  0  0  0  0  0  0  0  0  0  0
    0.5660   -0.2545   -1.1275 H   0  0  0  0  0  0  0  0  0  0  0  0
    1.4056   -1.7190   -0.5629 H   0  0  0  0  0  0  0  0  0  0  0  0
    2.0153   -0.5581    1.5416 H   0  0  0  0  0  0  0  0  0  0  0  0
    0.2505   -0.5772    1.3108 H   0  0  0  0  0  0  0  0  0  0  0  0
    2.0323   -0.2415   -3.0871 H   0  0  0  0  0  0  0  0  0  0  0  0
    4.0643    1.2325   -2.9633 H   0  0  0  0  0  0  0  0  0  0  0  0
    5.0353   -0.2008   -2.5498 H   0  0  0  0  0  0  0  0  0  0  0  0
    5.5281    1.5016   -5.0069 H   0  0  0  0  0  0  0  0  0  0  0  0
    6.4174    0.0168   -4.5878 H   0  0  0  0  0  0  0  0  0  0  0  0
    6.5618    0.5504   -7.0296 H   0  0  0  0  0  0  0  0  0  0  0  0
    5.7590   -1.0108   -6.7275 H   0  0  0  0  0  0  0  0  0  0  0  0
    4.3748    1.6563   -7.2720 H   0  0  0  0  0  0  0  0  0  0  0  0
    4.4800    0.2767   -8.3931 H   0  0  0  0  0  0  0  0  0  0  0  0
    2.2943    0.3065   -7.2208 H   0  0  0  0  0  0  0  0  0  0  0  0
    3.2397   -1.1335   -6.7748 H   0  0  0  0  0  0  0  0  0  0  0  0
    2.2665   -0.0190   -4.8818 H   0  0  0  0  0  0  0  0  0  0  0  0
    3.7154   -2.3096   -3.3915 H   0  0  0  0  0  0  0  0  0  0  0  0
    1.0819   -2.4437   -1.8542 H   0  0  0  0  0  0  0  0  0  0  0  0
    1.2476   -2.3712   -3.6250 H   0  0  0  0  0  0  0  0  0  0  0  0
    0.9170   -4.7056   -2.8569 H   0  0  0  0  0  0  0  0  0  0  0  0
    2.5243   -4.4967   -3.5925 H   0  0  0  0  0  0  0  0  0  0  0  0
    1.9142   -4.4392   -0.6023 H   0  0  0  0  0  0  0  0  0  0  0  0
    2.6729   -5.7884   -1.4811 H   0  0  0  0  0  0  0  0  0  0  0  0
    4.3821   -4.3776   -0.3688 H   0  0  0  0  0  0  0  0  0  0  0  0
    4.5478   -4.3052   -2.1395 H   0  0  0  0  0  0  0  0  0  0  0  0
    4.7127   -2.0433   -1.1369 H   0  0  0  0  0  0  0  0  0  0  0  0
    3.1054   -2.2522   -0.4013 H   0  0  0  0  0  0  0  0  0  0  0  0
    3.1144    1.3514   -5.2193 H   0  0  0  0  0  0  0  0  0  0  0  0
  1  6  1  0  0  0  0
  1  2  1  0  0  0  0
  1 22  1  0  0  0  0
  1 23  1  0  0  0  0
  2  3  1  0  0  0  0
  2 24  1  0  0  0  0
  2 25  1  0  0  0  0
  3  4  1  0  0  0  0
  3 26  1  0  0  0  0
  3 27  1  0  0  0  0
  4  5  1  0  0  0  0
  4  7  1  0  0  0  0
  4 28  1  0  0  0  0
  5  6  1  0  0  0  0
  5 29  1  0  0  0  0
  5 30  1  0  0  0  0
  6 31  1  0  0  0  0
  6 32  1  0  0  0  0
  7  8  1  0  0  0  0
  7 16  1  0  0  0  0
  7 33  1  0  0  0  0
  8  9  1  0  0  0  0
  8 34  1  0  0  0  0
  8 35  1  0  0  0  0
  9 10  1  6  0  0  0
  9 15  1  0  0  0  0
  9 11  1  0  0  0  0
 11 12  1  0  0  0  0
 11 36  1  0  0  0  0
 11 37  1  0  0  0  0
 12 13  1  0  0  0  0
 12 38  1  0  0  0  0
 12 39  1  0  0  0  0
 13 14  1  0  0  0  0
 13 40  1  0  0  0  0
 13 41  1  0  0  0  0
 14 15  1  0  0  0  0
 14 42  1  0  0  0  0
 14 43  1  0  0  0  0
 15 44  1  0  0  0  0
 15 56  1  0  0  0  0
 16 21  1  0  0  0  0
 16 17  1  0  0  0  0
 16 45  1  0  0  0  0
 17 18  1  0  0  0  0
 17 46  1  0  0  0  0
 17 47  1  0  0  0  0
 18 19  1  0  0  0  0
 18 48  1  0  0  0  0
 18 49  1  0  0  0  0
 19 20  1  0  0  0  0
 19 50  1  0  0  0  0
 19 51  1  0  0  0  0
 20 21  1  0  0  0  0
 20 52  1  0  0  0  0
 20 53  1  0  0  0  0
 21 54  1  0  0  0  0
 21 55  1  0  0  0  0
M  CHG  1  15   1
M  END
$$$$
