ZINC00001795
 OpenBabel08292219463D

 13 13  0  0  0  0  0  0  0  0999 V2000
   -0.0167    1.3791    0.0096 C   0  0  0  0  0  0  0  0  0  0  0  0
    1.1803    2.0730    0.0019 C   0  0  0  0  0  0  0  0  0  0  0  0
    2.3734    1.3382   -0.0134 C   0  0  0  0  0  0  0  0  0  0  0  0
    2.3058   -0.0572   -0.0203 C   0  0  0  0  0  0  0  0  0  0  0  0
    1.1411   -0.6705   -0.0129 N   0  0  0  0  0  0  0  0  0  0  0  0
    0.0021   -0.0041    0.0020 C   0  0  0  0  0  0  0  0  0  0  0  0
    3.6785    2.0263   -0.0227 C   0  0  0  0  0  0  0  0  0  0  0  0
    3.7254    3.2483   -0.0170 O   0  0  0  0  0  0  0  0  0  0  0  0
    4.7132    1.3746   -0.0360 O   0  0  0  0  0  1  0  0  0  0  0  0
   -0.9560    1.9119    0.0259 H   0  0  0  0  0  0  0  0  0  0  0  0
    1.1948    3.1529    0.0072 H   0  0  0  0  0  0  0  0  0  0  0  0
    3.2166   -0.6374   -0.0321 H   0  0  0  0  0  0  0  0  0  0  0  0
   -0.9311   -0.5477    0.0080 H   0  0  0  0  0  0  0  0  0  0  0  0
  1  6  2  0  0  0  0
  1  2  1  0  0  0  0
  1 10  1  0  0  0  0
  2  3  2  0  0  0  0
  2 11  1  0  0  0  0
  3  4  1  0  0  0  0
  3  7  1  0  0  0  0
  4  5  2  0  0  0  0
  4 12  1  0  0  0  0
  5  6  1  0  0  0  0
  6 13  1  0  0  0  0
  7  8  2  0  0  0  0
  7  9  1  0  0  0  0
M  END
$$$$
