ZINC03875334
 OpenBabel08292219463D

 59 62  0  0  1  0  0  0  0  0999 V2000
    2.3207    1.6512   -1.3860 C   0  0  0  0  0  0  0  0  0  0  0  0
    2.4189    0.1516   -1.4987 C   0  0  0  0  0  0  0  0  0  0  0  0
    3.4489   -0.4098   -1.2094 O   0  0  0  0  0  0  0  0  0  0  0  0
    1.3620   -0.5603   -1.9207 O   0  0  0  0  0  0  0  0  0  0  0  0
    1.5258   -1.9775   -2.0036 C   0  0  0  0  0  0  0  0  0  0  0  0
    0.2449   -2.6034   -2.4920 C   0  0  0  0  0  0  0  0  0  0  0  0
   -0.7097   -1.9078   -2.7431 O   0  0  0  0  0  0  0  0  0  0  0  0
    0.1553   -4.0976   -2.6669 C   0  0  1  0  0  0  0  0  0  0  0  0
   -1.3200   -4.5589   -2.5857 C   0  0  0  0  0  0  0  0  0  0  0  0
   -1.6266   -5.2863   -3.9220 C   0  0  0  0  0  0  0  0  0  0  0  0
   -0.2397   -5.7375   -4.3976 C   0  0  2  0  0  0  0  0  0  0  0  0
    0.0949   -6.6027   -3.8252 H   0  0  0  0  0  0  0  0  0  0  0  0
    0.6303   -4.4956   -4.0626 C   0  0  2  0  0  0  0  0  0  0  0  0
    2.0878   -4.9167   -4.1625 C   0  0  0  0  0  0  0  0  0  0  0  0
    2.2955   -5.4129   -5.5865 C   0  0  0  0  0  0  0  0  0  0  0  0
    3.2221   -5.0052   -6.2449 O   0  0  0  0  0  0  0  0  0  0  0  0
    1.3341   -6.4180   -6.1666 C   0  0  1  0  0  0  0  0  0  0  0  0
    1.5169   -7.3930   -5.7148 H   0  0  0  0  0  0  0  0  0  0  0  0
   -0.1220   -6.0113   -5.8834 C   0  0  1  0  0  0  0  0  0  0  0  0
   -0.3551   -5.1052   -6.4427 H   0  0  0  0  0  0  0  0  0  0  0  0
   -1.0505   -7.1487   -6.3103 C   0  0  0  0  0  0  0  0  0  0  0  0
   -0.9600   -7.3149   -7.8301 C   0  0  0  0  0  0  0  0  0  0  0  0
    0.4918   -7.5064   -8.2279 C   0  0  0  0  0  0  0  0  0  0  0  0
    0.7779   -8.5027   -9.0654 C   0  0  0  0  0  0  0  0  0  0  0  0
    2.1611   -8.7276   -9.4976 C   0  0  0  0  0  0  0  0  0  0  0  0
    2.5286   -9.8002   -9.9295 O   0  0  0  0  0  0  0  0  0  0  0  0
    3.1078   -7.5495   -9.3768 C   0  0  0  0  0  0  0  0  0  0  0  0
    2.9556   -6.9855   -7.9648 C   0  0  0  0  0  0  0  0  0  0  0  0
    1.5220   -6.5205   -7.6827 C   0  0  2  0  0  0  0  0  0  0  0  0
    1.2998   -5.1316   -8.2847 C   0  0  0  0  0  0  0  0  0  0  0  0
    0.3343   -3.3690   -5.0545 C   0  0  0  0  0  0  0  0  0  0  0  0
    0.9377   -4.7592   -1.6708 O   0  0  0  0  0  0  0  0  0  0  0  0
    2.6211    2.1069   -2.3294 H   0  0  0  0  0  0  0  0  0  0  0  0
    1.2924    1.9319   -1.1580 H   0  0  0  0  0  0  0  0  0  0  0  0
    2.9776    1.9994   -0.5889 H   0  0  0  0  0  0  0  0  0  0  0  0
    2.3321   -2.2100   -2.6992 H   0  0  0  0  0  0  0  0  0  0  0  0
    1.7708   -2.3732   -1.0179 H   0  0  0  0  0  0  0  0  0  0  0  0
   -1.4521   -5.2439   -1.7482 H   0  0  0  0  0  0  0  0  0  0  0  0
   -1.9759   -3.6959   -2.4706 H   0  0  0  0  0  0  0  0  0  0  0  0
   -2.2745   -6.1463   -3.7526 H   0  0  0  0  0  0  0  0  0  0  0  0
   -2.0756   -4.5999   -4.6399 H   0  0  0  0  0  0  0  0  0  0  0  0
    2.7376   -4.0642   -3.9652 H   0  0  0  0  0  0  0  0  0  0  0  0
    2.2949   -5.7182   -3.4534 H   0  0  0  0  0  0  0  0  0  0  0  0
   -0.7433   -8.0739   -5.8226 H   0  0  0  0  0  0  0  0  0  0  0  0
   -2.0759   -6.9083   -6.0294 H   0  0  0  0  0  0  0  0  0  0  0  0
   -1.5391   -8.1862   -8.1360 H   0  0  0  0  0  0  0  0  0  0  0  0
   -1.3565   -6.4243   -8.3177 H   0  0  0  0  0  0  0  0  0  0  0  0
   -0.0107   -9.1463   -9.4265 H   0  0  0  0  0  0  0  0  0  0  0  0
    4.1341   -7.8809   -9.5350 H   0  0  0  0  0  0  0  0  0  0  0  0
    2.8463   -6.7871  -10.1106 H   0  0  0  0  0  0  0  0  0  0  0  0
    3.2557   -7.7462   -7.2441 H   0  0  0  0  0  0  0  0  0  0  0  0
    3.6072   -6.1185   -7.8563 H   0  0  0  0  0  0  0  0  0  0  0  0
    2.0226   -4.4331   -7.8633 H   0  0  0  0  0  0  0  0  0  0  0  0
    1.4286   -5.1795   -9.3661 H   0  0  0  0  0  0  0  0  0  0  0  0
    0.2898   -4.7929   -8.0538 H   0  0  0  0  0  0  0  0  0  0  0  0
    0.8675   -2.4681   -4.7507 H   0  0  0  0  0  0  0  0  0  0  0  0
    0.6619   -3.6665   -6.0506 H   0  0  0  0  0  0  0  0  0  0  0  0
   -0.7372   -3.1696   -5.0688 H   0  0  0  0  0  0  0  0  0  0  0  0
    0.6696   -4.5596   -0.7634 H   0  0  0  0  0  0  0  0  0  0  0  0
  1  2  1  0  0  0  0
  1 33  1  0  0  0  0
  1 34  1  0  0  0  0
  1 35  1  0  0  0  0
  2  3  2  0  0  0  0
  2  4  1  0  0  0  0
  4  5  1  0  0  0  0
  5  6  1  0  0  0  0
  5 36  1  0  0  0  0
  5 37  1  0  0  0  0
  6  7  2  0  0  0  0
  8  6  1  1  0  0  0
  8 13  1  0  0  0  0
  8  9  1  0  0  0  0
  8 32  1  0  0  0  0
  9 10  1  0  0  0  0
  9 38  1  0  0  0  0
  9 39  1  0  0  0  0
 10 11  1  0  0  0  0
 10 40  1  0  0  0  0
 10 41  1  0  0  0  0
 11 12  1  1  0  0  0
 11 19  1  0  0  0  0
 11 13  1  0  0  0  0
 13 14  1  0  0  0  0
 13 31  1  6  0  0  0
 14 15  1  0  0  0  0
 14 42  1  0  0  0  0
 14 43  1  0  0  0  0
 15 16  2  0  0  0  0
 15 17  1  0  0  0  0
 17 18  1  1  0  0  0
 17 29  1  0  0  0  0
 17 19  1  0  0  0  0
 19 20  1  6  0  0  0
 19 21  1  0  0  0  0
 21 22  1  0  0  0  0
 21 44  1  0  0  0  0
 21 45  1  0  0  0  0
 22 23  1  0  0  0  0
 22 46  1  0  0  0  0
 22 47  1  0  0  0  0
 23 29  1  0  0  0  0
 23 24  2  0  0  0  0
 24 25  1  0  0  0  0
 24 48  1  0  0  0  0
 25 26  2  0  0  0  0
 25 27  1  0  0  0  0
 27 28  1  0  0  0  0
 27 49  1  0  0  0  0
 27 50  1  0  0  0  0
 28 29  1  0  0  0  0
 28 51  1  0  0  0  0
 28 52  1  0  0  0  0
 29 30  1  6  0  0  0
 30 53  1  0  0  0  0
 30 54  1  0  0  0  0
 30 55  1  0  0  0  0
 31 56  1  0  0  0  0
 31 57  1  0  0  0  0
 31 58  1  0  0  0  0
 32 59  1  0  0  0  0
M  END
$$$$
