ZINC03831139
 OpenBabel08292219463D

 34 35  0  0  0  0  0  0  0  0999 V2000
    0.0320    1.4613    0.0585 C   0  0  0  0  0  0  0  0  0  0  0  0
    0.0191    0.0798    0.0098 C   0  0  0  0  0  0  0  0  0  0  0  0
    1.2097   -0.6219   -0.0215 C   0  0  0  0  0  0  0  0  0  0  0  0
    2.4132    0.0579   -0.0045 C   0  0  0  0  0  0  0  0  0  0  0  0
    2.4262    1.4394    0.0434 C   0  0  0  0  0  0  0  0  0  0  0  0
    1.2356    2.1410    0.0761 C   0  0  0  0  0  0  0  0  0  0  0  0
    3.7112   -0.7071   -0.0376 C   0  0  0  0  0  0  0  0  0  0  0  0
    3.8699   -1.4828    1.2447 C   0  0  0  0  0  0  0  0  0  0  0  0
    3.0119   -2.5282    1.5308 C   0  0  0  0  0  0  0  0  0  0  0  0
    3.1575   -3.2398    2.7070 C   0  0  0  0  0  0  0  0  0  0  0  0
    4.1614   -2.9062    3.5968 C   0  0  0  0  0  0  0  0  0  0  0  0
    5.0200   -1.8613    3.3103 C   0  0  0  0  0  0  0  0  0  0  0  0
    4.8770   -1.1526    2.1321 C   0  0  0  0  0  0  0  0  0  0  0  0
    3.7005   -1.8556   -1.4417 S   0  0  1  0  0  0  0  0  0  0  0  0
    2.6449   -2.7928   -1.2790 O   0  0  0  0  0  0  0  0  0  0  0  0
    3.3532   -0.7961   -2.8726 C   0  0  0  0  0  0  0  0  0  0  0  0
    3.3163   -1.6367   -4.1228 C   0  0  0  0  0  0  0  0  0  0  0  0
    3.5056   -2.8327   -4.0552 O   0  0  0  0  0  0  0  0  0  0  0  0
    3.0728   -1.0594   -5.3161 N   0  0  0  0  0  0  0  0  0  0  0  0
   -0.8982    2.0097    0.0784 H   0  0  0  0  0  0  0  0  0  0  0  0
   -0.9213   -0.4512   -0.0035 H   0  0  0  0  0  0  0  0  0  0  0  0
    1.1995   -1.7012   -0.0589 H   0  0  0  0  0  0  0  0  0  0  0  0
    3.3665    1.9704    0.0574 H   0  0  0  0  0  0  0  0  0  0  0  0
    1.2457    3.2203    0.1138 H   0  0  0  0  0  0  0  0  0  0  0  0
    4.5416   -0.0093   -0.1452 H   0  0  0  0  0  0  0  0  0  0  0  0
    2.2276   -2.7889    0.8356 H   0  0  0  0  0  0  0  0  0  0  0  0
    2.4868   -4.0561    2.9308 H   0  0  0  0  0  0  0  0  0  0  0  0
    4.2747   -3.4616    4.5161 H   0  0  0  0  0  0  0  0  0  0  0  0
    5.8040   -1.6005    4.0057 H   0  0  0  0  0  0  0  0  0  0  0  0
    5.5501   -0.3386    1.9065 H   0  0  0  0  0  0  0  0  0  0  0  0
    2.3895   -0.3055   -2.7360 H   0  0  0  0  0  0  0  0  0  0  0  0
    4.1350   -0.0421   -2.9647 H   0  0  0  0  0  0  0  0  0  0  0  0
    2.9214   -0.1028   -5.3701 H   0  0  0  0  0  0  0  0  0  0  0  0
    3.0490   -1.6004   -6.1208 H   0  0  0  0  0  0  0  0  0  0  0  0
  1  6  2  0  0  0  0
  1  2  1  0  0  0  0
  1 20  1  0  0  0  0
  2  3  2  0  0  0  0
  2 21  1  0  0  0  0
  3  4  1  0  0  0  0
  3 22  1  0  0  0  0
  4  5  2  0  0  0  0
  4  7  1  0  0  0  0
  5  6  1  0  0  0  0
  5 23  1  0  0  0  0
  6 24  1  0  0  0  0
  7  8  1  0  0  0  0
  7 14  1  0  0  0  0
  7 25  1  0  0  0  0
  8 13  2  0  0  0  0
  8  9  1  0  0  0  0
  9 10  2  0  0  0  0
  9 26  1  0  0  0  0
 10 11  1  0  0  0  0
 10 27  1  0  0  0  0
 11 12  2  0  0  0  0
 11 28  1  0  0  0  0
 12 13  1  0  0  0  0
 12 29  1  0  0  0  0
 13 30  1  0  0  0  0
 14 15  2  1  0  0  0
 14 16  1  0  0  0  0
 16 17  1  0  0  0  0
 16 31  1  0  0  0  0
 16 32  1  0  0  0  0
 17 18  2  0  0  0  0
 17 19  1  0  0  0  0
 19 33  1  0  0  0  0
 19 34  1  0  0  0  0
M  END
$$$$
