ZINC00056556
 OpenBabel08292219463D

 41 42  0  0  1  0  0  0  0  0999 V2000
   -0.0187    1.5258    0.0104 C   0  0  0  0  0  0  0  0  0  0  0  0
    0.0021   -0.0041    0.0020 C   0  0  0  0  0  0  0  0  0  0  0  0
    0.7421   -0.5109    1.2415 C   0  0  0  0  0  0  0  0  0  0  0  0
   -1.3761   -0.5125    0.0124 N   0  3  0  0  0  0  0  0  0  0  0  0
   -2.0500   -0.1262   -1.2343 C   0  0  0  0  0  0  0  0  0  0  0  0
   -3.4854   -0.6557   -1.2235 C   0  0  1  0  0  0  0  0  0  0  0  0
   -4.0222   -0.2330   -0.3742 H   0  0  0  0  0  0  0  0  0  0  0  0
   -4.1873   -0.2533   -2.5220 C   0  0  0  0  0  0  0  0  0  0  0  0
   -5.5600   -0.6460   -2.4630 O   0  0  0  0  0  0  0  0  0  0  0  0
   -6.3301   -0.3603   -3.5445 C   0  0  0  0  0  0  0  0  0  0  0  0
   -5.7871    0.2702   -4.6286 C   0  0  0  0  0  0  0  0  0  0  0  0
   -6.5629    0.5699   -5.7447 C   0  0  0  0  0  0  0  0  0  0  0  0
   -7.8843    0.2439   -5.7897 C   0  0  0  0  0  0  0  0  0  0  0  0
   -8.4805   -0.4055   -4.6955 C   0  0  0  0  0  0  0  0  0  0  0  0
   -7.6937   -0.7172   -3.5589 C   0  0  0  0  0  0  0  0  0  0  0  0
   -8.2884   -1.3701   -2.4672 C   0  0  0  0  0  0  0  0  0  0  0  0
   -9.6084   -1.6991   -2.5165 C   0  0  0  0  0  0  0  0  0  0  0  0
  -10.3815   -1.3976   -3.6361 C   0  0  0  0  0  0  0  0  0  0  0  0
   -9.8416   -0.7560   -4.7081 C   0  0  0  0  0  0  0  0  0  0  0  0
   -3.4667   -2.0804   -1.1139 O   0  0  0  0  0  0  0  0  0  0  0  0
    1.0039    1.9031    0.0027 H   0  0  0  0  0  0  0  0  0  0  0  0
   -0.5459    1.8868   -0.8726 H   0  0  0  0  0  0  0  0  0  0  0  0
   -0.5289    1.8773    0.9072 H   0  0  0  0  0  0  0  0  0  0  0  0
    0.5123   -0.3556   -0.8948 H   0  0  0  0  0  0  0  0  0  0  0  0
    0.2319   -0.1594    2.1383 H   0  0  0  0  0  0  0  0  0  0  0  0
    0.7568   -1.6008    1.2356 H   0  0  0  0  0  0  0  0  0  0  0  0
    1.7647   -0.1336    1.2338 H   0  0  0  0  0  0  0  0  0  0  0  0
   -1.3629   -1.5185    0.0898 H   0  0  0  0  0  0  0  0  0  0  0  0
   -2.0643    0.9605   -1.3179 H   0  0  0  0  0  0  0  0  0  0  0  0
   -1.5132   -0.5489   -2.0836 H   0  0  0  0  0  0  0  0  0  0  0  0
   -4.1237    0.8273   -2.6496 H   0  0  0  0  0  0  0  0  0  0  0  0
   -3.7039   -0.7477   -3.3646 H   0  0  0  0  0  0  0  0  0  0  0  0
   -4.7413    0.5399   -4.6191 H   0  0  0  0  0  0  0  0  0  0  0  0
   -6.1098    1.0693   -6.5883 H   0  0  0  0  0  0  0  0  0  0  0  0
   -8.4722    0.4840   -6.6634 H   0  0  0  0  0  0  0  0  0  0  0  0
   -7.7014   -1.6104   -1.5931 H   0  0  0  0  0  0  0  0  0  0  0  0
  -10.0632   -2.2016   -1.6756 H   0  0  0  0  0  0  0  0  0  0  0  0
  -11.4266   -1.6698   -3.6500 H   0  0  0  0  0  0  0  0  0  0  0  0
  -10.4528   -0.5282   -5.5689 H   0  0  0  0  0  0  0  0  0  0  0  0
   -3.0042   -2.5245   -1.8377 H   0  0  0  0  0  0  0  0  0  0  0  0
   -1.8730   -0.1212    0.7986 H   0  0  0  0  0  0  0  0  0  0  0  0
  1  2  1  0  0  0  0
  1 21  1  0  0  0  0
  1 22  1  0  0  0  0
  1 23  1  0  0  0  0
  2  3  1  0  0  0  0
  2  4  1  0  0  0  0
  2 24  1  0  0  0  0
  3 25  1  0  0  0  0
  3 26  1  0  0  0  0
  3 27  1  0  0  0  0
  4  5  1  0  0  0  0
  4 28  1  0  0  0  0
  4 41  1  0  0  0  0
  5  6  1  0  0  0  0
  5 29  1  0  0  0  0
  5 30  1  0  0  0  0
  6  7  1  1  0  0  0
  6  8  1  0  0  0  0
  6 20  1  0  0  0  0
  8  9  1  0  0  0  0
  8 31  1  0  0  0  0
  8 32  1  0  0  0  0
  9 10  1  0  0  0  0
 10 15  2  0  0  0  0
 10 11  1  0  0  0  0
 11 12  2  0  0  0  0
 11 33  1  0  0  0  0
 12 13  1  0  0  0  0
 12 34  1  0  0  0  0
 13 14  2  0  0  0  0
 13 35  1  0  0  0  0
 14 19  1  0  0  0  0
 14 15  1  0  0  0  0
 15 16  1  0  0  0  0
 16 17  2  0  0  0  0
 16 36  1  0  0  0  0
 17 18  1  0  0  0  0
 17 37  1  0  0  0  0
 18 19  2  0  0  0  0
 18 38  1  0  0  0  0
 19 39  1  0  0  0  0
 20 40  1  0  0  0  0
M  CHG  1   4   1
M  END
$$$$
