ZINC20230701
 OpenBabel08292219463D

 19 18  0  0  0  0  0  0  0  0999 V2000
    3.5462    7.5472    0.0087 C   0  0  0  0  0  0  0  0  0  0  0  0
    3.6470    6.0205   -0.0004 C   0  0  0  0  0  0  0  0  0  0  0  0
    2.2413    5.4165    0.0097 C   0  0  0  0  0  0  0  0  0  0  0  0
    2.3420    3.8899    0.0006 C   0  0  0  0  0  0  0  0  0  0  0  0
    0.9363    3.2859    0.0108 C   0  0  0  0  0  0  0  0  0  0  0  0
    1.0320    1.8371    0.0021 O   0  0  0  0  0  0  0  0  0  0  0  0
   -0.0144    1.2138    0.0087 N   0  0  0  0  0  0  0  0  0  0  0  0
    0.0021   -0.0041    0.0020 O   0  0  0  0  0  0  0  0  0  0  0  0
    4.5568    7.9814    0.0014 H   0  0  0  0  0  0  0  0  0  0  0  0
    3.0132    7.8741    0.9137 H   0  0  0  0  0  0  0  0  0  0  0  0
    2.9961    7.8836   -0.8825 H   0  0  0  0  0  0  0  0  0  0  0  0
    4.1800    5.6936   -0.9054 H   0  0  0  0  0  0  0  0  0  0  0  0
    4.1971    5.6840    0.8908 H   0  0  0  0  0  0  0  0  0  0  0  0
    1.7083    5.7434    0.9147 H   0  0  0  0  0  0  0  0  0  0  0  0
    1.6912    5.7530   -0.8815 H   0  0  0  0  0  0  0  0  0  0  0  0
    2.8750    3.5630   -0.9044 H   0  0  0  0  0  0  0  0  0  0  0  0
    2.8921    3.5534    0.8917 H   0  0  0  0  0  0  0  0  0  0  0  0
    0.4034    3.6128    0.9159 H   0  0  0  0  0  0  0  0  0  0  0  0
    0.3861    3.6224   -0.8803 H   0  0  0  0  0  0  0  0  0  0  0  0
  1  2  1  0  0  0  0
  1  9  1  0  0  0  0
  1 10  1  0  0  0  0
  1 11  1  0  0  0  0
  2  3  1  0  0  0  0
  2 12  1  0  0  0  0
  2 13  1  0  0  0  0
  3  4  1  0  0  0  0
  3 14  1  0  0  0  0
  3 15  1  0  0  0  0
  4  5  1  0  0  0  0
  4 16  1  0  0  0  0
  4 17  1  0  0  0  0
  5  6  1  0  0  0  0
  5 18  1  0  0  0  0
  5 19  1  0  0  0  0
  6  7  1  0  0  0  0
  7  8  2  0  0  0  0
M  END
$$$$
