ZINC00057624
 OpenBabel08292219463D

 24 24  0  0  1  0  0  0  0  0999 V2000
   -0.0167    1.3779    0.0096 C   0  0  0  0  0  0  0  0  0  0  0  0
    1.1696    2.0886    0.0021 C   0  0  0  0  0  0  0  0  0  0  0  0
    2.3802    1.4154   -0.0130 C   0  0  0  0  0  0  0  0  0  0  0  0
    2.3990    0.0236   -0.0206 C   0  0  0  0  0  0  0  0  0  0  0  0
    1.2071   -0.6822   -0.0130 C   0  0  0  0  0  0  0  0  0  0  0  0
    0.0021   -0.0041    0.0020 C   0  0  0  0  0  0  0  0  0  0  0  0
   -1.2936   -0.7736    0.0102 C   0  0  2  0  0  0  0  0  0  0  0  0
   -1.1263   -1.7622    0.4376 H   0  0  0  0  0  0  0  0  0  0  0  0
   -1.8100   -0.9182   -1.4228 C   0  0  0  0  0  0  0  0  0  0  0  0
   -3.0730   -1.6683   -1.4148 N   0  3  0  0  0  0  0  0  0  0  0  0
   -2.2593   -0.0721    0.7960 O   0  0  0  0  0  0  0  0  0  0  0  0
    3.5850   -0.6417   -0.0359 O   0  0  0  0  0  0  0  0  0  0  0  0
    3.5476    2.1129   -0.0209 O   0  0  0  0  0  0  0  0  0  0  0  0
   -0.9598    1.9038    0.0259 H   0  0  0  0  0  0  0  0  0  0  0  0
    1.1522    3.1684    0.0077 H   0  0  0  0  0  0  0  0  0  0  0  0
    1.2190   -1.7621   -0.0189 H   0  0  0  0  0  0  0  0  0  0  0  0
   -1.9772    0.0704   -1.8502 H   0  0  0  0  0  0  0  0  0  0  0  0
   -1.0734   -1.4533   -2.0221 H   0  0  0  0  0  0  0  0  0  0  0  0
   -2.9181   -2.5835   -1.0191 H   0  0  0  0  0  0  0  0  0  0  0  0
   -3.7548   -1.1730   -0.8600 H   0  0  0  0  0  0  0  0  0  0  0  0
   -2.4578    0.8175    0.4731 H   0  0  0  0  0  0  0  0  0  0  0  0
    3.9367   -0.8389    0.8430 H   0  0  0  0  0  0  0  0  0  0  0  0
    3.8938    2.3101    0.8602 H   0  0  0  0  0  0  0  0  0  0  0  0
   -3.4135   -1.7637   -2.3598 H   0  0  0  0  0  0  0  0  0  0  0  0
  1  6  2  0  0  0  0
  1  2  1  0  0  0  0
  1 14  1  0  0  0  0
  2  3  2  0  0  0  0
  2 15  1  0  0  0  0
  3  4  1  0  0  0  0
  3 13  1  0  0  0  0
  4  5  2  0  0  0  0
  4 12  1  0  0  0  0
  5  6  1  0  0  0  0
  5 16  1  0  0  0  0
  6  7  1  0  0  0  0
  7  8  1  1  0  0  0
  7  9  1  0  0  0  0
  7 11  1  0  0  0  0
  9 10  1  0  0  0  0
  9 17  1  0  0  0  0
  9 18  1  0  0  0  0
 10 19  1  0  0  0  0
 10 20  1  0  0  0  0
 10 24  1  0  0  0  0
 11 21  1  0  0  0  0
 12 22  1  0  0  0  0
 13 23  1  0  0  0  0
M  CHG  1  10   1
M  END
$$$$
