ZINC36378575
 OpenBabel08292219463D

 59 61  0  0  1  0  0  0  0  0999 V2000
   -2.4549   -8.2355    2.5472 C   0  0  0  0  0  0  0  0  0  0  0  0
   -1.0339   -7.6941    2.7157 C   0  0  0  0  0  0  0  0  0  0  0  0
   -1.0254   -6.2892    2.4544 O   0  0  0  0  0  0  0  0  0  0  0  0
    0.1566   -5.6554    2.5602 C   0  0  0  0  0  0  0  0  0  0  0  0
    1.1538   -6.2774    2.8659 O   0  0  0  0  0  0  0  0  0  0  0  0
    0.2338   -4.3327    2.3273 O   0  0  0  0  0  0  0  0  0  0  0  0
    1.4950   -3.7045    2.5659 C   0  0  2  0  0  0  0  0  0  0  0  0
    1.8712   -4.0047    3.5438 H   0  0  0  0  0  0  0  0  0  0  0  0
    1.3226   -2.1847    2.5303 C   0  0  0  0  0  0  0  0  0  0  0  0
    2.4240   -4.1023    1.5555 O   0  0  0  0  0  0  0  0  0  0  0  0
    2.1381   -3.7502    0.2922 C   0  0  0  0  0  0  0  0  0  0  0  0
    1.0857   -3.2136    0.0380 O   0  0  0  0  0  0  0  0  0  0  0  0
    3.1296   -4.0241   -0.8092 C   0  0  1  0  0  0  0  0  0  0  0  0
    4.1336   -3.8059   -0.4452 H   0  0  0  0  0  0  0  0  0  0  0  0
    3.0483   -5.5250   -1.2022 C   0  0  0  0  0  0  0  0  0  0  0  0
    3.7441   -5.4004   -2.9108 S   0  0  0  0  0  0  0  0  0  0  0  0
    3.1233   -3.7119   -3.2870 C   0  0  1  0  0  0  0  0  0  0  0  0
    2.3172   -3.6695   -4.0194 H   0  0  0  0  0  0  0  0  0  0  0  0
    2.8333   -3.1493   -1.9475 N   0  0  0  0  0  0  0  0  0  0  0  0
    3.6766   -2.0843   -2.1186 C   0  0  0  0  0  0  0  0  0  0  0  0
    3.9014   -1.0763   -1.4827 O   0  0  0  0  0  0  0  0  0  0  0  0
    4.2242   -2.6606   -3.4401 C   0  0  1  0  0  0  0  0  0  0  0  0
    4.0878   -2.0043   -4.2996 H   0  0  0  0  0  0  0  0  0  0  0  0
    5.5798   -3.2081   -3.3467 N   0  0  0  0  0  0  0  0  0  0  0  0
    6.6078   -2.5665   -3.9367 C   0  0  0  0  0  0  0  0  0  0  0  0
    6.4106   -1.5359   -4.5448 O   0  0  0  0  0  0  0  0  0  0  0  0
    8.0023   -3.1298   -3.8407 C   0  0  1  0  0  0  0  0  0  0  0  0
    8.1674   -3.5222   -2.8373 H   0  0  0  0  0  0  0  0  0  0  0  0
    8.1663   -4.2393   -4.8472 C   0  0  0  0  0  0  0  0  0  0  0  0
    8.4219   -3.9385   -6.1720 C   0  0  0  0  0  0  0  0  0  0  0  0
    8.5724   -4.9562   -7.0953 C   0  0  0  0  0  0  0  0  0  0  0  0
    8.4677   -6.2748   -6.6937 C   0  0  0  0  0  0  0  0  0  0  0  0
    8.2130   -6.5756   -5.3688 C   0  0  0  0  0  0  0  0  0  0  0  0
    8.0668   -5.5580   -4.4447 C   0  0  0  0  0  0  0  0  0  0  0  0
    8.9793   -2.0684   -4.1183 N   0  0  0  0  0  0  0  0  0  0  0  0
    1.6023   -6.0246   -1.2188 C   0  0  0  0  0  0  0  0  0  0  0  0
    3.9278   -6.3915   -0.2985 C   0  0  0  0  0  0  0  0  0  0  0  0
   -2.7946   -8.0535    1.5276 H   0  0  0  0  0  0  0  0  0  0  0  0
   -2.4614   -9.3071    2.7465 H   0  0  0  0  0  0  0  0  0  0  0  0
   -3.1211   -7.7317    3.2475 H   0  0  0  0  0  0  0  0  0  0  0  0
   -0.6942   -7.8761    3.7353 H   0  0  0  0  0  0  0  0  0  0  0  0
   -0.3677   -8.1979    2.0154 H   0  0  0  0  0  0  0  0  0  0  0  0
    0.9463   -1.8845    1.5524 H   0  0  0  0  0  0  0  0  0  0  0  0
    0.6140   -1.8813    3.3010 H   0  0  0  0  0  0  0  0  0  0  0  0
    2.2846   -1.7055    2.7123 H   0  0  0  0  0  0  0  0  0  0  0  0
    5.7376   -4.0324   -2.8604 H   0  0  0  0  0  0  0  0  0  0  0  0
    8.5037   -2.9083   -6.4858 H   0  0  0  0  0  0  0  0  0  0  0  0
    8.7713   -4.7212   -8.1305 H   0  0  0  0  0  0  0  0  0  0  0  0
    8.5845   -7.0699   -7.4152 H   0  0  0  0  0  0  0  0  0  0  0  0
    8.1308   -7.6058   -5.0551 H   0  0  0  0  0  0  0  0  0  0  0  0
    7.8715   -5.7931   -3.4088 H   0  0  0  0  0  0  0  0  0  0  0  0
    9.9228   -2.4048   -3.9972 H   0  0  0  0  0  0  0  0  0  0  0  0
    8.8469   -1.6881   -5.0435 H   0  0  0  0  0  0  0  0  0  0  0  0
    1.0268   -5.4476   -1.9426 H   0  0  0  0  0  0  0  0  0  0  0  0
    1.5850   -7.0782   -1.4978 H   0  0  0  0  0  0  0  0  0  0  0  0
    1.1648   -5.9041   -0.2277 H   0  0  0  0  0  0  0  0  0  0  0  0
    3.5992   -6.2881    0.7356 H   0  0  0  0  0  0  0  0  0  0  0  0
    3.8454   -7.4347   -0.6034 H   0  0  0  0  0  0  0  0  0  0  0  0
    4.9655   -6.0689   -0.3840 H   0  0  0  0  0  0  0  0  0  0  0  0
  1  2  1  0  0  0  0
  1 38  1  0  0  0  0
  1 39  1  0  0  0  0
  1 40  1  0  0  0  0
  2  3  1  0  0  0  0
  2 41  1  0  0  0  0
  2 42  1  0  0  0  0
  3  4  1  0  0  0  0
  4  5  2  0  0  0  0
  4  6  1  0  0  0  0
  6  7  1  0  0  0  0
  7  8  1  1  0  0  0
  7  9  1  0  0  0  0
  7 10  1  0  0  0  0
  9 43  1  0  0  0  0
  9 44  1  0  0  0  0
  9 45  1  0  0  0  0
 10 11  1  0  0  0  0
 11 12  2  0  0  0  0
 11 13  1  0  0  0  0
 13 14  1  1  0  0  0
 13 19  1  0  0  0  0
 13 15  1  0  0  0  0
 15 16  1  0  0  0  0
 15 36  1  0  0  0  0
 15 37  1  0  0  0  0
 16 17  1  0  0  0  0
 17 18  1  6  0  0  0
 17 22  1  0  0  0  0
 17 19  1  0  0  0  0
 19 20  1  0  0  0  0
 20 21  2  0  0  0  0
 20 22  1  0  0  0  0
 22 23  1  6  0  0  0
 22 24  1  0  0  0  0
 24 25  1  0  0  0  0
 24 46  1  0  0  0  0
 25 26  2  0  0  0  0
 25 27  1  0  0  0  0
 27 28  1  1  0  0  0
 27 29  1  0  0  0  0
 27 35  1  0  0  0  0
 29 34  2  0  0  0  0
 29 30  1  0  0  0  0
 30 31  2  0  0  0  0
 30 47  1  0  0  0  0
 31 32  1  0  0  0  0
 31 48  1  0  0  0  0
 32 33  2  0  0  0  0
 32 49  1  0  0  0  0
 33 34  1  0  0  0  0
 33 50  1  0  0  0  0
 34 51  1  0  0  0  0
 35 52  1  0  0  0  0
 35 53  1  0  0  0  0
 36 54  1  0  0  0  0
 36 55  1  0  0  0  0
 36 56  1  0  0  0  0
 37 57  1  0  0  0  0
 37 58  1  0  0  0  0
 37 59  1  0  0  0  0
M  END
$$$$
