ZINC03977952
 OpenBabel08292219463D

 45 46  0  0  1  0  0  0  0  0999 V2000
   -0.0187    1.5258    0.0104 C   0  0  0  0  0  0  0  0  0  0  0  0
    0.0021   -0.0041    0.0020 C   0  0  2  0  0  0  0  0  0  0  0  0
    0.5883   -0.3550   -0.8473 H   0  0  0  0  0  0  0  0  0  0  0  0
   -1.4298   -0.5335   -0.1124 C   0  0  1  0  0  0  0  0  0  0  0  0
   -1.8639   -0.2084   -1.0579 H   0  0  0  0  0  0  0  0  0  0  0  0
   -1.4057   -2.0641   -0.0595 C   0  0  1  0  0  0  0  0  0  0  0  0
   -0.8501   -2.4498   -0.9143 H   0  0  0  0  0  0  0  0  0  0  0  0
   -0.7236   -2.5086    1.2379 C   0  0  2  0  0  0  0  0  0  0  0  0
   -1.3066   -2.1648    2.0923 H   0  0  0  0  0  0  0  0  0  0  0  0
    0.6811   -1.9029    1.3002 C   0  0  1  0  0  0  0  0  0  0  0  0
    1.2762   -2.2788    0.4679 H   0  0  0  0  0  0  0  0  0  0  0  0
    0.5890   -0.4794    1.2152 O   0  0  0  0  0  0  0  0  0  0  0  0
    1.3031   -2.2676    2.5339 O   0  0  0  0  0  0  0  0  0  0  0  0
    2.6640   -1.8463    2.6456 C   0  0  2  0  0  0  0  0  0  0  0  0
    2.8396   -0.9370    2.0707 H   0  0  0  0  0  0  0  0  0  0  0  0
    3.6350   -2.9748    2.2161 C   0  0  2  0  0  0  0  0  0  0  0  0
    3.2393   -3.9468    2.5106 H   0  0  0  0  0  0  0  0  0  0  0  0
    4.8596   -2.7023    2.9157 O   0  0  0  0  0  0  0  0  0  0  0  0
    4.5894   -1.9341    4.0941 C   0  0  1  0  0  0  0  0  0  0  0  0
    3.0708   -1.6559    4.1323 C   0  0  1  0  0  0  0  0  0  0  0  0
    2.5603   -2.3779    4.7696 H   0  0  0  0  0  0  0  0  0  0  0  0
    2.8084   -0.3192    4.5641 O   0  0  0  0  0  0  0  0  0  0  0  0
    5.0040   -2.7255    5.3361 C   0  0  0  0  0  0  0  0  0  0  0  0
    6.4083   -2.9860    5.2881 O   0  0  0  0  0  0  0  0  0  0  0  0
    5.3064   -0.6990    4.0426 O   0  0  0  0  0  0  0  0  0  0  0  0
    3.8638   -2.9315    0.7039 C   0  0  0  0  0  0  0  0  0  0  0  0
    4.6665   -4.0468    0.3116 O   0  0  0  0  0  0  0  0  0  0  0  0
   -0.6318   -3.9344    1.2650 O   0  0  0  0  0  0  0  0  0  0  0  0
   -2.7437   -2.5648   -0.0939 O   0  0  0  0  0  0  0  0  0  0  0  0
   -2.2133   -0.0293    0.9711 O   0  0  0  0  0  0  0  0  0  0  0  0
    1.3220    2.0204    0.0003 O   0  0  0  0  0  0  0  0  0  0  0  0
   -0.5459    1.8868   -0.8726 H   0  0  0  0  0  0  0  0  0  0  0  0
   -0.5289    1.8773    0.9072 H   0  0  0  0  0  0  0  0  0  0  0  0
    3.0455   -0.1501    5.4862 H   0  0  0  0  0  0  0  0  0  0  0  0
    4.7722   -2.1466    6.2300 H   0  0  0  0  0  0  0  0  0  0  0  0
    4.4601   -3.6698    5.3635 H   0  0  0  0  0  0  0  0  0  0  0  0
    6.7418   -3.4854    6.0460 H   0  0  0  0  0  0  0  0  0  0  0  0
    6.2672   -0.8031    4.0103 H   0  0  0  0  0  0  0  0  0  0  0  0
    2.9038   -2.9761    0.1898 H   0  0  0  0  0  0  0  0  0  0  0  0
    4.3747   -2.0055    0.4401 H   0  0  0  0  0  0  0  0  0  0  0  0
    4.8522   -4.0835   -0.6367 H   0  0  0  0  0  0  0  0  0  0  0  0
   -0.2092   -4.2863    2.0604 H   0  0  0  0  0  0  0  0  0  0  0  0
   -2.8037   -3.5294   -0.0635 H   0  0  0  0  0  0  0  0  0  0  0  0
   -3.1339   -0.3252    0.9618 H   0  0  0  0  0  0  0  0  0  0  0  0
    1.3852    2.9853    0.0049 H   0  0  0  0  0  0  0  0  0  0  0  0
  1  2  1  0  0  0  0
  1 31  1  0  0  0  0
  1 32  1  0  0  0  0
  1 33  1  0  0  0  0
  2  3  1  6  0  0  0
  2 12  1  0  0  0  0
  2  4  1  0  0  0  0
  4  5  1  6  0  0  0
  4  6  1  0  0  0  0
  4 30  1  0  0  0  0
  6  7  1  6  0  0  0
  6  8  1  0  0  0  0
  6 29  1  0  0  0  0
  8  9  1  1  0  0  0
  8 10  1  0  0  0  0
  8 28  1  0  0  0  0
 10 11  1  6  0  0  0
 10 12  1  0  0  0  0
 10 13  1  0  0  0  0
 13 14  1  0  0  0  0
 14 15  1  6  0  0  0
 14 20  1  0  0  0  0
 14 16  1  0  0  0  0
 16 17  1  1  0  0  0
 16 18  1  0  0  0  0
 16 26  1  0  0  0  0
 18 19  1  0  0  0  0
 19 20  1  0  0  0  0
 19 23  1  0  0  0  0
 19 25  1  6  0  0  0
 20 21  1  1  0  0  0
 20 22  1  0  0  0  0
 22 34  1  0  0  0  0
 23 24  1  0  0  0  0
 23 35  1  0  0  0  0
 23 36  1  0  0  0  0
 24 37  1  0  0  0  0
 25 38  1  0  0  0  0
 26 27  1  0  0  0  0
 26 39  1  0  0  0  0
 26 40  1  0  0  0  0
 27 41  1  0  0  0  0
 28 42  1  0  0  0  0
 29 43  1  0  0  0  0
 30 44  1  0  0  0  0
 31 45  1  0  0  0  0
M  END
$$$$
