ZINC01530572
 OpenBabel08292219463D

 28 27  0  0  0  0  0  0  0  0999 V2000
   -1.1096    2.0196    1.3266 C   0  0  0  0  0  0  0  0  0  0  0  0
   -0.0172    1.4168    0.0098 S   0  0  0  0  0  0  0  0  0  0  0  0
    0.0021   -0.0041    0.0020 O   0  0  0  0  0  0  0  0  0  0  0  0
    1.1953    2.1578    0.0022 O   0  0  0  0  0  0  0  0  0  0  0  0
   -0.7164    1.8028   -1.2858 O   0  0  0  0  0  0  0  0  0  0  0  0
   -0.6259    3.1932   -1.6031 C   0  0  0  0  0  0  0  0  0  0  0  0
   -1.3596    3.4650   -2.9179 C   0  0  0  0  0  0  0  0  0  0  0  0
   -1.2627    4.9537   -3.2577 C   0  0  0  0  0  0  0  0  0  0  0  0
   -1.9965    5.2255   -4.5724 C   0  0  0  0  0  0  0  0  0  0  0  0
   -1.9060    6.6159   -4.8898 O   0  0  0  0  0  0  0  0  0  0  0  0
   -2.6052    7.0019   -6.1854 S   0  0  0  0  0  0  0  0  0  0  0  0
   -2.1803    8.3331   -6.4440 O   0  0  0  0  0  0  0  0  0  0  0  0
   -2.2936    5.9531   -7.0920 O   0  0  0  0  0  0  0  0  0  0  0  0
   -4.3744    6.9772   -5.7856 C   0  0  0  0  0  0  0  0  0  0  0  0
   -0.6753    1.7798    2.2972 H   0  0  0  0  0  0  0  0  0  0  0  0
   -1.2249    3.0998    1.2370 H   0  0  0  0  0  0  0  0  0  0  0  0
   -2.0850    1.5414    1.2369 H   0  0  0  0  0  0  0  0  0  0  0  0
   -1.0820    3.7786   -0.8047 H   0  0  0  0  0  0  0  0  0  0  0  0
    0.4220    3.4747   -1.7069 H   0  0  0  0  0  0  0  0  0  0  0  0
   -0.9035    2.8797   -3.7163 H   0  0  0  0  0  0  0  0  0  0  0  0
   -2.4075    3.1835   -2.8141 H   0  0  0  0  0  0  0  0  0  0  0  0
   -1.7188    5.5390   -2.4593 H   0  0  0  0  0  0  0  0  0  0  0  0
   -0.2148    5.2352   -3.3615 H   0  0  0  0  0  0  0  0  0  0  0  0
   -1.5404    4.6402   -5.3708 H   0  0  0  0  0  0  0  0  0  0  0  0
   -3.0444    4.9440   -4.4686 H   0  0  0  0  0  0  0  0  0  0  0  0
   -4.5770    7.6934   -4.9892 H   0  0  0  0  0  0  0  0  0  0  0  0
   -4.9507    7.2457   -6.6709 H   0  0  0  0  0  0  0  0  0  0  0  0
   -4.6586    5.9778   -5.4564 H   0  0  0  0  0  0  0  0  0  0  0  0
  1  2  1  0  0  0  0
  1 15  1  0  0  0  0
  1 16  1  0  0  0  0
  1 17  1  0  0  0  0
  2  3  2  0  0  0  0
  2  4  2  0  0  0  0
  2  5  1  0  0  0  0
  5  6  1  0  0  0  0
  6  7  1  0  0  0  0
  6 18  1  0  0  0  0
  6 19  1  0  0  0  0
  7  8  1  0  0  0  0
  7 20  1  0  0  0  0
  7 21  1  0  0  0  0
  8  9  1  0  0  0  0
  8 22  1  0  0  0  0
  8 23  1  0  0  0  0
  9 10  1  0  0  0  0
  9 24  1  0  0  0  0
  9 25  1  0  0  0  0
 10 11  1  0  0  0  0
 11 12  2  0  0  0  0
 11 13  2  0  0  0  0
 11 14  1  0  0  0  0
 14 26  1  0  0  0  0
 14 27  1  0  0  0  0
 14 28  1  0  0  0  0
M  END
$$$$
