ZINC08214397
 OpenBabel08292219463D

  8  7  0  0  1  0  0  0  0  0999 V2000
   -0.7330    1.8882    1.2685 C   0  0  1  0  0  0  0  0  0  0  0  0
   -0.7478    2.9781    1.2745 H   0  0  0  0  0  0  0  0  0  0  0  0
   -0.0169    1.3948    0.0097 C   0  0  0  0  0  0  0  0  0  0  0  0
    0.0021   -0.0041    0.0020 F   0  0  0  0  0  0  0  0  0  0  0  0
    1.2956    1.8790   -0.0002 F   0  0  0  0  0  0  0  0  0  0  0  0
   -0.6935    1.8582   -1.1237 F   0  0  0  0  0  0  0  0  0  0  0  0
   -2.4245    1.2641    1.2813 Cl  0  0  0  0  0  0  0  0  0  0  0  0
    0.2178    1.2369    2.8613 Br  0  0  0  0  0  0  0  0  0  0  0  0
  1  2  1  1  0  0  0
  1  3  1  0  0  0  0
  1  7  1  0  0  0  0
  1  8  1  0  0  0  0
  3  4  1  0  0  0  0
  3  5  1  0  0  0  0
  3  6  1  0  0  0  0
M  END
$$$$
