ZINC03831477
 OpenBabel08292219463D

 14 13  0  0  1  0  0  0  0  0999 V2000
   -0.0127    1.0858    0.0080 C   0  0  2  0  0  0  0  0  0  0  0  0
    0.0021   -0.0041    0.0020 H   0  0  0  0  0  0  0  0  0  0  0  0
    1.4227    1.6154   -0.0028 C   0  0  2  0  0  0  0  0  0  0  0  0
    1.9050    1.3387   -0.9404 H   0  0  0  0  0  0  0  0  0  0  0  0
    2.1871    1.0185    1.1506 C   0  0  0  0  0  0  0  0  0  0  0  0
    3.3129    0.5842    0.9762 O   0  0  0  0  0  0  0  0  0  0  0  0
    1.6797    0.9698    2.2581 O   0  0  0  0  0  1  0  0  0  0  0  0
    1.4018    3.4223    0.1561 S   0  0  0  0  0  0  0  0  0  0  0  0
   -0.7416    1.5850   -1.2129 C   0  0  0  0  0  0  0  0  0  0  0  0
   -1.4315    0.8208   -1.8660 O   0  0  0  0  0  0  0  0  0  0  0  0
   -0.6414    2.7531   -1.5476 O   0  0  0  0  0  1  0  0  0  0  0  0
   -0.8618    1.6708    1.5005 S   0  0  0  0  0  0  0  0  0  0  0  0
    0.7909    3.6382    1.3348 H   0  0  0  0  0  0  0  0  0  0  0  0
   -0.8169    3.0110    1.3962 H   0  0  0  0  0  0  0  0  0  0  0  0
  1  2  1  6  0  0  0
  1  3  1  0  0  0  0
  1  9  1  0  0  0  0
  1 12  1  0  0  0  0
  3  4  1  6  0  0  0
  3  5  1  0  0  0  0
  3  8  1  0  0  0  0
  5  6  2  0  0  0  0
  5  7  1  0  0  0  0
  8 13  1  0  0  0  0
  9 10  2  0  0  0  0
  9 11  1  0  0  0  0
 12 14  1  0  0  0  0
M  END
$$$$
