ZINC49918330
 OpenBabel08292219463D

 87 91  0  0  1  0  0  0  0  0999 V2000
    1.2323   -0.7929   -4.0193 C   0  0  0  0  0  0  0  0  0  0  0  0
    0.8787   -1.6187   -2.7808 C   0  0  0  0  0  0  0  0  0  0  0  0
   -0.5071   -2.2413   -2.9616 C   0  0  0  0  0  0  0  0  0  0  0  0
   -0.8608   -3.0671   -1.7231 C   0  0  0  0  0  0  0  0  0  0  0  0
   -2.2257   -3.6804   -1.9012 C   0  0  0  0  0  0  0  0  0  0  0  0
   -2.8515   -3.4778   -2.9147 O   0  0  0  0  0  0  0  0  0  0  0  0
   -2.7464   -4.4517   -0.9338 O   0  0  0  0  0  0  0  0  0  0  0  0
   -4.0445   -5.0004   -1.1698 C   0  0  0  0  0  0  0  0  0  0  0  0
   -4.4617   -5.8317    0.0160 C   0  0  0  0  0  0  0  0  0  0  0  0
   -3.7235   -5.9427    0.9652 O   0  0  0  0  0  0  0  0  0  0  0  0
   -5.8001   -6.5243    0.0172 C   0  0  2  0  0  0  0  0  0  0  0  0
   -6.2359   -6.7993    1.4547 C   0  0  0  0  0  0  0  0  0  0  0  0
   -5.3518   -7.8427    2.0882 C   0  0  0  0  0  0  0  0  0  0  0  0
   -4.5571   -8.6837    1.3505 C   0  0  0  0  0  0  0  0  0  0  0  0
   -3.7612   -9.6411    1.9932 C   0  0  0  0  0  0  0  0  0  0  0  0
   -3.7632   -9.7466    3.3824 C   0  0  0  0  0  0  0  0  0  0  0  0
   -4.5758   -8.8798    4.1406 C   0  0  0  0  0  0  0  0  0  0  0  0
   -5.3640   -7.9348    3.4862 C   0  0  0  0  0  0  0  0  0  0  0  0
   -6.1491   -7.0976    4.2085 O   0  0  0  0  0  0  0  0  0  0  0  0
   -4.5877   -8.9774    5.6103 C   0  0  0  0  0  0  0  0  0  0  0  0
   -5.2882   -8.2297    6.2649 O   0  0  0  0  0  0  0  0  0  0  0  0
   -3.7467   -9.9864    6.2875 C   0  0  0  0  0  0  0  0  0  0  0  0
   -3.7516  -10.0868    7.6749 C   0  0  0  0  0  0  0  0  0  0  0  0
   -2.9614  -11.0343    8.3047 C   0  0  0  0  0  0  0  0  0  0  0  0
   -2.1641  -11.8855    7.5669 C   0  0  0  0  0  0  0  0  0  0  0  0
   -2.1440  -11.8029    6.1781 C   0  0  0  0  0  0  0  0  0  0  0  0
   -2.9365  -10.8513    5.5287 C   0  0  0  0  0  0  0  0  0  0  0  0
   -2.9252  -10.7530    4.0580 C   0  0  0  0  0  0  0  0  0  0  0  0
   -2.2254  -11.5016    3.4030 O   0  0  0  0  0  0  0  0  0  0  0  0
   -1.3587  -12.6412    5.4574 O   0  0  0  0  0  0  0  0  0  0  0  0
   -0.5763  -13.5869    6.1893 C   0  0  0  0  0  0  0  0  0  0  0  0
   -2.9827  -10.4723    1.2568 O   0  0  0  0  0  0  0  0  0  0  0  0
   -4.4887   -8.6232   -0.1539 C   0  0  2  0  0  0  0  0  0  0  0  0
   -3.5711   -8.1157   -0.4516 H   0  0  0  0  0  0  0  0  0  0  0  0
   -5.6885   -7.8655   -0.7177 C   0  0  0  0  0  0  0  0  0  0  0  0
   -4.4831   -9.9523   -0.6788 O   0  0  0  0  0  0  0  0  0  0  0  0
   -3.6877  -10.1092   -1.8556 C   0  0  1  0  0  0  0  0  0  0  0  0
   -2.7007   -9.6783   -1.6873 H   0  0  0  0  0  0  0  0  0  0  0  0
   -3.5460  -11.5983   -2.1812 C   0  0  0  0  0  0  0  0  0  0  0  0
   -2.7434  -11.7556   -3.4764 C   0  0  2  0  0  0  0  0  0  0  0  0
   -1.7380  -11.3598   -3.3327 H   0  0  0  0  0  0  0  0  0  0  0  0
   -3.4444  -10.9798   -4.5959 C   0  0  1  0  0  0  0  0  0  0  0  0
   -4.4310  -11.4079   -4.7731 H   0  0  0  0  0  0  0  0  0  0  0  0
   -3.5900   -9.5146   -4.1769 C   0  0  1  0  0  0  0  0  0  0  0  0
   -4.1264   -8.9666   -4.9516 H   0  0  0  0  0  0  0  0  0  0  0  0
   -4.3189   -9.4413   -2.9500 O   0  0  0  0  0  0  0  0  0  0  0  0
   -2.2028   -8.8988   -3.9839 C   0  0  0  0  0  0  0  0  0  0  0  0
   -2.6669  -11.0607   -5.7922 O   0  0  0  0  0  0  0  0  0  0  0  0
   -2.6650  -13.1738   -3.8353 N   0  0  0  0  0  0  0  0  0  0  0  0
   -1.7047  -13.9526   -3.2988 C   0  0  0  0  0  0  0  0  0  0  0  0
   -0.9054  -13.4793   -2.5191 O   0  0  0  0  0  0  0  0  0  0  0  0
   -1.6242  -15.4115   -3.6680 C   0  0  0  0  0  0  0  0  0  0  0  0
   -0.5547  -16.0058   -2.9895 F   0  0  0  0  0  0  0  0  0  0  0  0
   -2.8163  -16.0497   -3.3095 F   0  0  0  0  0  0  0  0  0  0  0  0
   -1.4266  -15.5332   -5.0476 F   0  0  0  0  0  0  0  0  0  0  0  0
   -6.7699   -5.6991   -0.6313 O   0  0  0  0  0  0  0  0  0  0  0  0
    2.2196   -0.3493   -3.8905 H   0  0  0  0  0  0  0  0  0  0  0  0
    1.2358   -1.4385   -4.8976 H   0  0  0  0  0  0  0  0  0  0  0  0
    0.4935   -0.0026   -4.1522 H   0  0  0  0  0  0  0  0  0  0  0  0
    1.6176   -2.4089   -2.6479 H   0  0  0  0  0  0  0  0  0  0  0  0
    0.8752   -0.9731   -1.9025 H   0  0  0  0  0  0  0  0  0  0  0  0
   -1.2460   -1.4511   -3.0945 H   0  0  0  0  0  0  0  0  0  0  0  0
   -0.5036   -2.8869   -3.8399 H   0  0  0  0  0  0  0  0  0  0  0  0
   -0.1219   -3.8574   -1.5902 H   0  0  0  0  0  0  0  0  0  0  0  0
   -0.8643   -2.4215   -0.8448 H   0  0  0  0  0  0  0  0  0  0  0  0
   -4.7600   -4.1912   -1.3160 H   0  0  0  0  0  0  0  0  0  0  0  0
   -4.0176   -5.6270   -2.0613 H   0  0  0  0  0  0  0  0  0  0  0  0
   -6.1728   -5.8767    2.0317 H   0  0  0  0  0  0  0  0  0  0  0  0
   -7.2668   -7.1532    1.4559 H   0  0  0  0  0  0  0  0  0  0  0  0
   -7.0390   -7.4377    4.3738 H   0  0  0  0  0  0  0  0  0  0  0  0
   -4.3717   -9.4252    8.2615 H   0  0  0  0  0  0  0  0  0  0  0  0
   -2.9691  -11.1073    9.3822 H   0  0  0  0  0  0  0  0  0  0  0  0
   -1.5523  -12.6196    8.0702 H   0  0  0  0  0  0  0  0  0  0  0  0
    0.0996  -13.0571    6.8605 H   0  0  0  0  0  0  0  0  0  0  0  0
   -1.2356  -14.2309    6.7713 H   0  0  0  0  0  0  0  0  0  0  0  0
    0.0038  -14.1939    5.4942 H   0  0  0  0  0  0  0  0  0  0  0  0
   -2.0712  -10.1670    1.1515 H   0  0  0  0  0  0  0  0  0  0  0  0
   -6.5969   -8.4470   -0.5608 H   0  0  0  0  0  0  0  0  0  0  0  0
   -5.5439   -7.6893   -1.7836 H   0  0  0  0  0  0  0  0  0  0  0  0
   -3.0251  -12.1014   -1.3666 H   0  0  0  0  0  0  0  0  0  0  0  0
   -4.5347  -12.0388   -2.3096 H   0  0  0  0  0  0  0  0  0  0  0  0
   -1.6467   -8.9555   -4.9196 H   0  0  0  0  0  0  0  0  0  0  0  0
   -2.3067   -7.8555   -3.6856 H   0  0  0  0  0  0  0  0  0  0  0  0
   -1.6667   -9.4466   -3.2089 H   0  0  0  0  0  0  0  0  0  0  0  0
   -3.0523  -10.5906   -6.5442 H   0  0  0  0  0  0  0  0  0  0  0  0
   -3.3043  -13.5523   -4.4589 H   0  0  0  0  0  0  0  0  0  0  0  0
   -6.8965   -4.8371   -0.2117 H   0  0  0  0  0  0  0  0  0  0  0  0
  1  2  1  0  0  0  0
  1 57  1  0  0  0  0
  1 58  1  0  0  0  0
  1 59  1  0  0  0  0
  2  3  1  0  0  0  0
  2 60  1  0  0  0  0
  2 61  1  0  0  0  0
  3  4  1  0  0  0  0
  3 62  1  0  0  0  0
  3 63  1  0  0  0  0
  4  5  1  0  0  0  0
  4 64  1  0  0  0  0
  4 65  1  0  0  0  0
  5  6  2  0  0  0  0
  5  7  1  0  0  0  0
  7  8  1  0  0  0  0
  8  9  1  0  0  0  0
  8 66  1  0  0  0  0
  8 67  1  0  0  0  0
  9 10  2  0  0  0  0
 11  9  1  6  0  0  0
 11 35  1  0  0  0  0
 11 12  1  0  0  0  0
 11 56  1  0  0  0  0
 12 13  1  0  0  0  0
 12 68  1  0  0  0  0
 12 69  1  0  0  0  0
 13 18  2  0  0  0  0
 13 14  1  0  0  0  0
 14 15  2  0  0  0  0
 14 33  1  0  0  0  0
 15 16  1  0  0  0  0
 15 32  1  0  0  0  0
 16 28  1  0  0  0  0
 16 17  2  0  0  0  0
 17 18  1  0  0  0  0
 17 20  1  0  0  0  0
 18 19  1  0  0  0  0
 19 70  1  0  0  0  0
 20 21  2  0  0  0  0
 20 22  1  0  0  0  0
 22 27  2  0  0  0  0
 22 23  1  0  0  0  0
 23 24  2  0  0  0  0
 23 71  1  0  0  0  0
 24 25  1  0  0  0  0
 24 72  1  0  0  0  0
 25 26  2  0  0  0  0
 25 73  1  0  0  0  0
 26 27  1  0  0  0  0
 26 30  1  0  0  0  0
 27 28  1  0  0  0  0
 28 29  2  0  0  0  0
 30 31  1  0  0  0  0
 31 74  1  0  0  0  0
 31 75  1  0  0  0  0
 31 76  1  0  0  0  0
 32 77  1  0  0  0  0
 33 34  1  6  0  0  0
 33 35  1  0  0  0  0
 33 36  1  0  0  0  0
 35 78  1  0  0  0  0
 35 79  1  0  0  0  0
 36 37  1  0  0  0  0
 37 38  1  1  0  0  0
 37 46  1  0  0  0  0
 37 39  1  0  0  0  0
 39 40  1  0  0  0  0
 39 80  1  0  0  0  0
 39 81  1  0  0  0  0
 40 41  1  1  0  0  0
 40 42  1  0  0  0  0
 40 49  1  0  0  0  0
 42 43  1  6  0  0  0
 42 44  1  0  0  0  0
 42 48  1  0  0  0  0
 44 45  1  6  0  0  0
 44 46  1  0  0  0  0
 44 47  1  0  0  0  0
 47 82  1  0  0  0  0
 47 83  1  0  0  0  0
 47 84  1  0  0  0  0
 48 85  1  0  0  0  0
 49 50  1  0  0  0  0
 49 86  1  0  0  0  0
 50 51  2  0  0  0  0
 50 52  1  0  0  0  0
 52 53  1  0  0  0  0
 52 54  1  0  0  0  0
 52 55  1  0  0  0  0
 56 87  1  0  0  0  0
M  END
$$$$
