ZINC12503116
 OpenBabel08292219463D

 43 43  0  0  1  0  0  0  0  0999 V2000
   -4.1414    4.7859    0.3505 C   0  0  0  0  0  0  0  0  0  0  0  0
   -3.1218    3.9854   -0.4180 C   0  0  0  0  0  0  0  0  0  0  0  0
   -3.4332    3.4460   -1.4585 O   0  0  0  0  0  0  0  0  0  0  0  0
   -1.8636    3.8690    0.0512 N   0  0  0  0  0  0  0  0  0  0  0  0
   -0.8724    3.0908   -0.6959 C   0  0  2  0  0  0  0  0  0  0  0  0
   -1.0522    3.1969   -1.7658 H   0  0  0  0  0  0  0  0  0  0  0  0
   -0.9707    1.6140   -0.3056 C   0  0  2  0  0  0  0  0  0  0  0  0
   -1.0181    1.5313    0.7802 H   0  0  0  0  0  0  0  0  0  0  0  0
    0.2396    0.8778   -0.8125 C   0  0  0  0  0  0  0  0  0  0  0  0
    1.3445    1.5057   -1.1868 C   0  0  0  0  0  0  0  0  0  0  0  0
    1.4773    2.8537   -1.1474 O   0  0  0  0  0  0  0  0  0  0  0  0
    0.5391    3.5886   -0.3564 C   0  0  1  0  0  0  0  0  0  0  0  0
    0.7425    3.4242    0.7018 H   0  0  0  0  0  0  0  0  0  0  0  0
    0.6508    5.0803   -0.6772 C   0  0  1  0  0  0  0  0  0  0  0  0
   -0.0010    5.6451   -0.0109 H   0  0  0  0  0  0  0  0  0  0  0  0
    2.0981    5.5368   -0.4826 C   0  0  1  0  0  0  0  0  0  0  0  0
    2.7501    4.9719   -1.1490 H   0  0  0  0  0  0  0  0  0  0  0  0
    2.2099    7.0286   -0.8034 C   0  0  0  0  0  0  0  0  0  0  0  0
    3.5799    7.4292   -0.7348 O   0  0  0  0  0  0  0  0  0  0  0  0
    2.4908    5.3104    0.8726 O   0  0  0  0  0  0  0  0  0  0  0  0
    0.2583    5.3067   -2.0325 O   0  0  0  0  0  0  0  0  0  0  0  0
    2.4811    0.7013   -1.6686 C   0  0  0  0  0  0  0  0  0  0  0  0
    2.3917   -0.5097   -1.7159 O   0  0  0  0  0  0  0  0  0  0  0  0
   -3.2091    0.5912   -0.2152 C   0  0  0  0  0  0  0  0  0  0  0  0
   -3.2727    0.7955    1.1429 N   0  0  0  0  0  0  0  0  0  0  0  0
   -4.2259   -0.0737   -0.8587 N   0  0  0  0  0  0  0  0  0  0  0  0
   -4.1156    5.8232    0.0167 H   0  0  0  0  0  0  0  0  0  0  0  0
   -5.1347    4.3726    0.1756 H   0  0  0  0  0  0  0  0  0  0  0  0
   -3.9115    4.7409    1.4151 H   0  0  0  0  0  0  0  0  0  0  0  0
   -1.6145    4.3004    0.8835 H   0  0  0  0  0  0  0  0  0  0  0  0
    0.2048   -0.1997   -0.8778 H   0  0  0  0  0  0  0  0  0  0  0  0
    1.8270    7.2141   -1.8069 H   0  0  0  0  0  0  0  0  0  0  0  0
    1.6275    7.6003   -0.0809 H   0  0  0  0  0  0  0  0  0  0  0  0
    3.7260    8.3656   -0.9274 H   0  0  0  0  0  0  0  0  0  0  0  0
    1.9527    5.7831    1.5223 H   0  0  0  0  0  0  0  0  0  0  0  0
    0.7964    4.8340   -2.6821 H   0  0  0  0  0  0  0  0  0  0  0  0
   -2.6431    1.3950    1.5732 H   0  0  0  0  0  0  0  0  0  0  0  0
   -3.9472    0.3401    1.6708 H   0  0  0  0  0  0  0  0  0  0  0  0
   -4.1809   -0.2179   -1.8168 H   0  0  0  0  0  0  0  0  0  0  0  0
   -4.9882   -0.3987   -0.3545 H   0  0  0  0  0  0  0  0  0  0  0  0
    3.6199    1.3087   -2.0570 O   0  0  0  0  0  1  0  0  0  0  0  0
   -2.1868    1.0234   -0.9634 N   0  0  0  0  0  4  0  0  0  0  0  0
   -2.2332    0.9516   -1.9866 H   0  0  0  0  0  0  0  0  0  0  0  0
  1  2  1  0  0  0  0
  1 27  1  0  0  0  0
  1 28  1  0  0  0  0
  1 29  1  0  0  0  0
  2  3  2  0  0  0  0
  2  4  1  0  0  0  0
  4  5  1  0  0  0  0
  4 30  1  0  0  0  0
  5  6  1  6  0  0  0
  5 12  1  0  0  0  0
  5  7  1  0  0  0  0
  7  8  1  1  0  0  0
  7  9  1  0  0  0  0
  7 42  1  0  0  0  0
  9 10  2  0  0  0  0
  9 31  1  0  0  0  0
 10 11  1  0  0  0  0
 10 22  1  0  0  0  0
 11 12  1  0  0  0  0
 12 13  1  1  0  0  0
 12 14  1  0  0  0  0
 14 15  1  1  0  0  0
 14 16  1  0  0  0  0
 14 21  1  0  0  0  0
 16 17  1  6  0  0  0
 16 18  1  0  0  0  0
 16 20  1  0  0  0  0
 18 19  1  0  0  0  0
 18 32  1  0  0  0  0
 18 33  1  0  0  0  0
 19 34  1  0  0  0  0
 20 35  1  0  0  0  0
 21 36  1  0  0  0  0
 22 23  2  0  0  0  0
 22 41  1  0  0  0  0
 24 25  1  0  0  0  0
 24 26  1  0  0  0  0
 24 42  2  0  0  0  0
 25 37  1  0  0  0  0
 25 38  1  0  0  0  0
 26 39  1  0  0  0  0
 26 40  1  0  0  0  0
 42 43  1  0  0  0  0
M  END
$$$$
