ZINC19632670
 OpenBabel08292219463D

 58 61  0  0  1  0  0  0  0  0999 V2000
    0.2070    1.1419    0.0005 C   0  0  0  0  0  0  0  0  0  0  0  0
    0.0441   -0.3596   -0.2442 C   0  0  0  0  0  0  0  0  0  0  0  0
   -1.3738   -0.7176   -0.1568 N   0  0  0  0  0  0  0  0  0  0  0  0
   -2.0511   -1.1214    1.0810 C   0  0  0  0  0  0  0  0  0  0  0  0
   -3.3611   -1.8047    0.6299 C   0  0  1  0  0  0  0  0  0  0  0  0
   -4.1763   -1.5773    1.3168 H   0  0  0  0  0  0  0  0  0  0  0  0
   -3.6003   -1.1482   -0.7495 C   0  0  0  0  0  0  0  0  0  0  0  0
   -2.2229   -0.7128   -1.1988 C   0  0  0  0  0  0  0  0  0  0  0  0
   -1.9272   -0.4065   -2.3345 O   0  0  0  0  0  0  0  0  0  0  0  0
   -4.5076    0.0475   -0.6143 C   0  0  0  0  0  0  0  0  0  0  0  0
   -5.7201   -0.0752    0.0382 C   0  0  0  0  0  0  0  0  0  0  0  0
   -6.5524    1.0215    0.1622 C   0  0  0  0  0  0  0  0  0  0  0  0
   -6.1720    2.2410   -0.3659 C   0  0  0  0  0  0  0  0  0  0  0  0
   -4.9591    2.3640   -1.0176 C   0  0  0  0  0  0  0  0  0  0  0  0
   -4.1249    1.2682   -1.1379 C   0  0  0  0  0  0  0  0  0  0  0  0
   -4.1830   -2.1475   -1.7154 C   0  0  0  0  0  0  0  0  0  0  0  0
   -3.4407   -2.5733   -2.8010 C   0  0  0  0  0  0  0  0  0  0  0  0
   -3.9752   -3.4900   -3.6870 C   0  0  0  0  0  0  0  0  0  0  0  0
   -5.2517   -3.9812   -3.4870 C   0  0  0  0  0  0  0  0  0  0  0  0
   -5.9937   -3.5561   -2.4009 C   0  0  0  0  0  0  0  0  0  0  0  0
   -5.4576   -2.6427   -1.5125 C   0  0  0  0  0  0  0  0  0  0  0  0
   -3.1708   -3.3166    0.4920 C   0  0  0  0  0  0  0  0  0  0  0  0
   -2.8910   -3.9230    1.8685 C   0  0  0  0  0  0  0  0  0  0  0  0
   -2.7083   -5.3746    1.7361 N   0  0  0  0  0  0  0  0  0  0  0  0
   -3.9585   -6.0273    1.3211 C   0  0  0  0  0  0  0  0  0  0  0  0
   -3.7086   -7.5266    1.1378 C   0  0  0  0  0  0  0  0  0  0  0  0
   -3.1917   -8.0710    2.3551 O   0  0  0  0  0  0  0  0  0  0  0  0
   -1.9740   -7.4588    2.7882 C   0  0  0  0  0  0  0  0  0  0  0  0
   -2.2063   -5.9588    2.9883 C   0  0  0  0  0  0  0  0  0  0  0  0
    1.2619    1.4083   -0.0646 H   0  0  0  0  0  0  0  0  0  0  0  0
   -0.3546    1.6957   -0.7519 H   0  0  0  0  0  0  0  0  0  0  0  0
   -0.1703    1.3915    0.9922 H   0  0  0  0  0  0  0  0  0  0  0  0
    0.4214   -0.6091   -1.2359 H   0  0  0  0  0  0  0  0  0  0  0  0
    0.6057   -0.9133    0.5082 H   0  0  0  0  0  0  0  0  0  0  0  0
   -1.4315   -1.8243    1.6379 H   0  0  0  0  0  0  0  0  0  0  0  0
   -2.2731   -0.2467    1.6922 H   0  0  0  0  0  0  0  0  0  0  0  0
   -6.0173   -1.0280    0.4508 H   0  0  0  0  0  0  0  0  0  0  0  0
   -7.5000    0.9255    0.6714 H   0  0  0  0  0  0  0  0  0  0  0  0
   -6.8225    3.0977   -0.2696 H   0  0  0  0  0  0  0  0  0  0  0  0
   -4.6621    3.3167   -1.4305 H   0  0  0  0  0  0  0  0  0  0  0  0
   -3.1757    1.3652   -1.6438 H   0  0  0  0  0  0  0  0  0  0  0  0
   -2.4434   -2.1895   -2.9572 H   0  0  0  0  0  0  0  0  0  0  0  0
   -3.3955   -3.8222   -4.5355 H   0  0  0  0  0  0  0  0  0  0  0  0
   -5.6696   -4.6969   -4.1796 H   0  0  0  0  0  0  0  0  0  0  0  0
   -6.9912   -3.9397   -2.2449 H   0  0  0  0  0  0  0  0  0  0  0  0
   -6.0358   -2.3134   -0.6619 H   0  0  0  0  0  0  0  0  0  0  0  0
   -4.0755   -3.7603    0.0765 H   0  0  0  0  0  0  0  0  0  0  0  0
   -2.3296   -3.5178   -0.1715 H   0  0  0  0  0  0  0  0  0  0  0  0
   -1.9863   -3.4793    2.2840 H   0  0  0  0  0  0  0  0  0  0  0  0
   -3.7321   -3.7218    2.5319 H   0  0  0  0  0  0  0  0  0  0  0  0
   -4.7195   -5.8761    2.0867 H   0  0  0  0  0  0  0  0  0  0  0  0
   -4.2984   -5.5971    0.3791 H   0  0  0  0  0  0  0  0  0  0  0  0
   -4.6454   -8.0236    0.8857 H   0  0  0  0  0  0  0  0  0  0  0  0
   -2.9871   -7.6799    0.3352 H   0  0  0  0  0  0  0  0  0  0  0  0
   -1.6563   -7.9067    3.7298 H   0  0  0  0  0  0  0  0  0  0  0  0
   -1.2021   -7.6101    2.0337 H   0  0  0  0  0  0  0  0  0  0  0  0
   -1.2673   -5.4786    3.2633 H   0  0  0  0  0  0  0  0  0  0  0  0
   -2.9394   -5.8065    3.7805 H   0  0  0  0  0  0  0  0  0  0  0  0
  1  2  1  0  0  0  0
  1 30  1  0  0  0  0
  1 31  1  0  0  0  0
  1 32  1  0  0  0  0
  2  3  1  0  0  0  0
  2 33  1  0  0  0  0
  2 34  1  0  0  0  0
  3  8  1  0  0  0  0
  3  4  1  0  0  0  0
  4  5  1  0  0  0  0
  4 35  1  0  0  0  0
  4 36  1  0  0  0  0
  5  6  1  1  0  0  0
  5  7  1  0  0  0  0
  5 22  1  0  0  0  0
  7  8  1  0  0  0  0
  7 10  1  0  0  0  0
  7 16  1  0  0  0  0
  8  9  2  0  0  0  0
 10 15  2  0  0  0  0
 10 11  1  0  0  0  0
 11 12  2  0  0  0  0
 11 37  1  0  0  0  0
 12 13  1  0  0  0  0
 12 38  1  0  0  0  0
 13 14  2  0  0  0  0
 13 39  1  0  0  0  0
 14 15  1  0  0  0  0
 14 40  1  0  0  0  0
 15 41  1  0  0  0  0
 16 21  2  0  0  0  0
 16 17  1  0  0  0  0
 17 18  2  0  0  0  0
 17 42  1  0  0  0  0
 18 19  1  0  0  0  0
 18 43  1  0  0  0  0
 19 20  2  0  0  0  0
 19 44  1  0  0  0  0
 20 21  1  0  0  0  0
 20 45  1  0  0  0  0
 21 46  1  0  0  0  0
 22 23  1  0  0  0  0
 22 47  1  0  0  0  0
 22 48  1  0  0  0  0
 23 24  1  0  0  0  0
 23 49  1  0  0  0  0
 23 50  1  0  0  0  0
 24 29  1  0  0  0  0
 24 25  1  0  0  0  0
 25 26  1  0  0  0  0
 25 51  1  0  0  0  0
 25 52  1  0  0  0  0
 26 27  1  0  0  0  0
 26 53  1  0  0  0  0
 26 54  1  0  0  0  0
 27 28  1  0  0  0  0
 28 29  1  0  0  0  0
 28 55  1  0  0  0  0
 28 56  1  0  0  0  0
 29 57  1  0  0  0  0
 29 58  1  0  0  0  0
M  END
$$$$
