ZINC03875439
 OpenBabel08292219463D

 46 49  0  0  1  0  0  0  0  0999 V2000
   -0.0184    1.5028    0.0103 C   0  0  0  0  0  0  0  0  0  0  0  0
    0.0021   -0.0041    0.0020 C   0  0  0  0  0  0  0  0  0  0  0  0
   -1.0924   -0.8180    0.0026 C   0  0  0  0  0  0  0  0  0  0  0  0
   -0.5925   -2.2011   -0.0072 C   0  0  0  0  0  0  0  0  0  0  0  0
    0.7146   -2.1331   -0.0128 N   0  0  0  0  0  0  0  0  0  0  0  0
    1.0949   -0.7716   -0.0130 O   0  0  0  0  0  0  0  0  0  0  0  0
   -1.4127   -3.4369   -0.0101 C   0  0  0  0  0  0  0  0  0  0  0  0
   -2.6219   -3.4755    0.6819 C   0  0  0  0  0  0  0  0  0  0  0  0
   -3.3812   -4.6279    0.6753 C   0  0  0  0  0  0  0  0  0  0  0  0
   -2.9441   -5.7434   -0.0160 C   0  0  0  0  0  0  0  0  0  0  0  0
   -1.7446   -5.7110   -0.7042 C   0  0  0  0  0  0  0  0  0  0  0  0
   -0.9800   -4.5620   -0.7096 C   0  0  0  0  0  0  0  0  0  0  0  0
   -2.5027   -0.3937    0.0114 C   0  0  0  0  0  0  0  0  0  0  0  0
   -3.0900   -0.2132   -1.0382 O   0  0  0  0  0  0  0  0  0  0  0  0
   -3.1425   -0.2054    1.1826 N   0  0  0  0  0  0  0  0  0  0  0  0
   -4.5454    0.2166    1.1914 C   0  0  1  0  0  0  0  0  0  0  0  0
   -5.0759   -0.0699    0.2833 H   0  0  0  0  0  0  0  0  0  0  0  0
   -5.2839   -0.1653    2.4694 C   0  0  2  0  0  0  0  0  0  0  0  0
   -6.2863   -0.5764    2.3495 H   0  0  0  0  0  0  0  0  0  0  0  0
   -5.1702    1.2731    2.7903 N   0  0  0  0  0  0  0  0  0  0  0  0
   -4.7315    1.6675    1.5607 C   0  0  0  0  0  0  0  0  0  0  0  0
   -4.5628    2.7307    1.0019 O   0  0  0  0  0  0  0  0  0  0  0  0
   -4.3026    1.6081    3.9248 C   0  0  2  0  0  0  0  0  0  0  0  0
   -3.3043    1.8386    3.5530 H   0  0  0  0  0  0  0  0  0  0  0  0
   -4.2070    0.4371    4.9417 C   0  0  0  0  0  0  0  0  0  0  0  0
   -4.2355   -0.9896    3.7345 S   0  0  0  0  0  0  0  0  0  0  0  0
   -5.4189    0.4020    5.8748 C   0  0  0  0  0  0  0  0  0  0  0  0
   -2.8966    0.4824    5.7301 C   0  0  0  0  0  0  0  0  0  0  0  0
   -4.8573    2.8211    4.6263 C   0  0  0  0  0  0  0  0  0  0  0  0
   -5.9532    3.2565    4.3166 O   0  0  0  0  0  0  0  0  0  0  0  0
   -4.2102    3.3670    5.5037 O   0  0  0  0  0  1  0  0  0  0  0  0
    1.0042    1.8801    0.0026 H   0  0  0  0  0  0  0  0  0  0  0  0
   -0.5455    1.8639   -0.8728 H   0  0  0  0  0  0  0  0  0  0  0  0
   -0.5286    1.8543    0.9071 H   0  0  0  0  0  0  0  0  0  0  0  0
   -2.9638   -2.6054    1.2226 H   0  0  0  0  0  0  0  0  0  0  0  0
   -4.3184   -4.6589    1.2113 H   0  0  0  0  0  0  0  0  0  0  0  0
   -3.5413   -6.6432   -0.0181 H   0  0  0  0  0  0  0  0  0  0  0  0
   -1.4078   -6.5851   -1.2417 H   0  0  0  0  0  0  0  0  0  0  0  0
   -0.0460   -4.5362   -1.2513 H   0  0  0  0  0  0  0  0  0  0  0  0
   -2.6741   -0.3494    2.0198 H   0  0  0  0  0  0  0  0  0  0  0  0
   -6.3272    0.2733    5.2861 H   0  0  0  0  0  0  0  0  0  0  0  0
   -5.3169   -0.4298    6.5718 H   0  0  0  0  0  0  0  0  0  0  0  0
   -5.4762    1.3374    6.4314 H   0  0  0  0  0  0  0  0  0  0  0  0
   -2.8356    1.4216    6.2799 H   0  0  0  0  0  0  0  0  0  0  0  0
   -2.8653   -0.3517    6.4311 H   0  0  0  0  0  0  0  0  0  0  0  0
   -2.0552    0.4095    5.0410 H   0  0  0  0  0  0  0  0  0  0  0  0
  1  2  1  0  0  0  0
  1 32  1  0  0  0  0
  1 33  1  0  0  0  0
  1 34  1  0  0  0  0
  2  6  1  0  0  0  0
  2  3  2  0  0  0  0
  3  4  1  0  0  0  0
  3 13  1  0  0  0  0
  4  5  2  0  0  0  0
  4  7  1  0  0  0  0
  5  6  1  0  0  0  0
  7 12  2  0  0  0  0
  7  8  1  0  0  0  0
  8  9  2  0  0  0  0
  8 35  1  0  0  0  0
  9 10  1  0  0  0  0
  9 36  1  0  0  0  0
 10 11  2  0  0  0  0
 10 37  1  0  0  0  0
 11 12  1  0  0  0  0
 11 38  1  0  0  0  0
 12 39  1  0  0  0  0
 13 14  2  0  0  0  0
 13 15  1  0  0  0  0
 15 16  1  0  0  0  0
 15 40  1  0  0  0  0
 16 17  1  6  0  0  0
 16 21  1  0  0  0  0
 16 18  1  0  0  0  0
 18 19  1  6  0  0  0
 18 26  1  0  0  0  0
 18 20  1  0  0  0  0
 20 21  1  0  0  0  0
 20 23  1  0  0  0  0
 21 22  2  0  0  0  0
 23 24  1  6  0  0  0
 23 25  1  0  0  0  0
 23 29  1  0  0  0  0
 25 26  1  0  0  0  0
 25 27  1  0  0  0  0
 25 28  1  0  0  0  0
 27 41  1  0  0  0  0
 27 42  1  0  0  0  0
 27 43  1  0  0  0  0
 28 44  1  0  0  0  0
 28 45  1  0  0  0  0
 28 46  1  0  0  0  0
 29 30  2  0  0  0  0
 29 31  1  0  0  0  0
M  END
$$$$
