ZINC22010382
 OpenBabel08292219463D

 31 32  0  0  1  0  0  0  0  0999 V2000
    0.6968    3.5695    1.3298 C   0  0  0  0  0  0  0  0  0  0  0  0
   -0.7329    3.0286    1.2626 C   0  0  2  0  0  0  0  0  0  0  0  0
   -1.2317    3.3763    0.3459 H   0  0  0  0  0  0  0  0  0  0  0  0
   -1.5082    3.4779    2.5039 C   0  0  1  0  0  0  0  0  0  0  0  0
   -2.5475    3.1177    2.4896 H   0  0  0  0  0  0  0  0  0  0  0  0
   -0.9014    2.9130    3.6692 O   0  0  0  0  0  0  0  0  0  0  0  0
   -0.8535    1.4837    3.6581 C   0  0  0  0  0  0  0  0  0  0  0  0
   -0.0715    1.0143    2.4285 C   0  0  0  0  0  0  0  0  0  0  0  0
   -0.7003    1.5596    1.2166 N   0  0  0  0  0  0  0  0  0  0  0  0
   -0.0127    1.0858    0.0080 C   0  0  0  0  0  0  0  0  0  0  0  0
   -1.4778    4.9816    2.5994 C   0  0  0  0  0  0  0  0  0  0  0  0
   -0.3625    5.6193    3.1095 C   0  0  0  0  0  0  0  0  0  0  0  0
   -0.3327    6.9988    3.1926 C   0  0  0  0  0  0  0  0  0  0  0  0
   -1.4221    7.7401    2.7748 C   0  0  0  0  0  0  0  0  0  0  0  0
   -2.5396    7.1021    2.2699 C   0  0  0  0  0  0  0  0  0  0  0  0
   -2.5674    5.7228    2.1820 C   0  0  0  0  0  0  0  0  0  0  0  0
    0.6717    4.6687    1.3642 H   0  0  0  0  0  0  0  0  0  0  0  0
    1.2545    3.2431    0.4396 H   0  0  0  0  0  0  0  0  0  0  0  0
    1.1920    3.1855    2.2339 H   0  0  0  0  0  0  0  0  0  0  0  0
   -0.3543    1.1265    4.5709 H   0  0  0  0  0  0  0  0  0  0  0  0
   -1.8771    1.0828    3.6191 H   0  0  0  0  0  0  0  0  0  0  0  0
    0.9672    1.3700    2.4968 H   0  0  0  0  0  0  0  0  0  0  0  0
   -0.0806   -0.0848    2.3858 H   0  0  0  0  0  0  0  0  0  0  0  0
   -0.0028   -0.0141   -0.0008 H   0  0  0  0  0  0  0  0  0  0  0  0
    1.0210    1.4618    0.0030 H   0  0  0  0  0  0  0  0  0  0  0  0
   -0.5415    1.4549   -0.8832 H   0  0  0  0  0  0  0  0  0  0  0  0
    0.4870    5.0399    3.4397 H   0  0  0  0  0  0  0  0  0  0  0  0
    0.5403    7.4973    3.5874 H   0  0  0  0  0  0  0  0  0  0  0  0
   -1.4003    8.8177    2.8431 H   0  0  0  0  0  0  0  0  0  0  0  0
   -3.3909    7.6812    1.9438 H   0  0  0  0  0  0  0  0  0  0  0  0
   -3.4405    5.2243    1.7875 H   0  0  0  0  0  0  0  0  0  0  0  0
  1  2  1  0  0  0  0
  1 17  1  0  0  0  0
  1 18  1  0  0  0  0
  1 19  1  0  0  0  0
  2  3  1  6  0  0  0
  2  9  1  0  0  0  0
  2  4  1  0  0  0  0
  4  5  1  6  0  0  0
  4  6  1  0  0  0  0
  4 11  1  0  0  0  0
  6  7  1  0  0  0  0
  7  8  1  0  0  0  0
  7 20  1  0  0  0  0
  7 21  1  0  0  0  0
  8  9  1  0  0  0  0
  8 22  1  0  0  0  0
  8 23  1  0  0  0  0
  9 10  1  0  0  0  0
 10 24  1  0  0  0  0
 10 25  1  0  0  0  0
 10 26  1  0  0  0  0
 11 16  2  0  0  0  0
 11 12  1  0  0  0  0
 12 13  2  0  0  0  0
 12 27  1  0  0  0  0
 13 14  1  0  0  0  0
 13 28  1  0  0  0  0
 14 15  2  0  0  0  0
 14 29  1  0  0  0  0
 15 16  1  0  0  0  0
 15 30  1  0  0  0  0
 16 31  1  0  0  0  0
M  END
$$$$
