ZINC03830611
 OpenBabel08292219463D

 44 45  0  0  1  0  0  0  0  0999 V2000
   -0.9442    4.5155    6.8048 C   0  0  0  0  0  0  0  0  0  0  0  0
   -0.2558    5.5813    5.9498 C   0  0  2  0  0  0  0  0  0  0  0  0
   -0.8730    6.4793    5.9222 H   0  0  0  0  0  0  0  0  0  0  0  0
   -0.0652    5.0495    4.5279 C   0  0  0  0  0  0  0  0  0  0  0  0
    0.6232    6.1153    3.6728 C   0  0  1  0  0  0  0  0  0  0  0  0
    0.0060    7.0133    3.6452 H   0  0  0  0  0  0  0  0  0  0  0  0
    1.9872    6.4523    4.2784 C   0  0  0  0  0  0  0  0  0  0  0  0
    1.7966    6.9841    5.7003 C   0  0  0  0  0  0  0  0  0  0  0  0
    1.1082    5.9183    6.5554 C   0  0  0  0  0  0  0  0  0  0  0  0
    3.1606    7.3211    6.3059 C   0  0  0  0  0  0  0  0  0  0  0  0
    0.9303    8.2446    5.6616 C   0  0  0  0  0  0  0  0  0  0  0  0
    0.8041    5.6107    2.3234 O   0  0  0  0  0  0  0  0  0  0  0  0
   -0.1876    5.8409    1.4486 C   0  0  0  0  0  0  0  0  0  0  0  0
   -1.1742    6.4442    1.7988 O   0  0  0  0  0  0  0  0  0  0  0  0
   -0.0705    5.3471    0.0297 C   0  0  1  0  0  0  0  0  0  0  0  0
    0.8517    5.7251   -0.4117 H   0  0  0  0  0  0  0  0  0  0  0  0
   -0.0501    3.8402    0.0223 C   0  0  0  0  0  0  0  0  0  0  0  0
    1.1563    3.1654    0.0076 C   0  0  0  0  0  0  0  0  0  0  0  0
    1.1750    1.7832    0.0004 C   0  0  0  0  0  0  0  0  0  0  0  0
   -0.0126    1.0758    0.0080 C   0  0  0  0  0  0  0  0  0  0  0  0
   -1.2190    1.7506    0.0173 C   0  0  0  0  0  0  0  0  0  0  0  0
   -1.2377    3.1328    0.0299 C   0  0  0  0  0  0  0  0  0  0  0  0
   -1.1878    5.8120   -0.7303 O   0  0  0  0  0  0  0  0  0  0  0  0
   -1.0800    4.8943    7.8178 H   0  0  0  0  0  0  0  0  0  0  0  0
   -1.9160    4.2754    6.3734 H   0  0  0  0  0  0  0  0  0  0  0  0
   -0.3271    3.6174    6.8325 H   0  0  0  0  0  0  0  0  0  0  0  0
   -1.0370    4.8094    4.0964 H   0  0  0  0  0  0  0  0  0  0  0  0
    0.5519    4.1515    4.5555 H   0  0  0  0  0  0  0  0  0  0  0  0
    2.6043    5.5543    4.3061 H   0  0  0  0  0  0  0  0  0  0  0  0
    2.4776    7.2116    3.6693 H   0  0  0  0  0  0  0  0  0  0  0  0
    1.7253    5.0202    6.5830 H   0  0  0  0  0  0  0  0  0  0  0  0
    0.9724    6.2971    7.5684 H   0  0  0  0  0  0  0  0  0  0  0  0
    3.6510    8.0803    5.6968 H   0  0  0  0  0  0  0  0  0  0  0  0
    3.0248    7.6999    7.3189 H   0  0  0  0  0  0  0  0  0  0  0  0
    3.7777    6.4230    6.3336 H   0  0  0  0  0  0  0  0  0  0  0  0
   -0.0415    8.0045    5.2301 H   0  0  0  0  0  0  0  0  0  0  0  0
    0.7945    8.6234    6.6746 H   0  0  0  0  0  0  0  0  0  0  0  0
    1.4207    9.0039    5.0524 H   0  0  0  0  0  0  0  0  0  0  0  0
    2.0841    3.7181    0.0014 H   0  0  0  0  0  0  0  0  0  0  0  0
    2.1175    1.2560   -0.0115 H   0  0  0  0  0  0  0  0  0  0  0  0
    0.0021   -0.0041    0.0020 H   0  0  0  0  0  0  0  0  0  0  0  0
   -2.1469    1.1980    0.0188 H   0  0  0  0  0  0  0  0  0  0  0  0
   -2.1802    3.6600    0.0410 H   0  0  0  0  0  0  0  0  0  0  0  0
   -2.0439    5.5134   -0.3939 H   0  0  0  0  0  0  0  0  0  0  0  0
  1  2  1  0  0  0  0
  1 24  1  0  0  0  0
  1 25  1  0  0  0  0
  1 26  1  0  0  0  0
  2  3  1  6  0  0  0
  2  9  1  0  0  0  0
  2  4  1  0  0  0  0
  4  5  1  0  0  0  0
  4 27  1  0  0  0  0
  4 28  1  0  0  0  0
  5  6  1  6  0  0  0
  5  7  1  0  0  0  0
  5 12  1  0  0  0  0
  7  8  1  0  0  0  0
  7 29  1  0  0  0  0
  7 30  1  0  0  0  0
  8  9  1  0  0  0  0
  8 10  1  0  0  0  0
  8 11  1  0  0  0  0
  9 31  1  0  0  0  0
  9 32  1  0  0  0  0
 10 33  1  0  0  0  0
 10 34  1  0  0  0  0
 10 35  1  0  0  0  0
 11 36  1  0  0  0  0
 11 37  1  0  0  0  0
 11 38  1  0  0  0  0
 12 13  1  0  0  0  0
 13 14  2  0  0  0  0
 13 15  1  0  0  0  0
 15 16  1  6  0  0  0
 15 17  1  0  0  0  0
 15 23  1  0  0  0  0
 17 22  2  0  0  0  0
 17 18  1  0  0  0  0
 18 19  2  0  0  0  0
 18 39  1  0  0  0  0
 19 20  1  0  0  0  0
 19 40  1  0  0  0  0
 20 21  2  0  0  0  0
 20 41  1  0  0  0  0
 21 22  1  0  0  0  0
 21 42  1  0  0  0  0
 22 43  1  0  0  0  0
 23 44  1  0  0  0  0
M  END
$$$$
