ZINC12503137
 OpenBabel08292219463D

 54 58  0  0  1  0  0  0  0  0999 V2000
   -4.1901    2.3997   -4.8079 C   0  0  0  0  0  0  0  0  0  0  0  0
   -2.8173    2.2763   -4.7998 C   0  0  0  0  0  0  0  0  0  0  0  0
   -2.1491    1.8625   -3.6531 C   0  0  0  0  0  0  0  0  0  0  0  0
   -2.8738    1.5623   -2.5194 C   0  0  0  0  0  0  0  0  0  0  0  0
   -4.2533    1.6893   -2.5210 C   0  0  0  0  0  0  0  0  0  0  0  0
   -4.9168    2.1085   -3.6628 C   0  0  0  0  0  0  0  0  0  0  0  0
   -6.2700    2.2340   -3.6607 O   0  0  0  0  0  0  0  0  0  0  0  0
   -2.2008    1.0899   -1.2575 C   0  0  2  0  0  0  0  0  0  0  0  0
   -2.9449    1.5853   -0.0230 C   0  0  0  0  0  0  0  0  0  0  0  0
   -2.2464    1.0590    1.2342 C   0  0  0  0  0  0  0  0  0  0  0  0
   -0.7964    1.5488    1.2633 C   0  0  0  0  0  0  0  0  0  0  0  0
   -0.0585    1.0518    0.0173 C   0  0  0  0  0  0  0  0  0  0  0  0
   -0.7557    1.5948   -1.2303 C   0  0  1  0  0  0  0  0  0  0  0  0
   -0.0580    1.0896   -2.4916 C   0  0  2  0  0  0  0  0  0  0  0  0
    0.9934    1.3696   -2.4267 H   0  0  0  0  0  0  0  0  0  0  0  0
   -0.6482    1.7738   -3.7132 C   0  0  0  0  0  0  0  0  0  0  0  0
   -1.4808   -0.8908   -2.5648 C   0  0  0  0  0  0  0  0  0  0  0  0
   -2.1771   -0.4453   -1.2734 C   0  0  0  0  0  0  0  0  0  0  0  0
    0.6146   -0.8399   -3.7725 C   0  0  0  0  0  0  0  0  0  0  0  0
    0.4668   -2.3586   -3.8849 C   0  0  0  0  0  0  0  0  0  0  0  0
    1.4687   -3.1408   -3.0194 C   0  0  0  0  0  0  0  0  0  0  0  0
    1.6011   -4.1206   -4.1973 C   0  0  0  0  0  0  0  0  0  0  0  0
    1.1775   -2.9577   -5.1100 C   0  0  0  0  0  0  0  0  0  0  0  0
   -0.7466    3.0235   -1.2019 O   0  0  0  0  0  0  0  0  0  0  0  0
   -4.6990    2.7228   -5.7040 H   0  0  0  0  0  0  0  0  0  0  0  0
   -2.2550    2.5030   -5.6935 H   0  0  0  0  0  0  0  0  0  0  0  0
   -4.8148    1.4597   -1.6274 H   0  0  0  0  0  0  0  0  0  0  0  0
   -6.7398    1.4306   -3.9233 H   0  0  0  0  0  0  0  0  0  0  0  0
   -2.9438    2.6752   -0.0105 H   0  0  0  0  0  0  0  0  0  0  0  0
   -3.9724    1.2222   -0.0473 H   0  0  0  0  0  0  0  0  0  0  0  0
   -2.7694    1.4225    2.1188 H   0  0  0  0  0  0  0  0  0  0  0  0
   -2.2599   -0.0309    1.2272 H   0  0  0  0  0  0  0  0  0  0  0  0
   -0.3005    1.1655    2.1551 H   0  0  0  0  0  0  0  0  0  0  0  0
   -0.7826    2.6385    1.2821 H   0  0  0  0  0  0  0  0  0  0  0  0
   -0.0716   -0.0380   -0.0033 H   0  0  0  0  0  0  0  0  0  0  0  0
    0.9730    1.4033    0.0403 H   0  0  0  0  0  0  0  0  0  0  0  0
   -0.3632    1.2134   -4.6036 H   0  0  0  0  0  0  0  0  0  0  0  0
   -0.2378    2.7810   -3.7844 H   0  0  0  0  0  0  0  0  0  0  0  0
   -2.0320   -0.5102   -3.4248 H   0  0  0  0  0  0  0  0  0  0  0  0
   -1.4514   -1.9797   -2.6050 H   0  0  0  0  0  0  0  0  0  0  0  0
   -1.6241   -0.8148   -0.4097 H   0  0  0  0  0  0  0  0  0  0  0  0
   -3.1966   -0.8304   -1.2520 H   0  0  0  0  0  0  0  0  0  0  0  0
    0.2044   -0.3679   -4.6653 H   0  0  0  0  0  0  0  0  0  0  0  0
    1.6698   -0.5836   -3.6782 H   0  0  0  0  0  0  0  0  0  0  0  0
   -0.5644   -2.6931   -3.7716 H   0  0  0  0  0  0  0  0  0  0  0  0
    2.3843   -2.5894   -2.8052 H   0  0  0  0  0  0  0  0  0  0  0  0
    1.0231   -3.5855   -2.1296 H   0  0  0  0  0  0  0  0  0  0  0  0
    0.8805   -4.9379   -4.1685 H   0  0  0  0  0  0  0  0  0  0  0  0
    2.6221   -4.4611   -4.3694 H   0  0  0  0  0  0  0  0  0  0  0  0
    0.4968   -3.2545   -5.9079 H   0  0  0  0  0  0  0  0  0  0  0  0
    2.0134   -2.3563   -5.4673 H   0  0  0  0  0  0  0  0  0  0  0  0
    0.1392    3.4108   -1.1805 H   0  0  0  0  0  0  0  0  0  0  0  0
   -0.0857   -0.3873   -2.5622 N   0  3  1  0  0  0  0  0  0  0  0  0
    0.3976   -0.7649   -1.7388 H   0  0  0  0  0  0  0  0  0  0  0  0
  1  6  2  0  0  0  0
  1  2  1  0  0  0  0
  1 25  1  0  0  0  0
  2  3  2  0  0  0  0
  2 26  1  0  0  0  0
  3 16  1  0  0  0  0
  3  4  1  0  0  0  0
  4  5  2  0  0  0  0
  5  6  1  0  0  0  0
  5 27  1  0  0  0  0
  6  7  1  0  0  0  0
  7 28  1  0  0  0  0
  8  4  1  6  0  0  0
  8 13  1  0  0  0  0
  8 18  1  0  0  0  0
  8  9  1  0  0  0  0
  9 10  1  0  0  0  0
  9 29  1  0  0  0  0
  9 30  1  0  0  0  0
 10 11  1  0  0  0  0
 10 31  1  0  0  0  0
 10 32  1  0  0  0  0
 11 12  1  0  0  0  0
 11 33  1  0  0  0  0
 11 34  1  0  0  0  0
 12 13  1  0  0  0  0
 12 35  1  0  0  0  0
 12 36  1  0  0  0  0
 13 14  1  0  0  0  0
 13 24  1  1  0  0  0
 14 15  1  1  0  0  0
 14 16  1  0  0  0  0
 14 53  1  0  0  0  0
 16 37  1  0  0  0  0
 16 38  1  0  0  0  0
 17 18  1  0  0  0  0
 17 39  1  0  0  0  0
 17 40  1  0  0  0  0
 17 53  1  0  0  0  0
 18 41  1  0  0  0  0
 18 42  1  0  0  0  0
 19 20  1  0  0  0  0
 19 43  1  0  0  0  0
 19 44  1  0  0  0  0
 19 53  1  0  0  0  0
 20 23  1  0  0  0  0
 20 21  1  0  0  0  0
 20 45  1  0  0  0  0
 21 22  1  0  0  0  0
 21 46  1  0  0  0  0
 21 47  1  0  0  0  0
 22 23  1  0  0  0  0
 22 48  1  0  0  0  0
 22 49  1  0  0  0  0
 23 50  1  0  0  0  0
 23 51  1  0  0  0  0
 24 52  1  0  0  0  0
 53 54  1  1  0  0  0
M  CHG  1  53   1
M  END
$$$$
