ZINC03995807
 OpenBabel08292219463D

 88 91  0  0  1  0  0  0  0  0999 V2000
  -11.2192    4.5057   -6.2176 C   0  0  0  0  0  0  0  0  0  0  0  0
  -11.8357    4.6448   -7.6061 C   0  0  2  0  0  0  0  0  0  0  0  0
  -13.2832    4.1930   -7.5935 C   0  0  0  0  0  0  0  0  0  0  0  0
  -13.3294    2.6727   -7.4180 C   0  0  0  0  0  0  0  0  0  0  0  0
  -12.5660    1.9578   -8.5323 C   0  0  2  0  0  0  0  0  0  0  0  0
  -13.0142    2.2372   -9.4911 H   0  0  0  0  0  0  0  0  0  0  0  0
  -12.7107    0.4734   -8.3431 C   0  0  0  0  0  0  0  0  0  0  0  0
  -13.9588   -0.0892   -8.5875 C   0  0  0  0  0  0  0  0  0  0  0  0
  -14.1642   -1.4422   -8.4248 C   0  0  0  0  0  0  0  0  0  0  0  0
  -13.1156   -2.2529   -8.0150 C   0  0  0  0  0  0  0  0  0  0  0  0
  -11.8720   -1.6938   -7.7758 C   0  0  0  0  0  0  0  0  0  0  0  0
  -11.6699   -0.3305   -7.9405 C   0  0  0  0  0  0  0  0  0  0  0  0
  -10.2988    0.2175   -7.6650 C   0  0  0  0  0  0  0  0  0  0  0  0
  -10.3548    1.7345   -7.4059 C   0  0  2  0  0  0  0  0  0  0  0  0
  -10.8729    1.8953   -6.4610 H   0  0  0  0  0  0  0  0  0  0  0  0
  -11.0888    2.3911   -8.5555 C   0  0  2  0  0  0  0  0  0  0  0  0
  -10.6643    1.9675   -9.4950 H   0  0  0  0  0  0  0  0  0  0  0  0
  -11.0668    3.8753   -8.6944 C   0  0  2  0  0  0  0  0  0  0  0  0
  -11.6185    4.0845   -9.6593 H   0  0  0  0  0  0  0  0  0  0  0  0
   -9.7698    4.6685   -8.8114 C   0  0  0  0  0  0  0  0  0  0  0  0
  -10.2910    6.1397   -8.7982 C   0  0  0  0  0  0  0  0  0  0  0  0
  -11.6521    6.1048   -8.0640 C   0  0  2  0  0  0  0  0  0  0  0  0
  -12.4595    6.3765   -8.7398 H   0  0  0  0  0  0  0  0  0  0  0  0
  -11.6341    6.9669   -6.9268 O   0  0  0  0  0  0  0  0  0  0  0  0
   -8.9007    2.1994   -7.2871 C   0  0  0  0  0  0  0  0  0  0  0  0
   -8.2470    1.5257   -6.0789 C   0  0  0  0  0  0  0  0  0  0  0  0
   -6.7940    1.9902   -5.9601 C   0  0  0  0  0  0  0  0  0  0  0  0
   -6.1403    1.3165   -4.7520 C   0  0  0  0  0  0  0  0  0  0  0  0
   -4.6874    1.7810   -4.6332 C   0  0  0  0  0  0  0  0  0  0  0  0
   -4.0337    1.1073   -3.4251 C   0  0  0  0  0  0  0  0  0  0  0  0
   -2.5807    1.5719   -3.3063 C   0  0  0  0  0  0  0  0  0  0  0  0
   -1.9270    0.8982   -2.0982 C   0  0  0  0  0  0  0  0  0  0  0  0
   -0.4741    1.3627   -1.9794 C   0  0  0  0  0  0  0  0  0  0  0  0
    0.3010    0.5639   -0.5470 S   0  0  1  0  0  0  0  0  0  0  0  0
    0.3314   -0.8425   -0.7479 O   0  0  0  0  0  0  0  0  0  0  0  0
    1.9954    1.2115   -0.5470 C   0  0  0  0  0  0  0  0  0  0  0  0
    2.7711    0.6106    0.6270 C   0  0  0  0  0  0  0  0  0  0  0  0
    4.2003    1.1568    0.6270 C   0  0  0  0  0  0  0  0  0  0  0  0
    4.9759    0.5558    1.8009 C   0  0  0  0  0  0  0  0  0  0  0  0
    6.4051    1.1020    1.8009 C   0  0  0  0  0  0  0  0  0  0  0  0
    6.3720    2.4948    1.9280 F   0  0  0  0  0  0  0  0  0  0  0  0
    7.1143    0.5525    2.8744 F   0  0  0  0  0  0  0  0  0  0  0  0
    7.0357    0.7581    0.6004 F   0  0  0  0  0  0  0  0  0  0  0  0
    4.3452    0.8998    3.0014 F   0  0  0  0  0  0  0  0  0  0  0  0
    5.0089   -0.8370    1.6739 F   0  0  0  0  0  0  0  0  0  0  0  0
  -13.3076   -3.5880   -7.8487 O   0  0  0  0  0  0  0  0  0  0  0  0
  -10.1995    4.8904   -6.2326 H   0  0  0  0  0  0  0  0  0  0  0  0
  -11.8109    5.0728   -5.4989 H   0  0  0  0  0  0  0  0  0  0  0  0
  -11.2069    3.4547   -5.9292 H   0  0  0  0  0  0  0  0  0  0  0  0
  -13.8102    4.6775   -6.7670 H   0  0  0  0  0  0  0  0  0  0  0  0
  -13.7632    4.4735   -8.5345 H   0  0  0  0  0  0  0  0  0  0  0  0
  -12.9112    2.3910   -6.4557 H   0  0  0  0  0  0  0  0  0  0  0  0
  -14.3730    2.3467   -7.4493 H   0  0  0  0  0  0  0  0  0  0  0  0
  -14.7748    0.5415   -8.9082 H   0  0  0  0  0  0  0  0  0  0  0  0
  -15.1381   -1.8703   -8.6139 H   0  0  0  0  0  0  0  0  0  0  0  0
  -11.0534   -2.3235   -7.4591 H   0  0  0  0  0  0  0  0  0  0  0  0
   -9.6535    0.0374   -8.5240 H   0  0  0  0  0  0  0  0  0  0  0  0
   -9.8786   -0.2692   -6.7865 H   0  0  0  0  0  0  0  0  0  0  0  0
   -9.0934    4.5338   -7.9768 H   0  0  0  0  0  0  0  0  0  0  0  0
   -9.2674    4.4602   -9.7573 H   0  0  0  0  0  0  0  0  0  0  0  0
  -10.4161    6.4974   -9.8181 H   0  0  0  0  0  0  0  0  0  0  0  0
   -9.5868    6.7716   -8.2567 H   0  0  0  0  0  0  0  0  0  0  0  0
  -11.5213    7.9024   -7.1443 H   0  0  0  0  0  0  0  0  0  0  0  0
   -8.8746    3.2814   -7.1580 H   0  0  0  0  0  0  0  0  0  0  0  0
   -8.3574    1.9282   -8.1923 H   0  0  0  0  0  0  0  0  0  0  0  0
   -8.2731    0.4437   -6.2079 H   0  0  0  0  0  0  0  0  0  0  0  0
   -8.7902    1.7968   -5.1736 H   0  0  0  0  0  0  0  0  0  0  0  0
   -6.7679    3.0722   -5.8311 H   0  0  0  0  0  0  0  0  0  0  0  0
   -6.2508    1.7191   -6.8654 H   0  0  0  0  0  0  0  0  0  0  0  0
   -6.1665    0.2345   -4.8810 H   0  0  0  0  0  0  0  0  0  0  0  0
   -6.6836    1.5877   -3.8467 H   0  0  0  0  0  0  0  0  0  0  0  0
   -4.6613    2.8630   -4.5042 H   0  0  0  0  0  0  0  0  0  0  0  0
   -4.1441    1.5099   -5.5385 H   0  0  0  0  0  0  0  0  0  0  0  0
   -4.0598    0.0253   -3.5541 H   0  0  0  0  0  0  0  0  0  0  0  0
   -4.5769    1.3785   -2.5198 H   0  0  0  0  0  0  0  0  0  0  0  0
   -2.5546    2.6539   -3.1773 H   0  0  0  0  0  0  0  0  0  0  0  0
   -2.0375    1.3007   -4.2116 H   0  0  0  0  0  0  0  0  0  0  0  0
   -1.9532   -0.1838   -2.2272 H   0  0  0  0  0  0  0  0  0  0  0  0
   -2.4703    1.1693   -1.1929 H   0  0  0  0  0  0  0  0  0  0  0  0
   -0.4480    2.4447   -1.8504 H   0  0  0  0  0  0  0  0  0  0  0  0
    0.0692    1.0915   -2.8847 H   0  0  0  0  0  0  0  0  0  0  0  0
    2.4868    0.9435   -1.4823 H   0  0  0  0  0  0  0  0  0  0  0  0
    1.9697    2.2967   -0.4480 H   0  0  0  0  0  0  0  0  0  0  0  0
    2.2797    0.8785    1.5623 H   0  0  0  0  0  0  0  0  0  0  0  0
    2.7968   -0.4746    0.5280 H   0  0  0  0  0  0  0  0  0  0  0  0
    4.6916    0.8888   -0.3084 H   0  0  0  0  0  0  0  0  0  0  0  0
    4.1745    2.2420    0.7260 H   0  0  0  0  0  0  0  0  0  0  0  0
  -13.5871   -3.8371   -6.9571 H   0  0  0  0  0  0  0  0  0  0  0  0
  1 47  1  0  0  0  0
  1 48  1  0  0  0  0
  1 49  1  0  0  0  0
  2  1  1  1  0  0  0
  2 18  1  0  0  0  0
  2 22  1  0  0  0  0
  2  3  1  0  0  0  0
  3  4  1  0  0  0  0
  3 50  1  0  0  0  0
  3 51  1  0  0  0  0
  4  5  1  0  0  0  0
  4 52  1  0  0  0  0
  4 53  1  0  0  0  0
  5  6  1  6  0  0  0
  5 16  1  0  0  0  0
  5  7  1  0  0  0  0
  7 12  2  0  0  0  0
  7  8  1  0  0  0  0
  8  9  2  0  0  0  0
  8 54  1  0  0  0  0
  9 10  1  0  0  0  0
  9 55  1  0  0  0  0
 10 11  2  0  0  0  0
 10 46  1  0  0  0  0
 11 12  1  0  0  0  0
 11 56  1  0  0  0  0
 12 13  1  0  0  0  0
 13 14  1  0  0  0  0
 13 57  1  0  0  0  0
 13 58  1  0  0  0  0
 14 15  1  1  0  0  0
 14 16  1  0  0  0  0
 14 25  1  0  0  0  0
 16 17  1  6  0  0  0
 16 18  1  0  0  0  0
 18 19  1  6  0  0  0
 18 20  1  0  0  0  0
 20 21  1  0  0  0  0
 20 59  1  0  0  0  0
 20 60  1  0  0  0  0
 21 22  1  0  0  0  0
 21 61  1  0  0  0  0
 21 62  1  0  0  0  0
 22 23  1  6  0  0  0
 22 24  1  0  0  0  0
 24 63  1  0  0  0  0
 25 26  1  0  0  0  0
 25 64  1  0  0  0  0
 25 65  1  0  0  0  0
 26 27  1  0  0  0  0
 26 66  1  0  0  0  0
 26 67  1  0  0  0  0
 27 28  1  0  0  0  0
 27 68  1  0  0  0  0
 27 69  1  0  0  0  0
 28 29  1  0  0  0  0
 28 70  1  0  0  0  0
 28 71  1  0  0  0  0
 29 30  1  0  0  0  0
 29 72  1  0  0  0  0
 29 73  1  0  0  0  0
 30 31  1  0  0  0  0
 30 74  1  0  0  0  0
 30 75  1  0  0  0  0
 31 32  1  0  0  0  0
 31 76  1  0  0  0  0
 31 77  1  0  0  0  0
 32 33  1  0  0  0  0
 32 78  1  0  0  0  0
 32 79  1  0  0  0  0
 33 34  1  0  0  0  0
 33 80  1  0  0  0  0
 33 81  1  0  0  0  0
 34 35  2  6  0  0  0
 34 36  1  0  0  0  0
 36 37  1  0  0  0  0
 36 82  1  0  0  0  0
 36 83  1  0  0  0  0
 37 38  1  0  0  0  0
 37 84  1  0  0  0  0
 37 85  1  0  0  0  0
 38 39  1  0  0  0  0
 38 86  1  0  0  0  0
 38 87  1  0  0  0  0
 39 40  1  0  0  0  0
 39 44  1  0  0  0  0
 39 45  1  0  0  0  0
 40 41  1  0  0  0  0
 40 42  1  0  0  0  0
 40 43  1  0  0  0  0
 46 88  1  0  0  0  0
M  END
$$$$
