ZINC00113404
 OpenBabel08292219463D

 39 40  0  0  1  0  0  0  0  0999 V2000
   -0.0539    1.4704    0.2993 C   0  0  0  0  0  0  0  0  0  0  0  0
   -0.0295    0.0017    0.2882 N   0  3  0  0  0  0  0  0  0  0  0  0
    0.5604   -0.4878    1.5413 C   0  0  0  0  0  0  0  0  0  0  0  0
   -1.4006   -0.5099    0.1598 C   0  0  0  0  0  0  0  0  0  0  0  0
   -1.3658   -2.0333    0.0229 C   0  0  0  0  0  0  0  0  0  0  0  0
   -2.7938   -2.5661   -0.1108 C   0  0  1  0  0  0  0  0  0  0  0  0
   -3.3915   -2.2191    0.7321 H   0  0  0  0  0  0  0  0  0  0  0  0
   -3.3990   -2.0640   -1.3963 C   0  0  0  0  0  0  0  0  0  0  0  0
   -2.7600   -2.2998   -2.5992 C   0  0  0  0  0  0  0  0  0  0  0  0
   -3.3146   -1.8395   -3.7786 C   0  0  0  0  0  0  0  0  0  0  0  0
   -4.5095   -1.1427   -3.7551 C   0  0  0  0  0  0  0  0  0  0  0  0
   -5.1487   -0.9070   -2.5509 C   0  0  0  0  0  0  0  0  0  0  0  0
   -4.5960   -1.3727   -1.3727 C   0  0  0  0  0  0  0  0  0  0  0  0
   -5.2065   -0.5637   -5.2359 Cl  0  0  0  0  0  0  0  0  0  0  0  0
   -2.7688   -4.0729   -0.1222 C   0  0  0  0  0  0  0  0  0  0  0  0
   -1.7220   -4.7341   -0.7368 C   0  0  0  0  0  0  0  0  0  0  0  0
   -1.7085   -6.1203   -0.7417 C   0  0  0  0  0  0  0  0  0  0  0  0
   -2.7531   -6.7927   -0.1256 C   0  0  0  0  0  0  0  0  0  0  0  0
   -3.7656   -6.0639    0.4686 C   0  0  0  0  0  0  0  0  0  0  0  0
   -3.7430   -4.7452    0.4587 N   0  0  0  0  0  0  0  0  0  0  0  0
    0.9634    1.8500    0.3946 H   0  0  0  0  0  0  0  0  0  0  0  0
   -0.4917    1.8336   -0.6305 H   0  0  0  0  0  0  0  0  0  0  0  0
   -0.6516    1.8175    1.1422 H   0  0  0  0  0  0  0  0  0  0  0  0
    1.5778   -0.1083    1.6365 H   0  0  0  0  0  0  0  0  0  0  0  0
   -0.0372   -0.1408    2.3842 H   0  0  0  0  0  0  0  0  0  0  0  0
    0.5785   -1.5776    1.5330 H   0  0  0  0  0  0  0  0  0  0  0  0
   -1.9744   -0.2377    1.0458 H   0  0  0  0  0  0  0  0  0  0  0  0
   -1.8690   -0.0763   -0.7237 H   0  0  0  0  0  0  0  0  0  0  0  0
   -0.7921   -2.3055   -0.8630 H   0  0  0  0  0  0  0  0  0  0  0  0
   -0.8974   -2.4670    0.9064 H   0  0  0  0  0  0  0  0  0  0  0  0
   -1.8270   -2.8434   -2.6175 H   0  0  0  0  0  0  0  0  0  0  0  0
   -2.8150   -2.0234   -4.7183 H   0  0  0  0  0  0  0  0  0  0  0  0
   -6.0814   -0.3628   -2.5319 H   0  0  0  0  0  0  0  0  0  0  0  0
   -5.0972   -1.1929   -0.4331 H   0  0  0  0  0  0  0  0  0  0  0  0
   -0.9248   -4.1778   -1.2074 H   0  0  0  0  0  0  0  0  0  0  0  0
   -0.9037   -6.6636   -1.2144 H   0  0  0  0  0  0  0  0  0  0  0  0
   -2.7752   -7.8723   -0.1106 H   0  0  0  0  0  0  0  0  0  0  0  0
   -4.5828   -6.5800    0.9505 H   0  0  0  0  0  0  0  0  0  0  0  0
    0.5237   -0.3196   -0.4921 H   0  0  0  0  0  0  0  0  0  0  0  0
  1  2  1  0  0  0  0
  1 21  1  0  0  0  0
  1 22  1  0  0  0  0
  1 23  1  0  0  0  0
  2  3  1  0  0  0  0
  2  4  1  0  0  0  0
  2 39  1  0  0  0  0
  3 24  1  0  0  0  0
  3 25  1  0  0  0  0
  3 26  1  0  0  0  0
  4  5  1  0  0  0  0
  4 27  1  0  0  0  0
  4 28  1  0  0  0  0
  5  6  1  0  0  0  0
  5 29  1  0  0  0  0
  5 30  1  0  0  0  0
  6  7  1  1  0  0  0
  6  8  1  0  0  0  0
  6 15  1  0  0  0  0
  8 13  2  0  0  0  0
  8  9  1  0  0  0  0
  9 10  2  0  0  0  0
  9 31  1  0  0  0  0
 10 11  1  0  0  0  0
 10 32  1  0  0  0  0
 11 12  2  0  0  0  0
 11 14  1  0  0  0  0
 12 13  1  0  0  0  0
 12 33  1  0  0  0  0
 13 34  1  0  0  0  0
 15 20  2  0  0  0  0
 15 16  1  0  0  0  0
 16 17  2  0  0  0  0
 16 35  1  0  0  0  0
 17 18  1  0  0  0  0
 17 36  1  0  0  0  0
 18 19  2  0  0  0  0
 18 37  1  0  0  0  0
 19 20  1  0  0  0  0
 19 38  1  0  0  0  0
M  CHG  1   2   1
M  END
$$$$
