ZINC03831120
 OpenBabel08292219463D

 60 63  0  0  1  0  0  0  0  0999 V2000
    1.5951    3.0433    3.4533 C   0  0  0  0  0  0  0  0  0  0  0  0
    1.2626    3.0078    1.9603 C   0  0  0  0  0  0  0  0  0  0  0  0
    2.1276    1.9598    1.2072 C   0  0  1  0  0  0  0  0  0  0  0  0
    2.3216    1.1166    1.8702 H   0  0  0  0  0  0  0  0  0  0  0  0
    1.4597    1.4721   -0.0033 N   0  0  0  0  0  0  0  0  0  0  0  0
   -0.0220    1.5273    0.0117 C   0  0  2  0  0  0  0  0  0  0  0  0
   -0.5026    2.0032   -0.8431 H   0  0  0  0  0  0  0  0  0  0  0  0
   -0.4019    2.2639    1.6521 S   0  0  0  0  0  0  0  0  0  0  0  0
   -0.0007   -0.0025    0.0028 C   0  0  1  0  0  0  0  0  0  0  0  0
   -0.5252   -0.4438   -0.8447 H   0  0  0  0  0  0  0  0  0  0  0  0
    1.4951    0.1178   -0.2012 C   0  0  0  0  0  0  0  0  0  0  0  0
    2.3791   -0.6758   -0.4454 O   0  0  0  0  0  0  0  0  0  0  0  0
   -0.3771   -0.6050    1.2840 N   0  0  0  0  0  0  0  0  0  0  0  0
   -0.8871   -1.8521    1.3183 C   0  0  0  0  0  0  0  0  0  0  0  0
   -1.0345   -2.4755    0.2884 O   0  0  0  0  0  0  0  0  0  0  0  0
   -1.2742   -2.4720    2.6362 C   0  0  1  0  0  0  0  0  0  0  0  0
   -0.3983   -2.5279    3.2826 H   0  0  0  0  0  0  0  0  0  0  0  0
   -2.3331   -1.6274    3.2968 C   0  0  0  0  0  0  0  0  0  0  0  0
   -3.6513   -1.7316    2.8939 C   0  0  0  0  0  0  0  0  0  0  0  0
   -4.6232   -0.9597    3.5026 C   0  0  0  0  0  0  0  0  0  0  0  0
   -4.2755   -0.0772    4.5082 C   0  0  0  0  0  0  0  0  0  0  0  0
   -2.9566    0.0305    4.9079 C   0  0  0  0  0  0  0  0  0  0  0  0
   -1.9853   -0.7443    4.3019 C   0  0  0  0  0  0  0  0  0  0  0  0
   -1.7983   -3.8206    2.4063 N   0  0  0  0  0  0  0  0  0  0  0  0
   -1.7389   -4.7429    3.3873 C   0  0  0  0  0  0  0  0  0  0  0  0
   -1.1695   -4.4855    4.4298 O   0  0  0  0  0  0  0  0  0  0  0  0
   -2.3108   -5.9507    3.2122 N   0  0  0  0  0  0  0  0  0  0  0  0
   -2.9356   -6.4253    1.9685 C   0  0  0  0  0  0  0  0  0  0  0  0
   -3.4195   -7.8462    2.3173 C   0  0  0  0  0  0  0  0  0  0  0  0
   -3.0160   -8.0213    3.7205 N   0  0  0  0  0  0  0  0  0  0  0  0
   -2.3952   -6.9115    4.1416 C   0  0  0  0  0  0  0  0  0  0  0  0
   -1.9522   -6.7862    5.2665 O   0  0  0  0  0  0  0  0  0  0  0  0
   -3.2806   -9.3776    4.6330 S   0  0  0  0  0  0  0  0  0  0  0  0
   -3.3122   -8.9114    5.9750 O   0  0  0  0  0  0  0  0  0  0  0  0
   -4.4241   -9.9886    4.0513 O   0  0  0  0  0  0  0  0  0  0  0  0
   -1.8151  -10.4127    4.3655 C   0  0  0  0  0  0  0  0  0  0  0  0
    3.4409    2.5912    0.8232 C   0  0  0  0  0  0  0  0  0  0  0  0
    3.6358    2.9329   -0.3192 O   0  0  0  0  0  0  0  0  0  0  0  0
    1.3840    4.3959    1.3284 C   0  0  0  0  0  0  0  0  0  0  0  0
    2.6451    3.3044    3.5856 H   0  0  0  0  0  0  0  0  0  0  0  0
    0.9706    3.7877    3.9471 H   0  0  0  0  0  0  0  0  0  0  0  0
    1.4066    2.0629    3.8909 H   0  0  0  0  0  0  0  0  0  0  0  0
   -0.2592   -0.1065    2.1077 H   0  0  0  0  0  0  0  0  0  0  0  0
   -3.9223   -2.4183    2.1056 H   0  0  0  0  0  0  0  0  0  0  0  0
   -5.6535   -1.0435    3.1901 H   0  0  0  0  0  0  0  0  0  0  0  0
   -5.0343    0.5283    4.9815 H   0  0  0  0  0  0  0  0  0  0  0  0
   -2.6849    0.7201    5.6933 H   0  0  0  0  0  0  0  0  0  0  0  0
   -0.9548   -0.6599    4.6139 H   0  0  0  0  0  0  0  0  0  0  0  0
   -2.1881   -4.0497    1.5482 H   0  0  0  0  0  0  0  0  0  0  0  0
   -3.7786   -5.7899    1.6971 H   0  0  0  0  0  0  0  0  0  0  0  0
   -2.2042   -6.4578    1.1610 H   0  0  0  0  0  0  0  0  0  0  0  0
   -4.5028   -7.9163    2.2192 H   0  0  0  0  0  0  0  0  0  0  0  0
   -2.9284   -8.5842    1.6831 H   0  0  0  0  0  0  0  0  0  0  0  0
   -0.9255   -9.8743    4.6921 H   0  0  0  0  0  0  0  0  0  0  0  0
   -1.9123  -11.3351    4.9381 H   0  0  0  0  0  0  0  0  0  0  0  0
   -1.7270  -10.6508    3.3054 H   0  0  0  0  0  0  0  0  0  0  0  0
    1.0490    4.3539    0.2920 H   0  0  0  0  0  0  0  0  0  0  0  0
    0.7653    5.1025    1.8818 H   0  0  0  0  0  0  0  0  0  0  0  0
    2.4240    4.7204    1.3612 H   0  0  0  0  0  0  0  0  0  0  0  0
    4.3941    2.7741    1.7504 O   0  0  0  0  0  1  0  0  0  0  0  0
  1  2  1  0  0  0  0
  1 40  1  0  0  0  0
  1 41  1  0  0  0  0
  1 42  1  0  0  0  0
  2  8  1  0  0  0  0
  2  3  1  0  0  0  0
  2 39  1  0  0  0  0
  3  4  1  1  0  0  0
  3  5  1  0  0  0  0
  3 37  1  0  0  0  0
  5 11  1  0  0  0  0
  5  6  1  0  0  0  0
  6  7  1  6  0  0  0
  6  8  1  0  0  0  0
  6  9  1  0  0  0  0
  9 10  1  6  0  0  0
  9 11  1  0  0  0  0
  9 13  1  0  0  0  0
 11 12  2  0  0  0  0
 13 14  1  0  0  0  0
 13 43  1  0  0  0  0
 14 15  2  0  0  0  0
 14 16  1  0  0  0  0
 16 17  1  1  0  0  0
 16 18  1  0  0  0  0
 16 24  1  0  0  0  0
 18 23  2  0  0  0  0
 18 19  1  0  0  0  0
 19 20  2  0  0  0  0
 19 44  1  0  0  0  0
 20 21  1  0  0  0  0
 20 45  1  0  0  0  0
 21 22  2  0  0  0  0
 21 46  1  0  0  0  0
 22 23  1  0  0  0  0
 22 47  1  0  0  0  0
 23 48  1  0  0  0  0
 24 25  1  0  0  0  0
 24 49  1  0  0  0  0
 25 26  2  0  0  0  0
 25 27  1  0  0  0  0
 27 31  1  0  0  0  0
 27 28  1  0  0  0  0
 28 29  1  0  0  0  0
 28 50  1  0  0  0  0
 28 51  1  0  0  0  0
 29 30  1  0  0  0  0
 29 52  1  0  0  0  0
 29 53  1  0  0  0  0
 30 31  1  0  0  0  0
 30 33  1  0  0  0  0
 31 32  2  0  0  0  0
 33 34  2  0  0  0  0
 33 35  2  0  0  0  0
 33 36  1  0  0  0  0
 36 54  1  0  0  0  0
 36 55  1  0  0  0  0
 36 56  1  0  0  0  0
 37 38  2  0  0  0  0
 37 60  1  0  0  0  0
 39 57  1  0  0  0  0
 39 58  1  0  0  0  0
 39 59  1  0  0  0  0
M  END
$$$$
