ZINC00016827
 OpenBabel08292219463D

 30 32  0  0  0  0  0  0  0  0999 V2000
   -2.2590   -4.1734    0.7266 C   0  0  0  0  0  0  0  0  0  0  0  0
   -1.1015   -4.8453    0.3414 C   0  0  0  0  0  0  0  0  0  0  0  0
    0.0181   -4.1626   -0.0240 C   0  0  0  0  0  0  0  0  0  0  0  0
    0.0125   -2.7569   -0.0146 C   0  0  0  0  0  3  0  0  0  0  0  0
   -1.1660   -2.0778    0.3770 C   0  0  0  0  0  0  0  0  0  0  0  0
   -2.3011   -2.8116    0.7474 C   0  0  0  0  0  0  0  0  0  0  0  0
   -1.1623   -0.6653    0.3817 C   0  0  0  0  0  0  0  0  0  0  0  0
    0.0021   -0.0041    0.0020 C   0  0  0  0  0  0  0  0  0  0  0  0
    1.1175   -0.7361   -0.3646 C   0  0  0  0  0  0  0  0  0  0  0  0
    2.4120   -0.0754   -0.7701 C   0  0  0  0  0  0  0  0  0  0  0  0
    2.1762    1.3865   -1.1417 C   0  0  0  0  0  0  0  0  0  0  0  0
    1.4039    2.0583   -0.0003 C   0  0  0  0  0  0  0  0  0  0  0  0
   -0.0183    1.5015    0.0103 C   0  0  0  0  0  0  0  0  0  0  0  0
   -2.2920    0.0458    0.7563 N   0  0  0  0  0  0  0  0  0  0  0  0
   -3.1340   -4.7385    1.0119 H   0  0  0  0  0  0  0  0  0  0  0  0
   -1.0919   -5.9252    0.3327 H   0  0  0  0  0  0  0  0  0  0  0  0
    0.9072   -4.6991   -0.3207 H   0  0  0  0  0  0  0  0  0  0  0  0
   -3.2041   -2.3007    1.0473 H   0  0  0  0  0  0  0  0  0  0  0  0
    3.1167   -0.1260    0.0600 H   0  0  0  0  0  0  0  0  0  0  0  0
    2.8304   -0.6013   -1.6283 H   0  0  0  0  0  0  0  0  0  0  0  0
    3.1338    1.8881   -1.2812 H   0  0  0  0  0  0  0  0  0  0  0  0
    1.5929    1.4414   -2.0609 H   0  0  0  0  0  0  0  0  0  0  0  0
    1.3752    3.1361   -0.1607 H   0  0  0  0  0  0  0  0  0  0  0  0
    1.8906    1.8408    0.9505 H   0  0  0  0  0  0  0  0  0  0  0  0
   -0.5506    1.8586   -0.8713 H   0  0  0  0  0  0  0  0  0  0  0  0
   -0.5337    1.8490    0.9057 H   0  0  0  0  0  0  0  0  0  0  0  0
   -2.2768    1.0157    0.7558 H   0  0  0  0  0  0  0  0  0  0  0  0
   -3.0975   -0.4265    1.0190 H   0  0  0  0  0  0  0  0  0  0  0  0
    1.1637   -2.1007   -0.3898 N   0  0  0  0  0  0  0  0  0  0  0  0
    2.0097   -2.6092   -0.6727 H   0  0  0  0  0  0  0  0  0  0  0  0
  1  6  2  0  0  0  0
  1  2  1  0  0  0  0
  1 15  1  0  0  0  0
  2  3  2  0  0  0  0
  2 16  1  0  0  0  0
  3  4  1  0  0  0  0
  3 17  1  0  0  0  0
  4  5  1  0  0  0  0
  4 29  1  0  0  0  0
  5  6  1  0  0  0  0
  5  7  2  0  0  0  0
  6 18  1  0  0  0  0
  7  8  1  0  0  0  0
  7 14  1  0  0  0  0
  8 13  1  0  0  0  0
  8  9  2  0  0  0  0
  9 10  1  0  0  0  0
  9 29  1  0  0  0  0
 10 11  1  0  0  0  0
 10 19  1  0  0  0  0
 10 20  1  0  0  0  0
 11 12  1  0  0  0  0
 11 21  1  0  0  0  0
 11 22  1  0  0  0  0
 12 13  1  0  0  0  0
 12 23  1  0  0  0  0
 12 24  1  0  0  0  0
 13 25  1  0  0  0  0
 13 26  1  0  0  0  0
 14 27  1  0  0  0  0
 14 28  1  0  0  0  0
 29 30  1  0  0  0  0
M  END
$$$$
