ZINC03008621
 OpenBabel08292219463D

 25 24  0  0  0  0  0  0  0  0999 V2000
   -0.0187    1.5258    0.0104 C   0  0  0  0  0  0  0  0  0  0  0  0
    0.0021   -0.0041    0.0020 C   0  0  0  0  0  0  0  0  0  0  0  0
   -1.4333   -0.5336    0.0129 C   0  0  0  0  0  0  0  0  0  0  0  0
   -1.4126   -2.0635    0.0045 C   0  0  0  0  0  0  0  0  0  0  0  0
   -2.8413   -2.5937    0.1410 C   0  0  0  0  0  0  0  0  0  0  0  0
   -2.8102   -4.1189    0.2579 C   0  0  0  0  0  0  0  0  0  0  0  0
   -4.2389   -4.6491    0.3944 C   0  0  0  0  0  0  0  0  0  0  0  0
   -0.8177   -2.5507   -1.2916 C   0  0  0  0  0  0  0  0  0  0  0  0
    0.1892   -3.2381   -1.2799 O   0  0  0  0  0  0  0  0  0  0  0  0
   -1.3432   -2.2574   -2.3519 O   0  0  0  0  0  1  0  0  0  0  0  0
    1.0039    1.9031    0.0027 H   0  0  0  0  0  0  0  0  0  0  0  0
   -0.5459    1.8868   -0.8726 H   0  0  0  0  0  0  0  0  0  0  0  0
   -0.5289    1.8773    0.9072 H   0  0  0  0  0  0  0  0  0  0  0  0
    0.5123   -0.3556   -0.8948 H   0  0  0  0  0  0  0  0  0  0  0  0
    0.5293   -0.3651    0.8851 H   0  0  0  0  0  0  0  0  0  0  0  0
   -1.9435   -0.1821    0.9097 H   0  0  0  0  0  0  0  0  0  0  0  0
   -1.9605   -0.1726   -0.8702 H   0  0  0  0  0  0  0  0  0  0  0  0
   -0.8102   -2.4233    0.8386 H   0  0  0  0  0  0  0  0  0  0  0  0
   -3.3022   -2.1702    1.0333 H   0  0  0  0  0  0  0  0  0  0  0  0
   -3.4202   -2.3083   -0.7374 H   0  0  0  0  0  0  0  0  0  0  0  0
   -2.3493   -4.5424   -0.6344 H   0  0  0  0  0  0  0  0  0  0  0  0
   -2.2313   -4.4042    1.1363 H   0  0  0  0  0  0  0  0  0  0  0  0
   -4.2168   -5.7356    0.4777 H   0  0  0  0  0  0  0  0  0  0  0  0
   -4.6999   -4.2256    1.2868 H   0  0  0  0  0  0  0  0  0  0  0  0
   -4.8179   -4.3637   -0.4839 H   0  0  0  0  0  0  0  0  0  0  0  0
  1  2  1  0  0  0  0
  1 11  1  0  0  0  0
  1 12  1  0  0  0  0
  1 13  1  0  0  0  0
  2  3  1  0  0  0  0
  2 14  1  0  0  0  0
  2 15  1  0  0  0  0
  3  4  1  0  0  0  0
  3 16  1  0  0  0  0
  3 17  1  0  0  0  0
  4  5  1  0  0  0  0
  4  8  1  0  0  0  0
  4 18  1  0  0  0  0
  5  6  1  0  0  0  0
  5 19  1  0  0  0  0
  5 20  1  0  0  0  0
  6  7  1  0  0  0  0
  6 21  1  0  0  0  0
  6 22  1  0  0  0  0
  7 23  1  0  0  0  0
  7 24  1  0  0  0  0
  7 25  1  0  0  0  0
  8  9  2  0  0  0  0
  8 10  1  0  0  0  0
M  END
$$$$
