ZINC03831474
 OpenBabel08292219463D

 14 13  0  0  1  0  0  0  0  0999 V2000
   -0.0127    1.0858    0.0080 C   0  0  1  0  0  0  0  0  0  0  0  0
    0.0021   -0.0041    0.0020 H   0  0  0  0  0  0  0  0  0  0  0  0
    1.4227    1.6154   -0.0028 C   0  0  1  0  0  0  0  0  0  0  0  0
    1.9499    1.2543    0.8802 H   0  0  0  0  0  0  0  0  0  0  0  0
    2.1281    1.1294   -1.2427 C   0  0  0  0  0  0  0  0  0  0  0  0
    2.1695    1.8345   -2.2365 O   0  0  0  0  0  0  0  0  0  0  0  0
    2.6573    0.0311   -1.2521 O   0  0  0  0  0  1  0  0  0  0  0  0
    1.3981    3.4292    0.0071 S   0  0  0  0  0  0  0  0  0  0  0  0
   -0.7181    1.5718    1.2479 C   0  0  0  0  0  0  0  0  0  0  0  0
   -1.4000    2.5816    1.2051 O   0  0  0  0  0  0  0  0  0  0  0  0
   -0.6068    0.9553    2.2938 O   0  0  0  0  0  1  0  0  0  0  0  0
   -0.8901    1.6867   -1.4616 S   0  0  0  0  0  0  0  0  0  0  0  0
    0.7304    3.7517   -1.1150 H   0  0  0  0  0  0  0  0  0  0  0  0
   -0.8430    3.0257   -1.3438 H   0  0  0  0  0  0  0  0  0  0  0  0
  1  2  1  6  0  0  0
  1  3  1  0  0  0  0
  1  9  1  0  0  0  0
  1 12  1  0  0  0  0
  3  4  1  1  0  0  0
  3  5  1  0  0  0  0
  3  8  1  0  0  0  0
  5  6  2  0  0  0  0
  5  7  1  0  0  0  0
  8 13  1  0  0  0  0
  9 10  2  0  0  0  0
  9 11  1  0  0  0  0
 12 14  1  0  0  0  0
M  END
$$$$
