ZINC00389149
 OpenBabel08292219463D

 50 50  0  0  1  0  0  0  0  0999 V2000
    3.1702   -1.5404   -5.4775 C   0  0  0  0  0  0  0  0  0  0  0  0
    2.4704   -2.3722   -4.4337 C   0  0  0  0  0  0  0  0  0  0  0  0
    1.8662   -1.7594   -3.3532 C   0  0  0  0  0  0  0  0  0  0  0  0
    1.2267   -2.5254   -2.3899 C   0  0  0  0  0  0  0  0  0  0  0  0
    1.1846   -3.9062   -2.5171 C   0  0  0  0  0  0  0  0  0  0  0  0
    1.7840   -4.5184   -3.6000 C   0  0  0  0  0  0  0  0  0  0  0  0
    2.4287   -3.7527   -4.5606 C   0  0  0  0  0  0  0  0  0  0  0  0
    3.0193   -4.3556   -5.6268 O   0  0  0  0  0  0  0  0  0  0  0  0
    2.2623   -4.5380   -6.7204 C   0  0  0  0  0  0  0  0  0  0  0  0
    1.1109   -4.1718   -6.7260 O   0  0  0  0  0  0  0  0  0  0  0  0
    2.8486   -5.1994   -7.9409 C   0  0  0  0  0  0  0  0  0  0  0  0
    1.7383   -6.0184   -3.7382 C   0  0  0  0  0  0  0  0  0  0  0  0
    0.4844   -4.7381   -1.4736 C   0  0  0  0  0  0  0  0  0  0  0  0
    0.6361   -1.9225   -1.3238 O   0  0  0  0  0  0  0  0  0  0  0  0
    0.7182   -0.4975   -1.2568 C   0  0  0  0  0  0  0  0  0  0  0  0
    0.0021   -0.0041    0.0020 C   0  0  2  0  0  0  0  0  0  0  0  0
   -1.0205   -0.3814    0.0098 H   0  0  0  0  0  0  0  0  0  0  0  0
   -0.0187    1.5258    0.0104 C   0  0  0  0  0  0  0  0  0  0  0  0
   -0.7454    3.4674    1.2612 C   0  0  0  0  0  0  0  0  0  0  0  0
   -1.9485    3.9687    0.4598 C   0  0  0  0  0  0  0  0  0  0  0  0
   -0.8703    3.9327    2.7134 C   0  0  0  0  0  0  0  0  0  0  0  0
    0.6932   -0.4774    1.1597 O   0  0  0  0  0  0  0  0  0  0  0  0
    2.4609   -1.2647   -6.2579 H   0  0  0  0  0  0  0  0  0  0  0  0
    3.5701   -0.6381   -5.0148 H   0  0  0  0  0  0  0  0  0  0  0  0
    3.9856   -2.1166   -5.9146 H   0  0  0  0  0  0  0  0  0  0  0  0
    1.8952   -0.6841   -3.2565 H   0  0  0  0  0  0  0  0  0  0  0  0
    3.8900   -5.4581   -7.7491 H   0  0  0  0  0  0  0  0  0  0  0  0
    2.2857   -6.1043   -8.1696 H   0  0  0  0  0  0  0  0  0  0  0  0
    2.7943   -4.5143   -8.7869 H   0  0  0  0  0  0  0  0  0  0  0  0
    0.8493   -6.3046   -4.3001 H   0  0  0  0  0  0  0  0  0  0  0  0
    2.6280   -6.3619   -4.2660 H   0  0  0  0  0  0  0  0  0  0  0  0
    1.7047   -6.4736   -2.7483 H   0  0  0  0  0  0  0  0  0  0  0  0
   -0.5623   -4.8632   -1.7510 H   0  0  0  0  0  0  0  0  0  0  0  0
    0.9621   -5.7156   -1.4075 H   0  0  0  0  0  0  0  0  0  0  0  0
    0.5469   -4.2371   -0.5076 H   0  0  0  0  0  0  0  0  0  0  0  0
    0.2444   -0.0644   -2.1377 H   0  0  0  0  0  0  0  0  0  0  0  0
    1.7648   -0.1951   -1.2215 H   0  0  0  0  0  0  0  0  0  0  0  0
    1.0039    1.9031    0.0027 H   0  0  0  0  0  0  0  0  0  0  0  0
   -0.5459    1.8868   -0.8726 H   0  0  0  0  0  0  0  0  0  0  0  0
    0.1715    3.8679    0.8290 H   0  0  0  0  0  0  0  0  0  0  0  0
   -2.8654    3.5682    0.8921 H   0  0  0  0  0  0  0  0  0  0  0  0
   -1.9775    5.0579    0.4911 H   0  0  0  0  0  0  0  0  0  0  0  0
   -1.8595    3.6372   -0.5747 H   0  0  0  0  0  0  0  0  0  0  0  0
   -0.0133    3.5755    3.2844 H   0  0  0  0  0  0  0  0  0  0  0  0
   -0.8994    5.0219    2.7447 H   0  0  0  0  0  0  0  0  0  0  0  0
   -1.7873    3.5322    3.1457 H   0  0  0  0  0  0  0  0  0  0  0  0
    1.6114   -0.1800    1.2187 H   0  0  0  0  0  0  0  0  0  0  0  0
   -0.7105    1.9931    1.2265 N   0  3  0  0  0  0  0  0  0  0  0  0
   -0.2116    1.6466    2.0543 H   0  0  0  0  0  0  0  0  0  0  0  0
   -1.6714    1.6314    1.2297 H   0  0  0  0  0  0  0  0  0  0  0  0
  1  2  1  0  0  0  0
  1 23  1  0  0  0  0
  1 24  1  0  0  0  0
  1 25  1  0  0  0  0
  2  7  2  0  0  0  0
  2  3  1  0  0  0  0
  3  4  2  0  0  0  0
  3 26  1  0  0  0  0
  4  5  1  0  0  0  0
  4 14  1  0  0  0  0
  5  6  2  0  0  0  0
  5 13  1  0  0  0  0
  6  7  1  0  0  0  0
  6 12  1  0  0  0  0
  7  8  1  0  0  0  0
  8  9  1  0  0  0  0
  9 10  2  0  0  0  0
  9 11  1  0  0  0  0
 11 27  1  0  0  0  0
 11 28  1  0  0  0  0
 11 29  1  0  0  0  0
 12 30  1  0  0  0  0
 12 31  1  0  0  0  0
 12 32  1  0  0  0  0
 13 33  1  0  0  0  0
 13 34  1  0  0  0  0
 13 35  1  0  0  0  0
 14 15  1  0  0  0  0
 15 16  1  0  0  0  0
 15 36  1  0  0  0  0
 15 37  1  0  0  0  0
 16 17  1  1  0  0  0
 16 18  1  0  0  0  0
 16 22  1  0  0  0  0
 18 38  1  0  0  0  0
 18 39  1  0  0  0  0
 18 48  1  0  0  0  0
 19 20  1  0  0  0  0
 19 21  1  0  0  0  0
 19 40  1  0  0  0  0
 19 48  1  0  0  0  0
 20 41  1  0  0  0  0
 20 42  1  0  0  0  0
 20 43  1  0  0  0  0
 21 44  1  0  0  0  0
 21 45  1  0  0  0  0
 21 46  1  0  0  0  0
 22 47  1  0  0  0  0
 48 49  1  0  0  0  0
 48 50  1  0  0  0  0
M  CHG  1  48   1
M  END
$$$$
