ZINC14879992
 OpenBabel08292219463D

 60 63  0  0  1  0  0  0  0  0999 V2000
   -0.6051    1.4436    2.2506 C   0  0  0  0  0  0  0  0  0  0  0  0
   -0.5224    0.0006    2.0112 N   0  0  0  0  0  0  0  0  0  0  0  0
   -0.7228   -0.9382    3.1179 C   0  0  0  0  0  0  0  0  0  0  0  0
   -0.2520   -0.4810    0.7253 C   0  0  0  0  0  0  0  0  0  0  0  0
    1.0635   -0.6971    0.3271 C   0  0  0  0  0  0  0  0  0  0  0  0
    1.3405   -1.1689   -0.9401 C   0  0  0  0  0  0  0  0  0  0  0  0
    0.3057   -1.4373   -1.8243 C   0  0  0  0  0  0  0  0  0  0  0  0
   -1.0196   -1.2347   -1.4257 C   0  0  0  0  0  0  0  0  0  0  0  0
   -1.2942   -0.7468   -0.1462 C   0  0  0  0  0  0  0  0  0  0  0  0
   -2.7162   -0.4859    0.2746 C   0  0  0  0  0  0  0  0  0  0  0  0
   -3.6475   -1.5309   -0.3361 C   0  0  1  0  0  0  0  0  0  0  0  0
   -3.4048   -2.5109    0.0749 H   0  0  0  0  0  0  0  0  0  0  0  0
   -5.0998   -1.1870    0.0063 C   0  0  0  0  0  0  0  0  0  0  0  0
   -6.0077   -2.1201   -0.7899 C   0  0  1  0  0  0  0  0  0  0  0  0
   -5.6355   -3.1377   -0.6712 H   0  0  0  0  0  0  0  0  0  0  0  0
   -7.4395   -2.0798   -0.2927 C   0  0  1  0  0  0  0  0  0  0  0  0
   -7.4391   -2.1693    0.7936 H   0  0  0  0  0  0  0  0  0  0  0  0
   -8.1383   -0.8099   -0.6757 C   0  0  0  0  0  0  0  0  0  0  0  0
   -7.7040   -0.0181   -1.7094 C   0  0  0  0  0  0  0  0  0  0  0  0
   -6.5059   -0.3819   -2.4646 C   0  0  0  0  0  0  0  0  0  0  0  0
   -5.9934    0.4093   -3.2291 O   0  0  0  0  0  0  0  0  0  0  0  0
   -5.9280   -1.7550   -2.2727 C   0  0  1  0  0  0  0  0  0  0  0  0
   -4.4829   -1.6788   -2.6864 C   0  0  0  0  0  0  0  0  0  0  0  0
   -3.4808   -1.5666   -1.8317 C   0  0  0  0  0  0  0  0  0  0  0  0
   -2.1345   -1.5184   -2.3515 C   0  0  0  0  0  0  0  0  0  0  0  0
   -1.9229   -1.7068   -3.5361 O   0  0  0  0  0  0  0  0  0  0  0  0
   -4.2004   -1.7077   -4.0042 O   0  0  0  0  0  0  0  0  0  0  0  0
   -6.6358   -2.7127   -3.0626 O   0  0  0  0  0  0  0  0  0  0  0  0
   -8.4479    1.2023   -2.0595 C   0  0  0  0  0  0  0  0  0  0  0  0
   -9.3868    1.5601   -1.3739 O   0  0  0  0  0  0  0  0  0  0  0  0
   -8.0890    1.9237   -3.1399 N   0  0  0  0  0  0  0  0  0  0  0  0
   -9.2252   -0.4350    0.0149 O   0  5  0  0  0  0  0  0  0  0  0  0
   -8.1742   -3.2166   -0.8635 N   0  3  0  0  0  0  0  0  0  0  0  0
   -7.5051   -4.4697   -0.4892 C   0  0  0  0  0  0  0  0  0  0  0  0
   -9.5486   -3.2216   -0.3449 C   0  0  0  0  0  0  0  0  0  0  0  0
    0.5787   -1.8949   -3.0731 O   0  0  0  0  0  0  0  0  0  0  0  0
    0.3816    1.8255    2.5128 H   0  0  0  0  0  0  0  0  0  0  0  0
   -0.9597    1.9418    1.3484 H   0  0  0  0  0  0  0  0  0  0  0  0
   -1.2988    1.6369    3.0689 H   0  0  0  0  0  0  0  0  0  0  0  0
   -0.9206   -0.3825    4.0345 H   0  0  0  0  0  0  0  0  0  0  0  0
   -1.5707   -1.5861    2.8957 H   0  0  0  0  0  0  0  0  0  0  0  0
    0.1738   -1.5445    3.2469 H   0  0  0  0  0  0  0  0  0  0  0  0
    1.8724   -0.4942    1.0133 H   0  0  0  0  0  0  0  0  0  0  0  0
    2.3644   -1.3290   -1.2440 H   0  0  0  0  0  0  0  0  0  0  0  0
   -2.7854   -0.5317    1.3614 H   0  0  0  0  0  0  0  0  0  0  0  0
   -3.0163    0.5063   -0.0626 H   0  0  0  0  0  0  0  0  0  0  0  0
   -5.2701   -1.3297    1.0735 H   0  0  0  0  0  0  0  0  0  0  0  0
   -5.3068   -0.1518   -0.2650 H   0  0  0  0  0  0  0  0  0  0  0  0
   -4.5541   -2.4805   -4.4654 H   0  0  0  0  0  0  0  0  0  0  0  0
   -6.6179   -2.5298   -4.0120 H   0  0  0  0  0  0  0  0  0  0  0  0
   -7.2954    1.6820   -3.6427 H   0  0  0  0  0  0  0  0  0  0  0  0
   -8.6242    2.6846   -3.4147 H   0  0  0  0  0  0  0  0  0  0  0  0
   -7.3464   -4.4889    0.5890 H   0  0  0  0  0  0  0  0  0  0  0  0
   -8.1286   -5.3153   -0.7798 H   0  0  0  0  0  0  0  0  0  0  0  0
   -6.5440   -4.5348   -0.9992 H   0  0  0  0  0  0  0  0  0  0  0  0
  -10.0938   -4.0651   -0.7684 H   0  0  0  0  0  0  0  0  0  0  0  0
   -9.5268   -3.3115    0.7412 H   0  0  0  0  0  0  0  0  0  0  0  0
  -10.0451   -2.2918   -0.6226 H   0  0  0  0  0  0  0  0  0  0  0  0
    0.6202   -2.8588   -3.1384 H   0  0  0  0  0  0  0  0  0  0  0  0
   -8.1944   -3.1334   -1.8689 H   0  0  0  0  0  0  0  0  0  0  0  0
  1  2  1  0  0  0  0
  1 37  1  0  0  0  0
  1 38  1  0  0  0  0
  1 39  1  0  0  0  0
  2  3  1  0  0  0  0
  2  4  1  0  0  0  0
  3 40  1  0  0  0  0
  3 41  1  0  0  0  0
  3 42  1  0  0  0  0
  4  9  2  0  0  0  0
  4  5  1  0  0  0  0
  5  6  2  0  0  0  0
  5 43  1  0  0  0  0
  6  7  1  0  0  0  0
  6 44  1  0  0  0  0
  7  8  2  0  0  0  0
  7 36  1  0  0  0  0
  8 25  1  0  0  0  0
  8  9  1  0  0  0  0
  9 10  1  0  0  0  0
 10 11  1  0  0  0  0
 10 45  1  0  0  0  0
 10 46  1  0  0  0  0
 11 12  1  1  0  0  0
 11 24  1  0  0  0  0
 11 13  1  0  0  0  0
 13 14  1  0  0  0  0
 13 47  1  0  0  0  0
 13 48  1  0  0  0  0
 14 15  1  1  0  0  0
 14 22  1  0  0  0  0
 14 16  1  0  0  0  0
 16 17  1  1  0  0  0
 16 18  1  0  0  0  0
 16 33  1  0  0  0  0
 18 19  2  0  0  0  0
 18 32  1  0  0  0  0
 19 20  1  0  0  0  0
 19 29  1  0  0  0  0
 20 21  2  0  0  0  0
 20 22  1  0  0  0  0
 22 23  1  0  0  0  0
 22 28  1  6  0  0  0
 23 24  2  0  0  0  0
 23 27  1  0  0  0  0
 24 25  1  0  0  0  0
 25 26  2  0  0  0  0
 27 49  1  0  0  0  0
 28 50  1  0  0  0  0
 29 30  2  0  0  0  0
 29 31  1  0  0  0  0
 31 51  1  0  0  0  0
 31 52  1  0  0  0  0
 33 34  1  0  0  0  0
 33 35  1  0  0  0  0
 33 60  1  0  0  0  0
 34 53  1  0  0  0  0
 34 54  1  0  0  0  0
 34 55  1  0  0  0  0
 35 56  1  0  0  0  0
 35 57  1  0  0  0  0
 35 58  1  0  0  0  0
 36 59  1  0  0  0  0
M  CHG  2  32  -1  33   1
M  END
$$$$
