ZINC15831592
 OpenBabel08292219463D

 19 20  0  0  0  0  0  0  0  0999 V2000
    0.0627    1.3887   -0.7766 C   0  0  0  0  0  0  0  0  0  0  0  0
    1.2120    2.0863   -0.5344 C   0  0  0  0  0  0  0  0  0  0  0  0
    2.3891    1.3584   -0.2790 C   0  0  0  0  0  0  0  0  0  0  0  0
    3.6082    2.0065   -0.0210 C   0  0  0  0  0  0  0  0  0  0  0  0
    4.7268    1.2691    0.2222 C   0  0  0  0  0  0  0  0  0  0  0  0
    4.6816   -0.1226    0.2189 C   0  0  0  0  0  0  0  0  0  0  0  0
    3.5149   -0.7881   -0.0278 C   0  0  0  0  0  0  0  0  0  0  0  0
    2.3355   -0.0571   -0.2835 C   0  0  0  0  0  0  0  0  0  0  0  0
    1.1786   -0.6784   -0.5277 N   0  0  0  0  0  0  0  0  0  0  0  0
    0.0798   -0.0041   -0.7660 C   0  0  0  0  0  0  0  0  0  0  0  0
    3.4901   -2.1463   -0.0274 O   0  5  0  0  0  0  0  0  0  0  0  0
    3.6769    3.4852   -0.0140 N   0  0  0  0  0  4  0  0  0  0  0  0
    4.6486    4.0474   -0.4628 O   0  0  0  0  0  0  0  0  0  0  0  0
    2.7612    4.1307    0.4404 O   0  5  0  0  0  0  0  0  0  0  0  0
   -0.8591    1.9165   -0.9718 H   0  0  0  0  0  0  0  0  0  0  0  0
    1.2172    3.1663   -0.5390 H   0  0  0  0  0  0  0  0  0  0  0  0
    5.6625    1.7708    0.4202 H   0  0  0  0  0  0  0  0  0  0  0  0
    5.5832   -0.6844    0.4140 H   0  0  0  0  0  0  0  0  0  0  0  0
   -0.8363   -0.5426   -0.9588 H   0  0  0  0  0  0  0  0  0  0  0  0
  1 10  2  0  0  0  0
  1  2  1  0  0  0  0
  1 15  1  0  0  0  0
  2  3  2  0  0  0  0
  2 16  1  0  0  0  0
  3  8  1  0  0  0  0
  3  4  1  0  0  0  0
  4  5  2  0  0  0  0
  4 12  1  0  0  0  0
  5  6  1  0  0  0  0
  5 17  1  0  0  0  0
  6  7  2  0  0  0  0
  6 18  1  0  0  0  0
  7  8  1  0  0  0  0
  7 11  1  0  0  0  0
  8  9  2  0  0  0  0
  9 10  1  0  0  0  0
 10 19  1  0  0  0  0
 12 13  2  0  0  0  0
 12 14  1  0  0  0  0
M  CHG  2  11  -1  14  -1
M  END
$$$$
