ZINC00896523
 OpenBabel08292219463D

 47 47  0  0  1  0  0  0  0  0999 V2000
   -0.0187    1.5258    0.0104 C   0  0  0  0  0  0  0  0  0  0  0  0
    0.0021   -0.0041    0.0020 C   0  0  0  0  0  0  0  0  0  0  0  0
    0.7182   -0.4975   -1.2568 C   0  0  0  0  0  0  0  0  0  0  0  0
    0.7126   -0.4907    1.1921 N   0  3  0  0  0  0  0  0  0  0  0  0
   -0.0398   -0.1189    2.3978 C   0  0  0  0  0  0  0  0  0  0  0  0
    0.7001   -0.6257    3.6373 C   0  0  1  0  0  0  0  0  0  0  0  0
    1.6931   -0.1778    3.6761 H   0  0  0  0  0  0  0  0  0  0  0  0
   -0.0835   -0.2384    4.8930 C   0  0  0  0  0  0  0  0  0  0  0  0
    0.6635   -0.6084    6.0537 O   0  0  0  0  0  0  0  0  0  0  0  0
    0.1044   -0.3322    7.2612 C   0  0  0  0  0  0  0  0  0  0  0  0
   -1.1402    0.2770    7.3275 C   0  0  0  0  0  0  0  0  0  0  0  0
   -1.7066    0.5563    8.5562 C   0  0  0  0  0  0  0  0  0  0  0  0
   -1.0340    0.2295    9.7191 C   0  0  0  0  0  0  0  0  0  0  0  0
    0.2067   -0.3774    9.6557 C   0  0  0  0  0  0  0  0  0  0  0  0
    0.7747   -0.6643    8.4295 C   0  0  0  0  0  0  0  0  0  0  0  0
   -1.6540    0.5358   11.0581 C   0  0  0  0  0  0  0  0  0  0  0  0
   -2.4979   -0.6562   11.5140 C   0  0  0  0  0  0  0  0  0  0  0  0
   -3.1180   -0.3500   12.8529 C   0  0  0  0  0  0  0  0  0  0  0  0
   -2.9065    0.7126   13.3877 O   0  0  0  0  0  0  0  0  0  0  0  0
   -3.9051   -1.2577   13.4514 O   0  0  0  0  0  0  0  0  0  0  0  0
   -4.4593   -0.9005   14.7192 C   0  0  0  0  0  0  0  0  0  0  0  0
    0.8214   -2.0480    3.5713 O   0  0  0  0  0  0  0  0  0  0  0  0
    1.0039    1.9031    0.0027 H   0  0  0  0  0  0  0  0  0  0  0  0
   -0.5459    1.8868   -0.8726 H   0  0  0  0  0  0  0  0  0  0  0  0
   -0.5289    1.8773    0.9072 H   0  0  0  0  0  0  0  0  0  0  0  0
   -1.0205   -0.3814    0.0098 H   0  0  0  0  0  0  0  0  0  0  0  0
    1.7408   -0.1202   -1.2645 H   0  0  0  0  0  0  0  0  0  0  0  0
    0.7330   -1.5874   -1.2628 H   0  0  0  0  0  0  0  0  0  0  0  0
    0.1910   -0.1364   -2.1398 H   0  0  0  0  0  0  0  0  0  0  0  0
    0.7982   -1.4950    1.1455 H   0  0  0  0  0  0  0  0  0  0  0  0
   -0.1324    0.9660    2.4481 H   0  0  0  0  0  0  0  0  0  0  0  0
   -1.0328   -0.5668    2.3589 H   0  0  0  0  0  0  0  0  0  0  0  0
   -0.2529    0.8383    4.8979 H   0  0  0  0  0  0  0  0  0  0  0  0
   -1.0422   -0.7571    4.8973 H   0  0  0  0  0  0  0  0  0  0  0  0
   -1.6657    0.5331    6.4194 H   0  0  0  0  0  0  0  0  0  0  0  0
   -2.6755    1.0306    8.6084 H   0  0  0  0  0  0  0  0  0  0  0  0
    0.7303   -0.6313   10.5655 H   0  0  0  0  0  0  0  0  0  0  0  0
    1.7419   -1.1424    8.3805 H   0  0  0  0  0  0  0  0  0  0  0  0
   -0.8670    0.7242   11.7884 H   0  0  0  0  0  0  0  0  0  0  0  0
   -2.2882    1.4180   10.9716 H   0  0  0  0  0  0  0  0  0  0  0  0
   -3.2849   -0.8447   10.7837 H   0  0  0  0  0  0  0  0  0  0  0  0
   -1.8638   -1.5385   11.6005 H   0  0  0  0  0  0  0  0  0  0  0  0
   -5.0735   -1.7206   15.0913 H   0  0  0  0  0  0  0  0  0  0  0  0
   -3.6530   -0.7012   15.4251 H   0  0  0  0  0  0  0  0  0  0  0  0
   -5.0742   -0.0074   14.6083 H   0  0  0  0  0  0  0  0  0  0  0  0
   -0.0252   -2.5137    3.5341 H   0  0  0  0  0  0  0  0  0  0  0  0
    1.6317   -0.0761    1.2281 H   0  0  0  0  0  0  0  0  0  0  0  0
  1  2  1  0  0  0  0
  1 23  1  0  0  0  0
  1 24  1  0  0  0  0
  1 25  1  0  0  0  0
  2  3  1  0  0  0  0
  2  4  1  0  0  0  0
  2 26  1  0  0  0  0
  3 27  1  0  0  0  0
  3 28  1  0  0  0  0
  3 29  1  0  0  0  0
  4  5  1  0  0  0  0
  4 30  1  0  0  0  0
  4 47  1  0  0  0  0
  5  6  1  0  0  0  0
  5 31  1  0  0  0  0
  5 32  1  0  0  0  0
  6  7  1  1  0  0  0
  6  8  1  0  0  0  0
  6 22  1  0  0  0  0
  8  9  1  0  0  0  0
  8 33  1  0  0  0  0
  8 34  1  0  0  0  0
  9 10  1  0  0  0  0
 10 15  2  0  0  0  0
 10 11  1  0  0  0  0
 11 12  2  0  0  0  0
 11 35  1  0  0  0  0
 12 13  1  0  0  0  0
 12 36  1  0  0  0  0
 13 14  2  0  0  0  0
 13 16  1  0  0  0  0
 14 15  1  0  0  0  0
 14 37  1  0  0  0  0
 15 38  1  0  0  0  0
 16 17  1  0  0  0  0
 16 39  1  0  0  0  0
 16 40  1  0  0  0  0
 17 18  1  0  0  0  0
 17 41  1  0  0  0  0
 17 42  1  0  0  0  0
 18 19  2  0  0  0  0
 18 20  1  0  0  0  0
 20 21  1  0  0  0  0
 21 43  1  0  0  0  0
 21 44  1  0  0  0  0
 21 45  1  0  0  0  0
 22 46  1  0  0  0  0
M  CHG  1   4   1
M  END
$$$$
