ZINC26664090
 OpenBabel08292219463D

100104  0  0  1  0  0  0  0  0999 V2000
    6.8820    4.7140   -1.1111 C   0  0  0  0  0  0  0  0  0  0  0  0
    8.3343    4.2554   -0.9655 C   0  0  0  0  0  0  0  0  0  0  0  0
    9.1115    5.2789   -0.1351 C   0  0  0  0  0  0  0  0  0  0  0  0
    8.9719    4.1330   -2.3509 C   0  0  0  0  0  0  0  0  0  0  0  0
    8.3705    2.9536   -0.2945 N   0  0  0  0  0  0  0  0  0  0  0  0
    7.7481    1.8934   -0.8468 C   0  0  0  0  0  0  0  0  0  0  0  0
    7.1581    2.0170   -1.8992 O   0  0  0  0  0  0  0  0  0  0  0  0
    7.7852    0.5542   -0.1566 C   0  0  2  0  0  0  0  0  0  0  0  0
    7.6324    0.6867    0.9247 H   0  0  0  0  0  0  0  0  0  0  0  0
    9.1267   -0.1274   -0.4392 C   0  0  0  0  0  0  0  0  0  0  0  0
    9.1465   -1.4960    0.2447 C   0  0  2  0  0  0  0  0  0  0  0  0
    9.0630   -1.3605    1.3331 H   0  0  0  0  0  0  0  0  0  0  0  0
   10.4570   -2.2183   -0.0698 C   0  0  0  0  0  0  0  0  0  0  0  0
   10.4606   -3.5823    0.6265 C   0  0  0  0  0  0  0  0  0  0  0  0
    9.2806   -4.4176    0.1270 C   0  0  0  0  0  0  0  0  0  0  0  0
    7.9691   -3.6887    0.4302 C   0  0  0  0  0  0  0  0  0  0  0  0
    7.9721   -2.3311   -0.2734 C   0  0  1  0  0  0  0  0  0  0  0  0
    8.0699   -2.4875   -1.3578 H   0  0  0  0  0  0  0  0  0  0  0  0
    6.6647   -1.5912    0.0126 C   0  0  0  0  0  0  0  0  0  0  0  0
    6.6890   -0.2840   -0.6575 N   0  3  1  0  0  0  0  0  0  0  0  0
    5.3971    0.4018   -0.5208 C   0  0  0  0  0  0  0  0  0  0  0  0
    4.3693   -0.2582   -1.4420 C   0  0  2  0  0  0  0  0  0  0  0  0
    4.7126   -0.2584   -2.4871 H   0  0  0  0  0  0  0  0  0  0  0  0
    3.0239    0.4565   -1.3001 C   0  0  2  0  0  0  0  0  0  0  0  0
    3.1288    1.5281   -1.5252 H   0  0  0  0  0  0  0  0  0  0  0  0
    2.4858    0.2537    0.1178 C   0  0  0  0  0  0  0  0  0  0  0  0
    1.2235    1.0574    0.2957 C   0  0  0  0  0  0  0  0  0  0  0  0
   -0.0028    0.4932   -0.0018 C   0  0  0  0  0  0  0  0  0  0  0  0
   -1.1603    1.2322    0.1564 C   0  0  0  0  0  0  0  0  0  0  0  0
   -1.0922    2.5321    0.6217 C   0  0  0  0  0  0  0  0  0  0  0  0
    0.1342    3.0962    0.9197 C   0  0  0  0  0  0  0  0  0  0  0  0
    1.2920    2.3588    0.7569 C   0  0  0  0  0  0  0  0  0  0  0  0
    2.0727   -0.0967   -2.2672 N   0  0  0  0  0  0  0  0  0  0  0  0
    1.0344    0.6494   -2.6934 C   0  0  0  0  0  0  0  0  0  0  0  0
    0.8875    1.7787   -2.2764 O   0  0  0  0  0  0  0  0  0  0  0  0
    0.0558    0.0803   -3.6883 C   0  0  2  0  0  0  0  0  0  0  0  0
   -0.4497   -0.7953   -3.2548 H   0  0  0  0  0  0  0  0  0  0  0  0
    0.7953   -0.2931   -4.9746 C   0  0  0  0  0  0  0  0  0  0  0  0
    1.3562    0.9523   -5.6113 C   0  0  0  0  0  0  0  0  0  0  0  0
    1.2427    2.0228   -5.0526 O   0  0  0  0  0  0  0  0  0  0  0  0
    1.9839    0.8766   -6.8015 N   0  0  0  0  0  0  0  0  0  0  0  0
   -0.9722    1.0800   -3.9887 N   0  0  0  0  0  0  0  0  0  0  0  0
   -2.2012    0.6868   -4.3777 C   0  0  0  0  0  0  0  0  0  0  0  0
   -2.4296   -0.4909   -4.5706 O   0  0  0  0  0  0  0  0  0  0  0  0
   -3.2746    1.6914   -4.5704 C   0  0  0  0  0  0  0  0  0  0  0  0
   -4.5464    1.2651   -4.9812 C   0  0  0  0  0  0  0  0  0  0  0  0
   -5.5449    2.1793   -5.1561 C   0  0  0  0  0  0  0  0  0  0  0  0
   -5.2529    3.5369   -4.9261 C   0  0  0  0  0  0  0  0  0  0  0  0
   -6.2299    4.5314   -5.0941 C   0  0  0  0  0  0  0  0  0  0  0  0
   -5.9112    5.8344   -4.8621 C   0  0  0  0  0  0  0  0  0  0  0  0
   -4.6262    6.1971   -4.4602 C   0  0  0  0  0  0  0  0  0  0  0  0
   -3.6542    5.2617   -4.2881 C   0  0  0  0  0  0  0  0  0  0  0  0
   -3.9440    3.9028   -4.5175 C   0  0  0  0  0  0  0  0  0  0  0  0
   -3.0102    2.9656   -4.3568 N   0  0  0  0  0  0  0  0  0  0  0  0
    4.2190   -1.6326   -1.0808 O   0  0  0  0  0  0  0  0  0  0  0  0
    6.3233    3.9782   -1.7081 H   0  0  0  0  0  0  0  0  0  0  0  0
    6.8549    5.6915   -1.6149 H   0  0  0  0  0  0  0  0  0  0  0  0
    6.4237    4.8020   -0.1150 H   0  0  0  0  0  0  0  0  0  0  0  0
   10.1557    4.9492   -0.0304 H   0  0  0  0  0  0  0  0  0  0  0  0
    8.6531    5.3669    0.8610 H   0  0  0  0  0  0  0  0  0  0  0  0
    9.0844    6.2564   -0.6389 H   0  0  0  0  0  0  0  0  0  0  0  0
   10.0161    3.8033   -2.2461 H   0  0  0  0  0  0  0  0  0  0  0  0
    8.9448    5.1105   -2.8546 H   0  0  0  0  0  0  0  0  0  0  0  0
    8.4132    3.3972   -2.9479 H   0  0  0  0  0  0  0  0  0  0  0  0
    8.9056    2.8415    0.6600 H   0  0  0  0  0  0  0  0  0  0  0  0
    9.2521   -0.2542   -1.5247 H   0  0  0  0  0  0  0  0  0  0  0  0
    9.9442    0.4948   -0.0459 H   0  0  0  0  0  0  0  0  0  0  0  0
   10.5464   -2.3589   -1.1571 H   0  0  0  0  0  0  0  0  0  0  0  0
   11.3035   -1.6167    0.2929 H   0  0  0  0  0  0  0  0  0  0  0  0
   11.4008   -4.1068    0.4007 H   0  0  0  0  0  0  0  0  0  0  0  0
   10.3725   -3.4393    1.7136 H   0  0  0  0  0  0  0  0  0  0  0  0
    9.3718   -4.5686   -0.9588 H   0  0  0  0  0  0  0  0  0  0  0  0
    9.2815   -5.3937    0.6342 H   0  0  0  0  0  0  0  0  0  0  0  0
    7.1228   -4.2902    0.0669 H   0  0  0  0  0  0  0  0  0  0  0  0
    7.8743   -3.5408    1.5161 H   0  0  0  0  0  0  0  0  0  0  0  0
    5.8182   -2.1830   -0.3658 H   0  0  0  0  0  0  0  0  0  0  0  0
    6.5550   -1.4465    1.0975 H   0  0  0  0  0  0  0  0  0  0  0  0
    5.0534    0.3318    0.5218 H   0  0  0  0  0  0  0  0  0  0  0  0
    5.5124    1.4599   -0.7986 H   0  0  0  0  0  0  0  0  0  0  0  0
    2.2674   -0.8124    0.2781 H   0  0  0  0  0  0  0  0  0  0  0  0
    3.2388    0.5873    0.8470 H   0  0  0  0  0  0  0  0  0  0  0  0
   -0.0563   -0.5235   -0.3621 H   0  0  0  0  0  0  0  0  0  0  0  0
   -2.1181    0.7929   -0.0803 H   0  0  0  0  0  0  0  0  0  0  0  0
   -1.9968    3.1081    0.7493 H   0  0  0  0  0  0  0  0  0  0  0  0
    0.1876    4.1129    1.2800 H   0  0  0  0  0  0  0  0  0  0  0  0
    2.2501    2.7995    0.9897 H   0  0  0  0  0  0  0  0  0  0  0  0
    2.2059   -1.1210   -2.6455 H   0  0  0  0  0  0  0  0  0  0  0  0
    1.6166   -0.9854   -4.7376 H   0  0  0  0  0  0  0  0  0  0  0  0
    0.0963   -0.7783   -5.6717 H   0  0  0  0  0  0  0  0  0  0  0  0
    2.3933    1.7857   -7.2662 H   0  0  0  0  0  0  0  0  0  0  0  0
    2.0868   -0.0943   -7.3082 H   0  0  0  0  0  0  0  0  0  0  0  0
   -0.7409    2.1515   -3.8967 H   0  0  0  0  0  0  0  0  0  0  0  0
   -4.7363    0.2160   -5.1537 H   0  0  0  0  0  0  0  0  0  0  0  0
   -6.5315    1.8696   -5.4678 H   0  0  0  0  0  0  0  0  0  0  0  0
   -7.2290    4.2639   -5.4049 H   0  0  0  0  0  0  0  0  0  0  0  0
   -6.6640    6.5979   -4.9914 H   0  0  0  0  0  0  0  0  0  0  0  0
   -4.3991    7.2380   -4.2830 H   0  0  0  0  0  0  0  0  0  0  0  0
   -2.6638    5.5598   -3.9771 H   0  0  0  0  0  0  0  0  0  0  0  0
    3.5178   -2.2735   -1.6353 H   0  0  0  0  0  0  0  0  0  0  0  0
    6.8691   -0.4615   -1.7280 H   0  0  0  0  0  0  0  0  0  0  0  0
  1  2  1  0  0  0  0
  1 56  1  0  0  0  0
  1 57  1  0  0  0  0
  1 58  1  0  0  0  0
  2  3  1  0  0  0  0
  2  4  1  0  0  0  0
  2  5  1  0  0  0  0
  3 59  1  0  0  0  0
  3 60  1  0  0  0  0
  3 61  1  0  0  0  0
  4 62  1  0  0  0  0
  4 63  1  0  0  0  0
  4 64  1  0  0  0  0
  5  6  1  0  0  0  0
  5 65  1  0  0  0  0
  6  7  2  0  0  0  0
  6  8  1  0  0  0  0
  8  9  1  1  0  0  0
  8 20  1  0  0  0  0
  8 10  1  0  0  0  0
 10 11  1  0  0  0  0
 10 66  1  0  0  0  0
 10 67  1  0  0  0  0
 11 12  1  1  0  0  0
 11 17  1  0  0  0  0
 11 13  1  0  0  0  0
 13 14  1  0  0  0  0
 13 68  1  0  0  0  0
 13 69  1  0  0  0  0
 14 15  1  0  0  0  0
 14 70  1  0  0  0  0
 14 71  1  0  0  0  0
 15 16  1  0  0  0  0
 15 72  1  0  0  0  0
 15 73  1  0  0  0  0
 16 17  1  0  0  0  0
 16 74  1  0  0  0  0
 16 75  1  0  0  0  0
 17 18  1  6  0  0  0
 17 19  1  0  0  0  0
 19 20  1  0  0  0  0
 19 76  1  0  0  0  0
 19 77  1  0  0  0  0
 20 21  1  0  0  0  0
 20100  1  6  0  0  0
 21 22  1  0  0  0  0
 21 78  1  0  0  0  0
 21 79  1  0  0  0  0
 22 23  1  6  0  0  0
 22 24  1  0  0  0  0
 22 55  1  0  0  0  0
 24 25  1  6  0  0  0
 24 26  1  0  0  0  0
 24 33  1  0  0  0  0
 26 27  1  0  0  0  0
 26 80  1  0  0  0  0
 26 81  1  0  0  0  0
 27 32  2  0  0  0  0
 27 28  1  0  0  0  0
 28 29  2  0  0  0  0
 28 82  1  0  0  0  0
 29 30  1  0  0  0  0
 29 83  1  0  0  0  0
 30 31  2  0  0  0  0
 30 84  1  0  0  0  0
 31 32  1  0  0  0  0
 31 85  1  0  0  0  0
 32 86  1  0  0  0  0
 33 34  1  0  0  0  0
 33 87  1  0  0  0  0
 34 35  2  0  0  0  0
 34 36  1  0  0  0  0
 36 37  1  1  0  0  0
 36 38  1  0  0  0  0
 36 42  1  0  0  0  0
 38 39  1  0  0  0  0
 38 88  1  0  0  0  0
 38 89  1  0  0  0  0
 39 40  2  0  0  0  0
 39 41  1  0  0  0  0
 41 90  1  0  0  0  0
 41 91  1  0  0  0  0
 42 43  1  0  0  0  0
 42 92  1  0  0  0  0
 43 44  2  0  0  0  0
 43 45  1  0  0  0  0
 45 54  2  0  0  0  0
 45 46  1  0  0  0  0
 46 47  2  0  0  0  0
 46 93  1  0  0  0  0
 47 48  1  0  0  0  0
 47 94  1  0  0  0  0
 48 53  2  0  0  0  0
 48 49  1  0  0  0  0
 49 50  2  0  0  0  0
 49 95  1  0  0  0  0
 50 51  1  0  0  0  0
 50 96  1  0  0  0  0
 51 52  2  0  0  0  0
 51 97  1  0  0  0  0
 52 53  1  0  0  0  0
 52 98  1  0  0  0  0
 53 54  1  0  0  0  0
 55 99  1  0  0  0  0
M  CHG  1  20   1
M  END
$$$$
