ZINC04311748
 OpenBabel08292219463D

 32 34  0  0  0  0  0  0  0  0999 V2000
   -0.0169    1.3789    0.0123 C   0  0  0  0  0  0  0  0  0  0  0  0
    0.0291    0.0538   -0.3826 C   0  0  0  0  0  0  0  0  0  0  0  0
    1.2319   -0.6222   -0.4012 C   0  0  0  0  0  0  0  0  0  0  0  0
    2.4028    0.0333   -0.0212 C   0  0  0  0  0  0  0  0  0  0  0  0
    2.3501    1.3693    0.3755 C   0  0  0  0  0  0  0  0  0  0  0  0
    1.1413    2.0345    0.3903 C   0  0  0  0  0  0  0  0  0  0  0  0
    3.6974   -0.6869   -0.0384 C   0  0  0  0  0  0  0  0  0  0  0  0
    4.7685    0.0173   -0.1399 N   0  0  0  0  0  0  0  0  0  0  0  0
    6.0956   -0.5960   -0.1727 C   0  0  0  0  0  0  0  0  0  0  0  0
    6.2068   -1.4515   -1.4051 C   0  0  0  0  0  0  0  0  0  0  0  0
    7.0263   -1.1641   -2.2518 O   0  0  0  0  0  0  0  0  0  0  0  0
    5.4292   -2.5160   -1.5903 N   0  0  0  0  0  0  0  0  0  0  0  0
    4.4938   -2.9880   -0.6827 C   0  0  0  0  0  0  0  0  0  0  0  0
    3.6617   -2.1539    0.0677 C   0  0  0  0  0  0  0  0  0  0  0  0
    2.7421   -2.7190    0.9641 C   0  0  0  0  0  0  0  0  0  0  0  0
    2.6600   -4.0843    1.1131 C   0  0  0  0  0  0  0  0  0  0  0  0
    3.4888   -4.9132    0.3757 C   0  0  0  0  0  0  0  0  0  0  0  0
    4.3969   -4.3715   -0.5227 C   0  0  0  0  0  0  0  0  0  0  0  0
    1.6856   -4.6675    2.0625 N   0  0  0  0  0  4  0  0  0  0  0  0
    0.9621   -3.9442    2.7067 O   0  0  0  0  0  0  0  0  0  0  0  0
    1.6131   -5.8672    2.1936 O   0  5  0  0  0  0  0  0  0  0  0  0
   -0.9600    1.9049    0.0213 H   0  0  0  0  0  0  0  0  0  0  0  0
   -0.8783   -0.4528   -0.6767 H   0  0  0  0  0  0  0  0  0  0  0  0
    1.2665   -1.6568   -0.7090 H   0  0  0  0  0  0  0  0  0  0  0  0
    3.2535    1.8821    0.6712 H   0  0  0  0  0  0  0  0  0  0  0  0
    1.0991    3.0690    0.6973 H   0  0  0  0  0  0  0  0  0  0  0  0
    6.8574    0.1832   -0.1992 H   0  0  0  0  0  0  0  0  0  0  0  0
    6.2341   -1.2142    0.7144 H   0  0  0  0  0  0  0  0  0  0  0  0
    5.5244   -2.9990   -2.4261 H   0  0  0  0  0  0  0  0  0  0  0  0
    2.0938   -2.0772    1.5421 H   0  0  0  0  0  0  0  0  0  0  0  0
    3.4243   -5.9846    0.4951 H   0  0  0  0  0  0  0  0  0  0  0  0
    5.0409   -5.0223   -1.0954 H   0  0  0  0  0  0  0  0  0  0  0  0
  1  6  2  0  0  0  0
  1  2  1  0  0  0  0
  1 22  1  0  0  0  0
  2  3  2  0  0  0  0
  2 23  1  0  0  0  0
  3  4  1  0  0  0  0
  3 24  1  0  0  0  0
  4  5  2  0  0  0  0
  4  7  1  0  0  0  0
  5  6  1  0  0  0  0
  5 25  1  0  0  0  0
  6 26  1  0  0  0  0
  7 14  1  0  0  0  0
  7  8  2  0  0  0  0
  8  9  1  0  0  0  0
  9 10  1  0  0  0  0
  9 27  1  0  0  0  0
  9 28  1  0  0  0  0
 10 11  2  0  0  0  0
 10 12  1  0  0  0  0
 12 13  1  0  0  0  0
 12 29  1  0  0  0  0
 13 18  2  0  0  0  0
 13 14  1  0  0  0  0
 14 15  2  0  0  0  0
 15 16  1  0  0  0  0
 15 30  1  0  0  0  0
 16 17  2  0  0  0  0
 16 19  1  0  0  0  0
 17 18  1  0  0  0  0
 17 31  1  0  0  0  0
 18 32  1  0  0  0  0
 19 20  2  0  0  0  0
 19 21  1  0  0  0  0
M  CHG  1  21  -1
M  END
$$$$
