ZINC01668588
 OpenBabel08292219463D

 41 42  0  0  1  0  0  0  0  0999 V2000
    1.2796    3.8776    2.4035 C   0  0  0  0  0  0  0  0  0  0  0  0
   -0.1316    5.3188    1.0641 C   0  0  0  0  0  0  0  0  0  0  0  0
    1.1365    3.5462    0.0093 C   0  0  0  0  0  0  0  0  0  0  0  0
    1.2610    2.0214   -0.0089 C   0  0  0  0  0  0  0  0  0  0  0  0
   -0.0385    1.4387   -0.1256 O   0  0  0  0  0  0  0  0  0  0  0  0
   -0.0347    0.0099   -0.1519 C   0  0  1  0  0  0  0  0  0  0  0  0
    0.8951   -0.3428   -0.5983 H   0  0  0  0  0  0  0  0  0  0  0  0
   -0.1487   -0.5186    1.2548 C   0  0  0  0  0  0  0  0  0  0  0  0
   -0.9909    0.1003    2.1595 C   0  0  0  0  0  0  0  0  0  0  0  0
   -1.0988   -0.3872    3.4486 C   0  0  0  0  0  0  0  0  0  0  0  0
   -0.3574   -1.4878    3.8356 C   0  0  0  0  0  0  0  0  0  0  0  0
    0.4884   -2.1038    2.9322 C   0  0  0  0  0  0  0  0  0  0  0  0
    0.5931   -1.6190    1.6419 C   0  0  0  0  0  0  0  0  0  0  0  0
   -1.2020   -0.4806   -0.9690 C   0  0  0  0  0  0  0  0  0  0  0  0
   -2.4010    0.2070   -0.9434 C   0  0  0  0  0  0  0  0  0  0  0  0
   -3.4704   -0.2398   -1.6964 C   0  0  0  0  0  0  0  0  0  0  0  0
   -3.3441   -1.3812   -2.4676 C   0  0  0  0  0  0  0  0  0  0  0  0
   -2.1458   -2.0719   -2.4888 C   0  0  0  0  0  0  0  0  0  0  0  0
   -1.0753   -1.6214   -1.7396 C   0  0  0  0  0  0  0  0  0  0  0  0
   -4.8093   -1.9975   -3.4920 Br  0  0  0  0  0  0  0  0  0  0  0  0
    2.1447    4.5273    2.2704 H   0  0  0  0  0  0  0  0  0  0  0  0
    0.7209    4.1927    3.2848 H   0  0  0  0  0  0  0  0  0  0  0  0
    1.6147    2.8487    2.5344 H   0  0  0  0  0  0  0  0  0  0  0  0
   -0.8866    5.3181    0.2779 H   0  0  0  0  0  0  0  0  0  0  0  0
   -0.5848    5.6371    2.0028 H   0  0  0  0  0  0  0  0  0  0  0  0
    0.6709    6.0062    0.7965 H   0  0  0  0  0  0  0  0  0  0  0  0
    2.1312    3.9920    0.0071 H   0  0  0  0  0  0  0  0  0  0  0  0
    0.5883    3.8765   -0.8730 H   0  0  0  0  0  0  0  0  0  0  0  0
    1.7287    1.6839    0.9160 H   0  0  0  0  0  0  0  0  0  0  0  0
    1.8733    1.7169   -0.8577 H   0  0  0  0  0  0  0  0  0  0  0  0
   -1.5671    0.9626    1.8583 H   0  0  0  0  0  0  0  0  0  0  0  0
   -1.7599    0.0938    4.1542 H   0  0  0  0  0  0  0  0  0  0  0  0
   -0.4391   -1.8667    4.8437 H   0  0  0  0  0  0  0  0  0  0  0  0
    1.0677   -2.9637    3.2346 H   0  0  0  0  0  0  0  0  0  0  0  0
    1.2541   -2.1000    0.9363 H   0  0  0  0  0  0  0  0  0  0  0  0
   -2.5008    1.0959   -0.3381 H   0  0  0  0  0  0  0  0  0  0  0  0
   -4.4057    0.3000   -1.6799 H   0  0  0  0  0  0  0  0  0  0  0  0
   -2.0469   -2.9633   -3.0905 H   0  0  0  0  0  0  0  0  0  0  0  0
   -0.1398   -2.1608   -1.7558 H   0  0  0  0  0  0  0  0  0  0  0  0
    0.3933    3.9462    1.2227 N   0  3  0  0  0  0  0  0  0  0  0  0
   -0.3943    3.3017    1.3590 H   0  0  0  0  0  0  0  0  0  0  0  0
  1 21  1  0  0  0  0
  1 22  1  0  0  0  0
  1 23  1  0  0  0  0
  1 40  1  0  0  0  0
  2 24  1  0  0  0  0
  2 25  1  0  0  0  0
  2 26  1  0  0  0  0
  2 40  1  0  0  0  0
  3  4  1  0  0  0  0
  3 27  1  0  0  0  0
  3 28  1  0  0  0  0
  3 40  1  0  0  0  0
  4  5  1  0  0  0  0
  4 29  1  0  0  0  0
  4 30  1  0  0  0  0
  5  6  1  0  0  0  0
  6  7  1  6  0  0  0
  6  8  1  0  0  0  0
  6 14  1  0  0  0  0
  8 13  2  0  0  0  0
  8  9  1  0  0  0  0
  9 10  2  0  0  0  0
  9 31  1  0  0  0  0
 10 11  1  0  0  0  0
 10 32  1  0  0  0  0
 11 12  2  0  0  0  0
 11 33  1  0  0  0  0
 12 13  1  0  0  0  0
 12 34  1  0  0  0  0
 13 35  1  0  0  0  0
 14 19  2  0  0  0  0
 14 15  1  0  0  0  0
 15 16  2  0  0  0  0
 15 36  1  0  0  0  0
 16 17  1  0  0  0  0
 16 37  1  0  0  0  0
 17 18  2  0  0  0  0
 17 20  1  0  0  0  0
 18 19  1  0  0  0  0
 18 38  1  0  0  0  0
 19 39  1  0  0  0  0
 40 41  1  0  0  0  0
M  CHG  1  40   1
M  END
$$$$
