ZINC00014257
 OpenBabel08292219463D

 28 29  0  0  1  0  0  0  0  0999 V2000
   -2.0949    1.8115   -1.2374 C   0  0  0  0  0  0  0  0  0  0  0  0
   -1.2596    2.0677    0.0186 C   0  0  2  0  0  0  0  0  0  0  0  0
   -0.7104    3.5089    0.0238 C   0  0  0  0  0  0  0  0  0  0  0  0
    0.7904    3.3165    0.0104 C   0  0  0  0  0  0  0  0  0  0  0  0
    1.6125    4.2074    0.0061 O   0  0  0  0  0  0  0  0  0  0  0  0
    1.0665    2.0065    0.0045 N   0  0  0  0  0  0  0  0  0  0  0  0
   -0.0113    1.2125    0.0116 C   0  0  0  0  0  0  0  0  0  0  0  0
    0.0094    0.0004    0.0078 O   0  0  0  0  0  0  0  0  0  0  0  0
    2.4354    1.4849   -0.0087 C   0  0  0  0  0  0  0  0  0  0  0  0
   -2.0732    1.8084    1.2603 C   0  0  0  0  0  0  0  0  0  0  0  0
   -3.4037    1.4495    1.1524 C   0  0  0  0  0  0  0  0  0  0  0  0
   -4.1490    1.2078    2.2913 C   0  0  0  0  0  0  0  0  0  0  0  0
   -3.5659    1.3331    3.5384 C   0  0  0  0  0  0  0  0  0  0  0  0
   -2.2367    1.6972    3.6464 C   0  0  0  0  0  0  0  0  0  0  0  0
   -1.4904    1.9350    2.5074 C   0  0  0  0  0  0  0  0  0  0  0  0
   -2.4079    0.7676   -1.2589 H   0  0  0  0  0  0  0  0  0  0  0  0
   -2.9749    2.4545   -1.2260 H   0  0  0  0  0  0  0  0  0  0  0  0
   -1.4969    2.0297   -2.1222 H   0  0  0  0  0  0  0  0  0  0  0  0
   -1.0212    4.0383    0.9244 H   0  0  0  0  0  0  0  0  0  0  0  0
   -1.0363    4.0456   -0.8671 H   0  0  0  0  0  0  0  0  0  0  0  0
    2.7661    1.3583   -1.0396 H   0  0  0  0  0  0  0  0  0  0  0  0
    3.0963    2.1858    0.5014 H   0  0  0  0  0  0  0  0  0  0  0  0
    2.4625    0.5225    0.5023 H   0  0  0  0  0  0  0  0  0  0  0  0
   -3.8602    1.3549    0.1782 H   0  0  0  0  0  0  0  0  0  0  0  0
   -5.1875    0.9238    2.2069 H   0  0  0  0  0  0  0  0  0  0  0  0
   -4.1488    1.1469    4.4283 H   0  0  0  0  0  0  0  0  0  0  0  0
   -1.7812    1.7954    4.6207 H   0  0  0  0  0  0  0  0  0  0  0  0
   -0.4520    2.2195    2.5918 H   0  0  0  0  0  0  0  0  0  0  0  0
  1 16  1  0  0  0  0
  1 17  1  0  0  0  0
  1 18  1  0  0  0  0
  2  1  1  6  0  0  0
  2  7  1  0  0  0  0
  2  3  1  0  0  0  0
  2 10  1  0  0  0  0
  3  4  1  0  0  0  0
  3 19  1  0  0  0  0
  3 20  1  0  0  0  0
  4  5  2  0  0  0  0
  4  6  1  0  0  0  0
  6  7  1  0  0  0  0
  6  9  1  0  0  0  0
  7  8  2  0  0  0  0
  9 21  1  0  0  0  0
  9 22  1  0  0  0  0
  9 23  1  0  0  0  0
 10 15  2  0  0  0  0
 10 11  1  0  0  0  0
 11 12  2  0  0  0  0
 11 24  1  0  0  0  0
 12 13  1  0  0  0  0
 12 25  1  0  0  0  0
 13 14  2  0  0  0  0
 13 26  1  0  0  0  0
 14 15  1  0  0  0  0
 14 27  1  0  0  0  0
 15 28  1  0  0  0  0
M  END
$$$$
