ZINC53073961
 OpenBabel08292219463D

 68 72  0  0  0  0  0  0  0  0999 V2000
   -1.1592    1.0840    0.5117 C   0  0  0  0  0  0  0  0  0  0  0  0
   -0.3037    2.1137    0.1519 C   0  0  0  0  0  0  0  0  0  0  0  0
    1.0412    1.8709   -0.0374 C   0  0  0  0  0  0  0  0  0  0  0  0
    1.5476    0.5881    0.1316 C   0  0  0  0  0  0  0  0  0  0  0  0
    0.6838   -0.4571    0.4960 C   0  0  0  0  0  0  0  0  0  0  0  0
   -0.6761   -0.1943    0.6844 C   0  0  0  0  0  0  0  0  0  0  0  0
    1.2072   -1.8221    0.6780 C   0  0  0  0  0  0  0  0  0  0  0  0
    2.4007   -2.0322    0.5878 O   0  0  0  0  0  0  0  0  0  0  0  0
    0.3624   -2.8377    0.9447 O   0  0  0  0  0  0  0  0  0  0  0  0
    0.9389   -4.1348    1.1093 C   0  0  0  0  0  0  0  0  0  0  0  0
   -0.1666   -5.1507    1.4037 C   0  0  0  0  0  0  0  0  0  0  0  0
   -1.0434   -5.2736    0.2315 N   0  0  0  0  0  0  0  0  0  0  0  0
   -2.3338   -5.8715    0.5996 C   0  0  0  0  0  0  0  0  0  0  0  0
   -3.2805   -5.8163   -0.6040 C   0  0  0  0  0  0  0  0  0  0  0  0
   -2.6108   -6.4420   -1.7543 N   0  0  0  0  0  0  0  0  0  0  0  0
   -1.2550   -5.9893   -2.1009 C   0  0  0  0  0  0  0  0  0  0  0  0
   -0.3880   -6.0377   -0.8383 C   0  0  0  0  0  0  0  0  0  0  0  0
   -3.2453   -7.4399   -2.4976 C   0  0  0  0  0  0  0  0  0  0  0  0
   -4.5731   -7.7597   -2.2431 C   0  0  0  0  0  0  0  0  0  0  0  0
   -5.1975   -8.7464   -2.9800 C   0  0  0  0  0  0  0  0  0  0  0  0
   -4.5024   -9.4165   -3.9703 C   0  0  0  0  0  0  0  0  0  0  0  0
   -3.1807   -9.1011   -4.2259 C   0  0  0  0  0  0  0  0  0  0  0  0
   -2.5519   -8.1109   -3.4967 C   0  0  0  0  0  0  0  0  0  0  0  0
   -2.4270   -9.8347   -5.3053 C   0  0  0  0  0  0  0  0  0  0  0  0
   -3.2689  -10.7790   -5.9024 F   0  0  0  0  0  0  0  0  0  0  0  0
   -1.9903   -8.9221   -6.2716 F   0  0  0  0  0  0  0  0  0  0  0  0
   -1.3222  -10.4838   -4.7438 F   0  0  0  0  0  0  0  0  0  0  0  0
    2.9015    0.3408   -0.0594 N   0  0  0  0  0  0  0  0  0  0  0  0
    3.3461   -0.1967   -1.2589 C   0  0  0  0  0  0  0  0  0  0  0  0
    2.4729   -0.4104   -2.3141 C   0  0  0  0  0  0  0  0  0  0  0  0
    2.9482   -0.9497   -3.5015 C   0  0  0  0  0  0  0  0  0  0  0  0
    4.2118   -1.2681   -3.6612 N   0  0  0  0  0  0  0  0  0  0  0  0
    5.1099   -1.0893   -2.6860 C   0  0  0  0  0  0  0  0  0  0  0  0
    4.7066   -0.5387   -1.4459 C   0  0  0  0  0  0  0  0  0  0  0  0
    5.6532   -0.3485   -0.4298 C   0  0  0  0  0  0  0  0  0  0  0  0
    6.9539   -0.6907   -0.6481 C   0  0  0  0  0  0  0  0  0  0  0  0
    7.3553   -1.2271   -1.8691 C   0  0  0  0  0  0  0  0  0  0  0  0
    6.4594   -1.4354   -2.8727 C   0  0  0  0  0  0  0  0  0  0  0  0
    8.8018   -1.5946   -2.0781 C   0  0  0  0  0  0  0  0  0  0  0  0
    9.5285   -1.3066   -0.9179 F   0  0  0  0  0  0  0  0  0  0  0  0
    8.8995   -2.9609   -2.3624 F   0  0  0  0  0  0  0  0  0  0  0  0
    9.3203   -0.8574   -3.1481 F   0  0  0  0  0  0  0  0  0  0  0  0
   -2.2095    1.2861    0.6617 H   0  0  0  0  0  0  0  0  0  0  0  0
   -0.6925    3.1124    0.0186 H   0  0  0  0  0  0  0  0  0  0  0  0
    1.7009    2.6787   -0.3177 H   0  0  0  0  0  0  0  0  0  0  0  0
   -1.3472   -0.9926    0.9648 H   0  0  0  0  0  0  0  0  0  0  0  0
    1.4599   -4.4195    0.1952 H   0  0  0  0  0  0  0  0  0  0  0  0
    1.6453   -4.1158    1.9392 H   0  0  0  0  0  0  0  0  0  0  0  0
    0.2802   -6.1196    1.6265 H   0  0  0  0  0  0  0  0  0  0  0  0
   -0.7505   -4.8142    2.2604 H   0  0  0  0  0  0  0  0  0  0  0  0
   -2.1824   -6.9095    0.8960 H   0  0  0  0  0  0  0  0  0  0  0  0
   -2.7686   -5.3154    1.4302 H   0  0  0  0  0  0  0  0  0  0  0  0
   -4.1972   -6.3594   -0.3741 H   0  0  0  0  0  0  0  0  0  0  0  0
   -3.5157   -4.7779   -0.8376 H   0  0  0  0  0  0  0  0  0  0  0  0
   -0.8324   -6.6468   -2.8607 H   0  0  0  0  0  0  0  0  0  0  0  0
   -1.2954   -4.9675   -2.4784 H   0  0  0  0  0  0  0  0  0  0  0  0
    0.5884   -5.6021   -1.0506 H   0  0  0  0  0  0  0  0  0  0  0  0
   -0.2637   -7.0733   -0.5220 H   0  0  0  0  0  0  0  0  0  0  0  0
   -5.1163   -7.2373   -1.4694 H   0  0  0  0  0  0  0  0  0  0  0  0
   -6.2297   -8.9955   -2.7827 H   0  0  0  0  0  0  0  0  0  0  0  0
   -4.9930  -10.1882   -4.5450 H   0  0  0  0  0  0  0  0  0  0  0  0
   -1.5209   -7.8617   -3.7000 H   0  0  0  0  0  0  0  0  0  0  0  0
    3.5358    0.5440    0.6457 H   0  0  0  0  0  0  0  0  0  0  0  0
    1.4275   -0.1588   -2.2126 H   0  0  0  0  0  0  0  0  0  0  0  0
    2.2590   -1.1123   -4.3170 H   0  0  0  0  0  0  0  0  0  0  0  0
    5.3534    0.0674    0.5208 H   0  0  0  0  0  0  0  0  0  0  0  0
    7.6827   -0.5439    0.1353 H   0  0  0  0  0  0  0  0  0  0  0  0
    6.7867   -1.8529   -3.8134 H   0  0  0  0  0  0  0  0  0  0  0  0
  1  6  2  0  0  0  0
  1  2  1  0  0  0  0
  1 43  1  0  0  0  0
  2  3  2  0  0  0  0
  2 44  1  0  0  0  0
  3  4  1  0  0  0  0
  3 45  1  0  0  0  0
  4  5  2  0  0  0  0
  4 28  1  0  0  0  0
  5  6  1  0  0  0  0
  5  7  1  0  0  0  0
  6 46  1  0  0  0  0
  7  8  2  0  0  0  0
  7  9  1  0  0  0  0
  9 10  1  0  0  0  0
 10 11  1  0  0  0  0
 10 47  1  0  0  0  0
 10 48  1  0  0  0  0
 11 12  1  0  0  0  0
 11 49  1  0  0  0  0
 11 50  1  0  0  0  0
 12 17  1  0  0  0  0
 12 13  1  0  0  0  0
 13 14  1  0  0  0  0
 13 51  1  0  0  0  0
 13 52  1  0  0  0  0
 14 15  1  0  0  0  0
 14 53  1  0  0  0  0
 14 54  1  0  0  0  0
 15 16  1  0  0  0  0
 15 18  1  0  0  0  0
 16 17  1  0  0  0  0
 16 55  1  0  0  0  0
 16 56  1  0  0  0  0
 17 57  1  0  0  0  0
 17 58  1  0  0  0  0
 18 23  2  0  0  0  0
 18 19  1  0  0  0  0
 19 20  2  0  0  0  0
 19 59  1  0  0  0  0
 20 21  1  0  0  0  0
 20 60  1  0  0  0  0
 21 22  2  0  0  0  0
 21 61  1  0  0  0  0
 22 23  1  0  0  0  0
 22 24  1  0  0  0  0
 23 62  1  0  0  0  0
 24 25  1  0  0  0  0
 24 26  1  0  0  0  0
 24 27  1  0  0  0  0
 28 29  1  0  0  0  0
 28 63  1  0  0  0  0
 29 34  2  0  0  0  0
 29 30  1  0  0  0  0
 30 31  2  0  0  0  0
 30 64  1  0  0  0  0
 31 32  1  0  0  0  0
 31 65  1  0  0  0  0
 32 33  2  0  0  0  0
 33 38  1  0  0  0  0
 33 34  1  0  0  0  0
 34 35  1  0  0  0  0
 35 36  2  0  0  0  0
 35 66  1  0  0  0  0
 36 37  1  0  0  0  0
 36 67  1  0  0  0  0
 37 38  2  0  0  0  0
 37 39  1  0  0  0  0
 38 68  1  0  0  0  0
 39 40  1  0  0  0  0
 39 41  1  0  0  0  0
 39 42  1  0  0  0  0
M  END
$$$$
