ZINC00020241
 OpenBabel08292219463D

 32 33  0  0  0  0  0  0  0  0999 V2000
   -0.1270    1.4527   -0.1407 C   0  0  0  0  0  0  0  0  0  0  0  0
   -0.1213   -0.0541   -0.1173 C   0  0  0  0  0  0  0  0  0  0  0  0
   -0.1891   -0.7637   -1.3027 C   0  0  0  0  0  0  0  0  0  0  0  0
   -0.1846   -2.1462   -1.2858 C   0  0  0  0  0  0  0  0  0  0  0  0
   -0.1123   -2.8235   -0.0842 C   0  0  0  0  0  0  0  0  0  0  0  0
   -0.0436   -2.1141    1.1080 C   0  0  0  0  0  0  0  0  0  0  0  0
   -0.0427   -0.7248    1.0870 C   0  0  0  0  0  0  0  0  0  0  0  0
    0.0374    0.0491    2.3776 C   0  0  0  0  0  0  0  0  0  0  0  0
    0.0291   -2.7961    2.3254 N   0  0  0  0  0  0  0  0  0  0  0  0
   -0.0480   -4.1815    2.3504 C   0  0  0  0  0  0  0  0  0  0  0  0
   -1.2336   -4.8092    2.7139 C   0  0  0  0  0  0  0  0  0  0  0  0
   -1.3074   -6.1862    2.7384 C   0  0  0  0  0  0  0  0  0  0  0  0
   -0.2039   -6.9555    2.4014 C   0  0  0  0  0  0  0  0  0  0  0  0
    0.9797   -6.3537    2.0380 C   0  0  0  0  0  0  0  0  0  0  0  0
    1.0707   -4.9579    2.0026 C   0  0  0  0  0  0  0  0  0  0  0  0
    2.3298   -4.3079    1.6101 C   0  0  0  0  0  0  0  0  0  0  0  0
    3.2619   -4.9816    1.1924 O   0  0  0  0  0  0  0  0  0  0  0  0
    2.4455   -3.0931    1.7012 O   0  0  0  0  0  1  0  0  0  0  0  0
    0.8972    1.8188   -0.2117 H   0  0  0  0  0  0  0  0  0  0  0  0
   -0.6976    1.8005   -1.0018 H   0  0  0  0  0  0  0  0  0  0  0  0
   -0.5846    1.8285    0.7744 H   0  0  0  0  0  0  0  0  0  0  0  0
   -0.2460   -0.2365   -2.2436 H   0  0  0  0  0  0  0  0  0  0  0  0
   -0.2380   -2.6972   -2.2132 H   0  0  0  0  0  0  0  0  0  0  0  0
   -0.1095   -3.9034   -0.0717 H   0  0  0  0  0  0  0  0  0  0  0  0
   -0.9689    0.2328    2.7541 H   0  0  0  0  0  0  0  0  0  0  0  0
    0.6006   -0.5266    3.1121 H   0  0  0  0  0  0  0  0  0  0  0  0
    0.5383    1.0007    2.2002 H   0  0  0  0  0  0  0  0  0  0  0  0
    0.1334   -2.3012    3.1531 H   0  0  0  0  0  0  0  0  0  0  0  0
   -2.0980   -4.2179    2.9779 H   0  0  0  0  0  0  0  0  0  0  0  0
   -2.2310   -6.6687    3.0223 H   0  0  0  0  0  0  0  0  0  0  0  0
   -0.2734   -8.0331    2.4245 H   0  0  0  0  0  0  0  0  0  0  0  0
    1.8358   -6.9582    1.7769 H   0  0  0  0  0  0  0  0  0  0  0  0
  1  2  1  0  0  0  0
  1 19  1  0  0  0  0
  1 20  1  0  0  0  0
  1 21  1  0  0  0  0
  2  7  2  0  0  0  0
  2  3  1  0  0  0  0
  3  4  2  0  0  0  0
  3 22  1  0  0  0  0
  4  5  1  0  0  0  0
  4 23  1  0  0  0  0
  5  6  2  0  0  0  0
  5 24  1  0  0  0  0
  6  7  1  0  0  0  0
  6  9  1  0  0  0  0
  7  8  1  0  0  0  0
  8 25  1  0  0  0  0
  8 26  1  0  0  0  0
  8 27  1  0  0  0  0
  9 10  1  0  0  0  0
  9 28  1  0  0  0  0
 10 15  2  0  0  0  0
 10 11  1  0  0  0  0
 11 12  2  0  0  0  0
 11 29  1  0  0  0  0
 12 13  1  0  0  0  0
 12 30  1  0  0  0  0
 13 14  2  0  0  0  0
 13 31  1  0  0  0  0
 14 15  1  0  0  0  0
 14 32  1  0  0  0  0
 15 16  1  0  0  0  0
 16 17  2  0  0  0  0
 16 18  1  0  0  0  0
M  END
$$$$
