ZINC05138062
 OpenBabel08292219463D

 62 66  0  0  1  0  0  0  0  0999 V2000
   -1.9632    0.3883   10.0563 C   0  0  0  0  0  0  0  0  0  0  0  0
   -1.9080    0.7784    8.6017 C   0  0  0  0  0  0  0  0  0  0  0  0
   -2.4055    0.0627    7.7650 O   0  0  0  0  0  0  0  0  0  0  0  0
   -1.3062    1.9210    8.2357 O   0  0  0  0  0  0  0  0  0  0  0  0
   -1.2908    2.2331    6.8177 C   0  0  1  0  0  0  0  0  0  0  0  0
   -2.1757    1.8092    6.3428 H   0  0  0  0  0  0  0  0  0  0  0  0
   -1.2889    3.7511    6.6296 C   0  0  0  0  0  0  0  0  0  0  0  0
   -1.3652    4.0863    5.1388 C   0  0  0  0  0  0  0  0  0  0  0  0
   -0.1199    3.5440    4.4315 C   0  0  2  0  0  0  0  0  0  0  0  0
   -0.1930    3.8465    2.9446 C   0  0  2  0  0  0  0  0  0  0  0  0
    0.1124    4.8783    2.7707 H   0  0  0  0  0  0  0  0  0  0  0  0
   -1.6281    3.6502    2.4420 C   0  0  0  0  0  0  0  0  0  0  0  0
   -1.6823    4.0778    0.9755 C   0  0  0  0  0  0  0  0  0  0  0  0
   -0.7279    3.2747    0.1273 C   0  0  1  0  0  0  0  0  0  0  0  0
    0.7134    3.2508    0.6737 C   0  0  1  0  0  0  0  0  0  0  0  0
    1.2828    4.1448    0.4193 H   0  0  0  0  0  0  0  0  0  0  0  0
    0.7440    2.9317    2.1696 C   0  0  2  0  0  0  0  0  0  0  0  0
    1.7648    3.0267    2.5398 H   0  0  0  0  0  0  0  0  0  0  0  0
    0.2365    1.4783    2.3417 C   0  0  0  0  0  0  0  0  0  0  0  0
    0.1793    1.1671    3.8099 C   0  0  0  0  0  0  0  0  0  0  0  0
    0.0192    2.0783    4.7243 C   0  0  0  0  0  0  0  0  0  0  0  0
   -0.0332    1.6379    6.1775 C   0  0  0  0  0  0  0  0  0  0  0  0
    1.2186    1.9652   -0.0565 C   0  0  0  0  0  0  0  0  0  0  0  0
   -0.0143    1.0798   -0.0827 C   0  0  0  0  0  0  0  0  0  0  0  0
   -1.1130    1.8228    0.0167 C   0  0  0  0  0  0  0  0  0  0  0  0
   -2.4971    1.3040    0.0209 C   0  0  0  0  0  0  0  0  0  0  0  0
   -2.9451    0.4804    1.0601 C   0  0  0  0  0  0  0  0  0  0  0  0
   -4.2512    0.0253    1.0197 C   0  0  0  0  0  0  0  0  0  0  0  0
   -5.0616    0.3867   -0.0416 C   0  0  0  0  0  0  0  0  0  0  0  0
   -4.6104    1.1601   -1.0101 N   0  0  0  0  0  0  0  0  0  0  0  0
   -3.3770    1.6223   -1.0137 C   0  0  0  0  0  0  0  0  0  0  0  0
   -0.7034    3.8732   -1.2806 C   0  0  0  0  0  0  0  0  0  0  0  0
    1.0978    4.2675    5.0101 C   0  0  0  0  0  0  0  0  0  0  0  0
   -1.4662    1.1507   10.6561 H   0  0  0  0  0  0  0  0  0  0  0  0
   -3.0035    0.3004   10.3697 H   0  0  0  0  0  0  0  0  0  0  0  0
   -1.4599   -0.5685   10.1952 H   0  0  0  0  0  0  0  0  0  0  0  0
   -2.1491    4.1811    7.1425 H   0  0  0  0  0  0  0  0  0  0  0  0
   -0.3726    4.1671    7.0484 H   0  0  0  0  0  0  0  0  0  0  0  0
   -1.4138    5.1678    5.0114 H   0  0  0  0  0  0  0  0  0  0  0  0
   -2.2560    3.6289    4.7084 H   0  0  0  0  0  0  0  0  0  0  0  0
   -2.3108    4.2640    3.0295 H   0  0  0  0  0  0  0  0  0  0  0  0
   -1.9082    2.6005    2.5296 H   0  0  0  0  0  0  0  0  0  0  0  0
   -1.4209    5.1335    0.9028 H   0  0  0  0  0  0  0  0  0  0  0  0
   -2.6963    3.9359    0.6017 H   0  0  0  0  0  0  0  0  0  0  0  0
    0.9260    0.7922    1.8499 H   0  0  0  0  0  0  0  0  0  0  0  0
   -0.7573    1.3709    1.9070 H   0  0  0  0  0  0  0  0  0  0  0  0
    0.2754    0.1374    4.1213 H   0  0  0  0  0  0  0  0  0  0  0  0
   -0.0743    0.5499    6.2301 H   0  0  0  0  0  0  0  0  0  0  0  0
    0.8515    1.9981    6.7025 H   0  0  0  0  0  0  0  0  0  0  0  0
    2.0213    1.4915    0.5085 H   0  0  0  0  0  0  0  0  0  0  0  0
    1.5474    2.1981   -1.0693 H   0  0  0  0  0  0  0  0  0  0  0  0
   -0.0014    0.0037   -0.1734 H   0  0  0  0  0  0  0  0  0  0  0  0
   -2.2893    0.2100    1.8745 H   0  0  0  0  0  0  0  0  0  0  0  0
   -4.6326   -0.6089    1.8063 H   0  0  0  0  0  0  0  0  0  0  0  0
   -6.0802    0.0295   -0.0778 H   0  0  0  0  0  0  0  0  0  0  0  0
   -3.0441    2.2534   -1.8244 H   0  0  0  0  0  0  0  0  0  0  0  0
   -0.0715    3.2614   -1.9245 H   0  0  0  0  0  0  0  0  0  0  0  0
   -1.7162    3.8976   -1.6826 H   0  0  0  0  0  0  0  0  0  0  0  0
   -0.3050    4.8868   -1.2376 H   0  0  0  0  0  0  0  0  0  0  0  0
    0.9917    5.3407    4.8521 H   0  0  0  0  0  0  0  0  0  0  0  0
    1.1682    4.0628    6.0784 H   0  0  0  0  0  0  0  0  0  0  0  0
    2.0008    3.9143    4.5122 H   0  0  0  0  0  0  0  0  0  0  0  0
  1  2  1  0  0  0  0
  1 34  1  0  0  0  0
  1 35  1  0  0  0  0
  1 36  1  0  0  0  0
  2  3  2  0  0  0  0
  2  4  1  0  0  0  0
  4  5  1  0  0  0  0
  5  6  1  6  0  0  0
  5 22  1  0  0  0  0
  5  7  1  0  0  0  0
  7  8  1  0  0  0  0
  7 37  1  0  0  0  0
  7 38  1  0  0  0  0
  8  9  1  0  0  0  0
  8 39  1  0  0  0  0
  8 40  1  0  0  0  0
  9 21  1  0  0  0  0
  9 10  1  0  0  0  0
  9 33  1  1  0  0  0
 10 11  1  6  0  0  0
 10 17  1  0  0  0  0
 10 12  1  0  0  0  0
 12 13  1  0  0  0  0
 12 41  1  0  0  0  0
 12 42  1  0  0  0  0
 13 14  1  0  0  0  0
 13 43  1  0  0  0  0
 13 44  1  0  0  0  0
 14 25  1  0  0  0  0
 14 15  1  0  0  0  0
 14 32  1  6  0  0  0
 15 16  1  6  0  0  0
 15 17  1  0  0  0  0
 15 23  1  0  0  0  0
 17 18  1  1  0  0  0
 17 19  1  0  0  0  0
 19 20  1  0  0  0  0
 19 45  1  0  0  0  0
 19 46  1  0  0  0  0
 20 21  2  0  0  0  0
 20 47  1  0  0  0  0
 21 22  1  0  0  0  0
 22 48  1  0  0  0  0
 22 49  1  0  0  0  0
 23 24  1  0  0  0  0
 23 50  1  0  0  0  0
 23 51  1  0  0  0  0
 24 25  2  0  0  0  0
 24 52  1  0  0  0  0
 25 26  1  0  0  0  0
 26 31  2  0  0  0  0
 26 27  1  0  0  0  0
 27 28  2  0  0  0  0
 27 53  1  0  0  0  0
 28 29  1  0  0  0  0
 28 54  1  0  0  0  0
 29 30  2  0  0  0  0
 29 55  1  0  0  0  0
 30 31  1  0  0  0  0
 31 56  1  0  0  0  0
 32 57  1  0  0  0  0
 32 58  1  0  0  0  0
 32 59  1  0  0  0  0
 33 60  1  0  0  0  0
 33 61  1  0  0  0  0
 33 62  1  0  0  0  0
M  END
$$$$
