ZINC00057060
 OpenBabel08292219463D

 33 34  0  0  0  0  0  0  0  0999 V2000
   -0.0184    1.5028    0.0103 C   0  0  0  0  0  0  0  0  0  0  0  0
    0.0021   -0.0041    0.0020 C   0  0  0  0  0  0  0  0  0  0  0  0
    1.0605   -0.5961   -0.0113 O   0  0  0  0  0  0  0  0  0  0  0  0
   -1.1558   -0.6938    0.0094 N   0  0  0  0  0  0  0  0  0  0  0  0
   -1.1360   -2.1586    0.0013 C   0  0  0  0  0  0  0  0  0  0  0  0
   -2.5713   -2.6882    0.0122 C   0  0  0  0  0  0  0  0  0  0  0  0
   -2.5509   -4.1950    0.0039 C   0  0  0  0  0  0  0  0  0  0  0  0
   -2.6385   -4.9886   -1.0753 C   0  0  0  0  0  0  0  0  0  0  0  0
   -2.5847   -6.3015   -0.6946 N   0  0  0  0  0  0  0  0  0  0  0  0
   -2.6290   -7.0593   -1.2986 H   0  0  0  0  0  0  0  0  0  0  0  0
   -2.4577   -6.3869    0.6759 C   0  0  0  0  0  0  0  0  0  0  0  0
   -2.4252   -5.0710    1.1714 C   0  0  0  0  0  0  0  0  0  0  0  0
   -2.2964   -4.8447    2.5432 C   0  0  0  0  0  0  0  0  0  0  0  0
   -2.1981   -5.9187    3.4055 C   0  0  0  0  0  0  0  0  0  0  0  0
   -2.2271   -7.2201    2.9116 C   0  0  0  0  0  0  0  0  0  0  0  0
   -2.3616   -7.4550    1.5612 C   0  0  0  0  0  0  0  0  0  0  0  0
   -2.0719   -5.7044    4.7424 O   0  0  0  0  0  0  0  0  0  0  0  0
   -1.9750   -6.8594    5.5783 C   0  0  0  0  0  0  0  0  0  0  0  0
    1.0042    1.8801    0.0026 H   0  0  0  0  0  0  0  0  0  0  0  0
   -0.5455    1.8639   -0.8728 H   0  0  0  0  0  0  0  0  0  0  0  0
   -0.5286    1.8543    0.9071 H   0  0  0  0  0  0  0  0  0  0  0  0
   -2.0023   -0.2203    0.0200 H   0  0  0  0  0  0  0  0  0  0  0  0
   -0.6258   -2.5101   -0.8955 H   0  0  0  0  0  0  0  0  0  0  0  0
   -0.6088   -2.5197    0.8844 H   0  0  0  0  0  0  0  0  0  0  0  0
   -3.0815   -2.3367    0.9090 H   0  0  0  0  0  0  0  0  0  0  0  0
   -3.0985   -2.3271   -0.8709 H   0  0  0  0  0  0  0  0  0  0  0  0
   -2.7373   -4.6419   -2.0933 H   0  0  0  0  0  0  0  0  0  0  0  0
   -2.2733   -3.8356    2.9275 H   0  0  0  0  0  0  0  0  0  0  0  0
   -2.1492   -8.0532    3.5943 H   0  0  0  0  0  0  0  0  0  0  0  0
   -2.3815   -8.4686    1.1887 H   0  0  0  0  0  0  0  0  0  0  0  0
   -1.8789   -6.5481    6.6184 H   0  0  0  0  0  0  0  0  0  0  0  0
   -2.8719   -7.4679    5.4625 H   0  0  0  0  0  0  0  0  0  0  0  0
   -1.1004   -7.4432    5.2914 H   0  0  0  0  0  0  0  0  0  0  0  0
  1  2  1  0  0  0  0
  1 19  1  0  0  0  0
  1 20  1  0  0  0  0
  1 21  1  0  0  0  0
  2  3  2  0  0  0  0
  2  4  1  0  0  0  0
  4  5  1  0  0  0  0
  4 22  1  0  0  0  0
  5  6  1  0  0  0  0
  5 23  1  0  0  0  0
  5 24  1  0  0  0  0
  6  7  1  0  0  0  0
  6 25  1  0  0  0  0
  6 26  1  0  0  0  0
  7 12  1  0  0  0  0
  7  8  2  0  0  0  0
  8  9  1  0  0  0  0
  8 27  1  0  0  0  0
  9 10  1  0  0  0  0
  9 11  1  0  0  0  0
 11 16  2  0  0  0  0
 11 12  1  0  0  0  0
 12 13  2  0  0  0  0
 13 14  1  0  0  0  0
 13 28  1  0  0  0  0
 14 15  2  0  0  0  0
 14 17  1  0  0  0  0
 15 16  1  0  0  0  0
 15 29  1  0  0  0  0
 16 30  1  0  0  0  0
 17 18  1  0  0  0  0
 18 31  1  0  0  0  0
 18 32  1  0  0  0  0
 18 33  1  0  0  0  0
M  END
$$$$
