ZINC12503068
 OpenBabel08292219463D

 59 63  0  0  1  0  0  0  0  0999 V2000
   -0.1864    0.8198   -0.8888 C   0  0  0  0  0  0  0  0  0  0  0  0
    0.7549    1.6285   -0.2799 C   0  0  0  0  0  0  0  0  0  0  0  0
    2.0161    1.1343   -0.0043 C   0  0  0  0  0  0  0  0  0  0  0  0
    2.3359   -0.1687   -0.3372 C   0  0  0  0  0  0  0  0  0  0  0  0
    1.3943   -0.9777   -0.9453 C   0  0  0  0  0  0  0  0  0  0  0  0
    0.1335   -0.4831   -1.2222 C   0  0  0  0  0  0  0  0  0  0  0  0
    3.7112   -0.7071   -0.0376 C   0  0  0  0  0  0  0  0  0  0  0  0
    3.5899   -1.9722    0.7724 C   0  0  0  0  0  0  0  0  0  0  0  0
    3.2952   -3.1685    0.1457 C   0  0  0  0  0  0  0  0  0  0  0  0
    3.1840   -4.3289    0.8886 C   0  0  0  0  0  0  0  0  0  0  0  0
    3.3679   -4.2930    2.2582 C   0  0  0  0  0  0  0  0  0  0  0  0
    3.6635   -3.0968    2.8848 C   0  0  0  0  0  0  0  0  0  0  0  0
    3.7789   -1.9372    2.1413 C   0  0  0  0  0  0  0  0  0  0  0  0
    4.4266   -1.0048   -1.3301 C   0  0  0  0  0  0  0  0  0  0  0  0
    3.7925   -1.2424   -2.3307 O   0  0  0  0  0  0  0  0  0  0  0  0
    5.7683   -1.0060   -1.3696 O   0  0  0  0  0  0  0  0  0  0  0  0
    6.3800   -1.2964   -2.6280 C   0  0  1  0  0  0  0  0  0  0  0  0
    6.5807    0.0058   -3.4089 C   0  0  0  0  0  0  0  0  0  0  0  0
    7.6079    0.8766   -2.6646 C   0  0  1  0  0  0  0  0  0  0  0  0
    7.6966    1.8725   -3.0987 H   0  0  0  0  0  0  0  0  0  0  0  0
    7.1892    0.9187   -1.1749 C   0  0  0  0  0  0  0  0  0  0  0  0
    7.8870   -0.2999   -0.5341 C   0  0  0  0  0  0  0  0  0  0  0  0
    8.6637   -0.9671   -1.6951 C   0  0  1  0  0  0  0  0  0  0  0  0
    9.5957   -1.4239   -1.3621 H   0  0  0  0  0  0  0  0  0  0  0  0
    7.7326   -1.9749   -2.3920 C   0  0  0  0  0  0  0  0  0  0  0  0
    8.8930    0.1427   -2.6712 N   0  3  0  0  0  0  0  0  0  0  0  0
    9.9891    1.0125   -2.2182 C   0  0  0  0  0  0  0  0  0  0  0  0
   11.2202    0.5488   -3.0394 C   0  0  0  0  0  0  0  0  0  0  0  0
   10.5756    0.2059   -4.4091 C   0  0  0  0  0  0  0  0  0  0  0  0
    9.1973   -0.3687   -4.0114 C   0  0  0  0  0  0  0  0  0  0  0  0
    4.4518    0.2642    0.7041 O   0  0  0  0  0  0  0  0  0  0  0  0
   -1.1732    1.2045   -1.1001 H   0  0  0  0  0  0  0  0  0  0  0  0
    0.5051    2.6465   -0.0198 H   0  0  0  0  0  0  0  0  0  0  0  0
    2.7518    1.7663    0.4708 H   0  0  0  0  0  0  0  0  0  0  0  0
    1.6443   -1.9955   -1.2060 H   0  0  0  0  0  0  0  0  0  0  0  0
   -0.6020   -1.1150   -1.6976 H   0  0  0  0  0  0  0  0  0  0  0  0
    3.1516   -3.1966   -0.9243 H   0  0  0  0  0  0  0  0  0  0  0  0
    2.9531   -5.2635    0.3991 H   0  0  0  0  0  0  0  0  0  0  0  0
    3.2803   -5.1995    2.8388 H   0  0  0  0  0  0  0  0  0  0  0  0
    3.8068   -3.0687    3.9549 H   0  0  0  0  0  0  0  0  0  0  0  0
    4.0135   -1.0033    2.6304 H   0  0  0  0  0  0  0  0  0  0  0  0
    5.7347   -1.9640   -3.1990 H   0  0  0  0  0  0  0  0  0  0  0  0
    6.9503   -0.2211   -4.4089 H   0  0  0  0  0  0  0  0  0  0  0  0
    5.6327    0.5391   -3.4798 H   0  0  0  0  0  0  0  0  0  0  0  0
    7.5347    1.8418   -0.7096 H   0  0  0  0  0  0  0  0  0  0  0  0
    6.1069    0.8282   -1.0822 H   0  0  0  0  0  0  0  0  0  0  0  0
    8.5757    0.0242    0.2462 H   0  0  0  0  0  0  0  0  0  0  0  0
    7.1478   -0.9894   -0.1264 H   0  0  0  0  0  0  0  0  0  0  0  0
    7.5986   -2.8415   -1.7446 H   0  0  0  0  0  0  0  0  0  0  0  0
    8.1543   -2.2909   -3.3461 H   0  0  0  0  0  0  0  0  0  0  0  0
    9.7598    2.0562   -2.4331 H   0  0  0  0  0  0  0  0  0  0  0  0
   10.1689    0.8735   -1.1521 H   0  0  0  0  0  0  0  0  0  0  0  0
   11.9472    1.3546   -3.1412 H   0  0  0  0  0  0  0  0  0  0  0  0
   11.6780   -0.3334   -2.5919 H   0  0  0  0  0  0  0  0  0  0  0  0
   10.4583    1.1041   -5.0155 H   0  0  0  0  0  0  0  0  0  0  0  0
   11.1672   -0.5421   -4.9369 H   0  0  0  0  0  0  0  0  0  0  0  0
    9.2389   -1.4577   -3.9939 H   0  0  0  0  0  0  0  0  0  0  0  0
    8.4372   -0.0361   -4.7183 H   0  0  0  0  0  0  0  0  0  0  0  0
    4.5692    1.1058    0.2425 H   0  0  0  0  0  0  0  0  0  0  0  0
  1  6  2  0  0  0  0
  1  2  1  0  0  0  0
  1 32  1  0  0  0  0
  2  3  2  0  0  0  0
  2 33  1  0  0  0  0
  3  4  1  0  0  0  0
  3 34  1  0  0  0  0
  4  5  2  0  0  0  0
  4  7  1  0  0  0  0
  5  6  1  0  0  0  0
  5 35  1  0  0  0  0
  6 36  1  0  0  0  0
  7  8  1  0  0  0  0
  7 14  1  0  0  0  0
  7 31  1  0  0  0  0
  8 13  2  0  0  0  0
  8  9  1  0  0  0  0
  9 10  2  0  0  0  0
  9 37  1  0  0  0  0
 10 11  1  0  0  0  0
 10 38  1  0  0  0  0
 11 12  2  0  0  0  0
 11 39  1  0  0  0  0
 12 13  1  0  0  0  0
 12 40  1  0  0  0  0
 13 41  1  0  0  0  0
 14 15  2  0  0  0  0
 14 16  1  0  0  0  0
 16 17  1  0  0  0  0
 17 25  1  0  0  0  0
 17 18  1  0  0  0  0
 17 42  1  6  0  0  0
 18 19  1  0  0  0  0
 18 43  1  0  0  0  0
 18 44  1  0  0  0  0
 19 20  1  6  0  0  0
 19 26  1  0  0  0  0
 19 21  1  0  0  0  0
 21 22  1  0  0  0  0
 21 45  1  0  0  0  0
 21 46  1  0  0  0  0
 22 23  1  0  0  0  0
 22 47  1  0  0  0  0
 22 48  1  0  0  0  0
 23 24  1  1  0  0  0
 23 25  1  0  0  0  0
 23 26  1  0  0  0  0
 25 49  1  0  0  0  0
 25 50  1  0  0  0  0
 26 30  1  0  0  0  0
 26 27  1  0  0  0  0
 27 28  1  0  0  0  0
 27 51  1  0  0  0  0
 27 52  1  0  0  0  0
 28 29  1  0  0  0  0
 28 53  1  0  0  0  0
 28 54  1  0  0  0  0
 29 30  1  0  0  0  0
 29 55  1  0  0  0  0
 29 56  1  0  0  0  0
 30 57  1  0  0  0  0
 30 58  1  0  0  0  0
 31 59  1  0  0  0  0
M  CHG  1  26   1
M  END
$$$$
