ZINC03871723
 OpenBabel08292219463D

 43 46  0  0  1  0  0  0  0  0999 V2000
   -0.5921    0.0379   -0.7385 C   0  0  0  0  0  0  0  0  0  0  0  0
    0.0264    0.0012    0.4981 C   0  0  0  0  0  0  0  0  0  0  0  0
    1.3252   -0.4522    0.6097 C   0  0  0  0  0  0  0  0  0  0  0  0
    2.0134   -0.8734   -0.5263 C   0  0  0  0  0  0  0  0  0  0  0  0
    1.3854   -0.8343   -1.7695 C   0  0  0  0  0  0  0  0  0  0  0  0
    0.0863   -0.3790   -1.8695 C   0  0  0  0  0  0  0  0  0  0  0  0
    3.4101   -1.3615   -0.4126 C   0  0  0  0  0  0  0  0  0  0  0  0
    4.0363   -1.4056    0.8314 C   0  0  0  0  0  0  0  0  0  0  0  0
    5.3354   -1.8609    0.9314 C   0  0  0  0  0  0  0  0  0  0  0  0
    6.0158   -2.2724   -0.2004 C   0  0  0  0  0  0  0  0  0  0  0  0
    5.3992   -2.2303   -1.4378 C   0  0  0  0  0  0  0  0  0  0  0  0
    4.0983   -1.7827   -1.5486 C   0  0  0  0  0  0  0  0  0  0  0  0
    7.4343   -2.7680   -0.0849 C   0  0  1  0  0  0  0  0  0  0  0  0
    8.1166   -1.9181   -0.0774 H   0  0  0  0  0  0  0  0  0  0  0  0
    7.5908   -3.5493    1.1943 C   0  0  0  0  0  0  0  0  0  0  0  0
    6.7342   -4.5977    1.4731 C   0  0  0  0  0  0  0  0  0  0  0  0
    6.8778   -5.3143    2.6464 C   0  0  0  0  0  0  0  0  0  0  0  0
    7.8784   -4.9827    3.5408 C   0  0  0  0  0  0  0  0  0  0  0  0
    8.7356   -3.9348    3.2615 C   0  0  0  0  0  0  0  0  0  0  0  0
    8.5947   -3.2210    2.0862 C   0  0  0  0  0  0  0  0  0  0  0  0
    7.7438   -3.6328   -1.2262 N   0  0  0  0  0  0  0  0  0  0  0  0
    7.0977   -4.7904   -1.5670 C   0  0  0  0  0  0  0  0  0  0  0  0
    7.7003   -5.2611   -2.6755 C   0  0  0  0  0  0  0  0  0  0  0  0
    8.6874   -4.4140   -3.0027 N   0  0  0  0  0  4  0  0  0  0  0  0
    8.7162   -3.4336   -2.1420 C   0  0  0  0  0  0  0  0  0  0  0  0
   -1.6101    0.3892   -0.8207 H   0  0  0  0  0  0  0  0  0  0  0  0
   -0.5078    0.3282    1.3779 H   0  0  0  0  0  0  0  0  0  0  0  0
    1.8074   -0.4802    1.5757 H   0  0  0  0  0  0  0  0  0  0  0  0
    1.9143   -1.1593   -2.6533 H   0  0  0  0  0  0  0  0  0  0  0  0
   -0.4015   -0.3485   -2.8326 H   0  0  0  0  0  0  0  0  0  0  0  0
    3.5062   -1.0838    1.7156 H   0  0  0  0  0  0  0  0  0  0  0  0
    5.8217   -1.8955    1.8951 H   0  0  0  0  0  0  0  0  0  0  0  0
    5.9352   -2.5525   -2.3184 H   0  0  0  0  0  0  0  0  0  0  0  0
    3.6163   -1.7544   -2.5146 H   0  0  0  0  0  0  0  0  0  0  0  0
    5.9525   -4.8568    0.7744 H   0  0  0  0  0  0  0  0  0  0  0  0
    6.2081   -6.1330    2.8646 H   0  0  0  0  0  0  0  0  0  0  0  0
    7.9901   -5.5422    4.4578 H   0  0  0  0  0  0  0  0  0  0  0  0
    9.5171   -3.6756    3.9604 H   0  0  0  0  0  0  0  0  0  0  0  0
    9.2667   -2.4047    1.8663 H   0  0  0  0  0  0  0  0  0  0  0  0
    6.2650   -5.2400   -1.0466 H   0  0  0  0  0  0  0  0  0  0  0  0
    7.4351   -6.1627   -3.2078 H   0  0  0  0  0  0  0  0  0  0  0  0
    9.4052   -2.6021   -2.1578 H   0  0  0  0  0  0  0  0  0  0  0  0
    9.2834   -4.5126   -3.7616 H   0  0  0  0  0  0  0  0  0  0  0  0
  1  6  2  0  0  0  0
  1  2  1  0  0  0  0
  1 26  1  0  0  0  0
  2  3  2  0  0  0  0
  2 27  1  0  0  0  0
  3  4  1  0  0  0  0
  3 28  1  0  0  0  0
  4  5  2  0  0  0  0
  4  7  1  0  0  0  0
  5  6  1  0  0  0  0
  5 29  1  0  0  0  0
  6 30  1  0  0  0  0
  7 12  2  0  0  0  0
  7  8  1  0  0  0  0
  8  9  2  0  0  0  0
  8 31  1  0  0  0  0
  9 10  1  0  0  0  0
  9 32  1  0  0  0  0
 10 11  2  0  0  0  0
 10 13  1  0  0  0  0
 11 12  1  0  0  0  0
 11 33  1  0  0  0  0
 12 34  1  0  0  0  0
 13 14  1  1  0  0  0
 13 15  1  0  0  0  0
 13 21  1  0  0  0  0
 15 20  2  0  0  0  0
 15 16  1  0  0  0  0
 16 17  2  0  0  0  0
 16 35  1  0  0  0  0
 17 18  1  0  0  0  0
 17 36  1  0  0  0  0
 18 19  2  0  0  0  0
 18 37  1  0  0  0  0
 19 20  1  0  0  0  0
 19 38  1  0  0  0  0
 20 39  1  0  0  0  0
 21 25  1  0  0  0  0
 21 22  1  0  0  0  0
 22 23  2  0  0  0  0
 22 40  1  0  0  0  0
 23 24  1  0  0  0  0
 23 41  1  0  0  0  0
 24 25  2  0  0  0  0
 24 43  1  0  0  0  0
 25 42  1  0  0  0  0
M  END
$$$$
