ZINC00006226
 OpenBabel08292219463D

 19 19  0  0  0  0  0  0  0  0999 V2000
   -0.0184    1.5028    0.0103 C   0  0  0  0  0  0  0  0  0  0  0  0
    0.0021   -0.0041    0.0020 C   0  0  0  0  0  0  0  0  0  0  0  0
    0.0056   -0.6685   -1.1781 C   0  0  0  0  0  0  0  0  0  0  0  0
    0.0253   -2.0864   -1.1729 C   0  0  0  0  0  0  0  0  0  0  0  0
    0.0294   -2.7142   -2.2223 O   0  0  0  0  0  0  0  0  0  0  0  0
    0.0408   -2.7588    0.0695 C   0  0  0  0  0  0  0  0  0  0  0  0
    0.0363   -2.0375    1.2129 C   0  0  0  0  0  0  0  0  0  0  0  0
    0.0225   -0.6834    1.1785 N   0  0  0  0  0  0  0  0  0  0  0  0
    0.0242    0.0651    2.4378 C   0  0  0  0  0  0  0  0  0  0  0  0
   -0.0101    0.0160   -2.3543 O   0  0  0  0  0  0  0  0  0  0  0  0
    1.0042    1.8801    0.0026 H   0  0  0  0  0  0  0  0  0  0  0  0
   -0.5455    1.8639   -0.8728 H   0  0  0  0  0  0  0  0  0  0  0  0
   -0.5286    1.8543    0.9071 H   0  0  0  0  0  0  0  0  0  0  0  0
    0.0556   -3.8381    0.1055 H   0  0  0  0  0  0  0  0  0  0  0  0
    0.0480   -2.5469    2.1652 H   0  0  0  0  0  0  0  0  0  0  0  0
   -1.0029    0.2367    2.7599 H   0  0  0  0  0  0  0  0  0  0  0  0
    0.5531   -0.5072    3.1999 H   0  0  0  0  0  0  0  0  0  0  0  0
    0.5237    1.0227    2.2906 H   0  0  0  0  0  0  0  0  0  0  0  0
   -0.0060   -0.5496   -3.1386 H   0  0  0  0  0  0  0  0  0  0  0  0
  1  2  1  0  0  0  0
  1 11  1  0  0  0  0
  1 12  1  0  0  0  0
  1 13  1  0  0  0  0
  2  8  1  0  0  0  0
  2  3  2  0  0  0  0
  3  4  1  0  0  0  0
  3 10  1  0  0  0  0
  4  5  2  0  0  0  0
  4  6  1  0  0  0  0
  6  7  2  0  0  0  0
  6 14  1  0  0  0  0
  7  8  1  0  0  0  0
  7 15  1  0  0  0  0
  8  9  1  0  0  0  0
  9 16  1  0  0  0  0
  9 17  1  0  0  0  0
  9 18  1  0  0  0  0
 10 19  1  0  0  0  0
M  END
$$$$
