ZINC13118910
 OpenBabel08292219463D

 43 46  0  0  1  0  0  0  0  0999 V2000
   -0.0178    1.4648    0.0101 C   0  0  0  0  0  0  0  0  0  0  0  0
    0.0021   -0.0041    0.0020 N   0  0  0  0  0  0  0  0  0  0  0  0
    0.7031   -0.5209   -1.2034 C   0  0  2  0  0  0  0  0  0  0  0  0
    0.4094    0.0081   -2.1100 H   0  0  0  0  0  0  0  0  0  0  0  0
    0.4087   -2.0270   -1.2909 C   0  0  0  0  0  0  0  0  0  0  0  0
    1.0208   -2.7232   -0.0719 C   0  0  1  0  0  0  0  0  0  0  0  0
    0.5211   -2.0529    1.2111 C   0  0  0  0  0  0  0  0  0  0  0  0
    0.8164   -0.5322    1.1288 C   0  0  1  0  0  0  0  0  0  0  0  0
    0.6041   -0.0195    2.0669 H   0  0  0  0  0  0  0  0  0  0  0  0
    2.2782   -0.3432    0.6623 C   0  0  1  0  0  0  0  0  0  0  0  0
    3.0616   -0.8662    1.2108 H   0  0  0  0  0  0  0  0  0  0  0  0
    2.2034   -0.3361   -0.8788 C   0  0  2  0  0  0  0  0  0  0  0  0
    2.9297   -0.8536   -1.5055 H   0  0  0  0  0  0  0  0  0  0  0  0
    2.5946    0.8294   -0.0906 O   0  0  0  0  0  0  0  0  0  0  0  0
    0.6383   -4.1000   -0.0690 O   0  0  0  0  0  0  0  0  0  0  0  0
    1.4976   -4.9701    0.4844 C   0  0  0  0  0  0  0  0  0  0  0  0
    2.5401   -4.5757    0.9509 O   0  0  0  0  0  0  0  0  0  0  0  0
    1.1622   -6.4387    0.5239 C   0  0  2  0  0  0  0  0  0  0  0  0
    1.0309   -6.8089   -0.4928 H   0  0  0  0  0  0  0  0  0  0  0  0
   -0.1323   -6.6452    1.3130 C   0  0  0  0  0  0  0  0  0  0  0  0
   -1.2176   -6.0281    0.6176 O   0  0  0  0  0  0  0  0  0  0  0  0
    2.2833   -7.1923    1.1920 C   0  0  0  0  0  0  0  0  0  0  0  0
    2.6318   -6.8989    2.4971 C   0  0  0  0  0  0  0  0  0  0  0  0
    3.6602   -7.5901    3.1099 C   0  0  0  0  0  0  0  0  0  0  0  0
    4.3398   -8.5750    2.4178 C   0  0  0  0  0  0  0  0  0  0  0  0
    3.9906   -8.8690    1.1130 C   0  0  0  0  0  0  0  0  0  0  0  0
    2.9594   -8.1807    0.5016 C   0  0  0  0  0  0  0  0  0  0  0  0
    0.9789    1.8429   -0.2172 H   0  0  0  0  0  0  0  0  0  0  0  0
   -0.7222    1.8227   -0.7408 H   0  0  0  0  0  0  0  0  0  0  0  0
   -0.3250    1.8186    0.9943 H   0  0  0  0  0  0  0  0  0  0  0  0
   -0.6692   -2.1884   -1.3005 H   0  0  0  0  0  0  0  0  0  0  0  0
    0.8485   -2.4327   -2.2020 H   0  0  0  0  0  0  0  0  0  0  0  0
    2.1072   -2.6496   -0.1199 H   0  0  0  0  0  0  0  0  0  0  0  0
   -0.5518   -2.2156    1.3140 H   0  0  0  0  0  0  0  0  0  0  0  0
    1.0404   -2.4769    2.0706 H   0  0  0  0  0  0  0  0  0  0  0  0
   -0.3278   -7.7124    1.4176 H   0  0  0  0  0  0  0  0  0  0  0  0
   -0.0313   -6.1957    2.3008 H   0  0  0  0  0  0  0  0  0  0  0  0
   -2.0718   -6.1196    1.0614 H   0  0  0  0  0  0  0  0  0  0  0  0
    2.1009   -6.1294    3.0379 H   0  0  0  0  0  0  0  0  0  0  0  0
    3.9330   -7.3604    4.1294 H   0  0  0  0  0  0  0  0  0  0  0  0
    5.1437   -9.1145    2.8963 H   0  0  0  0  0  0  0  0  0  0  0  0
    4.5218   -9.6382    0.5721 H   0  0  0  0  0  0  0  0  0  0  0  0
    2.6842   -8.4130   -0.5166 H   0  0  0  0  0  0  0  0  0  0  0  0
  1  2  1  0  0  0  0
  1 28  1  0  0  0  0
  1 29  1  0  0  0  0
  1 30  1  0  0  0  0
  2  8  1  0  0  0  0
  2  3  1  0  0  0  0
  3  4  1  6  0  0  0
  3 12  1  0  0  0  0
  3  5  1  0  0  0  0
  5  6  1  0  0  0  0
  5 31  1  0  0  0  0
  5 32  1  0  0  0  0
  6  7  1  0  0  0  0
  6 15  1  0  0  0  0
  6 33  1  6  0  0  0
  7  8  1  0  0  0  0
  7 34  1  0  0  0  0
  7 35  1  0  0  0  0
  8  9  1  1  0  0  0
  8 10  1  0  0  0  0
 10 11  1  1  0  0  0
 10 14  1  0  0  0  0
 10 12  1  0  0  0  0
 12 13  1  6  0  0  0
 12 14  1  0  0  0  0
 15 16  1  0  0  0  0
 16 17  2  0  0  0  0
 16 18  1  0  0  0  0
 18 19  1  6  0  0  0
 18 20  1  0  0  0  0
 18 22  1  0  0  0  0
 20 21  1  0  0  0  0
 20 36  1  0  0  0  0
 20 37  1  0  0  0  0
 21 38  1  0  0  0  0
 22 27  2  0  0  0  0
 22 23  1  0  0  0  0
 23 24  2  0  0  0  0
 23 39  1  0  0  0  0
 24 25  1  0  0  0  0
 24 40  1  0  0  0  0
 25 26  2  0  0  0  0
 25 41  1  0  0  0  0
 26 27  1  0  0  0  0
 26 42  1  0  0  0  0
 27 43  1  0  0  0  0
M  END
$$$$
