ZINC01530726
 OpenBabel08292219463D

 28 29  0  0  1  0  0  0  0  0999 V2000
   -1.0325    3.0699   -3.0378 C   0  0  0  0  0  0  0  0  0  0  0  0
   -1.5021    2.0730   -3.8729 C   0  0  0  0  0  0  0  0  0  0  0  0
   -1.4906    0.7566   -3.4525 C   0  0  0  0  0  0  0  0  0  0  0  0
   -1.0032    0.4356   -2.1978 C   0  0  0  0  0  0  0  0  0  0  0  0
   -0.5383    1.4340   -1.3608 C   0  0  0  0  0  0  0  0  0  0  0  0
   -0.5508    2.7504   -1.7823 C   0  0  0  0  0  0  0  0  0  0  0  0
   -0.0127    1.0858    0.0080 C   0  0  2  0  0  0  0  0  0  0  0  0
   -0.0025    0.0026    0.1286 H   0  0  0  0  0  0  0  0  0  0  0  0
   -0.9016    1.6999    1.0586 C   0  0  0  0  0  0  0  0  0  0  0  0
   -1.4340    0.9103    2.0607 C   0  0  0  0  0  0  0  0  0  0  0  0
   -2.2448    1.4740    3.0278 C   0  0  0  0  0  0  0  0  0  0  0  0
   -2.5327    2.8266    2.9863 C   0  0  0  0  0  0  0  0  0  0  0  0
   -2.0041    3.6152    1.9799 C   0  0  0  0  0  0  0  0  0  0  0  0
   -1.1889    3.0515    1.0166 C   0  0  0  0  0  0  0  0  0  0  0  0
   -3.5562    3.5341    4.1969 Cl  0  0  0  0  0  0  0  0  0  0  0  0
    1.4092    1.6295    0.1618 C   0  0  0  0  0  0  0  0  0  0  0  0
    1.3623    3.4313    0.2045 Cl  0  0  0  0  0  0  0  0  0  0  0  0
    2.1267    1.0104    1.6956 Cl  0  0  0  0  0  0  0  0  0  0  0  0
   -0.9806   -1.2188   -1.6722 Cl  0  0  0  0  0  0  0  0  0  0  0  0
   -1.0417    4.0985   -3.3668 H   0  0  0  0  0  0  0  0  0  0  0  0
   -1.8784    2.3232   -4.8538 H   0  0  0  0  0  0  0  0  0  0  0  0
   -1.8577   -0.0219   -4.1048 H   0  0  0  0  0  0  0  0  0  0  0  0
   -0.1838    3.5295   -1.1305 H   0  0  0  0  0  0  0  0  0  0  0  0
   -1.2128   -0.1464    2.0905 H   0  0  0  0  0  0  0  0  0  0  0  0
   -2.6571    0.8579    3.8132 H   0  0  0  0  0  0  0  0  0  0  0  0
   -2.2288    4.6711    1.9468 H   0  0  0  0  0  0  0  0  0  0  0  0
   -0.7766    3.6669    0.2308 H   0  0  0  0  0  0  0  0  0  0  0  0
    2.0167    1.3017   -0.6818 H   0  0  0  0  0  0  0  0  0  0  0  0
  1  6  2  0  0  0  0
  1  2  1  0  0  0  0
  1 20  1  0  0  0  0
  2  3  2  0  0  0  0
  2 21  1  0  0  0  0
  3  4  1  0  0  0  0
  3 22  1  0  0  0  0
  4  5  2  0  0  0  0
  4 19  1  0  0  0  0
  5  6  1  0  0  0  0
  5  7  1  0  0  0  0
  6 23  1  0  0  0  0
  7  8  1  1  0  0  0
  7  9  1  0  0  0  0
  7 16  1  0  0  0  0
  9 14  2  0  0  0  0
  9 10  1  0  0  0  0
 10 11  2  0  0  0  0
 10 24  1  0  0  0  0
 11 12  1  0  0  0  0
 11 25  1  0  0  0  0
 12 13  2  0  0  0  0
 12 15  1  0  0  0  0
 13 14  1  0  0  0  0
 13 26  1  0  0  0  0
 14 27  1  0  0  0  0
 16 17  1  0  0  0  0
 16 18  1  0  0  0  0
 16 28  1  0  0  0  0
M  END
$$$$
