ZINC00402954
 OpenBabel08292219463D

 41 45  0  0  1  0  0  0  0  0999 V2000
   -0.2135    0.9214    4.9239 C   0  0  0  0  0  0  0  0  0  0  0  0
   -0.5033    2.9750    3.6765 C   0  0  0  0  0  0  0  0  0  0  0  0
   -1.1829    3.6001    2.4527 C   0  0  0  0  0  0  0  0  0  0  0  0
   -0.6646    2.9034    1.1972 C   0  0  2  0  0  0  0  0  0  0  0  0
    0.8376    3.0284    1.1241 C   0  0  0  0  0  0  0  0  0  0  0  0
    1.7593    2.2063    1.7302 C   0  0  0  0  0  0  0  0  0  0  0  0
    3.0861    2.5555    1.5529 C   0  0  0  0  0  0  0  0  0  0  0  0
    3.4206    3.6493    0.7709 C   0  0  0  0  0  0  0  0  0  0  0  0
    2.4778    4.4389    0.1166 C   0  0  0  0  0  0  0  0  0  0  0  0
    1.1317    4.0961    0.2892 C   0  0  0  0  0  0  0  0  0  0  0  0
   -0.0057    4.6213   -0.2144 O   0  0  0  0  0  0  0  0  0  0  0  0
   -1.0780    3.6410   -0.0701 C   0  0  1  0  0  0  0  0  0  0  0  0
   -1.9949    4.0217    0.0499 H   0  0  0  0  0  0  0  0  0  0  0  0
   -1.0355    2.7509   -1.2772 C   0  0  0  0  0  0  0  0  0  0  0  0
   -0.8673    3.2573   -2.3606 O   0  0  0  0  0  0  0  0  0  0  0  0
   -1.1916    1.2619   -1.2005 C   0  0  0  0  0  0  0  0  0  0  0  0
   -0.4320    0.7164    0.0103 C   0  0  0  0  0  0  0  0  0  0  0  0
   -0.9456    1.4119    1.2699 C   0  0  1  0  0  0  0  0  0  0  0  0
   -2.0191    1.2487    1.3653 H   0  0  0  0  0  0  0  0  0  0  0  0
   -0.2294    0.8623    2.5031 C   0  0  1  0  0  0  0  0  0  0  0  0
   -0.4628   -0.1994    2.5824 H   0  0  0  0  0  0  0  0  0  0  0  0
    1.2843    0.9889    2.4548 C   0  0  0  0  0  0  0  0  0  0  0  0
    2.8485    5.4957   -0.6549 O   0  0  0  0  0  0  0  0  0  0  0  0
   -0.7678    1.2869    5.7884 H   0  0  0  0  0  0  0  0  0  0  0  0
   -0.3084   -0.1627    4.8633 H   0  0  0  0  0  0  0  0  0  0  0  0
    0.8381    1.1889    5.0270 H   0  0  0  0  0  0  0  0  0  0  0  0
    0.5707    3.1542    3.6256 H   0  0  0  0  0  0  0  0  0  0  0  0
   -0.9035    3.4276    4.5838 H   0  0  0  0  0  0  0  0  0  0  0  0
   -0.9456    4.6629    2.4056 H   0  0  0  0  0  0  0  0  0  0  0  0
   -2.2622    3.4667    2.5258 H   0  0  0  0  0  0  0  0  0  0  0  0
    3.8636    1.9735    2.0253 H   0  0  0  0  0  0  0  0  0  0  0  0
    4.4650    3.9022    0.6628 H   0  0  0  0  0  0  0  0  0  0  0  0
   -0.8247    0.8450   -2.0321 H   0  0  0  0  0  0  0  0  0  0  0  0
   -2.2488    1.0136   -1.1060 H   0  0  0  0  0  0  0  0  0  0  0  0
   -0.5980   -0.3577    0.0923 H   0  0  0  0  0  0  0  0  0  0  0  0
    0.6335    0.9137   -0.1075 H   0  0  0  0  0  0  0  0  0  0  0  0
    1.6939    0.1074    1.9616 H   0  0  0  0  0  0  0  0  0  0  0  0
    1.6632    1.0210    3.4764 H   0  0  0  0  0  0  0  0  0  0  0  0
    2.9111    6.3318   -0.1729 H   0  0  0  0  0  0  0  0  0  0  0  0
   -0.7894    1.5227    3.7050 N   0  3  1  0  0  0  0  0  0  0  0  0
   -1.8069    1.3854    3.7148 H   0  0  0  0  0  0  0  0  0  0  0  0
  1 24  1  0  0  0  0
  1 25  1  0  0  0  0
  1 26  1  0  0  0  0
  1 40  1  0  0  0  0
  2  3  1  0  0  0  0
  2 27  1  0  0  0  0
  2 28  1  0  0  0  0
  2 40  1  0  0  0  0
  3  4  1  0  0  0  0
  3 29  1  0  0  0  0
  3 30  1  0  0  0  0
  4 12  1  0  0  0  0
  4 18  1  0  0  0  0
  4  5  1  1  0  0  0
  5 10  2  0  0  0  0
  5  6  1  0  0  0  0
  6 22  1  0  0  0  0
  6  7  2  0  0  0  0
  7  8  1  0  0  0  0
  7 31  1  0  0  0  0
  8  9  2  0  0  0  0
  8 32  1  0  0  0  0
  9 10  1  0  0  0  0
  9 23  1  0  0  0  0
 10 11  1  0  0  0  0
 11 12  1  0  0  0  0
 12 13  1  1  0  0  0
 12 14  1  0  0  0  0
 14 15  2  0  0  0  0
 14 16  1  0  0  0  0
 16 17  1  0  0  0  0
 16 33  1  0  0  0  0
 16 34  1  0  0  0  0
 17 18  1  0  0  0  0
 17 35  1  0  0  0  0
 17 36  1  0  0  0  0
 18 19  1  1  0  0  0
 18 20  1  0  0  0  0
 20 21  1  1  0  0  0
 20 22  1  0  0  0  0
 20 40  1  0  0  0  0
 22 37  1  0  0  0  0
 22 38  1  0  0  0  0
 23 39  1  0  0  0  0
 40 41  1  1  0  0  0
M  CHG  1  40   1
M  END
$$$$
