ZINC00608382
 OpenBabel08292219463D

 55 58  0  0  0  0  0  0  0  0999 V2000
   -0.7516    0.9151   -0.7534 C   0  0  0  0  0  0  0  0  0  0  0  0
   -0.3393   -0.5300   -0.6407 C   0  0  0  0  0  0  0  0  0  0  0  0
   -0.3181   -1.3569   -1.7886 C   0  0  0  0  0  0  0  0  0  0  0  0
   -0.6295   -0.9262   -2.8865 O   0  0  0  0  0  0  0  0  0  0  0  0
    0.0966   -2.7623   -1.6043 C   0  0  0  0  0  0  0  0  0  0  0  0
    0.1477   -3.6492   -2.6786 C   0  0  0  0  0  0  0  0  0  0  0  0
    0.5399   -4.9567   -2.4737 C   0  0  0  0  0  0  0  0  0  0  0  0
    0.8832   -5.3961   -1.2084 C   0  0  0  0  0  0  0  0  0  0  0  0
    0.8383   -4.5248   -0.1200 C   0  0  0  0  0  0  0  0  0  0  0  0
    0.4421   -3.1924   -0.3147 C   0  0  0  0  0  0  0  0  0  0  0  0
    0.3909   -2.3289    0.7172 O   0  0  0  0  0  0  0  0  0  0  0  0
    0.0206   -1.0480    0.5642 C   0  0  0  0  0  0  0  0  0  0  0  0
   -0.0016   -0.1688    1.7503 C   0  0  0  0  0  0  0  0  0  0  0  0
   -0.6413   -0.5848    2.9201 C   0  0  0  0  0  0  0  0  0  0  0  0
   -0.6583    0.2416    4.0243 C   0  0  0  0  0  0  0  0  0  0  0  0
   -0.0438    1.4805    3.9748 C   0  0  0  0  0  0  0  0  0  0  0  0
    0.5918    1.8991    2.8191 C   0  0  0  0  0  0  0  0  0  0  0  0
    0.6218    1.0803    1.7095 C   0  0  0  0  0  0  0  0  0  0  0  0
    1.2048   -5.0004    1.2265 C   0  0  0  0  0  0  0  0  0  0  0  0
    1.1644   -4.2382    2.1719 O   0  0  0  0  0  0  0  0  0  0  0  0
    1.5845   -6.2804    1.4087 O   0  0  0  0  0  0  0  0  0  0  0  0
    1.9256   -6.6726    2.7398 C   0  0  0  0  0  0  0  0  0  0  0  0
    2.3282   -8.1487    2.7491 C   0  0  0  0  0  0  0  0  0  0  0  0
    3.5402   -8.3309    1.9393 N   0  3  0  0  0  0  0  0  0  0  0  0
    3.8366   -9.7635    1.8204 C   0  0  0  0  0  0  0  0  0  0  0  0
    5.0511   -9.9632    0.9111 C   0  0  0  0  0  0  0  0  0  0  0  0
    6.2581   -9.2389    1.5142 C   0  0  0  0  0  0  0  0  0  0  0  0
    5.9112   -7.7593    1.7028 C   0  0  0  0  0  0  0  0  0  0  0  0
    4.6649   -7.6413    2.5827 C   0  0  0  0  0  0  0  0  0  0  0  0
    0.1344    1.5366   -0.8830 H   0  0  0  0  0  0  0  0  0  0  0  0
   -1.4110    1.0389   -1.6124 H   0  0  0  0  0  0  0  0  0  0  0  0
   -1.2763    1.2150    0.1537 H   0  0  0  0  0  0  0  0  0  0  0  0
   -0.1195   -3.3139   -3.6698 H   0  0  0  0  0  0  0  0  0  0  0  0
    0.5786   -5.6416   -3.3078 H   0  0  0  0  0  0  0  0  0  0  0  0
    1.1880   -6.4218   -1.0617 H   0  0  0  0  0  0  0  0  0  0  0  0
   -1.1219   -1.5512    2.9599 H   0  0  0  0  0  0  0  0  0  0  0  0
   -1.1525   -0.0788    4.9295 H   0  0  0  0  0  0  0  0  0  0  0  0
   -0.0607    2.1239    4.8421 H   0  0  0  0  0  0  0  0  0  0  0  0
    1.0693    2.8673    2.7874 H   0  0  0  0  0  0  0  0  0  0  0  0
    1.1221    1.4064    0.8096 H   0  0  0  0  0  0  0  0  0  0  0  0
    2.7590   -6.0665    3.0949 H   0  0  0  0  0  0  0  0  0  0  0  0
    1.0656   -6.5264    3.3933 H   0  0  0  0  0  0  0  0  0  0  0  0
    2.5246   -8.4653    3.7735 H   0  0  0  0  0  0  0  0  0  0  0  0
    1.5191   -8.7486    2.3323 H   0  0  0  0  0  0  0  0  0  0  0  0
    4.0512  -10.1729    2.8075 H   0  0  0  0  0  0  0  0  0  0  0  0
    2.9755  -10.2781    1.3940 H   0  0  0  0  0  0  0  0  0  0  0  0
    5.2706  -11.0274    0.8255 H   0  0  0  0  0  0  0  0  0  0  0  0
    4.8374   -9.5544   -0.0765 H   0  0  0  0  0  0  0  0  0  0  0  0
    6.5037   -9.6815    2.4795 H   0  0  0  0  0  0  0  0  0  0  0  0
    7.1113   -9.3305    0.8422 H   0  0  0  0  0  0  0  0  0  0  0  0
    6.7456   -7.2482    2.1831 H   0  0  0  0  0  0  0  0  0  0  0  0
    5.7155   -7.3047    0.7316 H   0  0  0  0  0  0  0  0  0  0  0  0
    4.4153   -6.5890    2.7191 H   0  0  0  0  0  0  0  0  0  0  0  0
    4.8618   -8.0959    3.5536 H   0  0  0  0  0  0  0  0  0  0  0  0
    3.3906   -7.9429    1.0200 H   0  0  0  0  0  0  0  0  0  0  0  0
  1  2  1  0  0  0  0
  1 30  1  0  0  0  0
  1 31  1  0  0  0  0
  1 32  1  0  0  0  0
  2 12  2  0  0  0  0
  2  3  1  0  0  0  0
  3  4  2  0  0  0  0
  3  5  1  0  0  0  0
  5 10  2  0  0  0  0
  5  6  1  0  0  0  0
  6  7  2  0  0  0  0
  6 33  1  0  0  0  0
  7  8  1  0  0  0  0
  7 34  1  0  0  0  0
  8  9  2  0  0  0  0
  8 35  1  0  0  0  0
  9 10  1  0  0  0  0
  9 19  1  0  0  0  0
 10 11  1  0  0  0  0
 11 12  1  0  0  0  0
 12 13  1  0  0  0  0
 13 18  2  0  0  0  0
 13 14  1  0  0  0  0
 14 15  2  0  0  0  0
 14 36  1  0  0  0  0
 15 16  1  0  0  0  0
 15 37  1  0  0  0  0
 16 17  2  0  0  0  0
 16 38  1  0  0  0  0
 17 18  1  0  0  0  0
 17 39  1  0  0  0  0
 18 40  1  0  0  0  0
 19 20  2  0  0  0  0
 19 21  1  0  0  0  0
 21 22  1  0  0  0  0
 22 23  1  0  0  0  0
 22 41  1  0  0  0  0
 22 42  1  0  0  0  0
 23 24  1  0  0  0  0
 23 43  1  0  0  0  0
 23 44  1  0  0  0  0
 24 29  1  0  0  0  0
 24 25  1  0  0  0  0
 24 55  1  0  0  0  0
 25 26  1  0  0  0  0
 25 45  1  0  0  0  0
 25 46  1  0  0  0  0
 26 27  1  0  0  0  0
 26 47  1  0  0  0  0
 26 48  1  0  0  0  0
 27 28  1  0  0  0  0
 27 49  1  0  0  0  0
 27 50  1  0  0  0  0
 28 29  1  0  0  0  0
 28 51  1  0  0  0  0
 28 52  1  0  0  0  0
 29 53  1  0  0  0  0
 29 54  1  0  0  0  0
M  CHG  1  24   1
M  END
$$$$
