ZINC00007673
 OpenBabel08292219463D

 36 36  0  0  1  0  0  0  0  0999 V2000
    2.4620    0.9199   -0.0165 C   0  0  0  0  0  0  0  0  0  0  0  0
    1.1468    1.6555   -0.0000 C   0  0  0  0  0  0  0  0  0  0  0  0
    1.1304    2.8682    0.0067 O   0  0  0  0  0  0  0  0  0  0  0  0
   -0.0111    0.9658    0.0074 N   0  0  0  0  0  0  0  0  0  0  0  0
   -1.2896    1.6810    0.0173 C   0  0  2  0  0  0  0  0  0  0  0  0
   -1.1985    2.5963   -0.5676 H   0  0  0  0  0  0  0  0  0  0  0  0
   -1.6665    2.0319    1.4580 C   0  0  0  0  0  0  0  0  0  0  0  0
   -1.8997    0.8303    2.1955 O   0  0  0  0  0  0  0  0  0  0  0  0
   -2.2603    1.0472    3.5611 C   0  0  0  0  0  0  0  0  0  0  0  0
   -2.3595    0.8057   -0.5829 C   0  0  0  0  0  0  0  0  0  0  0  0
   -2.0814   -0.3061   -0.9798 O   0  0  0  0  0  0  0  0  0  0  0  0
   -3.6254    1.2583   -0.6785 N   0  0  0  0  0  0  0  0  0  0  0  0
   -4.6655    0.4074   -1.2619 C   0  0  0  0  0  0  0  0  0  0  0  0
   -5.9806    1.1431   -1.2517 C   0  0  0  0  0  0  0  0  0  0  0  0
   -6.8282    1.0286   -0.1657 C   0  0  0  0  0  0  0  0  0  0  0  0
   -8.0323    1.7076   -0.1540 C   0  0  0  0  0  0  0  0  0  0  0  0
   -8.3936    2.4925   -1.2331 C   0  0  0  0  0  0  0  0  0  0  0  0
   -7.5486    2.6024   -2.3215 C   0  0  0  0  0  0  0  0  0  0  0  0
   -6.3420    1.9279   -2.3307 C   0  0  0  0  0  0  0  0  0  0  0  0
    2.5197    0.2988   -0.9104 H   0  0  0  0  0  0  0  0  0  0  0  0
    3.2807    1.6394   -0.0205 H   0  0  0  0  0  0  0  0  0  0  0  0
    2.5367    0.2893    0.8694 H   0  0  0  0  0  0  0  0  0  0  0  0
    0.0021   -0.0041    0.0020 H   0  0  0  0  0  0  0  0  0  0  0  0
   -0.8527    2.5901    1.9208 H   0  0  0  0  0  0  0  0  0  0  0  0
   -2.5710    2.6402    1.4591 H   0  0  0  0  0  0  0  0  0  0  0  0
   -3.1771    1.6351    3.6059 H   0  0  0  0  0  0  0  0  0  0  0  0
   -2.4202    0.0870    4.0516 H   0  0  0  0  0  0  0  0  0  0  0  0
   -1.4588    1.5850    4.0676 H   0  0  0  0  0  0  0  0  0  0  0  0
   -3.8478    2.1475   -0.3610 H   0  0  0  0  0  0  0  0  0  0  0  0
   -4.3970    0.1574   -2.2883 H   0  0  0  0  0  0  0  0  0  0  0  0
   -4.7565   -0.5078   -0.6770 H   0  0  0  0  0  0  0  0  0  0  0  0
   -6.5479    0.4118    0.6754 H   0  0  0  0  0  0  0  0  0  0  0  0
   -8.6923    1.6219    0.6965 H   0  0  0  0  0  0  0  0  0  0  0  0
   -9.3360    3.0200   -1.2255 H   0  0  0  0  0  0  0  0  0  0  0  0
   -7.8309    3.2156   -3.1645 H   0  0  0  0  0  0  0  0  0  0  0  0
   -5.6818    2.0139   -3.1811 H   0  0  0  0  0  0  0  0  0  0  0  0
  1  2  1  0  0  0  0
  1 20  1  0  0  0  0
  1 21  1  0  0  0  0
  1 22  1  0  0  0  0
  2  3  2  0  0  0  0
  2  4  1  0  0  0  0
  4  5  1  0  0  0  0
  4 23  1  0  0  0  0
  5  6  1  6  0  0  0
  5  7  1  0  0  0  0
  5 10  1  0  0  0  0
  7  8  1  0  0  0  0
  7 24  1  0  0  0  0
  7 25  1  0  0  0  0
  8  9  1  0  0  0  0
  9 26  1  0  0  0  0
  9 27  1  0  0  0  0
  9 28  1  0  0  0  0
 10 11  2  0  0  0  0
 10 12  1  0  0  0  0
 12 13  1  0  0  0  0
 12 29  1  0  0  0  0
 13 14  1  0  0  0  0
 13 30  1  0  0  0  0
 13 31  1  0  0  0  0
 14 19  2  0  0  0  0
 14 15  1  0  0  0  0
 15 16  2  0  0  0  0
 15 32  1  0  0  0  0
 16 17  1  0  0  0  0
 16 33  1  0  0  0  0
 17 18  2  0  0  0  0
 17 34  1  0  0  0  0
 18 19  1  0  0  0  0
 18 35  1  0  0  0  0
 19 36  1  0  0  0  0
M  END
$$$$
