ZINC19594557
 OpenBabel08292219463D

 56 59  0  0  1  0  0  0  0  0999 V2000
   -0.0184    1.5028    0.0103 C   0  0  0  0  0  0  0  0  0  0  0  0
    0.0021   -0.0041    0.0020 C   0  0  0  0  0  0  0  0  0  0  0  0
    0.0057   -0.6888   -1.1991 C   0  0  0  0  0  0  0  0  0  0  0  0
    0.0245   -2.0707   -1.2067 C   0  0  0  0  0  0  0  0  0  0  0  0
    0.0400   -2.7685   -0.0132 C   0  0  0  0  0  0  0  0  0  0  0  0
    0.0373   -2.0840    1.1875 C   0  0  0  0  0  0  0  0  0  0  0  0
    0.0229   -0.7015    1.1951 C   0  0  0  0  0  0  0  0  0  0  0  0
    0.0538   -2.8445    2.4885 C   0  0  0  0  0  0  0  0  0  0  0  0
    1.4440   -3.0737    2.9041 N   0  3  2  0  0  0  0  0  0  0  0  0
    2.1074   -3.9511    1.9307 C   0  0  0  0  0  0  0  0  0  0  0  0
    3.5611   -4.1749    2.3532 C   0  0  0  0  0  0  0  0  0  0  0  0
    3.5913   -4.7858    3.6896 N   0  0  0  0  0  0  0  0  0  0  0  0
    2.9087   -3.9300    4.6703 C   0  0  0  0  0  0  0  0  0  0  0  0
    1.4604   -3.7082    4.2287 C   0  0  0  0  0  0  0  0  0  0  0  0
    4.9707   -5.0691    4.1079 C   0  0  1  0  0  0  0  0  0  0  0  0
    5.5400   -4.1400    4.1354 H   0  0  0  0  0  0  0  0  0  0  0  0
    4.9615   -5.6934    5.4795 C   0  0  0  0  0  0  0  0  0  0  0  0
    3.9984   -6.6296    5.8063 C   0  0  0  0  0  0  0  0  0  0  0  0
    3.9900   -7.2023    7.0645 C   0  0  0  0  0  0  0  0  0  0  0  0
    4.9450   -6.8391    7.9956 C   0  0  0  0  0  0  0  0  0  0  0  0
    5.9086   -5.9035    7.6685 C   0  0  0  0  0  0  0  0  0  0  0  0
    5.9196   -5.3340    6.4089 C   0  0  0  0  0  0  0  0  0  0  0  0
    5.6077   -6.0199    3.1275 C   0  0  0  0  0  0  0  0  0  0  0  0
    4.8726   -7.0664    2.6027 C   0  0  0  0  0  0  0  0  0  0  0  0
    5.4563   -7.9387    1.7035 C   0  0  0  0  0  0  0  0  0  0  0  0
    6.7766   -7.7644    1.3285 C   0  0  0  0  0  0  0  0  0  0  0  0
    7.5118   -6.7168    1.8541 C   0  0  0  0  0  0  0  0  0  0  0  0
    6.9253   -5.8418    2.7489 C   0  0  0  0  0  0  0  0  0  0  0  0
    7.5106   -8.8599    0.1996 Cl  0  0  0  0  0  0  0  0  0  0  0  0
    1.0042    1.8801    0.0026 H   0  0  0  0  0  0  0  0  0  0  0  0
   -0.5455    1.8639   -0.8728 H   0  0  0  0  0  0  0  0  0  0  0  0
   -0.5286    1.8543    0.9071 H   0  0  0  0  0  0  0  0  0  0  0  0
   -0.0064   -0.1437   -2.1314 H   0  0  0  0  0  0  0  0  0  0  0  0
    0.0266   -2.6056   -2.1449 H   0  0  0  0  0  0  0  0  0  0  0  0
    0.0540   -3.8484   -0.0191 H   0  0  0  0  0  0  0  0  0  0  0  0
    0.0246   -0.1666    2.1333 H   0  0  0  0  0  0  0  0  0  0  0  0
   -0.4637   -2.2663    3.2539 H   0  0  0  0  0  0  0  0  0  0  0  0
   -0.4484   -3.8028    2.3555 H   0  0  0  0  0  0  0  0  0  0  0  0
    1.5886   -4.9089    1.8923 H   0  0  0  0  0  0  0  0  0  0  0  0
    2.0830   -3.4850    0.9457 H   0  0  0  0  0  0  0  0  0  0  0  0
    4.0494   -4.8380    1.6391 H   0  0  0  0  0  0  0  0  0  0  0  0
    4.0838   -3.2188    2.3785 H   0  0  0  0  0  0  0  0  0  0  0  0
    2.9210   -4.4144    5.6467 H   0  0  0  0  0  0  0  0  0  0  0  0
    3.4207   -2.9699    4.7338 H   0  0  0  0  0  0  0  0  0  0  0  0
    0.9564   -3.0620    4.9474 H   0  0  0  0  0  0  0  0  0  0  0  0
    0.9449   -4.6673    4.1785 H   0  0  0  0  0  0  0  0  0  0  0  0
    3.2523   -6.9134    5.0789 H   0  0  0  0  0  0  0  0  0  0  0  0
    3.2371   -7.9332    7.3200 H   0  0  0  0  0  0  0  0  0  0  0  0
    4.9380   -7.2859    8.9788 H   0  0  0  0  0  0  0  0  0  0  0  0
    6.6545   -5.6195    8.3960 H   0  0  0  0  0  0  0  0  0  0  0  0
    6.6747   -4.6058    6.1521 H   0  0  0  0  0  0  0  0  0  0  0  0
    3.8421   -7.2026    2.8958 H   0  0  0  0  0  0  0  0  0  0  0  0
    4.8820   -8.7565    1.2938 H   0  0  0  0  0  0  0  0  0  0  0  0
    8.5426   -6.5803    1.5620 H   0  0  0  0  0  0  0  0  0  0  0  0
    7.4977   -5.0212    3.1556 H   0  0  0  0  0  0  0  0  0  0  0  0
    1.9315   -2.1914    2.9480 H   0  0  0  0  0  0  0  0  0  0  0  0
  1  2  1  0  0  0  0
  1 30  1  0  0  0  0
  1 31  1  0  0  0  0
  1 32  1  0  0  0  0
  2  7  2  0  0  0  0
  2  3  1  0  0  0  0
  3  4  2  0  0  0  0
  3 33  1  0  0  0  0
  4  5  1  0  0  0  0
  4 34  1  0  0  0  0
  5  6  2  0  0  0  0
  5 35  1  0  0  0  0
  6  7  1  0  0  0  0
  6  8  1  0  0  0  0
  7 36  1  0  0  0  0
  8  9  1  0  0  0  0
  8 37  1  0  0  0  0
  8 38  1  0  0  0  0
  9 14  1  0  0  0  0
  9 10  1  0  0  0  0
  9 56  1  1  0  0  0
 10 11  1  0  0  0  0
 10 39  1  0  0  0  0
 10 40  1  0  0  0  0
 11 12  1  0  0  0  0
 11 41  1  0  0  0  0
 11 42  1  0  0  0  0
 12 13  1  0  0  0  0
 12 15  1  0  0  0  0
 13 14  1  0  0  0  0
 13 43  1  0  0  0  0
 13 44  1  0  0  0  0
 14 45  1  0  0  0  0
 14 46  1  0  0  0  0
 15 16  1  1  0  0  0
 15 17  1  0  0  0  0
 15 23  1  0  0  0  0
 17 22  2  0  0  0  0
 17 18  1  0  0  0  0
 18 19  2  0  0  0  0
 18 47  1  0  0  0  0
 19 20  1  0  0  0  0
 19 48  1  0  0  0  0
 20 21  2  0  0  0  0
 20 49  1  0  0  0  0
 21 22  1  0  0  0  0
 21 50  1  0  0  0  0
 22 51  1  0  0  0  0
 23 28  2  0  0  0  0
 23 24  1  0  0  0  0
 24 25  2  0  0  0  0
 24 52  1  0  0  0  0
 25 26  1  0  0  0  0
 25 53  1  0  0  0  0
 26 27  2  0  0  0  0
 26 29  1  0  0  0  0
 27 28  1  0  0  0  0
 27 54  1  0  0  0  0
 28 55  1  0  0  0  0
M  CHG  1   9   1
M  END
$$$$
