ZINC00897385
 OpenBabel08292219463D

 37 39  0  0  1  0  0  0  0  0999 V2000
   -0.0167    1.3792    0.0096 C   0  0  0  0  0  0  0  0  0  0  0  0
    1.1708    2.0869    0.0021 C   0  0  0  0  0  0  0  0  0  0  0  0
    2.3773    1.4131   -0.0135 C   0  0  0  0  0  0  0  0  0  0  0  0
    2.3974    0.0294   -0.0212 C   0  0  0  0  0  0  0  0  0  0  0  0
    1.2096   -0.6792   -0.0132 C   0  0  0  0  0  0  0  0  0  0  0  0
    0.0021   -0.0041    0.0020 C   0  0  0  0  0  0  0  0  0  0  0  0
   -1.4893   -0.8926    0.0121 Cl  0  0  0  0  0  0  0  0  0  0  0  0
    3.9130   -0.8168   -0.0414 Cl  0  0  0  0  0  0  0  0  0  0  0  0
    3.6714    2.1853   -0.0227 C   0  0  2  0  0  0  0  0  0  0  0  0
    4.4087    1.6516   -0.6224 H   0  0  0  0  0  0  0  0  0  0  0  0
    4.1883    2.3314    1.4099 C   0  0  0  0  0  0  0  0  0  0  0  0
    5.5035    2.9765    1.3911 N   0  0  0  0  0  0  0  0  0  0  0  0
    6.7157    2.3471    1.3010 C   0  0  0  0  0  0  0  0  0  0  0  0
    7.6569    3.3102    1.3165 C   0  0  0  0  0  0  0  0  0  0  0  0
    7.0363    4.4953    1.4134 N   0  0  0  0  0  4  0  0  0  0  0  0
    5.7461    4.3035    1.4534 C   0  0  0  0  0  0  0  0  0  0  0  0
    3.4490    3.4808   -0.5834 O   0  0  0  0  0  0  0  0  0  0  0  0
    4.5859    4.0259   -1.2561 C   0  0  0  0  0  0  0  0  0  0  0  0
    4.2402    5.3862   -1.8049 C   0  0  0  0  0  0  0  0  0  0  0  0
    2.9791    5.9204   -1.6147 C   0  0  0  0  0  0  0  0  0  0  0  0
    2.7012    7.1463   -2.1209 C   0  0  0  0  0  0  0  0  0  0  0  0
    4.2483    7.5860   -2.8958 S   0  0  0  0  0  0  0  0  0  0  0  0
    5.1632    6.1081   -2.4884 C   0  0  0  0  0  0  0  0  0  0  0  0
    6.8068    5.6998   -2.8700 Cl  0  0  0  0  0  0  0  0  0  0  0  0
   -0.9592    1.9062    0.0260 H   0  0  0  0  0  0  0  0  0  0  0  0
    1.1557    3.1667    0.0080 H   0  0  0  0  0  0  0  0  0  0  0  0
    1.2248   -1.7590   -0.0191 H   0  0  0  0  0  0  0  0  0  0  0  0
    3.4928    2.9411    1.9867 H   0  0  0  0  0  0  0  0  0  0  0  0
    4.2735    1.3459    1.8677 H   0  0  0  0  0  0  0  0  0  0  0  0
    6.8848    1.2827    1.2312 H   0  0  0  0  0  0  0  0  0  0  0  0
    8.7243    3.1554    1.2607 H   0  0  0  0  0  0  0  0  0  0  0  0
    4.9966    5.0777    1.5270 H   0  0  0  0  0  0  0  0  0  0  0  0
    5.4144    4.1173   -0.5537 H   0  0  0  0  0  0  0  0  0  0  0  0
    4.8745    3.3665   -2.0746 H   0  0  0  0  0  0  0  0  0  0  0  0
    2.2265    5.3686   -1.0711 H   0  0  0  0  0  0  0  0  0  0  0  0
    1.7819    7.7107   -2.0695 H   0  0  0  0  0  0  0  0  0  0  0  0
    7.4769    5.3589    1.4449 H   0  0  0  0  0  0  0  0  0  0  0  0
  1  6  2  0  0  0  0
  1  2  1  0  0  0  0
  1 25  1  0  0  0  0
  2  3  2  0  0  0  0
  2 26  1  0  0  0  0
  3  4  1  0  0  0  0
  3  9  1  0  0  0  0
  4  5  2  0  0  0  0
  4  8  1  0  0  0  0
  5  6  1  0  0  0  0
  5 27  1  0  0  0  0
  6  7  1  0  0  0  0
  9 10  1  6  0  0  0
  9 11  1  0  0  0  0
  9 17  1  0  0  0  0
 11 12  1  0  0  0  0
 11 28  1  0  0  0  0
 11 29  1  0  0  0  0
 12 16  1  0  0  0  0
 12 13  1  0  0  0  0
 13 14  2  0  0  0  0
 13 30  1  0  0  0  0
 14 15  1  0  0  0  0
 14 31  1  0  0  0  0
 15 16  2  0  0  0  0
 15 37  1  0  0  0  0
 16 32  1  0  0  0  0
 17 18  1  0  0  0  0
 18 19  1  0  0  0  0
 18 33  1  0  0  0  0
 18 34  1  0  0  0  0
 19 23  2  0  0  0  0
 19 20  1  0  0  0  0
 20 21  2  0  0  0  0
 20 35  1  0  0  0  0
 21 22  1  0  0  0  0
 21 36  1  0  0  0  0
 22 23  1  0  0  0  0
 23 24  1  0  0  0  0
M  END
$$$$
