ZINC03808779
 OpenBabel08292219463D

 51 53  0  0  1  0  0  0  0  0999 V2000
   -0.2287    1.1573   -0.0967 C   0  0  0  0  0  0  0  0  0  0  0  0
    0.0112   -0.3503    0.0061 C   0  0  2  0  0  0  0  0  0  0  0  0
    0.4343   -0.7317   -0.9232 H   0  0  0  0  0  0  0  0  0  0  0  0
   -1.3004   -1.0810    0.3383 C   0  0  2  0  0  0  0  0  0  0  0  0
   -1.6273   -1.7763   -0.4349 H   0  0  0  0  0  0  0  0  0  0  0  0
   -2.4014   -0.1822    0.8958 C   0  0  2  0  0  0  0  0  0  0  0  0
   -2.1463    0.8772    0.9236 H   0  0  0  0  0  0  0  0  0  0  0  0
   -2.0935   -0.9290    2.1662 C   0  0  0  0  0  0  0  0  0  0  0  0
   -2.5918   -0.8842    3.2714 O   0  0  0  0  0  0  0  0  0  0  0  0
   -1.0722   -1.6809    1.6581 N   0  0  0  0  0  0  0  0  0  0  0  0
    0.2486   -1.4213    2.0605 C   0  0  0  0  0  0  0  0  0  0  0  0
    0.9259   -0.6610    1.1689 C   0  0  0  0  0  0  0  0  0  0  0  0
    2.5950   -0.1209    1.3343 S   0  0  0  0  0  0  0  0  0  0  0  0
    3.4566   -0.9309   -0.0413 C   0  0  1  0  0  0  0  0  0  0  0  0
    2.9798   -0.6861   -0.9905 H   0  0  0  0  0  0  0  0  0  0  0  0
    4.9554   -0.5311   -0.0612 C   0  0  0  0  0  0  0  0  0  0  0  0
    5.5950   -1.7503   -0.7712 C   0  0  2  0  0  0  0  0  0  0  0  0
    5.4873   -1.6596   -1.8521 H   0  0  0  0  0  0  0  0  0  0  0  0
    4.8357   -2.9176   -0.2745 N   0  3  0  0  0  0  0  0  0  0  0  0
    3.5028   -2.4591    0.1679 C   0  0  0  0  0  0  0  0  0  0  0  0
    7.0502   -1.8707   -0.3982 C   0  0  0  0  0  0  0  0  0  0  0  0
    7.3953   -2.6680    0.4481 O   0  0  0  0  0  0  0  0  0  0  0  0
    7.9680   -1.0925   -1.0051 N   0  0  0  0  0  0  0  0  0  0  0  0
    9.3826   -1.2096   -0.6425 C   0  0  0  0  0  0  0  0  0  0  0  0
    7.5512   -0.1295   -2.0274 C   0  0  0  0  0  0  0  0  0  0  0  0
    0.8083   -1.9009    3.2624 C   0  0  0  0  0  0  0  0  0  0  0  0
    2.0368   -1.5280    3.6209 O   0  0  0  0  0  0  0  0  0  0  0  0
    0.1090   -2.7273    4.0402 O   0  0  0  0  0  1  0  0  0  0  0  0
   -3.7926   -0.4576    0.3218 C   0  0  1  0  0  0  0  0  0  0  0  0
   -4.0795   -1.4858    0.5420 H   0  0  0  0  0  0  0  0  0  0  0  0
   -4.8040    0.5007    0.9540 C   0  0  0  0  0  0  0  0  0  0  0  0
   -3.7712   -0.2617   -1.0936 O   0  0  0  0  0  0  0  0  0  0  0  0
    0.6980    1.6538   -0.3848 H   0  0  0  0  0  0  0  0  0  0  0  0
   -0.9943    1.3530   -0.8474 H   0  0  0  0  0  0  0  0  0  0  0  0
   -0.5605    1.5391    0.8688 H   0  0  0  0  0  0  0  0  0  0  0  0
    5.1086    0.3811   -0.6378 H   0  0  0  0  0  0  0  0  0  0  0  0
    5.3436   -0.4210    0.9513 H   0  0  0  0  0  0  0  0  0  0  0  0
    4.7307   -3.5946   -1.0153 H   0  0  0  0  0  0  0  0  0  0  0  0
    3.3622   -2.6933    1.2232 H   0  0  0  0  0  0  0  0  0  0  0  0
    2.7258   -2.9386   -0.4273 H   0  0  0  0  0  0  0  0  0  0  0  0
    9.8603   -1.9546   -1.2788 H   0  0  0  0  0  0  0  0  0  0  0  0
    9.8737   -0.2461   -0.7794 H   0  0  0  0  0  0  0  0  0  0  0  0
    9.4663   -1.5151    0.4004 H   0  0  0  0  0  0  0  0  0  0  0  0
    6.4708   -0.1858   -2.1606 H   0  0  0  0  0  0  0  0  0  0  0  0
    7.8264    0.8770   -1.7122 H   0  0  0  0  0  0  0  0  0  0  0  0
    8.0461   -0.3631   -2.9700 H   0  0  0  0  0  0  0  0  0  0  0  0
   -4.5171    1.5289    0.7338 H   0  0  0  0  0  0  0  0  0  0  0  0
   -5.7952    0.3045    0.5451 H   0  0  0  0  0  0  0  0  0  0  0  0
   -4.8203    0.3512    2.0336 H   0  0  0  0  0  0  0  0  0  0  0  0
   -4.6220   -0.4192   -1.5253 H   0  0  0  0  0  0  0  0  0  0  0  0
    5.3269   -3.3374    0.5004 H   0  0  0  0  0  0  0  0  0  0  0  0
  1  2  1  0  0  0  0
  1 33  1  0  0  0  0
  1 34  1  0  0  0  0
  1 35  1  0  0  0  0
  2  3  1  6  0  0  0
  2 12  1  0  0  0  0
  2  4  1  0  0  0  0
  4  5  1  6  0  0  0
  4 10  1  0  0  0  0
  4  6  1  0  0  0  0
  6  7  1  1  0  0  0
  6  8  1  0  0  0  0
  6 29  1  0  0  0  0
  8  9  2  0  0  0  0
  8 10  1  0  0  0  0
 10 11  1  0  0  0  0
 11 12  2  0  0  0  0
 11 26  1  0  0  0  0
 12 13  1  0  0  0  0
 13 14  1  0  0  0  0
 14 15  1  6  0  0  0
 14 20  1  0  0  0  0
 14 16  1  0  0  0  0
 16 17  1  0  0  0  0
 16 36  1  0  0  0  0
 16 37  1  0  0  0  0
 17 18  1  6  0  0  0
 17 19  1  0  0  0  0
 17 21  1  0  0  0  0
 19 20  1  0  0  0  0
 19 38  1  0  0  0  0
 19 51  1  0  0  0  0
 20 39  1  0  0  0  0
 20 40  1  0  0  0  0
 21 22  2  0  0  0  0
 21 23  1  0  0  0  0
 23 24  1  0  0  0  0
 23 25  1  0  0  0  0
 24 41  1  0  0  0  0
 24 42  1  0  0  0  0
 24 43  1  0  0  0  0
 25 44  1  0  0  0  0
 25 45  1  0  0  0  0
 25 46  1  0  0  0  0
 26 27  2  0  0  0  0
 26 28  1  0  0  0  0
 29 30  1  1  0  0  0
 29 31  1  0  0  0  0
 29 32  1  0  0  0  0
 31 47  1  0  0  0  0
 31 48  1  0  0  0  0
 31 49  1  0  0  0  0
 32 50  1  0  0  0  0
M  CHG  1  19   1
M  END
$$$$
