ZINC51133897
 OpenBabel08292219463D

 35 37  0  0  0  0  0  0  0  0999 V2000
    0.6255    1.3542   -0.5605 C   0  0  0  0  0  0  0  0  0  0  0  0
    0.2322   -0.0033   -0.1748 N   0  0  0  0  0  0  0  0  0  0  0  0
   -0.3114   -0.9006   -1.1143 C   0  0  0  0  0  0  0  0  0  0  0  0
   -0.1422   -2.2374   -1.0200 C   0  0  0  0  0  0  0  0  0  0  0  0
    0.6176   -2.9021    0.0461 C   0  0  0  0  0  0  0  0  0  0  0  0
    1.0272   -4.2316   -0.1017 C   0  0  0  0  0  0  0  0  0  0  0  0
    1.7405   -4.8459    0.9054 C   0  0  0  0  0  0  0  0  0  0  0  0
    2.0565   -4.1571    2.0637 C   0  0  0  0  0  0  0  0  0  0  0  0
    1.6552   -2.8400    2.2213 C   0  0  0  0  0  0  0  0  0  0  0  0
    0.9434   -2.2196    1.2242 C   0  0  0  0  0  0  0  0  0  0  0  0
    0.4182   -0.5450    1.3906 S   0  0  0  0  0  0  0  0  0  0  0  0
   -0.8758   -0.5751    1.9770 O   0  0  0  0  0  0  0  0  0  0  0  0
    1.5036    0.1779    1.9549 O   0  0  0  0  0  0  0  0  0  0  0  0
   -0.7116   -3.0161   -1.9716 O   0  5  0  0  0  0  0  0  0  0  0  0
   -1.0642   -0.3818   -2.1986 C   0  0  0  0  0  0  0  0  0  0  0  0
   -1.0388   -0.9409   -3.2802 O   0  0  0  0  0  0  0  0  0  0  0  0
   -1.8077    0.7300   -2.0320 N   0  0  0  0  0  0  0  0  0  0  0  0
   -2.5987    1.2016   -3.0765 C   0  0  0  0  0  0  0  0  0  0  0  0
   -2.3158    0.8175   -4.3829 C   0  0  0  0  0  0  0  0  0  0  0  0
   -3.1100    1.2931   -5.4110 C   0  0  0  0  0  0  0  0  0  0  0  0
   -4.1644    2.1400   -5.0962 C   0  0  0  0  0  0  0  0  0  0  0  0
   -4.3876    2.4801   -3.7768 C   0  0  0  0  0  0  0  0  0  0  0  0
   -3.6165    2.0071   -2.8164 N   0  0  0  0  0  0  0  0  0  0  0  0
    1.6941    1.3759   -0.7746 H   0  0  0  0  0  0  0  0  0  0  0  0
    0.0707    1.6544   -1.4494 H   0  0  0  0  0  0  0  0  0  0  0  0
    0.4044    2.0422    0.2555 H   0  0  0  0  0  0  0  0  0  0  0  0
    0.7847   -4.7757   -1.0026 H   0  0  0  0  0  0  0  0  0  0  0  0
    2.0557   -5.8724    0.7896 H   0  0  0  0  0  0  0  0  0  0  0  0
    2.6166   -4.6472    2.8463 H   0  0  0  0  0  0  0  0  0  0  0  0
    1.9016   -2.3032    3.1255 H   0  0  0  0  0  0  0  0  0  0  0  0
   -1.7917    1.2016   -1.1845 H   0  0  0  0  0  0  0  0  0  0  0  0
   -1.4871    0.1573   -4.5920 H   0  0  0  0  0  0  0  0  0  0  0  0
   -2.9142    1.0123   -6.4353 H   0  0  0  0  0  0  0  0  0  0  0  0
   -4.8030    2.5290   -5.8754 H   0  0  0  0  0  0  0  0  0  0  0  0
   -5.2065    3.1386   -3.5273 H   0  0  0  0  0  0  0  0  0  0  0  0
  1  2  1  0  0  0  0
  1 24  1  0  0  0  0
  1 25  1  0  0  0  0
  1 26  1  0  0  0  0
  2 11  1  0  0  0  0
  2  3  1  0  0  0  0
  3  4  2  0  0  0  0
  3 15  1  0  0  0  0
  4  5  1  0  0  0  0
  4 14  1  0  0  0  0
  5 10  2  0  0  0  0
  5  6  1  0  0  0  0
  6  7  2  0  0  0  0
  6 27  1  0  0  0  0
  7  8  1  0  0  0  0
  7 28  1  0  0  0  0
  8  9  2  0  0  0  0
  8 29  1  0  0  0  0
  9 10  1  0  0  0  0
  9 30  1  0  0  0  0
 10 11  1  0  0  0  0
 11 12  2  0  0  0  0
 11 13  2  0  0  0  0
 15 16  2  0  0  0  0
 15 17  1  0  0  0  0
 17 18  1  0  0  0  0
 17 31  1  0  0  0  0
 18 23  2  0  0  0  0
 18 19  1  0  0  0  0
 19 20  2  0  0  0  0
 19 32  1  0  0  0  0
 20 21  1  0  0  0  0
 20 33  1  0  0  0  0
 21 22  2  0  0  0  0
 21 34  1  0  0  0  0
 22 23  1  0  0  0  0
 22 35  1  0  0  0  0
M  CHG  1  14  -1
M  END
$$$$
