ZINC00000404
 OpenBabel08292219463D

 40 42  0  0  1  0  0  0  0  0999 V2000
   -3.0391   -1.3429   -1.8340 C   0  0  0  0  0  0  0  0  0  0  0  0
   -1.9580   -1.4312   -0.7550 C   0  0  1  0  0  0  0  0  0  0  0  0
   -0.9742   -1.3707   -1.2205 H   0  0  0  0  0  0  0  0  0  0  0  0
   -2.1270   -0.2747    0.2323 C   0  0  0  0  0  0  0  0  0  0  0  0
   -1.8898    0.9954   -0.4582 N   0  0  0  0  0  0  0  0  0  0  0  0
   -0.5709    1.4247   -0.5841 C   0  0  0  0  0  0  0  0  0  0  0  0
    0.4501    0.4814   -0.5252 C   0  0  0  0  0  0  0  0  0  0  0  0
    1.7705    0.8745   -0.6279 C   0  0  0  0  0  0  0  0  0  0  0  0
    2.0891    2.2102   -0.7852 C   0  0  0  0  0  0  0  0  0  0  0  0
    1.0830    3.1570   -0.8430 C   0  0  0  0  0  0  0  0  0  0  0  0
   -0.2453    2.7690   -0.7418 C   0  0  0  0  0  0  0  0  0  0  0  0
   -1.5156    3.9868   -0.8240 S   0  0  0  0  0  0  0  0  0  0  0  0
   -2.9727    3.0551   -1.1524 C   0  0  0  0  0  0  0  0  0  0  0  0
   -2.9952    1.6769   -0.9418 C   0  0  0  0  0  0  0  0  0  0  0  0
   -4.1038    0.9918   -1.2010 N   0  0  0  0  0  0  0  0  0  0  0  0
   -5.1987    1.5735   -1.6517 C   0  0  0  0  0  0  0  0  0  0  0  0
   -5.2430    2.9334   -1.8775 C   0  0  0  0  0  0  0  0  0  0  0  0
   -4.1091    3.6962   -1.6244 C   0  0  0  0  0  0  0  0  0  0  0  0
   -1.9537   -3.8436   -0.9623 C   0  0  0  0  0  0  0  0  0  0  0  0
   -1.1019   -2.7999    1.0496 C   0  0  0  0  0  0  0  0  0  0  0  0
   -2.9187   -2.1668   -2.5373 H   0  0  0  0  0  0  0  0  0  0  0  0
   -4.0228   -1.4034   -1.3684 H   0  0  0  0  0  0  0  0  0  0  0  0
   -2.9460   -0.3955   -2.3649 H   0  0  0  0  0  0  0  0  0  0  0  0
   -1.4111   -0.3846    1.0468 H   0  0  0  0  0  0  0  0  0  0  0  0
   -3.1399   -0.2857    0.6349 H   0  0  0  0  0  0  0  0  0  0  0  0
    0.2089   -0.5643   -0.4031 H   0  0  0  0  0  0  0  0  0  0  0  0
    2.5568    0.1353   -0.5854 H   0  0  0  0  0  0  0  0  0  0  0  0
    3.1226    2.5141   -0.8626 H   0  0  0  0  0  0  0  0  0  0  0  0
    1.3315    4.2006   -0.9675 H   0  0  0  0  0  0  0  0  0  0  0  0
   -6.0757    0.9743   -1.8476 H   0  0  0  0  0  0  0  0  0  0  0  0
   -6.1457    3.3987   -2.2450 H   0  0  0  0  0  0  0  0  0  0  0  0
   -4.1125    4.7632   -1.7913 H   0  0  0  0  0  0  0  0  0  0  0  0
   -0.9777   -3.8087   -1.4464 H   0  0  0  0  0  0  0  0  0  0  0  0
   -2.0505   -4.7763   -0.4066 H   0  0  0  0  0  0  0  0  0  0  0  0
   -2.7366   -3.7884   -1.7187 H   0  0  0  0  0  0  0  0  0  0  0  0
   -1.3379   -2.0605    1.8148 H   0  0  0  0  0  0  0  0  0  0  0  0
   -1.1358   -3.7981    1.4861 H   0  0  0  0  0  0  0  0  0  0  0  0
   -0.1035   -2.6093    0.6559 H   0  0  0  0  0  0  0  0  0  0  0  0
   -2.1097   -2.7091   -0.0278 N   0  3  0  0  0  0  0  0  0  0  0  0
   -3.0474   -2.7466    0.3887 H   0  0  0  0  0  0  0  0  0  0  0  0
  1  2  1  0  0  0  0
  1 21  1  0  0  0  0
  1 22  1  0  0  0  0
  1 23  1  0  0  0  0
  2  3  1  6  0  0  0
  2  4  1  0  0  0  0
  2 39  1  0  0  0  0
  4  5  1  0  0  0  0
  4 24  1  0  0  0  0
  4 25  1  0  0  0  0
  5 14  1  0  0  0  0
  5  6  1  0  0  0  0
  6 11  2  0  0  0  0
  6  7  1  0  0  0  0
  7  8  2  0  0  0  0
  7 26  1  0  0  0  0
  8  9  1  0  0  0  0
  8 27  1  0  0  0  0
  9 10  2  0  0  0  0
  9 28  1  0  0  0  0
 10 11  1  0  0  0  0
 10 29  1  0  0  0  0
 11 12  1  0  0  0  0
 12 13  1  0  0  0  0
 13 18  2  0  0  0  0
 13 14  1  0  0  0  0
 14 15  2  0  0  0  0
 15 16  1  0  0  0  0
 16 17  2  0  0  0  0
 16 30  1  0  0  0  0
 17 18  1  0  0  0  0
 17 31  1  0  0  0  0
 18 32  1  0  0  0  0
 19 33  1  0  0  0  0
 19 34  1  0  0  0  0
 19 35  1  0  0  0  0
 19 39  1  0  0  0  0
 20 36  1  0  0  0  0
 20 37  1  0  0  0  0
 20 38  1  0  0  0  0
 20 39  1  0  0  0  0
 39 40  1  0  0  0  0
M  CHG  1  39   1
M  END
$$$$
