ZINC49918329
 OpenBabel08292219463D

 87 91  0  0  1  0  0  0  0  0999 V2000
    1.0319   -0.5964   -2.5060 C   0  0  0  0  0  0  0  0  0  0  0  0
    0.5614   -1.5334   -1.3917 C   0  0  0  0  0  0  0  0  0  0  0  0
   -0.7281   -2.2337   -1.8247 C   0  0  0  0  0  0  0  0  0  0  0  0
   -1.1986   -3.1706   -0.7104 C   0  0  0  0  0  0  0  0  0  0  0  0
   -2.4687   -3.8605   -1.1370 C   0  0  0  0  0  0  0  0  0  0  0  0
   -2.9484   -3.6267   -2.2210 O   0  0  0  0  0  0  0  0  0  0  0  0
   -3.0671   -4.7346   -0.3126 O   0  0  0  0  0  0  0  0  0  0  0  0
   -4.2678   -5.3513   -0.7818 C   0  0  0  0  0  0  0  0  0  0  0  0
   -4.7925   -6.2941    0.2703 C   0  0  0  0  0  0  0  0  0  0  0  0
   -4.1995   -6.4245    1.3141 O   0  0  0  0  0  0  0  0  0  0  0  0
   -6.0573   -7.0743    0.0197 C   0  0  2  0  0  0  0  0  0  0  0  0
   -6.6856   -7.4774    1.3518 C   0  0  0  0  0  0  0  0  0  0  0  0
   -5.8308   -8.5000    2.0554 C   0  0  0  0  0  0  0  0  0  0  0  0
   -4.8693   -9.2319    1.4050 C   0  0  0  0  0  0  0  0  0  0  0  0
   -4.1094  -10.1755    2.1088 C   0  0  0  0  0  0  0  0  0  0  0  0
   -4.3162  -10.3773    3.4716 C   0  0  0  0  0  0  0  0  0  0  0  0
   -5.3005   -9.6223    4.1409 C   0  0  0  0  0  0  0  0  0  0  0  0
   -6.0500   -8.6897    3.4262 C   0  0  0  0  0  0  0  0  0  0  0  0
   -6.9993   -7.9599    4.0627 O   0  0  0  0  0  0  0  0  0  0  0  0
   -5.5300   -9.8224    5.5821 C   0  0  0  0  0  0  0  0  0  0  0  0
   -6.3787   -9.1712    6.1600 O   0  0  0  0  0  0  0  0  0  0  0  0
   -4.7269  -10.8167    6.3239 C   0  0  0  0  0  0  0  0  0  0  0  0
   -4.9368  -11.0134    7.6849 C   0  0  0  0  0  0  0  0  0  0  0  0
   -4.1813  -11.9467    8.3756 C   0  0  0  0  0  0  0  0  0  0  0  0
   -3.2165  -12.6886    7.7249 C   0  0  0  0  0  0  0  0  0  0  0  0
   -2.9900  -12.5084    6.3639 C   0  0  0  0  0  0  0  0  0  0  0  0
   -3.7451  -11.5699    5.6538 C   0  0  0  0  0  0  0  0  0  0  0  0
   -3.5161  -11.3690    4.2116 C   0  0  0  0  0  0  0  0  0  0  0  0
   -2.6680  -12.0212    3.6331 O   0  0  0  0  0  0  0  0  0  0  0  0
   -2.0407  -13.2395    5.7289 O   0  0  0  0  0  0  0  0  0  0  0  0
   -1.3087  -14.1785    6.5191 C   0  0  0  0  0  0  0  0  0  0  0  0
   -3.1648  -10.8988    1.4577 O   0  0  0  0  0  0  0  0  0  0  0  0
   -4.5759   -9.0625   -0.0636 C   0  0  2  0  0  0  0  0  0  0  0  0
   -3.6658   -8.4745   -0.1825 H   0  0  0  0  0  0  0  0  0  0  0  0
   -5.7303   -8.3504   -0.7650 C   0  0  0  0  0  0  0  0  0  0  0  0
   -4.3865  -10.3484   -0.6573 O   0  0  0  0  0  0  0  0  0  0  0  0
   -3.5868  -10.3298   -1.8414 C   0  0  2  0  0  0  0  0  0  0  0  0
   -3.9446   -9.5464   -2.5095 H   0  0  0  0  0  0  0  0  0  0  0  0
   -3.6855  -11.6857   -2.5455 C   0  0  0  0  0  0  0  0  0  0  0  0
   -2.7791  -11.6782   -3.7803 C   0  0  2  0  0  0  0  0  0  0  0  0
   -2.8014  -12.6591   -4.2550 H   0  0  0  0  0  0  0  0  0  0  0  0
   -1.3468  -11.3512   -3.3467 C   0  0  1  0  0  0  0  0  0  0  0  0
   -0.7053  -11.2893   -4.2258 H   0  0  0  0  0  0  0  0  0  0  0  0
   -1.3384  -10.0083   -2.6117 C   0  0  1  0  0  0  0  0  0  0  0  0
   -1.6666   -9.2207   -3.2899 H   0  0  0  0  0  0  0  0  0  0  0  0
   -2.2249  -10.0735   -1.4927 O   0  0  0  0  0  0  0  0  0  0  0  0
    0.0789   -9.7030   -2.1230 C   0  0  0  0  0  0  0  0  0  0  0  0
   -0.8657  -12.3768   -2.4757 O   0  0  0  0  0  0  0  0  0  0  0  0
   -3.2497  -10.6646   -4.7276 N   0  0  0  0  0  0  0  0  0  0  0  0
   -4.2259  -10.9654   -5.6067 C   0  0  0  0  0  0  0  0  0  0  0  0
   -4.7148  -12.0753   -5.6137 O   0  0  0  0  0  0  0  0  0  0  0  0
   -4.7100   -9.9228   -6.5812 C   0  0  0  0  0  0  0  0  0  0  0  0
   -5.7184  -10.4670   -7.3838 F   0  0  0  0  0  0  0  0  0  0  0  0
   -5.2163   -8.8253   -5.8765 F   0  0  0  0  0  0  0  0  0  0  0  0
   -3.6449   -9.5080   -7.3878 F   0  0  0  0  0  0  0  0  0  0  0  0
   -6.9773   -6.2736   -0.7249 O   0  0  0  0  0  0  0  0  0  0  0  0
    1.9506   -0.0975   -2.1975 H   0  0  0  0  0  0  0  0  0  0  0  0
    1.2184   -1.1737   -3.4115 H   0  0  0  0  0  0  0  0  0  0  0  0
    0.2618    0.1495   -2.7028 H   0  0  0  0  0  0  0  0  0  0  0  0
    1.3315   -2.2793   -1.1948 H   0  0  0  0  0  0  0  0  0  0  0  0
    0.3749   -0.9560   -0.4861 H   0  0  0  0  0  0  0  0  0  0  0  0
   -1.4982   -1.4878   -2.0216 H   0  0  0  0  0  0  0  0  0  0  0  0
   -0.5416   -2.8110   -2.7303 H   0  0  0  0  0  0  0  0  0  0  0  0
   -0.4285   -3.9165   -0.5136 H   0  0  0  0  0  0  0  0  0  0  0  0
   -1.3852   -2.5933    0.1951 H   0  0  0  0  0  0  0  0  0  0  0  0
   -5.0143   -4.5840   -0.9869 H   0  0  0  0  0  0  0  0  0  0  0  0
   -4.0576   -5.9072   -1.6956 H   0  0  0  0  0  0  0  0  0  0  0  0
   -6.7838   -6.5950    1.9841 H   0  0  0  0  0  0  0  0  0  0  0  0
   -7.6739   -7.8996    1.1695 H   0  0  0  0  0  0  0  0  0  0  0  0
   -7.8750   -8.3702    4.0652 H   0  0  0  0  0  0  0  0  0  0  0  0
   -5.6891  -10.4378    8.2036 H   0  0  0  0  0  0  0  0  0  0  0  0
   -4.3484  -12.0948    9.4323 H   0  0  0  0  0  0  0  0  0  0  0  0
   -2.6339  -13.4127    8.2751 H   0  0  0  0  0  0  0  0  0  0  0  0
   -0.7870  -13.6521    7.3184 H   0  0  0  0  0  0  0  0  0  0  0  0
   -1.9972  -14.9046    6.9512 H   0  0  0  0  0  0  0  0  0  0  0  0
   -0.5834  -14.6950    5.8904 H   0  0  0  0  0  0  0  0  0  0  0  0
   -2.2764  -10.5202    1.5066 H   0  0  0  0  0  0  0  0  0  0  0  0
   -6.6040   -9.0017   -0.7877 H   0  0  0  0  0  0  0  0  0  0  0  0
   -5.4381   -8.0913   -1.7826 H   0  0  0  0  0  0  0  0  0  0  0  0
   -3.3661  -12.4741   -1.8640 H   0  0  0  0  0  0  0  0  0  0  0  0
   -4.7165  -11.8629   -2.8516 H   0  0  0  0  0  0  0  0  0  0  0  0
    0.7630   -9.6996   -2.9716 H   0  0  0  0  0  0  0  0  0  0  0  0
    0.0942   -8.7259   -1.6401 H   0  0  0  0  0  0  0  0  0  0  0  0
    0.3894  -10.4660   -1.4092 H   0  0  0  0  0  0  0  0  0  0  0  0
    0.0377  -12.2342   -2.1615 H   0  0  0  0  0  0  0  0  0  0  0  0
   -2.8587   -9.7769   -4.7220 H   0  0  0  0  0  0  0  0  0  0  0  0
   -7.2335   -5.4534   -0.2813 H   0  0  0  0  0  0  0  0  0  0  0  0
  1  2  1  0  0  0  0
  1 57  1  0  0  0  0
  1 58  1  0  0  0  0
  1 59  1  0  0  0  0
  2  3  1  0  0  0  0
  2 60  1  0  0  0  0
  2 61  1  0  0  0  0
  3  4  1  0  0  0  0
  3 62  1  0  0  0  0
  3 63  1  0  0  0  0
  4  5  1  0  0  0  0
  4 64  1  0  0  0  0
  4 65  1  0  0  0  0
  5  6  2  0  0  0  0
  5  7  1  0  0  0  0
  7  8  1  0  0  0  0
  8  9  1  0  0  0  0
  8 66  1  0  0  0  0
  8 67  1  0  0  0  0
  9 10  2  0  0  0  0
 11  9  1  1  0  0  0
 11 35  1  0  0  0  0
 11 12  1  0  0  0  0
 11 56  1  0  0  0  0
 12 13  1  0  0  0  0
 12 68  1  0  0  0  0
 12 69  1  0  0  0  0
 13 18  2  0  0  0  0
 13 14  1  0  0  0  0
 14 15  2  0  0  0  0
 14 33  1  0  0  0  0
 15 16  1  0  0  0  0
 15 32  1  0  0  0  0
 16 28  1  0  0  0  0
 16 17  2  0  0  0  0
 17 18  1  0  0  0  0
 17 20  1  0  0  0  0
 18 19  1  0  0  0  0
 19 70  1  0  0  0  0
 20 21  2  0  0  0  0
 20 22  1  0  0  0  0
 22 27  2  0  0  0  0
 22 23  1  0  0  0  0
 23 24  2  0  0  0  0
 23 71  1  0  0  0  0
 24 25  1  0  0  0  0
 24 72  1  0  0  0  0
 25 26  2  0  0  0  0
 25 73  1  0  0  0  0
 26 27  1  0  0  0  0
 26 30  1  0  0  0  0
 27 28  1  0  0  0  0
 28 29  2  0  0  0  0
 30 31  1  0  0  0  0
 31 74  1  0  0  0  0
 31 75  1  0  0  0  0
 31 76  1  0  0  0  0
 32 77  1  0  0  0  0
 33 34  1  6  0  0  0
 33 35  1  0  0  0  0
 33 36  1  0  0  0  0
 35 78  1  0  0  0  0
 35 79  1  0  0  0  0
 36 37  1  0  0  0  0
 37 38  1  6  0  0  0
 37 46  1  0  0  0  0
 37 39  1  0  0  0  0
 39 40  1  0  0  0  0
 39 80  1  0  0  0  0
 39 81  1  0  0  0  0
 40 41  1  6  0  0  0
 40 42  1  0  0  0  0
 40 49  1  0  0  0  0
 42 43  1  6  0  0  0
 42 44  1  0  0  0  0
 42 48  1  0  0  0  0
 44 45  1  6  0  0  0
 44 46  1  0  0  0  0
 44 47  1  0  0  0  0
 47 82  1  0  0  0  0
 47 83  1  0  0  0  0
 47 84  1  0  0  0  0
 48 85  1  0  0  0  0
 49 50  1  0  0  0  0
 49 86  1  0  0  0  0
 50 51  2  0  0  0  0
 50 52  1  0  0  0  0
 52 53  1  0  0  0  0
 52 54  1  0  0  0  0
 52 55  1  0  0  0  0
 56 87  1  0  0  0  0
M  END
$$$$
