ZINC19796084
 OpenBabel08292219463D

 64 68  0  0  1  0  0  0  0  0999 V2000
   -0.2663   -0.3620    5.4641 C   0  0  0  0  0  0  0  0  0  0  0  0
    0.6994    0.5149    5.0004 C   0  0  0  0  0  0  0  0  0  0  0  0
    1.8638    0.0332    4.4352 C   0  0  0  0  0  0  0  0  0  0  0  0
    2.0664   -1.3346    4.3318 C   0  0  0  0  0  0  0  0  0  0  0  0
    1.0924   -2.2191    4.7995 C   0  0  0  0  0  0  0  0  0  0  0  0
   -0.0735   -1.7260    5.3654 C   0  0  0  0  0  0  0  0  0  0  0  0
    1.5706   -3.5059    4.5639 N   0  0  0  0  0  0  0  0  0  0  0  0
    1.1107   -4.3313    4.7830 H   0  0  0  0  0  0  0  0  0  0  0  0
    2.7798   -3.4086    3.9799 C   0  0  0  0  0  0  0  0  0  0  0  0
    3.4724   -4.3503    3.6415 O   0  0  0  0  0  0  0  0  0  0  0  0
    3.1062   -2.1115    3.8266 N   0  0  0  0  0  0  0  0  0  0  0  0
    4.3442   -1.6036    3.2301 C   0  0  2  0  0  0  0  0  0  0  0  0
    4.4622   -2.1072    1.7886 C   0  0  0  0  0  0  0  0  0  0  0  0
    5.7941   -1.6393    1.1981 C   0  0  0  0  0  0  0  0  0  0  0  0
    6.9027   -2.1747    1.9974 N   0  3  2  0  0  0  0  0  0  0  0  0
    6.8368   -1.6390    3.3624 C   0  0  0  0  0  0  0  0  0  0  0  0
    5.5451   -2.1068    4.0361 C   0  0  0  0  0  0  0  0  0  0  0  0
    8.1794   -1.7878    1.3822 C   0  0  0  0  0  0  0  0  0  0  0  0
    9.3321   -2.4478    2.1415 C   0  0  0  0  0  0  0  0  0  0  0  0
   10.6618   -2.0449    1.5008 C   0  0  0  0  0  0  0  0  0  0  0  0
   11.8145   -2.7048    2.2601 C   0  0  0  0  0  0  0  0  0  0  0  0
   11.7312   -4.2008    2.0984 C   0  0  0  0  0  0  0  0  0  0  0  0
   11.6406   -4.7550    0.8351 C   0  0  0  0  0  0  0  0  0  0  0  0
   11.5647   -6.1268    0.6856 C   0  0  0  0  0  0  0  0  0  0  0  0
   11.5793   -6.9462    1.8016 C   0  0  0  0  0  0  0  0  0  0  0  0
   11.6701   -6.3900    3.0664 C   0  0  0  0  0  0  0  0  0  0  0  0
   11.7512   -5.0182    3.2131 C   0  0  0  0  0  0  0  0  0  0  0  0
   11.5046   -8.2873    1.6567 F   0  0  0  0  0  0  0  0  0  0  0  0
   13.1272   -2.2122    1.7076 C   0  0  0  0  0  0  0  0  0  0  0  0
   13.3682   -2.2667    0.3474 C   0  0  0  0  0  0  0  0  0  0  0  0
   14.5714   -1.8148   -0.1604 C   0  0  0  0  0  0  0  0  0  0  0  0
   15.5358   -1.3073    0.6937 C   0  0  0  0  0  0  0  0  0  0  0  0
   15.2933   -1.2531    2.0559 C   0  0  0  0  0  0  0  0  0  0  0  0
   14.0872   -1.7008    2.5608 C   0  0  0  0  0  0  0  0  0  0  0  0
   16.7126   -0.8656    0.1985 F   0  0  0  0  0  0  0  0  0  0  0  0
   -1.1724    0.0221    5.9090 H   0  0  0  0  0  0  0  0  0  0  0  0
    0.5414    1.5802    5.0807 H   0  0  0  0  0  0  0  0  0  0  0  0
    2.6148    0.7203    4.0743 H   0  0  0  0  0  0  0  0  0  0  0  0
   -0.8291   -2.4070    5.7282 H   0  0  0  0  0  0  0  0  0  0  0  0
    4.3316   -0.5137    3.2367 H   0  0  0  0  0  0  0  0  0  0  0  0
    4.4224   -3.1964    1.7792 H   0  0  0  0  0  0  0  0  0  0  0  0
    3.6403   -1.7072    1.1949 H   0  0  0  0  0  0  0  0  0  0  0  0
    5.8813   -1.9960    0.1718 H   0  0  0  0  0  0  0  0  0  0  0  0
    5.8327   -0.5501    1.2078 H   0  0  0  0  0  0  0  0  0  0  0  0
    7.6939   -1.9955    3.9338 H   0  0  0  0  0  0  0  0  0  0  0  0
    6.8532   -0.5498    3.3259 H   0  0  0  0  0  0  0  0  0  0  0  0
    5.4972   -1.7066    5.0489 H   0  0  0  0  0  0  0  0  0  0  0  0
    5.5278   -3.1961    4.0734 H   0  0  0  0  0  0  0  0  0  0  0  0
    8.1953   -2.1141    0.3423 H   0  0  0  0  0  0  0  0  0  0  0  0
    8.2896   -0.7042    1.4247 H   0  0  0  0  0  0  0  0  0  0  0  0
    9.3162   -2.1215    3.1814 H   0  0  0  0  0  0  0  0  0  0  0  0
    9.2220   -3.5314    2.0990 H   0  0  0  0  0  0  0  0  0  0  0  0
   10.6777   -2.3712    0.4609 H   0  0  0  0  0  0  0  0  0  0  0  0
   10.7720   -0.9613    1.5433 H   0  0  0  0  0  0  0  0  0  0  0  0
   11.7465   -2.4493    3.3175 H   0  0  0  0  0  0  0  0  0  0  0  0
   11.6289   -4.1157   -0.0352 H   0  0  0  0  0  0  0  0  0  0  0  0
   11.4935   -6.5595   -0.3014 H   0  0  0  0  0  0  0  0  0  0  0  0
   11.6812   -7.0281    3.9376 H   0  0  0  0  0  0  0  0  0  0  0  0
   11.8265   -4.5844    4.1993 H   0  0  0  0  0  0  0  0  0  0  0  0
   12.6160   -2.6630   -0.3186 H   0  0  0  0  0  0  0  0  0  0  0  0
   14.7596   -1.8579   -1.2230 H   0  0  0  0  0  0  0  0  0  0  0  0
   16.0449   -0.8577    2.7231 H   0  0  0  0  0  0  0  0  0  0  0  0
   13.8961   -1.6545    3.6228 H   0  0  0  0  0  0  0  0  0  0  0  0
    6.8381   -3.1812    2.0286 H   0  0  0  0  0  0  0  0  0  0  0  0
  1  6  2  0  0  0  0
  1  2  1  0  0  0  0
  1 36  1  0  0  0  0
  2  3  2  0  0  0  0
  2 37  1  0  0  0  0
  3  4  1  0  0  0  0
  3 38  1  0  0  0  0
  4 11  1  0  0  0  0
  4  5  2  0  0  0  0
  5  6  1  0  0  0  0
  5  7  1  0  0  0  0
  6 39  1  0  0  0  0
  7  8  1  0  0  0  0
  7  9  1  0  0  0  0
  9 10  2  0  0  0  0
  9 11  1  0  0  0  0
 11 12  1  0  0  0  0
 12 17  1  0  0  0  0
 12 13  1  0  0  0  0
 12 40  1  1  0  0  0
 13 14  1  0  0  0  0
 13 41  1  0  0  0  0
 13 42  1  0  0  0  0
 14 15  1  0  0  0  0
 14 43  1  0  0  0  0
 14 44  1  0  0  0  0
 15 16  1  0  0  0  0
 15 18  1  0  0  0  0
 15 64  1  1  0  0  0
 16 17  1  0  0  0  0
 16 45  1  0  0  0  0
 16 46  1  0  0  0  0
 17 47  1  0  0  0  0
 17 48  1  0  0  0  0
 18 19  1  0  0  0  0
 18 49  1  0  0  0  0
 18 50  1  0  0  0  0
 19 20  1  0  0  0  0
 19 51  1  0  0  0  0
 19 52  1  0  0  0  0
 20 21  1  0  0  0  0
 20 53  1  0  0  0  0
 20 54  1  0  0  0  0
 21 22  1  0  0  0  0
 21 29  1  0  0  0  0
 21 55  1  0  0  0  0
 22 27  2  0  0  0  0
 22 23  1  0  0  0  0
 23 24  2  0  0  0  0
 23 56  1  0  0  0  0
 24 25  1  0  0  0  0
 24 57  1  0  0  0  0
 25 26  2  0  0  0  0
 25 28  1  0  0  0  0
 26 27  1  0  0  0  0
 26 58  1  0  0  0  0
 27 59  1  0  0  0  0
 29 34  2  0  0  0  0
 29 30  1  0  0  0  0
 30 31  2  0  0  0  0
 30 60  1  0  0  0  0
 31 32  1  0  0  0  0
 31 61  1  0  0  0  0
 32 33  2  0  0  0  0
 32 35  1  0  0  0  0
 33 34  1  0  0  0  0
 33 62  1  0  0  0  0
 34 63  1  0  0  0  0
M  CHG  1  15   1
M  END
$$$$
