ZINC05224188
 OpenBabel08292219463D

 10  9  0  0  0  0  0  0  0  0999 V2000
    1.6846    2.0446   -0.0030 C   0  0  0  0  0  0  0  0  0  0  0  0
   -0.0172    1.4168    0.0098 S   0  0  0  0  0  0  0  0  0  0  0  0
    0.0021   -0.0041    0.0020 O   0  0  0  0  0  0  0  0  0  0  0  0
   -0.7195    2.0205   -1.5499 C   0  0  0  0  0  0  0  0  0  0  0  0
    2.2115    1.6485   -0.8712 H   0  0  0  0  0  0  0  0  0  0  0  0
    1.6699    3.1334   -0.0526 H   0  0  0  0  0  0  0  0  0  0  0  0
    2.1952    1.7292    0.9069 H   0  0  0  0  0  0  0  0  0  0  0  0
   -1.7546    1.6896   -1.6345 H   0  0  0  0  0  0  0  0  0  0  0  0
   -0.6838    3.1098   -1.5669 H   0  0  0  0  0  0  0  0  0  0  0  0
   -0.1422    1.6250   -2.3856 H   0  0  0  0  0  0  0  0  0  0  0  0
  1  2  1  0  0  0  0
  1  5  1  0  0  0  0
  1  6  1  0  0  0  0
  1  7  1  0  0  0  0
  2  3  2  0  0  0  0
  2  4  1  0  0  0  0
  4  8  1  0  0  0  0
  4  9  1  0  0  0  0
  4 10  1  0  0  0  0
M  END
$$$$
