ZINC11616581
 OpenBabel08292219463D

 47 49  0  0  1  0  0  0  0  0999 V2000
    6.0615    3.1883    0.7855 C   0  0  0  0  0  0  0  0  0  0  0  0
    5.3579    2.6679    1.8556 C   0  0  0  0  0  0  0  0  0  0  0  0
    4.1909    1.9600    1.6369 C   0  0  0  0  0  0  0  0  0  0  0  0
    3.7273    1.7727    0.3481 C   0  0  0  0  0  0  0  0  0  0  0  0
    4.4337    2.2886   -0.7223 C   0  0  0  0  0  0  0  0  0  0  0  0
    5.5983    3.0003   -0.5033 C   0  0  0  0  0  0  0  0  0  0  0  0
    2.4550    1.0010    0.1097 C   0  0  0  0  0  0  0  0  0  0  0  0
    1.2526    1.9262    0.3074 C   0  0  1  0  0  0  0  0  0  0  0  0
    1.3159    2.4000    1.2870 H   0  0  0  0  0  0  0  0  0  0  0  0
    1.2527    3.0021   -0.7804 C   0  0  0  0  0  0  0  0  0  0  0  0
    0.1413    3.9847   -0.5152 C   0  0  0  0  0  0  0  0  0  0  0  0
   -0.5799    3.8388    0.4489 O   0  0  0  0  0  0  0  0  0  0  0  0
   -0.0513    5.0255   -1.3495 N   0  0  0  0  0  0  0  0  0  0  0  0
    0.7533    5.3316   -2.5584 C   0  0  0  0  0  0  0  0  0  0  0  0
    0.1919    6.6387   -3.1080 C   0  0  1  0  0  0  0  0  0  0  0  0
    0.6809    7.4927   -2.6393 H   0  0  0  0  0  0  0  0  0  0  0  0
    0.1871    6.8297   -4.6071 C   0  0  0  0  0  0  0  0  0  0  0  0
   -0.4718    8.1875   -4.9040 C   0  0  0  0  0  0  0  0  0  0  0  0
   -1.8779    8.2694   -4.3186 C   0  0  0  0  0  0  0  0  0  0  0  0
   -1.8865    7.9475   -2.8149 C   0  0  0  0  0  0  0  0  0  0  0  0
   -1.2965    6.5592   -2.6531 C   0  0  2  0  0  0  0  0  0  0  0  0
   -1.8507    5.8295   -3.2433 H   0  0  0  0  0  0  0  0  0  0  0  0
   -1.1029    6.0687   -1.2134 C   0  0  0  0  0  0  0  0  0  0  0  0
   -0.0193    1.1228    0.2192 C   0  0  0  0  0  0  0  0  0  0  0  0
   -0.4991    0.8677   -0.8599 O   0  0  0  0  0  0  0  0  0  0  0  0
    6.9728    3.7420    0.9564 H   0  0  0  0  0  0  0  0  0  0  0  0
    5.7197    2.8148    2.8625 H   0  0  0  0  0  0  0  0  0  0  0  0
    3.6412    1.5534    2.4729 H   0  0  0  0  0  0  0  0  0  0  0  0
    4.0738    2.1386   -1.7294 H   0  0  0  0  0  0  0  0  0  0  0  0
    6.1479    3.4071   -1.3393 H   0  0  0  0  0  0  0  0  0  0  0  0
    2.3954    0.1720    0.8149 H   0  0  0  0  0  0  0  0  0  0  0  0
    2.4511    0.6126   -0.9087 H   0  0  0  0  0  0  0  0  0  0  0  0
    2.2091    3.5250   -0.7743 H   0  0  0  0  0  0  0  0  0  0  0  0
    1.1002    2.5350   -1.7534 H   0  0  0  0  0  0  0  0  0  0  0  0
    1.8030    5.4537   -2.2910 H   0  0  0  0  0  0  0  0  0  0  0  0
    0.6420    4.5368   -3.2959 H   0  0  0  0  0  0  0  0  0  0  0  0
   -0.3880    6.0283   -5.0709 H   0  0  0  0  0  0  0  0  0  0  0  0
    1.2087    6.8215   -4.9870 H   0  0  0  0  0  0  0  0  0  0  0  0
   -0.5271    8.3277   -5.9836 H   0  0  0  0  0  0  0  0  0  0  0  0
    0.1397    8.9804   -4.4734 H   0  0  0  0  0  0  0  0  0  0  0  0
   -2.5213    7.5593   -4.8380 H   0  0  0  0  0  0  0  0  0  0  0  0
   -2.2676    9.2763   -4.4689 H   0  0  0  0  0  0  0  0  0  0  0  0
   -2.9089    7.9630   -2.4374 H   0  0  0  0  0  0  0  0  0  0  0  0
   -1.2792    8.6745   -2.2757 H   0  0  0  0  0  0  0  0  0  0  0  0
   -2.0259    5.6368   -0.8265 H   0  0  0  0  0  0  0  0  0  0  0  0
   -0.7599    6.8795   -0.5706 H   0  0  0  0  0  0  0  0  0  0  0  0
   -0.6221    0.6952    1.3397 O   0  0  0  0  0  1  0  0  0  0  0  0
  1  6  2  0  0  0  0
  1  2  1  0  0  0  0
  1 26  1  0  0  0  0
  2  3  2  0  0  0  0
  2 27  1  0  0  0  0
  3  4  1  0  0  0  0
  3 28  1  0  0  0  0
  4  5  2  0  0  0  0
  4  7  1  0  0  0  0
  5  6  1  0  0  0  0
  5 29  1  0  0  0  0
  6 30  1  0  0  0  0
  7  8  1  0  0  0  0
  7 31  1  0  0  0  0
  7 32  1  0  0  0  0
  8  9  1  1  0  0  0
  8 10  1  0  0  0  0
  8 24  1  0  0  0  0
 10 11  1  0  0  0  0
 10 33  1  0  0  0  0
 10 34  1  0  0  0  0
 11 12  2  0  0  0  0
 11 13  1  0  0  0  0
 13 23  1  0  0  0  0
 13 14  1  0  0  0  0
 14 15  1  0  0  0  0
 14 35  1  0  0  0  0
 14 36  1  0  0  0  0
 15 16  1  1  0  0  0
 15 21  1  0  0  0  0
 15 17  1  0  0  0  0
 17 18  1  0  0  0  0
 17 37  1  0  0  0  0
 17 38  1  0  0  0  0
 18 19  1  0  0  0  0
 18 39  1  0  0  0  0
 18 40  1  0  0  0  0
 19 20  1  0  0  0  0
 19 41  1  0  0  0  0
 19 42  1  0  0  0  0
 20 21  1  0  0  0  0
 20 43  1  0  0  0  0
 20 44  1  0  0  0  0
 21 22  1  6  0  0  0
 21 23  1  0  0  0  0
 23 45  1  0  0  0  0
 23 46  1  0  0  0  0
 24 25  2  0  0  0  0
 24 47  1  0  0  0  0
M  END
$$$$
