ZINC00056646
 OpenBabel08292219463D

 39 40  0  0  1  0  0  0  0  0999 V2000
   -0.0187    1.5258    0.0104 C   0  0  0  0  0  0  0  0  0  0  0  0
    0.0021   -0.0041    0.0020 C   0  0  0  0  0  0  0  0  0  0  0  0
    0.7421   -0.5109    1.2415 C   0  0  0  0  0  0  0  0  0  0  0  0
   -1.3761   -0.5125    0.0124 N   0  3  0  0  0  0  0  0  0  0  0  0
   -1.3591   -1.9758   -0.1163 C   0  0  0  0  0  0  0  0  0  0  0  0
   -2.7945   -2.5054   -0.1054 C   0  0  2  0  0  0  0  0  0  0  0  0
   -3.3047   -2.1538    0.7914 H   0  0  0  0  0  0  0  0  0  0  0  0
   -2.7738   -4.0352   -0.1138 C   0  0  0  0  0  0  0  0  0  0  0  0
   -4.1082   -4.5304    0.0137 O   0  0  0  0  0  0  0  0  0  0  0  0
   -4.2671   -5.8798    0.0235 C   0  0  0  0  0  0  0  0  0  0  0  0
   -3.1678   -6.7103   -0.0810 C   0  0  0  0  0  0  0  0  0  0  0  0
   -3.3278   -8.0885   -0.0707 C   0  0  0  0  0  0  0  0  0  0  0  0
   -4.5803   -8.6507    0.0429 C   0  0  0  0  0  0  0  0  0  0  0  0
   -5.7029   -7.8349    0.1494 C   0  0  0  0  0  0  0  0  0  0  0  0
   -5.5453   -6.4381    0.1453 C   0  0  0  0  0  0  0  0  0  0  0  0
   -6.8920   -5.8771    0.2779 C   0  0  0  0  0  0  0  0  0  0  0  0
   -7.7423   -6.9125    0.3564 C   0  0  0  0  0  0  0  0  0  0  0  0
   -7.0501   -8.0912    0.2728 N   0  0  0  0  0  0  0  0  0  0  0  0
   -7.4485   -8.9750    0.3061 H   0  0  0  0  0  0  0  0  0  0  0  0
   -3.4857   -2.0320   -1.2631 O   0  0  0  0  0  0  0  0  0  0  0  0
    1.0039    1.9031    0.0027 H   0  0  0  0  0  0  0  0  0  0  0  0
   -0.5459    1.8868   -0.8726 H   0  0  0  0  0  0  0  0  0  0  0  0
   -0.5289    1.8773    0.9072 H   0  0  0  0  0  0  0  0  0  0  0  0
    0.5123   -0.3556   -0.8948 H   0  0  0  0  0  0  0  0  0  0  0  0
    0.2319   -0.1594    2.1383 H   0  0  0  0  0  0  0  0  0  0  0  0
    0.7568   -1.6008    1.2356 H   0  0  0  0  0  0  0  0  0  0  0  0
    1.7647   -0.1336    1.2338 H   0  0  0  0  0  0  0  0  0  0  0  0
   -1.8225   -0.2564    0.8803 H   0  0  0  0  0  0  0  0  0  0  0  0
   -0.8769   -2.2525   -1.0538 H   0  0  0  0  0  0  0  0  0  0  0  0
   -0.8062   -2.4075    0.7180 H   0  0  0  0  0  0  0  0  0  0  0  0
   -2.3435   -4.3876   -1.0513 H   0  0  0  0  0  0  0  0  0  0  0  0
   -2.1714   -4.3950    0.7203 H   0  0  0  0  0  0  0  0  0  0  0  0
   -2.1794   -6.2847   -0.1714 H   0  0  0  0  0  0  0  0  0  0  0  0
   -2.4610   -8.7275   -0.1530 H   0  0  0  0  0  0  0  0  0  0  0  0
   -4.6912   -9.7250    0.0489 H   0  0  0  0  0  0  0  0  0  0  0  0
   -7.1514   -4.8291    0.3075 H   0  0  0  0  0  0  0  0  0  0  0  0
   -8.8140   -6.8286    0.4605 H   0  0  0  0  0  0  0  0  0  0  0  0
   -3.0863   -2.3073   -2.0996 H   0  0  0  0  0  0  0  0  0  0  0  0
   -1.8879   -0.1129   -0.7598 H   0  0  0  0  0  0  0  0  0  0  0  0
  1  2  1  0  0  0  0
  1 21  1  0  0  0  0
  1 22  1  0  0  0  0
  1 23  1  0  0  0  0
  2  3  1  0  0  0  0
  2  4  1  0  0  0  0
  2 24  1  0  0  0  0
  3 25  1  0  0  0  0
  3 26  1  0  0  0  0
  3 27  1  0  0  0  0
  4  5  1  0  0  0  0
  4 28  1  0  0  0  0
  4 39  1  0  0  0  0
  5  6  1  0  0  0  0
  5 29  1  0  0  0  0
  5 30  1  0  0  0  0
  6  7  1  1  0  0  0
  6  8  1  0  0  0  0
  6 20  1  0  0  0  0
  8  9  1  0  0  0  0
  8 31  1  0  0  0  0
  8 32  1  0  0  0  0
  9 10  1  0  0  0  0
 10 15  2  0  0  0  0
 10 11  1  0  0  0  0
 11 12  2  0  0  0  0
 11 33  1  0  0  0  0
 12 13  1  0  0  0  0
 12 34  1  0  0  0  0
 13 14  2  0  0  0  0
 13 35  1  0  0  0  0
 14 18  1  0  0  0  0
 14 15  1  0  0  0  0
 15 16  1  0  0  0  0
 16 17  2  0  0  0  0
 16 36  1  0  0  0  0
 17 18  1  0  0  0  0
 17 37  1  0  0  0  0
 18 19  1  0  0  0  0
 20 38  1  0  0  0  0
M  CHG  1   4   1
M  END
$$$$
