ZINC00002226
 OpenBabel08292219463D

 29 31  0  0  0  0  0  0  0  0999 V2000
   -0.0184    1.5028    0.0103 C   0  0  0  0  0  0  0  0  0  0  0  0
    0.0021   -0.0041    0.0020 C   0  0  0  0  0  0  0  0  0  0  0  0
    0.0061   -0.6946   -1.1664 C   0  0  0  0  0  0  0  0  0  0  0  0
    0.0259   -2.1054   -1.1480 C   0  0  0  0  0  0  0  0  0  0  0  0
    0.0296   -2.7117   -2.2041 O   0  0  0  0  0  0  0  0  0  0  0  0
    0.0412   -2.7966    0.0017 O   0  0  0  0  0  0  0  0  0  0  0  0
    0.0381   -2.1732    1.2017 C   0  0  0  0  0  0  0  0  0  0  0  0
    0.0243   -0.7636    1.2560 C   0  0  0  0  0  0  0  0  0  0  0  0
    0.0260   -0.1088    2.4872 C   0  0  0  0  0  0  0  0  0  0  0  0
    0.0468   -0.8581    3.6555 C   0  0  0  0  0  0  0  0  0  0  0  0
    0.0542   -0.5215    5.0861 C   0  0  0  0  0  0  0  0  0  0  0  0
    0.0762   -1.6875    5.7435 C   0  0  0  0  0  0  0  0  0  0  0  0
    0.0832   -2.7131    4.8735 O   0  0  0  0  0  0  0  0  0  0  0  0
    0.0661   -2.2665    3.6010 C   0  0  0  0  0  0  0  0  0  0  0  0
    0.0535   -2.9108    2.3723 C   0  0  0  0  0  0  0  0  0  0  0  0
    0.0743   -4.4165    2.3124 C   0  0  0  0  0  0  0  0  0  0  0  0
    0.0917   -1.8304    7.2436 C   0  0  0  0  0  0  0  0  0  0  0  0
    1.0042    1.8801    0.0026 H   0  0  0  0  0  0  0  0  0  0  0  0
   -0.5455    1.8639   -0.8728 H   0  0  0  0  0  0  0  0  0  0  0  0
   -0.5286    1.8543    0.9071 H   0  0  0  0  0  0  0  0  0  0  0  0
   -0.0061   -0.1656   -2.1079 H   0  0  0  0  0  0  0  0  0  0  0  0
    0.0117    0.9702    2.5313 H   0  0  0  0  0  0  0  0  0  0  0  0
    0.0444    0.4675    5.5198 H   0  0  0  0  0  0  0  0  0  0  0  0
    1.1068   -4.7651    2.2935 H   0  0  0  0  0  0  0  0  0  0  0  0
   -0.4302   -4.8220    3.1894 H   0  0  0  0  0  0  0  0  0  0  0  0
   -0.4388   -4.7514    1.4109 H   0  0  0  0  0  0  0  0  0  0  0  0
   -0.9321   -1.8789    7.6146 H   0  0  0  0  0  0  0  0  0  0  0  0
    0.6206   -2.7436    7.5162 H   0  0  0  0  0  0  0  0  0  0  0  0
    0.5978   -0.9719    7.6852 H   0  0  0  0  0  0  0  0  0  0  0  0
  1  2  1  0  0  0  0
  1 18  1  0  0  0  0
  1 19  1  0  0  0  0
  1 20  1  0  0  0  0
  2  8  1  0  0  0  0
  2  3  2  0  0  0  0
  3  4  1  0  0  0  0
  3 21  1  0  0  0  0
  4  5  2  0  0  0  0
  4  6  1  0  0  0  0
  6  7  1  0  0  0  0
  7 15  2  0  0  0  0
  7  8  1  0  0  0  0
  8  9  2  0  0  0  0
  9 10  1  0  0  0  0
  9 22  1  0  0  0  0
 10 14  2  0  0  0  0
 10 11  1  0  0  0  0
 11 12  2  0  0  0  0
 11 23  1  0  0  0  0
 12 13  1  0  0  0  0
 12 17  1  0  0  0  0
 13 14  1  0  0  0  0
 14 15  1  0  0  0  0
 15 16  1  0  0  0  0
 16 24  1  0  0  0  0
 16 25  1  0  0  0  0
 16 26  1  0  0  0  0
 17 27  1  0  0  0  0
 17 28  1  0  0  0  0
 17 29  1  0  0  0  0
M  END
$$$$
