ZINC06716957
 OpenBabel08292219463D

 61 65  0  0  0  0  0  0  0  0999 V2000
    4.8797   -3.9669    0.1547 C   0  0  0  0  0  0  0  0  0  0  0  0
    3.5754   -4.7217    0.1669 C   0  0  0  0  0  0  0  0  0  0  0  0
    3.5795   -6.1039    0.1964 C   0  0  0  0  0  0  0  0  0  0  0  0
    2.3894   -6.8021    0.2020 C   0  0  0  0  0  0  0  0  0  0  0  0
    1.1753   -6.1126    0.1832 C   0  0  0  0  0  0  0  0  0  0  0  0
    1.1710   -4.7182    0.1589 C   0  0  0  0  0  0  0  0  0  0  0  0
    2.3724   -4.0259    0.1535 C   0  0  0  0  0  0  0  0  0  0  0  0
    2.3736   -2.6277    0.1286 N   0  0  0  0  0  0  0  0  0  0  0  0
    1.2893   -1.9432   -0.3959 C   0  0  0  0  0  0  0  0  0  0  0  0
    0.3200   -2.6260   -0.9883 N   0  0  0  0  0  0  0  0  0  0  0  0
   -0.7320   -2.0090   -1.5021 C   0  0  0  0  0  0  0  0  0  0  0  0
   -0.8164   -0.6303   -1.4172 C   0  0  0  0  0  0  0  0  0  0  0  0
    0.2206    0.0624   -0.7871 C   0  0  0  0  0  0  0  0  0  0  0  0
    1.2507   -0.6239   -0.2975 N   0  0  0  0  0  0  0  0  0  0  0  0
    0.1772    1.5403   -0.6710 C   0  0  0  0  0  0  0  0  0  0  0  0
    1.2145    2.2342   -0.0406 C   0  0  0  0  0  0  0  0  0  0  0  0
    1.1266    3.6129    0.0420 C   0  0  0  0  0  0  0  0  0  0  0  0
    0.0258    4.2543   -0.4966 C   0  0  0  0  0  0  0  0  0  0  0  0
   -0.9376    3.5726   -1.0856 N   0  0  0  0  0  0  0  0  0  0  0  0
   -0.8952    2.2604   -1.1934 C   0  0  0  0  0  0  0  0  0  0  0  0
   -0.1012   -6.8583    0.1887 C   0  0  0  0  0  0  0  0  0  0  0  0
   -1.1570   -6.2560    0.1719 O   0  0  0  0  0  0  0  0  0  0  0  0
   -0.0944   -8.2058    0.2122 N   0  0  0  0  0  0  0  0  0  0  0  0
   -1.2963   -8.9130    0.1072 C   0  0  0  0  0  0  0  0  0  0  0  0
   -1.4127  -10.1752    0.6766 C   0  0  0  0  0  0  0  0  0  0  0  0
   -2.6011  -10.8720    0.5773 C   0  0  0  0  0  0  0  0  0  0  0  0
   -3.6741  -10.3211   -0.0973 C   0  0  0  0  0  0  0  0  0  0  0  0
   -3.5624   -9.0626   -0.6729 C   0  0  0  0  0  0  0  0  0  0  0  0
   -2.3721   -8.3576   -0.5706 C   0  0  0  0  0  0  0  0  0  0  0  0
   -4.6520   -8.5044   -1.3568 N   0  0  0  0  0  0  0  0  0  0  0  0
   -4.6878   -7.2792   -1.9710 C   0  0  0  0  0  0  0  0  0  0  0  0
   -5.9185   -7.1442   -2.5004 C   0  0  0  0  0  0  0  0  0  0  0  0
   -6.6190   -8.2532   -2.2203 N   0  0  0  0  0  0  0  0  0  0  0  0
   -5.8695   -9.0779   -1.5408 C   0  0  0  0  0  0  0  0  0  0  0  0
   -6.4219   -5.9529   -3.2741 C   0  0  0  0  0  0  0  0  0  0  0  0
   -2.7260  -12.2385    1.2004 C   0  0  0  0  0  0  0  0  0  0  0  0
   -2.3418  -13.2115    0.2714 F   0  0  0  0  0  0  0  0  0  0  0  0
   -1.8981  -12.3154    2.3255 F   0  0  0  0  0  0  0  0  0  0  0  0
   -4.0538  -12.4572    1.5826 F   0  0  0  0  0  0  0  0  0  0  0  0
    5.1932   -3.7667    1.1793 H   0  0  0  0  0  0  0  0  0  0  0  0
    5.6404   -4.5642   -0.3479 H   0  0  0  0  0  0  0  0  0  0  0  0
    4.7488   -3.0240   -0.3761 H   0  0  0  0  0  0  0  0  0  0  0  0
    4.5175   -6.6391    0.2106 H   0  0  0  0  0  0  0  0  0  0  0  0
    2.3969   -7.8819    0.2212 H   0  0  0  0  0  0  0  0  0  0  0  0
    0.2351   -4.1794    0.1439 H   0  0  0  0  0  0  0  0  0  0  0  0
    3.1337   -2.1370    0.4786 H   0  0  0  0  0  0  0  0  0  0  0  0
   -1.5163   -2.5753   -1.9823 H   0  0  0  0  0  0  0  0  0  0  0  0
   -1.6642   -0.1022   -1.8280 H   0  0  0  0  0  0  0  0  0  0  0  0
    2.0625    1.7077    0.3717 H   0  0  0  0  0  0  0  0  0  0  0  0
    1.9093    4.1820    0.5216 H   0  0  0  0  0  0  0  0  0  0  0  0
   -0.0458    5.3301   -0.4343 H   0  0  0  0  0  0  0  0  0  0  0  0
   -1.7012    1.7376   -1.6869 H   0  0  0  0  0  0  0  0  0  0  0  0
    0.7441   -8.6851    0.3020 H   0  0  0  0  0  0  0  0  0  0  0  0
   -0.5744  -10.6101    1.2006 H   0  0  0  0  0  0  0  0  0  0  0  0
   -4.6008  -10.8701   -0.1765 H   0  0  0  0  0  0  0  0  0  0  0  0
   -2.2829   -7.3787   -1.0179 H   0  0  0  0  0  0  0  0  0  0  0  0
   -3.8832   -6.5605   -2.0210 H   0  0  0  0  0  0  0  0  0  0  0  0
   -6.1682  -10.0519   -1.1825 H   0  0  0  0  0  0  0  0  0  0  0  0
   -6.2142   -6.0943   -4.3347 H   0  0  0  0  0  0  0  0  0  0  0  0
   -7.4967   -5.8505   -3.1248 H   0  0  0  0  0  0  0  0  0  0  0  0
   -5.9187   -5.0522   -2.9223 H   0  0  0  0  0  0  0  0  0  0  0  0
  1  2  1  0  0  0  0
  1 40  1  0  0  0  0
  1 41  1  0  0  0  0
  1 42  1  0  0  0  0
  2  7  2  0  0  0  0
  2  3  1  0  0  0  0
  3  4  2  0  0  0  0
  3 43  1  0  0  0  0
  4  5  1  0  0  0  0
  4 44  1  0  0  0  0
  5  6  2  0  0  0  0
  5 21  1  0  0  0  0
  6  7  1  0  0  0  0
  6 45  1  0  0  0  0
  7  8  1  0  0  0  0
  8  9  1  0  0  0  0
  8 46  1  0  0  0  0
  9 14  2  0  0  0  0
  9 10  1  0  0  0  0
 10 11  2  0  0  0  0
 11 12  1  0  0  0  0
 11 47  1  0  0  0  0
 12 13  2  0  0  0  0
 12 48  1  0  0  0  0
 13 14  1  0  0  0  0
 13 15  1  0  0  0  0
 15 20  2  0  0  0  0
 15 16  1  0  0  0  0
 16 17  2  0  0  0  0
 16 49  1  0  0  0  0
 17 18  1  0  0  0  0
 17 50  1  0  0  0  0
 18 19  2  0  0  0  0
 18 51  1  0  0  0  0
 19 20  1  0  0  0  0
 20 52  1  0  0  0  0
 21 22  2  0  0  0  0
 21 23  1  0  0  0  0
 23 24  1  0  0  0  0
 23 53  1  0  0  0  0
 24 29  2  0  0  0  0
 24 25  1  0  0  0  0
 25 26  2  0  0  0  0
 25 54  1  0  0  0  0
 26 27  1  0  0  0  0
 26 36  1  0  0  0  0
 27 28  2  0  0  0  0
 27 55  1  0  0  0  0
 28 29  1  0  0  0  0
 28 30  1  0  0  0  0
 29 56  1  0  0  0  0
 30 34  1  0  0  0  0
 30 31  1  0  0  0  0
 31 32  2  0  0  0  0
 31 57  1  0  0  0  0
 32 33  1  0  0  0  0
 32 35  1  0  0  0  0
 33 34  2  0  0  0  0
 34 58  1  0  0  0  0
 35 59  1  0  0  0  0
 35 60  1  0  0  0  0
 35 61  1  0  0  0  0
 36 37  1  0  0  0  0
 36 38  1  0  0  0  0
 36 39  1  0  0  0  0
M  END
$$$$
