ZINC28467879
 OpenBabel08292219463D

 52 55  0  0  1  0  0  0  0  0999 V2000
    1.2252    3.0836    0.0489 C   0  0  0  0  0  0  0  0  0  0  0  0
   -0.1252    2.5458    0.2314 N   0  0  0  0  0  0  0  0  0  0  0  0
   -1.1865    3.3942    0.2637 C   0  0  0  0  0  0  0  0  0  0  0  0
   -2.4279    2.9627    0.4260 N   0  0  0  0  0  0  0  0  0  0  0  0
   -2.6926    1.6623    0.5598 C   0  0  0  0  0  0  0  0  0  0  0  0
   -3.8382    1.2775    0.7031 O   0  0  0  0  0  0  0  0  0  0  0  0
   -1.5600    0.6832    0.5387 C   0  0  0  0  0  0  0  0  0  0  0  0
   -1.7615   -0.5071    0.6634 O   0  5  0  0  0  0  0  0  0  0  0  0
   -0.3061    1.1628    0.3710 N   0  0  0  0  0  0  0  0  0  0  0  0
   -0.9096    5.0746    0.0896 S   0  0  0  0  0  0  0  0  0  0  0  0
   -2.6089    5.6870    0.2063 C   0  0  0  0  0  0  0  0  0  0  0  0
   -2.6119    7.1883    0.0758 C   0  0  0  0  0  0  0  0  0  0  0  0
   -2.6044    7.6619   -1.1621 C   0  0  0  0  0  0  0  0  0  0  0  0
   -2.6635    9.0440   -1.3891 N   0  0  0  0  0  0  0  0  0  0  0  0
   -2.3662   10.1323   -0.4188 C   0  0  1  0  0  0  0  0  0  0  0  0
   -1.3280   10.4545   -0.2506 H   0  0  0  0  0  0  0  0  0  0  0  0
   -3.1239   11.1034   -1.3052 C   0  0  1  0  0  0  0  0  0  0  0  0
   -2.8102   12.1316   -1.5386 H   0  0  0  0  0  0  0  0  0  0  0  0
   -3.0885    9.9420   -2.2703 C   0  0  0  0  0  0  0  0  0  0  0  0
   -3.3575    9.8579   -3.4500 O   0  0  0  0  0  0  0  0  0  0  0  0
   -4.4632   11.4457   -0.8201 N   0  0  0  0  0  0  0  0  0  0  0  0
   -5.0324   12.6131   -1.1803 C   0  0  0  0  0  0  0  0  0  0  0  0
   -4.4771   13.3379   -1.9820 O   0  0  0  0  0  0  0  0  0  0  0  0
   -6.3355   13.0127   -0.5987 C   0  0  0  0  0  0  0  0  0  0  0  0
   -6.9444   14.0785   -1.0353 N   0  0  0  0  0  0  0  0  0  0  0  0
   -6.3123   14.9153   -1.9867 O   0  0  0  0  0  0  0  0  0  0  0  0
   -7.0938   16.0465   -2.3760 C   0  0  0  0  0  0  0  0  0  0  0  0
   -6.9447   12.2016    0.4773 C   0  0  0  0  0  0  0  0  0  0  0  0
   -8.2075   12.4822    0.9265 C   0  0  0  0  0  0  0  0  0  0  0  0
   -8.4042   11.2211    2.1784 S   0  0  0  0  0  0  0  0  0  0  0  0
   -6.7989   10.4594    1.9869 C   0  0  0  0  0  0  0  0  0  0  0  0
   -6.2697   11.1923    1.0256 N   0  0  0  0  0  0  0  0  0  0  0  0
   -6.2540    9.3837    2.6677 N   0  0  0  0  0  0  0  0  0  0  0  0
   -3.2079    9.6609    1.1306 S   0  0  0  0  0  0  0  0  0  0  0  0
   -2.6169    7.9550    1.3583 C   0  0  0  0  0  0  0  0  0  0  0  0
   -2.5388    6.7319   -2.3039 C   0  0  0  0  0  0  0  0  0  0  0  0
   -2.6749    7.1500   -3.4366 O   0  0  0  0  0  0  0  0  0  0  0  0
   -2.3278    5.4178   -2.0914 O   0  0  0  0  0  1  0  0  0  0  0  0
    1.1745    4.1786   -0.0422 H   0  0  0  0  0  0  0  0  0  0  0  0
    1.6683    2.6598   -0.8643 H   0  0  0  0  0  0  0  0  0  0  0  0
    1.8467    2.8162    0.9162 H   0  0  0  0  0  0  0  0  0  0  0  0
   -3.2132    5.2476   -0.6010 H   0  0  0  0  0  0  0  0  0  0  0  0
   -3.0351    5.4027    1.1797 H   0  0  0  0  0  0  0  0  0  0  0  0
   -5.0042   10.7500   -0.1619 H   0  0  0  0  0  0  0  0  0  0  0  0
   -6.5350   16.6421   -3.1129 H   0  0  0  0  0  0  0  0  0  0  0  0
   -7.3093   16.6649   -1.4922 H   0  0  0  0  0  0  0  0  0  0  0  0
   -8.0386   15.7032   -2.8226 H   0  0  0  0  0  0  0  0  0  0  0  0
   -8.8957   13.2522    0.6105 H   0  0  0  0  0  0  0  0  0  0  0  0
   -5.2391    9.0359    2.4246 H   0  0  0  0  0  0  0  0  0  0  0  0
   -6.8360    8.8770    3.4516 H   0  0  0  0  0  0  0  0  0  0  0  0
   -3.2789    7.4559    2.0813 H   0  0  0  0  0  0  0  0  0  0  0  0
   -1.5955    7.9968    1.7645 H   0  0  0  0  0  0  0  0  0  0  0  0
  1  2  1  0  0  0  0
  1 39  1  0  0  0  0
  1 40  1  0  0  0  0
  1 41  1  0  0  0  0
  2  9  1  0  0  0  0
  2  3  1  0  0  0  0
  3  4  2  0  0  0  0
  3 10  1  0  0  0  0
  4  5  1  0  0  0  0
  5  6  2  0  0  0  0
  5  7  1  0  0  0  0
  7  8  1  0  0  0  0
  7  9  2  0  0  0  0
 10 11  1  0  0  0  0
 11 12  1  0  0  0  0
 11 42  1  0  0  0  0
 11 43  1  0  0  0  0
 12 35  1  0  0  0  0
 12 13  2  0  0  0  0
 13 14  1  0  0  0  0
 13 36  1  0  0  0  0
 14 19  1  0  0  0  0
 14 15  1  0  0  0  0
 15 16  1  1  0  0  0
 15 17  1  0  0  0  0
 15 34  1  0  0  0  0
 17 18  1  6  0  0  0
 17 19  1  0  0  0  0
 17 21  1  0  0  0  0
 19 20  2  0  0  0  0
 21 22  1  0  0  0  0
 21 44  1  0  0  0  0
 22 23  2  0  0  0  0
 22 24  1  0  0  0  0
 24 25  2  0  0  0  0
 24 28  1  0  0  0  0
 25 26  1  0  0  0  0
 26 27  1  0  0  0  0
 27 45  1  0  0  0  0
 27 46  1  0  0  0  0
 27 47  1  0  0  0  0
 28 32  1  0  0  0  0
 28 29  2  0  0  0  0
 29 30  1  0  0  0  0
 29 48  1  0  0  0  0
 30 31  1  0  0  0  0
 31 32  2  0  0  0  0
 31 33  1  0  0  0  0
 33 49  1  0  0  0  0
 33 50  1  0  0  0  0
 34 35  1  0  0  0  0
 35 51  1  0  0  0  0
 35 52  1  0  0  0  0
 36 37  2  0  0  0  0
 36 38  1  0  0  0  0
M  CHG  1   8  -1
M  END
$$$$
