ZINC04824235
 OpenBabel08292219463D

 73 76  0  0  1  0  0  0  0  0999 V2000
   -5.4330    0.5608   -0.9637 C   0  0  0  0  0  0  0  0  0  0  0  0
   -3.9652    0.1289   -0.9635 C   0  0  0  0  0  0  0  0  0  0  0  0
   -3.4586    0.0450    0.4777 C   0  0  0  0  0  0  0  0  0  0  0  0
   -2.0129   -0.3805    0.4780 C   0  0  0  0  0  0  0  0  0  0  0  0
   -0.9027    0.4848    0.4284 C   0  0  0  0  0  0  0  0  0  0  0  0
    0.2437   -0.3199    0.4486 C   0  0  0  0  0  0  0  0  0  0  0  0
    1.5134    0.3015    0.4079 C   0  0  0  0  0  0  0  0  0  0  0  0
    2.5347   -0.3636    0.4233 O   0  0  0  0  0  0  0  0  0  0  0  0
    1.5669    1.6508    0.3509 N   0  0  0  0  0  0  0  0  0  0  0  0
    2.4532    2.1129    0.3217 H   0  0  0  0  0  0  0  0  0  0  0  0
    0.4137    2.3876    0.3329 C   0  0  0  0  0  0  0  0  0  0  0  0
   -0.7700    1.8254    0.3706 N   0  0  0  0  0  0  0  0  0  0  0  0
    0.5055    3.8598    0.2695 C   0  0  0  0  0  0  0  0  0  0  0  0
    1.7538    4.4845    0.2342 C   0  0  0  0  0  0  0  0  0  0  0  0
    1.8329    5.8593    0.1697 C   0  0  0  0  0  0  0  0  0  0  0  0
    0.6791    6.6251    0.1508 C   0  0  0  0  0  0  0  0  0  0  0  0
   -0.5617    6.0196    0.1905 C   0  0  0  0  0  0  0  0  0  0  0  0
   -0.6591    4.6380    0.2502 C   0  0  0  0  0  0  0  0  0  0  0  0
   -1.8779    4.0418    0.2902 O   0  0  0  0  0  0  0  0  0  0  0  0
   -3.0207    4.8994    0.2673 C   0  0  0  0  0  0  0  0  0  0  0  0
   -4.2944    4.0533    0.3186 C   0  0  0  0  0  0  0  0  0  0  0  0
   -5.5180    4.9715    0.2940 C   0  0  0  0  0  0  0  0  0  0  0  0
    3.4088    6.6458    0.1185 S   0  0  0  0  0  0  0  0  0  0  0  0
    4.3226    5.6909   -0.4033 O   0  0  0  0  0  0  0  0  0  0  0  0
    3.2087    7.9171   -0.4840 O   0  0  0  0  0  0  0  0  0  0  0  0
    3.8649    6.9309    1.6847 N   0  0  0  0  0  0  0  0  0  0  0  0
    4.1246    5.8072    2.5881 C   0  0  0  0  0  0  0  0  0  0  0  0
    4.8740    6.3090    3.8239 C   0  0  0  0  0  0  0  0  0  0  0  0
    5.2572    5.1191    4.7061 C   0  0  2  0  0  0  0  0  0  0  0  0
    5.8282    4.3953    4.1246 H   0  0  0  0  0  0  0  0  0  0  0  0
    3.9850    4.4552    5.2737 C   0  0  0  0  0  0  0  0  0  0  0  0
    4.4043    4.0740    6.7179 C   0  0  0  0  0  0  0  0  0  0  0  0
    5.3276    5.2582    7.0985 C   0  0  0  0  0  0  0  0  0  0  0  0
    6.3242    7.0247    5.7619 C   0  0  0  0  0  0  0  0  0  0  0  0
   -0.1815   -1.6179    0.5082 N   0  0  0  0  0  0  0  0  0  0  0  0
   -1.5824   -1.6122    0.5246 N   0  0  0  0  0  0  0  0  0  0  0  0
    0.6762   -2.8050    0.5478 C   0  0  0  0  0  0  0  0  0  0  0  0
   -5.7940    0.6206   -1.9905 H   0  0  0  0  0  0  0  0  0  0  0  0
   -6.0264   -0.1681   -0.4119 H   0  0  0  0  0  0  0  0  0  0  0  0
   -5.5243    1.5378   -0.4891 H   0  0  0  0  0  0  0  0  0  0  0  0
   -3.3719    0.8578   -1.5154 H   0  0  0  0  0  0  0  0  0  0  0  0
   -3.8740   -0.8481   -1.4382 H   0  0  0  0  0  0  0  0  0  0  0  0
   -4.0519   -0.6840    1.0296 H   0  0  0  0  0  0  0  0  0  0  0  0
   -3.5498    1.0219    0.9524 H   0  0  0  0  0  0  0  0  0  0  0  0
    2.6561    3.8912    0.2537 H   0  0  0  0  0  0  0  0  0  0  0  0
    0.7500    7.7018    0.1051 H   0  0  0  0  0  0  0  0  0  0  0  0
   -1.4571    6.6233    0.1755 H   0  0  0  0  0  0  0  0  0  0  0  0
   -2.9922    5.5658    1.1293 H   0  0  0  0  0  0  0  0  0  0  0  0
   -3.0134    5.4899   -0.6489 H   0  0  0  0  0  0  0  0  0  0  0  0
   -4.3229    3.3868   -0.5435 H   0  0  0  0  0  0  0  0  0  0  0  0
   -4.3016    3.4627    1.2348 H   0  0  0  0  0  0  0  0  0  0  0  0
   -5.4895    5.6379    1.1561 H   0  0  0  0  0  0  0  0  0  0  0  0
   -5.5107    5.5620   -0.6221 H   0  0  0  0  0  0  0  0  0  0  0  0
   -6.4254    4.3687    0.3306 H   0  0  0  0  0  0  0  0  0  0  0  0
    3.9601    7.8419    2.0040 H   0  0  0  0  0  0  0  0  0  0  0  0
    3.1784    5.3603    2.8934 H   0  0  0  0  0  0  0  0  0  0  0  0
    4.7300    5.0604    2.0743 H   0  0  0  0  0  0  0  0  0  0  0  0
    5.7760    6.8360    3.5128 H   0  0  0  0  0  0  0  0  0  0  0  0
    4.2330    6.9873    4.3871 H   0  0  0  0  0  0  0  0  0  0  0  0
    3.1549    5.1616    5.2872 H   0  0  0  0  0  0  0  0  0  0  0  0
    3.7259    3.5653    4.7001 H   0  0  0  0  0  0  0  0  0  0  0  0
    4.9526    3.1320    6.7295 H   0  0  0  0  0  0  0  0  0  0  0  0
    3.5373    4.0275    7.3768 H   0  0  0  0  0  0  0  0  0  0  0  0
    6.0254    4.9591    7.8807 H   0  0  0  0  0  0  0  0  0  0  0  0
    4.7357    6.1131    7.4256 H   0  0  0  0  0  0  0  0  0  0  0  0
    5.3797    7.5675    5.7260 H   0  0  0  0  0  0  0  0  0  0  0  0
    6.8947    7.3452    6.6336 H   0  0  0  0  0  0  0  0  0  0  0  0
    6.8963    7.2309    4.8573 H   0  0  0  0  0  0  0  0  0  0  0  0
    0.9011   -3.0563    1.5843 H   0  0  0  0  0  0  0  0  0  0  0  0
    0.1613   -3.6412    0.0747 H   0  0  0  0  0  0  0  0  0  0  0  0
    1.6042   -2.6007    0.0139 H   0  0  0  0  0  0  0  0  0  0  0  0
    6.0622    5.5647    5.8550 N   0  3  2  0  0  0  0  0  0  0  0  0
    6.9580    5.0629    5.8571 H   0  0  0  0  0  0  0  0  0  0  0  0
  1  2  1  0  0  0  0
  1 38  1  0  0  0  0
  1 39  1  0  0  0  0
  1 40  1  0  0  0  0
  2  3  1  0  0  0  0
  2 41  1  0  0  0  0
  2 42  1  0  0  0  0
  3  4  1  0  0  0  0
  3 43  1  0  0  0  0
  3 44  1  0  0  0  0
  4 36  2  0  0  0  0
  4  5  1  0  0  0  0
  5 12  1  0  0  0  0
  5  6  2  0  0  0  0
  6  7  1  0  0  0  0
  6 35  1  0  0  0  0
  7  8  2  0  0  0  0
  7  9  1  0  0  0  0
  9 10  1  0  0  0  0
  9 11  1  0  0  0  0
 11 12  2  0  0  0  0
 11 13  1  0  0  0  0
 13 18  2  0  0  0  0
 13 14  1  0  0  0  0
 14 15  2  0  0  0  0
 14 45  1  0  0  0  0
 15 16  1  0  0  0  0
 15 23  1  0  0  0  0
 16 17  2  0  0  0  0
 16 46  1  0  0  0  0
 17 18  1  0  0  0  0
 17 47  1  0  0  0  0
 18 19  1  0  0  0  0
 19 20  1  0  0  0  0
 20 21  1  0  0  0  0
 20 48  1  0  0  0  0
 20 49  1  0  0  0  0
 21 22  1  0  0  0  0
 21 50  1  0  0  0  0
 21 51  1  0  0  0  0
 22 52  1  0  0  0  0
 22 53  1  0  0  0  0
 22 54  1  0  0  0  0
 23 24  2  0  0  0  0
 23 25  2  0  0  0  0
 23 26  1  0  0  0  0
 26 27  1  0  0  0  0
 26 55  1  0  0  0  0
 27 28  1  0  0  0  0
 27 56  1  0  0  0  0
 27 57  1  0  0  0  0
 28 29  1  0  0  0  0
 28 58  1  0  0  0  0
 28 59  1  0  0  0  0
 29 30  1  6  0  0  0
 29 31  1  0  0  0  0
 29 72  1  0  0  0  0
 31 32  1  0  0  0  0
 31 60  1  0  0  0  0
 31 61  1  0  0  0  0
 32 33  1  0  0  0  0
 32 62  1  0  0  0  0
 32 63  1  0  0  0  0
 33 64  1  0  0  0  0
 33 65  1  0  0  0  0
 33 72  1  0  0  0  0
 34 66  1  0  0  0  0
 34 67  1  0  0  0  0
 34 68  1  0  0  0  0
 34 72  1  0  0  0  0
 35 36  1  0  0  0  0
 35 37  1  0  0  0  0
 37 69  1  0  0  0  0
 37 70  1  0  0  0  0
 37 71  1  0  0  0  0
 72 73  1  1  0  0  0
M  CHG  1  72   1
M  END
$$$$
