ZINC11617039
 OpenBabel08292219463D

 55 58  0  0  0  0  0  0  0  0999 V2000
    0.2120    6.2074    3.3921 H   0  0  0  0  0  0  0  0  0  0  0  0
   -0.6814    5.6062    3.3098 C   0  0  0  0  0  0  0  0  0  0  0  0
   -1.0741    5.1311    2.1031 C   0  0  0  0  0  0  0  0  0  0  0  0
   -2.2288    4.3474    1.9606 C   0  0  0  0  0  0  0  0  0  0  0  0
   -3.0111    4.0257    3.0293 C   0  0  0  0  0  0  0  0  0  0  0  0
   -2.6578    4.4884    4.3143 C   0  0  0  0  0  0  0  0  0  0  0  0
   -1.4433    5.3059    4.4600 C   0  0  0  0  0  0  0  0  0  0  0  0
   -1.3367    5.6110    5.8041 C   0  0  0  0  0  0  0  0  0  0  0  0
   -2.3705    5.0424    6.4391 N   0  0  0  0  0  0  0  0  0  0  0  0
   -3.1795    4.3626    5.5213 N   0  0  0  0  0  0  0  0  0  0  0  0
   -2.6225    5.1281    7.8797 C   0  0  0  0  0  0  0  0  0  0  0  0
   -3.2434    5.9992    8.0888 H   0  0  0  0  0  0  0  0  0  0  0  0
   -3.1369    4.2268    8.2129 H   0  0  0  0  0  0  0  0  0  0  0  0
   -1.6744    5.2222    8.4094 H   0  0  0  0  0  0  0  0  0  0  0  0
   -0.2495    6.4365    6.4425 C   0  0  0  0  0  0  0  0  0  0  0  0
   -0.5455    7.4855    6.4477 H   0  0  0  0  0  0  0  0  0  0  0  0
   -0.0907    6.0987    7.4666 H   0  0  0  0  0  0  0  0  0  0  0  0
    0.6740    6.3223    5.8749 H   0  0  0  0  0  0  0  0  0  0  0  0
   -3.8955    3.4210    2.8932 H   0  0  0  0  0  0  0  0  0  0  0  0
   -2.5862    3.8853    0.6908 N   0  0  0  0  0  0  0  0  0  0  0  0
   -3.6562    3.0160    0.5454 C   0  0  0  0  0  0  0  0  0  0  0  0
   -3.4766    1.6392    0.6984 C   0  0  0  0  0  0  0  0  0  0  0  0
   -4.5711    0.8111    0.5450 C   0  0  0  0  0  3  0  0  0  0  0  0
   -5.7510    1.3422    0.2594 N   0  0  0  0  0  0  0  0  0  0  0  0
   -5.8925    2.6520    0.1199 C   0  0  0  0  0  0  0  0  0  0  0  0
   -4.8692    3.4808    0.2639 N   0  0  0  0  0  0  0  0  0  0  0  0
   -7.1427    3.1682   -0.1788 N   0  0  0  0  0  0  0  0  0  0  0  0
   -7.2911    4.5338   -0.4396 C   0  0  0  0  0  0  0  0  0  0  0  0
   -6.2697    5.2382   -1.0645 C   0  0  0  0  0  0  0  0  0  0  0  0
   -6.4197    6.5867   -1.3210 C   0  0  0  0  0  0  0  0  0  0  0  0
   -7.5850    7.2362   -0.9562 C   0  0  0  0  0  0  0  0  0  0  0  0
   -8.6034    6.5381   -0.3338 C   0  0  0  0  0  0  0  0  0  0  0  0
   -8.4623    5.1877   -0.0798 C   0  0  0  0  0  0  0  0  0  0  0  0
  -10.0857    7.3705    0.1294 S   0  0  0  0  0  0  0  0  0  0  0  0
  -10.5091    8.1093   -1.0082 O   0  0  0  0  0  0  0  0  0  0  0  0
  -10.9137    6.4040    0.7615 O   0  0  0  0  0  0  0  0  0  0  0  0
   -9.6818    8.4799    1.2907 N   0  0  0  0  0  0  0  0  0  0  0  0
   -7.7450    8.7080   -1.2374 C   0  0  0  0  0  0  0  0  0  0  0  0
   -8.1929    8.8433   -2.2218 H   0  0  0  0  0  0  0  0  0  0  0  0
   -8.3897    9.1545   -0.4804 H   0  0  0  0  0  0  0  0  0  0  0  0
   -6.7680    9.1908   -1.2132 H   0  0  0  0  0  0  0  0  0  0  0  0
   -4.4665   -0.2581    0.6563 H   0  0  0  0  0  0  0  0  0  0  0  0
   -2.5039    1.2316    0.9310 H   0  0  0  0  0  0  0  0  0  0  0  0
   -1.8301    4.3196   -0.4864 C   0  0  0  0  0  0  0  0  0  0  0  0
   -1.0078    3.6271   -0.6659 H   0  0  0  0  0  0  0  0  0  0  0  0
   -2.4881    4.3354   -1.3553 H   0  0  0  0  0  0  0  0  0  0  0  0
   -1.4320    5.3196   -0.3140 H   0  0  0  0  0  0  0  0  0  0  0  0
   -0.4834    5.3620    1.2289 H   0  0  0  0  0  0  0  0  0  0  0  0
   -7.9152    2.5823   -0.2071 H   0  0  0  0  0  0  0  0  0  0  0  0
   -5.3592    4.7318   -1.3490 H   0  0  0  0  0  0  0  0  0  0  0  0
   -5.6260    7.1349   -1.8068 H   0  0  0  0  0  0  0  0  0  0  0  0
   -9.2599    4.6421    0.4024 H   0  0  0  0  0  0  0  0  0  0  0  0
   -8.7604    8.5635    1.5820 H   0  0  0  0  0  0  0  0  0  0  0  0
  -10.3667    9.0460    1.6797 H   0  0  0  0  0  0  0  0  0  0  0  0
   -6.5221    0.7638    0.1506 H   0  0  0  0  0  0  0  0  0  0  0  0
  1  2  1  0  0  0  0
  2  7  1  0  0  0  0
  2  3  2  0  0  0  0
  3  4  1  0  0  0  0
  3 48  1  0  0  0  0
  4  5  2  0  0  0  0
  4 20  1  0  0  0  0
  5  6  1  0  0  0  0
  5 19  1  0  0  0  0
  6 10  2  0  0  0  0
  6  7  1  0  0  0  0
  7  8  2  0  0  0  0
  8  9  1  0  0  0  0
  8 15  1  0  0  0  0
  9 10  1  0  0  0  0
  9 11  1  0  0  0  0
 11 12  1  0  0  0  0
 11 13  1  0  0  0  0
 11 14  1  0  0  0  0
 15 16  1  0  0  0  0
 15 17  1  0  0  0  0
 15 18  1  0  0  0  0
 20 21  1  0  0  0  0
 20 44  1  0  0  0  0
 21 26  1  0  0  0  0
 21 22  2  0  0  0  0
 22 23  1  0  0  0  0
 22 43  1  0  0  0  0
 23 24  1  0  0  0  0
 23 42  1  0  0  0  0
 24 25  1  0  0  0  0
 24 55  1  0  0  0  0
 25 26  2  0  0  0  0
 25 27  1  0  0  0  0
 27 28  1  0  0  0  0
 27 49  1  0  0  0  0
 28 33  2  0  0  0  0
 28 29  1  0  0  0  0
 29 30  2  0  0  0  0
 29 50  1  0  0  0  0
 30 31  1  0  0  0  0
 30 51  1  0  0  0  0
 31 32  2  0  0  0  0
 31 38  1  0  0  0  0
 32 33  1  0  0  0  0
 32 34  1  0  0  0  0
 33 52  1  0  0  0  0
 34 35  2  0  0  0  0
 34 36  2  0  0  0  0
 34 37  1  0  0  0  0
 37 53  1  0  0  0  0
 37 54  1  0  0  0  0
 38 39  1  0  0  0  0
 38 40  1  0  0  0  0
 38 41  1  0  0  0  0
 44 45  1  0  0  0  0
 44 46  1  0  0  0  0
 44 47  1  0  0  0  0
M  END
$$$$
