ZINC00002276
 OpenBabel08292219463D

 41 41  0  0  1  0  0  0  0  0999 V2000
    2.5424   -2.8010   -0.0368 C   0  0  0  0  0  0  0  0  0  0  0  0
    1.2281   -2.0638   -0.0208 C   0  0  0  0  0  0  0  0  0  0  0  0
    0.0398   -2.7709   -0.0133 C   0  0  0  0  0  0  0  0  0  0  0  0
   -1.1677   -2.0980    0.0014 C   0  0  0  0  0  0  0  0  0  0  0  0
   -1.1897   -0.7157    0.0153 C   0  0  0  0  0  0  0  0  0  0  0  0
    0.0021   -0.0041    0.0020 C   0  0  0  0  0  0  0  0  0  0  0  0
    1.2118   -0.6824   -0.0132 C   0  0  0  0  0  0  0  0  0  0  0  0
   -0.0164    1.3550    0.0095 O   0  0  0  0  0  0  0  0  0  0  0  0
    1.2479    2.0211    0.0010 C   0  0  0  0  0  0  0  0  0  0  0  0
    1.0269    3.5350    0.0112 C   0  0  1  0  0  0  0  0  0  0  0  0
    0.3992    3.8048    0.8605 H   0  0  0  0  0  0  0  0  0  0  0  0
    2.3763    4.2466    0.1279 C   0  0  0  0  0  0  0  0  0  0  0  0
    3.4340    6.4108    0.3728 C   0  0  0  0  0  0  0  0  0  0  0  0
    4.2779    6.1530   -0.8771 C   0  0  0  0  0  0  0  0  0  0  0  0
    3.1657    7.9112    0.5064 C   0  0  0  0  0  0  0  0  0  0  0  0
    4.1882    5.9156    1.6084 C   0  0  0  0  0  0  0  0  0  0  0  0
    0.3831    3.9306   -1.2016 O   0  0  0  0  0  0  0  0  0  0  0  0
   -2.7060    0.1291    0.0421 Cl  0  0  0  0  0  0  0  0  0  0  0  0
    2.8687   -2.9842    0.9869 H   0  0  0  0  0  0  0  0  0  0  0  0
    2.4193   -3.7521   -0.5547 H   0  0  0  0  0  0  0  0  0  0  0  0
    3.2900   -2.1997   -0.5542 H   0  0  0  0  0  0  0  0  0  0  0  0
    0.0551   -3.8508   -0.0193 H   0  0  0  0  0  0  0  0  0  0  0  0
   -2.0945   -2.6526    0.0069 H   0  0  0  0  0  0  0  0  0  0  0  0
    2.1405   -0.1311   -0.0187 H   0  0  0  0  0  0  0  0  0  0  0  0
    1.8173    1.7310    0.8840 H   0  0  0  0  0  0  0  0  0  0  0  0
    1.8003    1.7406   -0.8958 H   0  0  0  0  0  0  0  0  0  0  0  0
    2.9063    3.8788    1.0065 H   0  0  0  0  0  0  0  0  0  0  0  0
    2.9702    4.0479   -0.7642 H   0  0  0  0  0  0  0  0  0  0  0  0
    3.7406    6.5058   -1.7574 H   0  0  0  0  0  0  0  0  0  0  0  0
    5.2253    6.6854   -0.7921 H   0  0  0  0  0  0  0  0  0  0  0  0
    4.4691    5.0841   -0.9723 H   0  0  0  0  0  0  0  0  0  0  0  0
    2.5645    8.0948    1.3968 H   0  0  0  0  0  0  0  0  0  0  0  0
    4.1130    8.4436    0.5914 H   0  0  0  0  0  0  0  0  0  0  0  0
    2.6284    8.2640   -0.3739 H   0  0  0  0  0  0  0  0  0  0  0  0
    4.3794    4.8467    1.5133 H   0  0  0  0  0  0  0  0  0  0  0  0
    5.1356    6.4480    1.6935 H   0  0  0  0  0  0  0  0  0  0  0  0
    3.5870    6.0993    2.4989 H   0  0  0  0  0  0  0  0  0  0  0  0
    0.8861    3.7211   -2.0004 H   0  0  0  0  0  0  0  0  0  0  0  0
    2.1477    5.6980    0.2583 N   0  3  0  0  0  0  0  0  0  0  0  0
    1.5848    5.8781    1.0979 H   0  0  0  0  0  0  0  0  0  0  0  0
    1.6449    6.0374   -0.5701 H   0  0  0  0  0  0  0  0  0  0  0  0
  1  2  1  0  0  0  0
  1 19  1  0  0  0  0
  1 20  1  0  0  0  0
  1 21  1  0  0  0  0
  2  7  2  0  0  0  0
  2  3  1  0  0  0  0
  3  4  2  0  0  0  0
  3 22  1  0  0  0  0
  4  5  1  0  0  0  0
  4 23  1  0  0  0  0
  5  6  2  0  0  0  0
  5 18  1  0  0  0  0
  6  7  1  0  0  0  0
  6  8  1  0  0  0  0
  7 24  1  0  0  0  0
  8  9  1  0  0  0  0
  9 10  1  0  0  0  0
  9 25  1  0  0  0  0
  9 26  1  0  0  0  0
 10 11  1  1  0  0  0
 10 12  1  0  0  0  0
 10 17  1  0  0  0  0
 12 27  1  0  0  0  0
 12 28  1  0  0  0  0
 12 39  1  0  0  0  0
 13 14  1  0  0  0  0
 13 15  1  0  0  0  0
 13 16  1  0  0  0  0
 13 39  1  0  0  0  0
 14 29  1  0  0  0  0
 14 30  1  0  0  0  0
 14 31  1  0  0  0  0
 15 32  1  0  0  0  0
 15 33  1  0  0  0  0
 15 34  1  0  0  0  0
 16 35  1  0  0  0  0
 16 36  1  0  0  0  0
 16 37  1  0  0  0  0
 17 38  1  0  0  0  0
 39 40  1  0  0  0  0
 39 41  1  0  0  0  0
M  CHG  1  39   1
M  END
$$$$
