ZINC22010375
 OpenBabel08292219463D

 31 32  0  0  1  0  0  0  0  0999 V2000
   -2.1339    0.9882    1.3271 C   0  0  0  0  0  0  0  0  0  0  0  0
   -0.7244    1.5805    1.2700 C   0  0  2  0  0  0  0  0  0  0  0  0
   -0.7696    2.6795    1.2852 H   0  0  0  0  0  0  0  0  0  0  0  0
   -0.0127    1.0858    0.0080 C   0  0  2  0  0  0  0  0  0  0  0  0
    0.0616   -0.0114   -0.0158 H   0  0  0  0  0  0  0  0  0  0  0  0
    1.3287    1.5817   -0.0021 O   0  0  0  0  0  0  0  0  0  0  0  0
    2.0978    1.1848    1.1364 C   0  0  0  0  0  0  0  0  0  0  0  0
    1.4075    1.6805    2.4098 C   0  0  0  0  0  0  0  0  0  0  0  0
    0.0356    1.1540    2.4540 N   0  0  0  0  0  0  0  0  0  0  0  0
   -0.6447    1.5606    3.6909 C   0  0  0  0  0  0  0  0  0  0  0  0
   -0.7433    1.5859   -1.2115 C   0  0  0  0  0  0  0  0  0  0  0  0
   -0.4764    2.8481   -1.7079 C   0  0  0  0  0  0  0  0  0  0  0  0
   -1.1431    3.3050   -2.8294 C   0  0  0  0  0  0  0  0  0  0  0  0
   -2.0838    2.5034   -3.4486 C   0  0  0  0  0  0  0  0  0  0  0  0
   -2.3548    1.2434   -2.9489 C   0  0  0  0  0  0  0  0  0  0  0  0
   -1.6844    0.7845   -1.8304 C   0  0  0  0  0  0  0  0  0  0  0  0
   -2.7020    1.3077    0.4410 H   0  0  0  0  0  0  0  0  0  0  0  0
   -2.6433    1.3409    2.2360 H   0  0  0  0  0  0  0  0  0  0  0  0
   -2.0697   -0.1098    1.3453 H   0  0  0  0  0  0  0  0  0  0  0  0
    2.1752    0.0878    1.1622 H   0  0  0  0  0  0  0  0  0  0  0  0
    3.1050    1.6220    1.0690 H   0  0  0  0  0  0  0  0  0  0  0  0
    1.9657    1.3290    3.2900 H   0  0  0  0  0  0  0  0  0  0  0  0
    1.3804    2.7802    2.4079 H   0  0  0  0  0  0  0  0  0  0  0  0
   -0.0558    1.2296    4.5590 H   0  0  0  0  0  0  0  0  0  0  0  0
   -1.6433    1.1008    3.7283 H   0  0  0  0  0  0  0  0  0  0  0  0
   -0.7444    2.6559    3.7115 H   0  0  0  0  0  0  0  0  0  0  0  0
    0.2556    3.4759   -1.2217 H   0  0  0  0  0  0  0  0  0  0  0  0
   -0.9316    4.2895   -3.2196 H   0  0  0  0  0  0  0  0  0  0  0  0
   -2.6074    2.8618   -4.3226 H   0  0  0  0  0  0  0  0  0  0  0  0
   -3.0900    0.6173   -3.4324 H   0  0  0  0  0  0  0  0  0  0  0  0
   -1.8961   -0.1999   -1.4400 H   0  0  0  0  0  0  0  0  0  0  0  0
  1  2  1  0  0  0  0
  1 17  1  0  0  0  0
  1 18  1  0  0  0  0
  1 19  1  0  0  0  0
  2  3  1  6  0  0  0
  2  9  1  0  0  0  0
  2  4  1  0  0  0  0
  4  5  1  6  0  0  0
  4  6  1  0  0  0  0
  4 11  1  0  0  0  0
  6  7  1  0  0  0  0
  7  8  1  0  0  0  0
  7 20  1  0  0  0  0
  7 21  1  0  0  0  0
  8  9  1  0  0  0  0
  8 22  1  0  0  0  0
  8 23  1  0  0  0  0
  9 10  1  0  0  0  0
 10 24  1  0  0  0  0
 10 25  1  0  0  0  0
 10 26  1  0  0  0  0
 11 16  2  0  0  0  0
 11 12  1  0  0  0  0
 12 13  2  0  0  0  0
 12 27  1  0  0  0  0
 13 14  1  0  0  0  0
 13 28  1  0  0  0  0
 14 15  2  0  0  0  0
 14 29  1  0  0  0  0
 15 16  1  0  0  0  0
 15 30  1  0  0  0  0
 16 31  1  0  0  0  0
M  END
$$$$
