ZINC28108825
 OpenBabel08292219463D

 92 94  0  0  1  0  0  0  0  0999 V2000
    4.7648    5.6827   -0.6286 C   0  0  0  0  0  0  0  0  0  0  0  0
    6.1470    5.6681   -0.6440 C   0  0  0  0  0  0  0  0  0  0  0  0
    6.8279    4.4814   -0.4468 C   0  0  0  0  0  0  0  0  0  0  0  0
    6.1266    3.3093   -0.2338 C   0  0  0  0  0  0  0  0  0  0  0  0
    4.7445    3.3241   -0.2175 C   0  0  0  0  0  0  0  0  0  0  0  0
    4.0635    4.5106   -0.4161 C   0  0  0  0  0  0  0  0  0  0  0  0
    6.8689    2.0154   -0.0197 C   0  0  0  0  0  0  0  0  0  0  0  0
    7.6325    1.6487   -1.2938 C   0  0  0  0  0  0  0  0  0  0  0  0
    8.3861    0.3350   -1.0766 C   0  0  0  0  0  0  0  0  0  0  0  0
    7.3886   -0.7759   -0.7423 C   0  0  0  0  0  0  0  0  0  0  0  0
    6.6250   -0.4092    0.5318 C   0  0  0  0  0  0  0  0  0  0  0  0
    5.8714    0.9045    0.3146 C   0  0  0  0  0  0  0  0  0  0  0  0
    8.0925   -2.0028   -0.5393 O   0  0  0  0  0  0  0  0  0  0  0  0
    7.8352   -3.3190   -1.4301 P   0  0  1  0  0  0  0  0  0  0  0  0
    6.3344   -3.6837   -1.3886 O   0  0  0  0  0  0  0  0  0  0  0  0
    8.2580   -3.0434   -2.8903 O   0  0  0  0  0  1  0  0  0  0  0  0
    8.7012   -4.5425   -0.8425 O   0  0  0  0  0  0  0  0  0  0  0  0
    8.6108   -5.8749   -1.3510 C   0  0  0  0  0  0  0  0  0  0  0  0
    9.5630   -6.7840   -0.5714 C   0  0  1  0  0  0  0  0  0  0  0  0
    9.2769   -6.7933    0.4804 H   0  0  0  0  0  0  0  0  0  0  0  0
    9.4860   -8.2049   -1.1334 C   0  0  0  0  0  0  0  0  0  0  0  0
   10.4107   -9.0747   -0.3942 N   0  0  0  0  0  0  0  0  0  0  0  0
   10.6059  -10.3513   -1.0942 C   0  0  0  0  0  0  0  0  0  0  0  0
    9.2468  -11.0058   -1.3497 C   0  0  0  0  0  0  0  0  0  0  0  0
    9.4462  -12.3228   -1.9693 N   0  3  0  0  0  0  0  0  0  0  0  0
   10.0993  -13.2220   -1.0087 C   0  0  0  0  0  0  0  0  0  0  0  0
   10.4149  -14.5328   -1.6820 C   0  0  0  0  0  0  0  0  0  0  0  0
   10.1228  -14.7021   -2.8536 O   0  0  0  0  0  0  0  0  0  0  0  0
   10.9622  -15.4239   -1.0552 O   0  0  0  0  0  1  0  0  0  0  0  0
    8.1452  -12.8831   -2.3581 C   0  0  0  0  0  0  0  0  0  0  0  0
    7.5676  -12.0734   -3.4903 C   0  0  0  0  0  0  0  0  0  0  0  0
    8.1714  -11.1035   -3.9161 O   0  0  0  0  0  0  0  0  0  0  0  0
    6.4966  -12.3881   -3.9805 O   0  0  0  0  0  1  0  0  0  0  0  0
    9.9416   -9.2944    0.9804 C   0  0  0  0  0  0  0  0  0  0  0  0
   11.0669   -9.8540    1.8119 C   0  0  0  0  0  0  0  0  0  0  0  0
   12.1755   -9.9511    1.3411 O   0  0  0  0  0  0  0  0  0  0  0  0
   10.8378  -10.2445    3.0755 O   0  0  0  0  0  0  0  0  0  0  0  0
   10.9368   -6.2800   -0.7006 N   0  0  0  0  0  0  0  0  0  0  0  0
   11.2315   -5.9052   -2.0901 C   0  0  0  0  0  0  0  0  0  0  0  0
   11.6223   -7.1342   -2.8698 C   0  0  0  0  0  0  0  0  0  0  0  0
   11.7901   -8.1947   -2.2923 O   0  0  0  0  0  0  0  0  0  0  0  0
   11.7707   -7.0678   -4.0782 O   0  0  0  0  0  1  0  0  0  0  0  0
   11.1715   -5.1516    0.2101 C   0  0  0  0  0  0  0  0  0  0  0  0
   11.2389   -5.6564    1.6285 C   0  0  0  0  0  0  0  0  0  0  0  0
   11.2082   -6.8440    1.8491 O   0  0  0  0  0  0  0  0  0  0  0  0
   11.3331   -4.7868    2.6466 O   0  0  0  0  0  0  0  0  0  0  0  0
    7.8416    2.1768    1.1200 C   0  0  0  0  0  0  0  0  0  0  0  0
    9.2003    2.2168    0.8687 C   0  0  0  0  0  0  0  0  0  0  0  0
   10.0925    2.3649    1.9141 C   0  0  0  0  0  0  0  0  0  0  0  0
    9.6259    2.4734    3.2108 C   0  0  0  0  0  0  0  0  0  0  0  0
    8.2672    2.4344    3.4620 C   0  0  0  0  0  0  0  0  0  0  0  0
    7.3748    2.2906    2.4161 C   0  0  0  0  0  0  0  0  0  0  0  0
    4.2329    6.6107   -0.7783 H   0  0  0  0  0  0  0  0  0  0  0  0
    6.6949    6.5838   -0.8105 H   0  0  0  0  0  0  0  0  0  0  0  0
    7.9078    4.4698   -0.4595 H   0  0  0  0  0  0  0  0  0  0  0  0
    4.1965    2.4083   -0.0517 H   0  0  0  0  0  0  0  0  0  0  0  0
    2.9837    4.5221   -0.4038 H   0  0  0  0  0  0  0  0  0  0  0  0
    6.9290    1.5320   -2.1182 H   0  0  0  0  0  0  0  0  0  0  0  0
    8.3432    2.4402   -1.5320 H   0  0  0  0  0  0  0  0  0  0  0  0
    8.9302    0.0738   -1.9842 H   0  0  0  0  0  0  0  0  0  0  0  0
    9.0897    0.4518   -0.2522 H   0  0  0  0  0  0  0  0  0  0  0  0
    6.6851   -0.8926   -1.5666 H   0  0  0  0  0  0  0  0  0  0  0  0
    5.9144   -1.2007    0.7700 H   0  0  0  0  0  0  0  0  0  0  0  0
    7.3285   -0.2925    1.3562 H   0  0  0  0  0  0  0  0  0  0  0  0
    5.3274    1.1657    1.2223 H   0  0  0  0  0  0  0  0  0  0  0  0
    5.1679    0.7877   -0.5098 H   0  0  0  0  0  0  0  0  0  0  0  0
    7.5891   -6.2378   -1.2393 H   0  0  0  0  0  0  0  0  0  0  0  0
    8.8852   -5.8806   -2.4058 H   0  0  0  0  0  0  0  0  0  0  0  0
    8.4691   -8.5828   -1.0279 H   0  0  0  0  0  0  0  0  0  0  0  0
    9.7620   -8.1940   -2.1878 H   0  0  0  0  0  0  0  0  0  0  0  0
   11.1070  -10.1713   -2.0453 H   0  0  0  0  0  0  0  0  0  0  0  0
   11.2179  -11.0123   -0.4805 H   0  0  0  0  0  0  0  0  0  0  0  0
    8.7177  -11.1255   -0.4043 H   0  0  0  0  0  0  0  0  0  0  0  0
    8.6596  -10.3753   -2.0174 H   0  0  0  0  0  0  0  0  0  0  0  0
   11.0225  -12.7649   -0.6527 H   0  0  0  0  0  0  0  0  0  0  0  0
    9.4323  -13.3984   -0.1648 H   0  0  0  0  0  0  0  0  0  0  0  0
    8.2761  -13.9162   -2.6801 H   0  0  0  0  0  0  0  0  0  0  0  0
    7.4665  -12.8514   -1.5057 H   0  0  0  0  0  0  0  0  0  0  0  0
    9.6106   -8.3475    1.4071 H   0  0  0  0  0  0  0  0  0  0  0  0
    9.1104   -9.9995    0.9723 H   0  0  0  0  0  0  0  0  0  0  0  0
   11.6195  -10.5893    3.5285 H   0  0  0  0  0  0  0  0  0  0  0  0
   10.3467   -5.4553   -2.5405 H   0  0  0  0  0  0  0  0  0  0  0  0
   12.0522   -5.1881   -2.1067 H   0  0  0  0  0  0  0  0  0  0  0  0
   12.1127   -4.6661   -0.0479 H   0  0  0  0  0  0  0  0  0  0  0  0
   10.3557   -4.4346    0.1180 H   0  0  0  0  0  0  0  0  0  0  0  0
   11.3705   -5.2041    3.5181 H   0  0  0  0  0  0  0  0  0  0  0  0
    9.5648    2.1320   -0.1444 H   0  0  0  0  0  0  0  0  0  0  0  0
   11.1541    2.3954    1.7178 H   0  0  0  0  0  0  0  0  0  0  0  0
   10.3230    2.5884    4.0277 H   0  0  0  0  0  0  0  0  0  0  0  0
    7.9027    2.5188    4.4752 H   0  0  0  0  0  0  0  0  0  0  0  0
    6.3130    2.2638    2.6120 H   0  0  0  0  0  0  0  0  0  0  0  0
   10.0283  -12.2248   -2.7876 H   0  0  0  0  0  0  0  0  0  0  0  0
  1  6  2  0  0  0  0
  1  2  1  0  0  0  0
  1 53  1  0  0  0  0
  2  3  2  0  0  0  0
  2 54  1  0  0  0  0
  3  4  1  0  0  0  0
  3 55  1  0  0  0  0
  4  5  2  0  0  0  0
  4  7  1  0  0  0  0
  5  6  1  0  0  0  0
  5 56  1  0  0  0  0
  6 57  1  0  0  0  0
  7 12  1  0  0  0  0
  7  8  1  0  0  0  0
  7 47  1  0  0  0  0
  8  9  1  0  0  0  0
  8 58  1  0  0  0  0
  8 59  1  0  0  0  0
  9 10  1  0  0  0  0
  9 60  1  0  0  0  0
  9 61  1  0  0  0  0
 10 11  1  0  0  0  0
 10 13  1  0  0  0  0
 10 62  1  0  0  0  0
 11 12  1  0  0  0  0
 11 63  1  0  0  0  0
 11 64  1  0  0  0  0
 12 65  1  0  0  0  0
 12 66  1  0  0  0  0
 13 14  1  0  0  0  0
 14 15  2  1  0  0  0
 14 16  1  0  0  0  0
 14 17  1  0  0  0  0
 17 18  1  0  0  0  0
 18 19  1  0  0  0  0
 18 67  1  0  0  0  0
 18 68  1  0  0  0  0
 19 20  1  1  0  0  0
 19 21  1  0  0  0  0
 19 38  1  0  0  0  0
 21 22  1  0  0  0  0
 21 69  1  0  0  0  0
 21 70  1  0  0  0  0
 22 23  1  0  0  0  0
 22 34  1  0  0  0  0
 23 24  1  0  0  0  0
 23 71  1  0  0  0  0
 23 72  1  0  0  0  0
 24 25  1  0  0  0  0
 24 73  1  0  0  0  0
 24 74  1  0  0  0  0
 25 26  1  0  0  0  0
 25 30  1  0  0  0  0
 25 92  1  0  0  0  0
 26 27  1  0  0  0  0
 26 75  1  0  0  0  0
 26 76  1  0  0  0  0
 27 28  2  0  0  0  0
 27 29  1  0  0  0  0
 30 31  1  0  0  0  0
 30 77  1  0  0  0  0
 30 78  1  0  0  0  0
 31 32  2  0  0  0  0
 31 33  1  0  0  0  0
 34 35  1  0  0  0  0
 34 79  1  0  0  0  0
 34 80  1  0  0  0  0
 35 36  2  0  0  0  0
 35 37  1  0  0  0  0
 37 81  1  0  0  0  0
 38 39  1  0  0  0  0
 38 43  1  0  0  0  0
 39 40  1  0  0  0  0
 39 82  1  0  0  0  0
 39 83  1  0  0  0  0
 40 41  2  0  0  0  0
 40 42  1  0  0  0  0
 43 44  1  0  0  0  0
 43 84  1  0  0  0  0
 43 85  1  0  0  0  0
 44 45  2  0  0  0  0
 44 46  1  0  0  0  0
 46 86  1  0  0  0  0
 47 52  2  0  0  0  0
 47 48  1  0  0  0  0
 48 49  2  0  0  0  0
 48 87  1  0  0  0  0
 49 50  1  0  0  0  0
 49 88  1  0  0  0  0
 50 51  2  0  0  0  0
 50 89  1  0  0  0  0
 51 52  1  0  0  0  0
 51 90  1  0  0  0  0
 52 91  1  0  0  0  0
M  CHG  1  25   1
M  END
$$$$
