ZINC04640636
 OpenBabel08292219463D

 21 21  0  0  0  0  0  0  0  0999 V2000
   -0.0187    1.5258    0.0104 C   0  0  0  0  0  0  0  0  0  0  0  0
    0.0021   -0.0041    0.0020 C   0  0  0  0  0  0  0  0  0  0  0  0
    0.7182   -0.4975   -1.2568 C   0  0  0  0  0  0  0  0  0  0  0  0
    0.7386   -2.0043   -1.2651 C   0  0  0  0  0  0  0  0  0  0  0  0
   -0.2149   -2.6921   -1.9295 C   0  0  0  0  0  0  0  0  0  0  0  0
   -0.1741   -4.1074   -1.9230 C   0  0  0  0  0  0  0  0  0  0  0  0
   -1.0227   -4.7495   -2.5152 O   0  0  0  0  0  0  0  0  0  0  0  0
    0.8134   -4.7376   -1.2554 N   0  0  0  0  0  0  0  0  0  0  0  0
    0.8483   -5.7070   -1.2462 H   0  0  0  0  0  0  0  0  0  0  0  0
    1.7513   -4.0270   -0.6020 C   0  0  0  0  0  0  0  0  0  0  0  0
    1.7264   -2.6818   -0.6044 N   0  0  0  0  0  0  0  0  0  0  0  0
    2.9968   -4.8463    0.2397 S   0  0  0  0  0  0  0  0  0  0  0  0
    1.0039    1.9031    0.0027 H   0  0  0  0  0  0  0  0  0  0  0  0
   -0.5459    1.8868   -0.8726 H   0  0  0  0  0  0  0  0  0  0  0  0
   -0.5289    1.8773    0.9072 H   0  0  0  0  0  0  0  0  0  0  0  0
    0.5293   -0.3651    0.8851 H   0  0  0  0  0  0  0  0  0  0  0  0
   -1.0205   -0.3814    0.0098 H   0  0  0  0  0  0  0  0  0  0  0  0
    0.1910   -0.1364   -2.1398 H   0  0  0  0  0  0  0  0  0  0  0  0
    1.7408   -0.1202   -1.2645 H   0  0  0  0  0  0  0  0  0  0  0  0
   -0.9984   -2.1696   -2.4583 H   0  0  0  0  0  0  0  0  0  0  0  0
    2.4136   -2.1877   -0.1306 H   0  0  0  0  0  0  0  0  0  0  0  0
  1  2  1  0  0  0  0
  1 13  1  0  0  0  0
  1 14  1  0  0  0  0
  1 15  1  0  0  0  0
  2  3  1  0  0  0  0
  2 16  1  0  0  0  0
  2 17  1  0  0  0  0
  3 18  1  0  0  0  0
  3 19  1  0  0  0  0
  3  4  1  0  0  0  0
  4  5  2  0  0  0  0
  4 11  1  0  0  0  0
  5  6  1  0  0  0  0
  5 20  1  0  0  0  0
  6  8  1  0  0  0  0
  6  7  2  0  0  0  0
  8 10  1  0  0  0  0
  8  9  1  0  0  0  0
 10 11  1  0  0  0  0
 10 12  2  0  0  0  0
 11 21  1  0  0  0  0
M  END
$$$$
