ZINC01530703
 OpenBabel08292219463D

 35 35  0  0  0  0  0  0  0  0999 V2000
   -0.0187    1.5258    0.0104 C   0  0  0  0  0  0  0  0  0  0  0  0
    0.0021   -0.0041    0.0020 C   0  0  0  0  0  0  0  0  0  0  0  0
   -1.4333   -0.5336    0.0129 C   0  0  0  0  0  0  0  0  0  0  0  0
   -1.4126   -2.0635    0.0045 C   0  0  0  0  0  0  0  0  0  0  0  0
   -2.7870   -2.5706    0.0149 N   0  0  0  0  0  0  0  0  0  0  0  0
   -3.0196   -3.9241    0.0098 C   0  0  0  0  0  0  0  0  0  0  0  0
   -1.9810   -4.7879   -0.0047 O   0  5  0  0  0  0  0  0  0  0  0  0
   -4.2401   -4.3744    0.0191 N   0  0  0  0  0  0  0  0  0  0  0  0
   -4.5206   -6.0065    0.0130 S   0  0  0  0  0  0  0  0  0  0  0  0
   -4.0584   -6.4933   -1.2395 O   0  0  0  0  0  0  0  0  0  0  0  0
   -4.0346   -6.5067    1.2511 O   0  0  0  0  0  0  0  0  0  0  0  0
   -6.2676   -6.2349    0.0284 C   0  0  0  0  0  0  0  0  0  0  0  0
   -6.9423   -6.3253    1.2316 C   0  0  0  0  0  0  0  0  0  0  0  0
   -8.3129   -6.5045    1.2437 C   0  0  0  0  0  0  0  0  0  0  0  0
   -9.0090   -6.5929    0.0527 C   0  0  0  0  0  0  0  0  0  0  0  0
   -8.3345   -6.5016   -1.1505 C   0  0  0  0  0  0  0  0  0  0  0  0
   -6.9644   -6.3181   -1.1626 C   0  0  0  0  0  0  0  0  0  0  0  0
  -10.5031   -6.7892    0.0659 C   0  0  0  0  0  0  0  0  0  0  0  0
    1.0039    1.9031    0.0027 H   0  0  0  0  0  0  0  0  0  0  0  0
   -0.5459    1.8868   -0.8726 H   0  0  0  0  0  0  0  0  0  0  0  0
   -0.5289    1.8773    0.9072 H   0  0  0  0  0  0  0  0  0  0  0  0
    0.5123   -0.3556   -0.8948 H   0  0  0  0  0  0  0  0  0  0  0  0
    0.5293   -0.3651    0.8851 H   0  0  0  0  0  0  0  0  0  0  0  0
   -1.9435   -0.1821    0.9097 H   0  0  0  0  0  0  0  0  0  0  0  0
   -1.9605   -0.1726   -0.8702 H   0  0  0  0  0  0  0  0  0  0  0  0
   -0.9024   -2.4150   -0.8923 H   0  0  0  0  0  0  0  0  0  0  0  0
   -0.8854   -2.4246    0.8875 H   0  0  0  0  0  0  0  0  0  0  0  0
   -3.5327   -1.9503    0.0253 H   0  0  0  0  0  0  0  0  0  0  0  0
   -6.3984   -6.2562    2.1621 H   0  0  0  0  0  0  0  0  0  0  0  0
   -8.8399   -6.5758    2.1837 H   0  0  0  0  0  0  0  0  0  0  0  0
   -8.8782   -6.5710   -2.0810 H   0  0  0  0  0  0  0  0  0  0  0  0
   -6.4379   -6.2431   -2.1026 H   0  0  0  0  0  0  0  0  0  0  0  0
  -10.9972   -5.8177    0.0717 H   0  0  0  0  0  0  0  0  0  0  0  0
  -10.8044   -7.3448   -0.8222 H   0  0  0  0  0  0  0  0  0  0  0  0
  -10.7883   -7.3473    0.9577 H   0  0  0  0  0  0  0  0  0  0  0  0
  1  2  1  0  0  0  0
  1 19  1  0  0  0  0
  1 20  1  0  0  0  0
  1 21  1  0  0  0  0
  2  3  1  0  0  0  0
  2 22  1  0  0  0  0
  2 23  1  0  0  0  0
  3  4  1  0  0  0  0
  3 24  1  0  0  0  0
  3 25  1  0  0  0  0
  4  5  1  0  0  0  0
  4 26  1  0  0  0  0
  4 27  1  0  0  0  0
  5  6  1  0  0  0  0
  5 28  1  0  0  0  0
  6  7  1  0  0  0  0
  6  8  2  0  0  0  0
  8  9  1  0  0  0  0
  9 10  2  0  0  0  0
  9 11  2  0  0  0  0
  9 12  1  0  0  0  0
 12 17  2  0  0  0  0
 12 13  1  0  0  0  0
 13 14  2  0  0  0  0
 13 29  1  0  0  0  0
 14 15  1  0  0  0  0
 14 30  1  0  0  0  0
 15 16  2  0  0  0  0
 15 18  1  0  0  0  0
 16 17  1  0  0  0  0
 16 31  1  0  0  0  0
 17 32  1  0  0  0  0
 18 33  1  0  0  0  0
 18 34  1  0  0  0  0
 18 35  1  0  0  0  0
M  CHG  1   7  -1
M  END
$$$$
