ZINC04099032
 OpenBabel08292219463D

 60 63  0  0  1  0  0  0  0  0999 V2000
   -5.8316   -4.6426    7.2441 C   0  0  0  0  0  0  0  0  0  0  0  0
   -7.1107   -4.5363    6.4114 C   0  0  2  0  0  0  0  0  0  0  0  0
   -6.8273   -4.8231    4.9500 C   0  0  0  0  0  0  0  0  0  0  0  0
   -5.7409   -3.8360    4.4823 C   0  0  0  0  0  0  0  0  0  0  0  0
   -6.1889   -2.3986    4.7042 C   0  0  2  0  0  0  0  0  0  0  0  0
   -7.0819   -2.2407    4.0994 H   0  0  0  0  0  0  0  0  0  0  0  0
   -5.1496   -1.4116    4.2591 C   0  0  0  0  0  0  0  0  0  0  0  0
   -4.3738   -1.7275    3.1518 C   0  0  0  0  0  0  0  0  0  0  0  0
   -3.4262   -0.8434    2.6824 C   0  0  0  0  0  0  0  0  0  0  0  0
   -3.2376    0.3689    3.3306 C   0  0  0  0  0  0  0  0  0  0  0  0
   -4.0070    0.6816    4.4374 C   0  0  0  0  0  0  0  0  0  0  0  0
   -4.9620   -0.2093    4.9089 C   0  0  0  0  0  0  0  0  0  0  0  0
   -5.7447    0.1886    6.1325 C   0  0  0  0  0  0  0  0  0  0  0  0
   -6.9647   -0.6803    6.3103 C   0  0  0  0  0  0  0  0  0  0  0  0
   -6.5626   -2.1484    6.1712 C   0  0  1  0  0  0  0  0  0  0  0  0
   -5.7046   -2.3567    6.8102 H   0  0  0  0  0  0  0  0  0  0  0  0
   -7.6918   -3.0978    6.5071 C   0  0  2  0  0  0  0  0  0  0  0  0
   -8.5036   -2.9747    5.7902 H   0  0  0  0  0  0  0  0  0  0  0  0
   -8.2430   -3.0385    7.9274 C   0  0  0  0  0  0  0  0  0  0  0  0
   -8.6483   -4.4936    8.2710 C   0  0  0  0  0  0  0  0  0  0  0  0
   -8.2270   -5.3644    7.0557 C   0  0  2  0  0  0  0  0  0  0  0  0
   -9.0606   -5.4917    6.3650 H   0  0  0  0  0  0  0  0  0  0  0  0
   -7.7339   -6.6335    7.4896 O   0  0  0  0  0  0  0  0  0  0  0  0
   -2.3051    1.2478    2.8770 O   0  0  0  0  0  0  0  0  0  0  0  0
   -1.1498    1.3229    3.5651 C   0  0  0  0  0  0  0  0  0  0  0  0
   -1.0129    0.6899    4.5933 O   0  0  0  0  0  0  0  0  0  0  0  0
   -0.1456    2.0999    3.1133 N   0  0  0  0  0  0  0  0  0  0  0  0
    1.1111    2.1815    3.8618 C   0  0  0  0  0  0  0  0  0  0  0  0
    2.0704    1.0968    3.3677 C   0  0  0  0  0  0  0  0  0  0  0  0
    3.6170    1.1972    4.2890 Cl  0  0  0  0  0  0  0  0  0  0  0  0
   -0.3106    2.8630    1.8736 C   0  0  0  0  0  0  0  0  0  0  0  0
    0.1537    2.0155    0.6874 C   0  0  0  0  0  0  0  0  0  0  0  0
   -0.0495    2.9545   -0.8382 Cl  0  0  0  0  0  0  0  0  0  0  0  0
   -6.0567   -4.4162    8.2863 H   0  0  0  0  0  0  0  0  0  0  0  0
   -5.4328   -5.6543    7.1701 H   0  0  0  0  0  0  0  0  0  0  0  0
   -5.0940   -3.9330    6.8693 H   0  0  0  0  0  0  0  0  0  0  0  0
   -6.4701   -5.8466    4.8367 H   0  0  0  0  0  0  0  0  0  0  0  0
   -7.7345   -4.6812    4.3628 H   0  0  0  0  0  0  0  0  0  0  0  0
   -5.5471   -3.9918    3.4210 H   0  0  0  0  0  0  0  0  0  0  0  0
   -4.8249   -4.0174    5.0444 H   0  0  0  0  0  0  0  0  0  0  0  0
   -4.5171   -2.6735    2.6508 H   0  0  0  0  0  0  0  0  0  0  0  0
   -2.8308   -1.0946    1.8170 H   0  0  0  0  0  0  0  0  0  0  0  0
   -3.8632    1.6270    4.9394 H   0  0  0  0  0  0  0  0  0  0  0  0
   -5.1093    0.0848    7.0120 H   0  0  0  0  0  0  0  0  0  0  0  0
   -6.0522    1.2299    6.0365 H   0  0  0  0  0  0  0  0  0  0  0  0
   -7.6907   -0.4233    5.5390 H   0  0  0  0  0  0  0  0  0  0  0  0
   -7.3989   -0.5097    7.2954 H   0  0  0  0  0  0  0  0  0  0  0  0
   -7.4745   -2.6878    8.6164 H   0  0  0  0  0  0  0  0  0  0  0  0
   -9.1130   -2.3831    7.9678 H   0  0  0  0  0  0  0  0  0  0  0  0
   -8.1258   -4.8256    9.1681 H   0  0  0  0  0  0  0  0  0  0  0  0
   -9.7260   -4.5562    8.4214 H   0  0  0  0  0  0  0  0  0  0  0  0
   -8.3833   -7.1639    7.9713 H   0  0  0  0  0  0  0  0  0  0  0  0
    0.9120    2.0344    4.9233 H   0  0  0  0  0  0  0  0  0  0  0  0
    1.5619    3.1621    3.7092 H   0  0  0  0  0  0  0  0  0  0  0  0
    1.6196    0.1162    3.5203 H   0  0  0  0  0  0  0  0  0  0  0  0
    2.2695    1.2439    2.3062 H   0  0  0  0  0  0  0  0  0  0  0  0
   -1.3611    3.1238    1.7447 H   0  0  0  0  0  0  0  0  0  0  0  0
    0.2862    3.7736    1.9253 H   0  0  0  0  0  0  0  0  0  0  0  0
    1.2041    1.7546    0.8163 H   0  0  0  0  0  0  0  0  0  0  0  0
   -0.4432    1.1048    0.6358 H   0  0  0  0  0  0  0  0  0  0  0  0
  1 34  1  0  0  0  0
  1 35  1  0  0  0  0
  1 36  1  0  0  0  0
  2  1  1  1  0  0  0
  2 17  1  0  0  0  0
  2 21  1  0  0  0  0
  2  3  1  0  0  0  0
  3  4  1  0  0  0  0
  3 37  1  0  0  0  0
  3 38  1  0  0  0  0
  4  5  1  0  0  0  0
  4 39  1  0  0  0  0
  4 40  1  0  0  0  0
  5  6  1  6  0  0  0
  5 15  1  0  0  0  0
  5  7  1  0  0  0  0
  7 12  2  0  0  0  0
  7  8  1  0  0  0  0
  8  9  2  0  0  0  0
  8 41  1  0  0  0  0
  9 10  1  0  0  0  0
  9 42  1  0  0  0  0
 10 11  2  0  0  0  0
 10 24  1  0  0  0  0
 11 12  1  0  0  0  0
 11 43  1  0  0  0  0
 12 13  1  0  0  0  0
 13 14  1  0  0  0  0
 13 44  1  0  0  0  0
 13 45  1  0  0  0  0
 14 15  1  0  0  0  0
 14 46  1  0  0  0  0
 14 47  1  0  0  0  0
 15 16  1  1  0  0  0
 15 17  1  0  0  0  0
 17 18  1  6  0  0  0
 17 19  1  0  0  0  0
 19 20  1  0  0  0  0
 19 48  1  0  0  0  0
 19 49  1  0  0  0  0
 20 21  1  0  0  0  0
 20 50  1  0  0  0  0
 20 51  1  0  0  0  0
 21 22  1  6  0  0  0
 21 23  1  0  0  0  0
 23 52  1  0  0  0  0
 24 25  1  0  0  0  0
 25 26  2  0  0  0  0
 25 27  1  0  0  0  0
 27 28  1  0  0  0  0
 27 31  1  0  0  0  0
 28 29  1  0  0  0  0
 28 53  1  0  0  0  0
 28 54  1  0  0  0  0
 29 30  1  0  0  0  0
 29 55  1  0  0  0  0
 29 56  1  0  0  0  0
 31 32  1  0  0  0  0
 31 57  1  0  0  0  0
 31 58  1  0  0  0  0
 32 33  1  0  0  0  0
 32 59  1  0  0  0  0
 32 60  1  0  0  0  0
M  END
$$$$
