ZINC03875483
 OpenBabel08292219463D

 42 46  0  0  1  0  0  0  0  0999 V2000
    1.3382    2.6781    2.0033 C   0  0  0  0  0  0  0  0  0  0  0  0
   -0.3245    3.6972    0.5701 C   0  0  0  0  0  0  0  0  0  0  0  0
   -1.8281    3.9312    0.3837 C   0  0  0  0  0  0  0  0  0  0  0  0
   -2.5175    2.5792    0.2383 C   0  0  2  0  0  0  0  0  0  0  0  0
   -1.9260    1.8255   -0.9279 C   0  0  0  0  0  0  0  0  0  0  0  0
   -0.8172    1.0114   -0.9001 C   0  0  0  0  0  0  0  0  0  0  0  0
   -0.4416    0.4675   -2.1158 C   0  0  0  0  0  0  0  0  0  0  0  0
   -1.1912    0.7179   -3.2538 C   0  0  0  0  0  0  0  0  0  0  0  0
   -2.3462    1.4969   -3.2537 C   0  0  0  0  0  0  0  0  0  0  0  0
   -2.7314    2.0604   -2.0318 C   0  0  0  0  0  0  0  0  0  0  0  0
   -3.8119    2.7878   -1.6742 O   0  0  0  0  0  0  0  0  0  0  0  0
   -3.9617    2.7294   -0.2233 C   0  0  1  0  0  0  0  0  0  0  0  0
   -4.3642    3.5411    0.1999 H   0  0  0  0  0  0  0  0  0  0  0  0
   -4.7804    1.5128    0.0949 C   0  0  0  0  0  0  0  0  0  0  0  0
   -5.7445    1.2712   -0.5910 O   0  0  0  0  0  0  0  0  0  0  0  0
   -4.4558    0.5840    1.2261 C   0  0  0  0  0  0  0  0  0  0  0  0
   -2.9445    0.3606    1.3055 C   0  0  0  0  0  0  0  0  0  0  0  0
   -2.2542    1.7151    1.4604 C   0  0  1  0  0  0  0  0  0  0  0  0
   -0.7416    1.5179    1.5667 C   0  0  1  0  0  0  0  0  0  0  0  0
   -0.5432    0.9473    2.4740 H   0  0  0  0  0  0  0  0  0  0  0  0
   -0.1199    0.7700    0.3987 C   0  0  0  0  0  0  0  0  0  0  0  0
   -2.7377    2.3683    2.6358 O   0  0  0  0  0  0  0  0  0  0  0  0
   -3.0667    1.7002   -4.3890 O   0  0  0  0  0  0  0  0  0  0  0  0
    1.8347    2.2702    1.1229 H   0  0  0  0  0  0  0  0  0  0  0  0
    1.7658    3.6516    2.2433 H   0  0  0  0  0  0  0  0  0  0  0  0
    1.4792    2.0015    2.8462 H   0  0  0  0  0  0  0  0  0  0  0  0
    0.1740    4.6532    0.7304 H   0  0  0  0  0  0  0  0  0  0  0  0
    0.0820    3.2229   -0.3232 H   0  0  0  0  0  0  0  0  0  0  0  0
   -2.2280    4.4509    1.2544 H   0  0  0  0  0  0  0  0  0  0  0  0
   -1.9967    4.5319   -0.5101 H   0  0  0  0  0  0  0  0  0  0  0  0
    0.4394   -0.1542   -2.1778 H   0  0  0  0  0  0  0  0  0  0  0  0
   -0.8634    0.2873   -4.1885 H   0  0  0  0  0  0  0  0  0  0  0  0
   -4.7730    0.9830    2.0865 H   0  0  0  0  0  0  0  0  0  0  0  0
   -4.9544   -0.3716    1.0636 H   0  0  0  0  0  0  0  0  0  0  0  0
   -2.7128   -0.2680    2.1653 H   0  0  0  0  0  0  0  0  0  0  0  0
   -2.5987   -0.1259    0.3935 H   0  0  0  0  0  0  0  0  0  0  0  0
   -0.1451   -0.2980    0.6151 H   0  0  0  0  0  0  0  0  0  0  0  0
    0.9202    1.0807    0.2993 H   0  0  0  0  0  0  0  0  0  0  0  0
   -2.5815    1.8748    3.4525 H   0  0  0  0  0  0  0  0  0  0  0  0
   -2.7916    2.4764   -4.8958 H   0  0  0  0  0  0  0  0  0  0  0  0
   -0.1082    2.8429    1.7596 N   0  3  1  0  0  0  0  0  0  0  0  0
   -0.5337    3.2977    2.5759 H   0  0  0  0  0  0  0  0  0  0  0  0
  1 24  1  0  0  0  0
  1 25  1  0  0  0  0
  1 26  1  0  0  0  0
  1 41  1  0  0  0  0
  2  3  1  0  0  0  0
  2 27  1  0  0  0  0
  2 28  1  0  0  0  0
  2 41  1  0  0  0  0
  3  4  1  0  0  0  0
  3 29  1  0  0  0  0
  3 30  1  0  0  0  0
  4 12  1  0  0  0  0
  4 18  1  0  0  0  0
  4  5  1  6  0  0  0
  5 10  2  0  0  0  0
  5  6  1  0  0  0  0
  6 21  1  0  0  0  0
  6  7  2  0  0  0  0
  7  8  1  0  0  0  0
  7 31  1  0  0  0  0
  8  9  2  0  0  0  0
  8 32  1  0  0  0  0
  9 10  1  0  0  0  0
  9 23  1  0  0  0  0
 10 11  1  0  0  0  0
 11 12  1  0  0  0  0
 12 13  1  1  0  0  0
 12 14  1  0  0  0  0
 14 15  2  0  0  0  0
 14 16  1  0  0  0  0
 16 17  1  0  0  0  0
 16 33  1  0  0  0  0
 16 34  1  0  0  0  0
 17 18  1  0  0  0  0
 17 35  1  0  0  0  0
 17 36  1  0  0  0  0
 18 19  1  0  0  0  0
 18 22  1  1  0  0  0
 19 20  1  1  0  0  0
 19 21  1  0  0  0  0
 19 41  1  0  0  0  0
 21 37  1  0  0  0  0
 21 38  1  0  0  0  0
 22 39  1  0  0  0  0
 23 40  1  0  0  0  0
 41 42  1  1  0  0  0
M  CHG  1  41   1
M  END
$$$$
