ZINC03992480
 OpenBabel08292219463D

102106  0  0  1  0  0  0  0  0999 V2000
    1.7934    1.7727    0.8817 C   0  0  0  0  0  0  0  0  0  0  0  0
    1.7248    0.5575    1.8089 C   0  0  0  0  0  0  0  0  0  0  0  0
    0.8624    0.8935    3.0272 C   0  0  0  0  0  0  0  0  0  0  0  0
    0.7939   -0.3217    3.9543 C   0  0  1  0  0  0  0  0  0  0  0  0
    1.8017   -0.6804    4.2107 H   0  0  0  0  0  0  0  0  0  0  0  0
    0.0481    0.0467    5.2109 C   0  0  0  0  0  0  0  0  0  0  0  0
   -1.0847   -0.3385    5.3758 O   0  0  0  0  0  0  0  0  0  0  0  0
    0.7087    0.8865    6.2507 C   0  0  0  0  0  0  0  0  0  0  0  0
    1.8470    1.2735    6.0850 O   0  0  0  0  0  0  0  0  0  0  0  0
    0.0417    1.2160    7.3746 N   0  0  0  0  0  0  0  0  0  0  0  0
    0.6908    2.0412    8.3963 C   0  0  0  0  0  0  0  0  0  0  0  0
    0.5147    1.6244    9.8578 C   0  0  0  0  0  0  0  0  0  0  0  0
   -0.2119    2.8596    9.3217 C   0  0  0  0  0  0  0  0  0  0  0  0
    0.0953   -1.4155    3.2748 N   0  0  0  0  0  0  0  0  0  0  0  0
    0.7740   -2.2418    2.4544 C   0  0  0  0  0  0  0  0  0  0  0  0
    1.9631   -2.0798    2.2786 O   0  0  0  0  0  0  0  0  0  0  0  0
    0.0555   -3.3671    1.7554 C   0  0  2  0  0  0  0  0  0  0  0  0
   -0.9062   -2.9933    1.3742 H   0  0  0  0  0  0  0  0  0  0  0  0
   -0.1293   -4.5437    2.7221 C   0  0  1  0  0  0  0  0  0  0  0  0
   -0.0541   -4.1984    3.7638 H   0  0  0  0  0  0  0  0  0  0  0  0
   -1.4874   -5.2301    2.4491 C   0  0  0  0  0  0  0  0  0  0  0  0
   -1.2136   -6.7010    2.8498 C   0  0  0  0  0  0  0  0  0  0  0  0
    0.2399   -6.9708    2.3654 C   0  0  0  0  0  0  0  0  0  0  0  0
    0.9220   -5.5938    2.2729 C   0  0  1  0  0  0  0  0  0  0  0  0
    1.8529   -5.5988    2.8589 H   0  0  0  0  0  0  0  0  0  0  0  0
    1.1556   -5.2588    0.7871 C   0  0  0  0  0  0  0  0  0  0  0  0
    0.8539   -3.8336    0.6177 N   0  0  0  0  0  0  0  0  0  0  0  0
    1.2489   -3.0718   -0.4216 C   0  0  0  0  0  0  0  0  0  0  0  0
    0.8644   -1.9252   -0.5136 O   0  0  0  0  0  0  0  0  0  0  0  0
    2.1684   -3.6446   -1.4692 C   0  0  2  0  0  0  0  0  0  0  0  0
    2.0590   -4.7386   -1.5031 H   0  0  0  0  0  0  0  0  0  0  0  0
    3.6116   -3.2463   -1.1540 C   0  0  0  0  0  0  0  0  0  0  0  0
    4.0068   -3.8028    0.2153 C   0  0  0  0  0  0  0  0  0  0  0  0
    4.5436   -3.8169   -2.2248 C   0  0  0  0  0  0  0  0  0  0  0  0
    3.7275   -1.7208   -1.1372 C   0  0  0  0  0  0  0  0  0  0  0  0
    1.7941   -3.1223   -2.7857 N   0  0  0  0  0  0  0  0  0  0  0  0
    2.0936   -3.8217   -3.8982 C   0  0  0  0  0  0  0  0  0  0  0  0
    2.6731   -4.8834   -3.8094 O   0  0  0  0  0  0  0  0  0  0  0  0
    1.7086   -3.2844   -5.2525 C   0  0  2  0  0  0  0  0  0  0  0  0
    2.2217   -2.3284   -5.4337 H   0  0  0  0  0  0  0  0  0  0  0  0
    0.1896   -3.1143   -5.3207 C   0  0  0  0  0  0  0  0  0  0  0  0
   -0.4858   -4.4691   -5.0987 C   0  0  0  0  0  0  0  0  0  0  0  0
   -2.0048   -4.2990   -5.1668 C   0  0  0  0  0  0  0  0  0  0  0  0
   -2.3957   -3.7535   -6.5418 C   0  0  0  0  0  0  0  0  0  0  0  0
   -1.7203   -2.3987   -6.7638 C   0  0  0  0  0  0  0  0  0  0  0  0
   -0.2013   -2.5688   -6.6957 C   0  0  0  0  0  0  0  0  0  0  0  0
    2.1421   -4.2222   -6.2912 N   0  0  0  0  0  0  0  0  0  0  0  0
    2.3774   -3.7803   -7.5425 C   0  0  0  0  0  0  0  0  0  0  0  0
    2.2300   -2.6039   -7.8092 O   0  0  0  0  0  0  0  0  0  0  0  0
    2.8157   -4.7287   -8.5929 C   0  0  0  0  0  0  0  0  0  0  0  0
    3.0542   -4.2746   -9.8896 C   0  0  0  0  0  0  0  0  0  0  0  0
    3.4495   -5.1232  -10.8214 N   0  0  0  0  0  0  0  0  0  0  0  0
    3.6088   -6.4017  -10.5281 C   0  0  0  0  0  0  0  0  0  0  0  0
    3.3673   -6.8575   -9.2403 C   0  0  0  0  0  0  0  0  0  0  0  0
    2.9777   -6.0166   -8.3031 N   0  0  0  0  0  0  0  0  0  0  0  0
    2.4134    1.5311    0.0058 H   0  0  0  0  0  0  0  0  0  0  0  0
    2.2373    2.6217    1.4222 H   0  0  0  0  0  0  0  0  0  0  0  0
    0.7788    2.0389    0.5505 H   0  0  0  0  0  0  0  0  0  0  0  0
    1.2809   -0.2915    1.2684 H   0  0  0  0  0  0  0  0  0  0  0  0
    2.7394    0.2912    2.1401 H   0  0  0  0  0  0  0  0  0  0  0  0
    1.3063    1.7425    3.5677 H   0  0  0  0  0  0  0  0  0  0  0  0
   -0.1522    1.1597    2.6961 H   0  0  0  0  0  0  0  0  0  0  0  0
   -0.9900    0.8653    7.5247 H   0  0  0  0  0  0  0  0  0  0  0  0
    1.5384    2.2490    7.7266 H   0  0  0  0  0  0  0  0  0  0  0  0
    0.0905    0.6104    9.9013 H   0  0  0  0  0  0  0  0  0  0  0  0
    1.4921    1.6349   10.3624 H   0  0  0  0  0  0  0  0  0  0  0  0
    0.1649    3.8912    9.3831 H   0  0  0  0  0  0  0  0  0  0  0  0
   -1.2367    2.8667    8.9220 H   0  0  0  0  0  0  0  0  0  0  0  0
   -0.9831   -1.5624    3.4342 H   0  0  0  0  0  0  0  0  0  0  0  0
   -2.2667   -4.7596    3.0666 H   0  0  0  0  0  0  0  0  0  0  0  0
   -1.7464   -5.1206    1.3856 H   0  0  0  0  0  0  0  0  0  0  0  0
   -1.3096   -6.8079    3.9404 H   0  0  0  0  0  0  0  0  0  0  0  0
   -1.9413   -7.3583    2.3515 H   0  0  0  0  0  0  0  0  0  0  0  0
    0.7534   -7.6197    3.0902 H   0  0  0  0  0  0  0  0  0  0  0  0
    0.2132   -7.4667    1.3839 H   0  0  0  0  0  0  0  0  0  0  0  0
    2.2029   -5.4688    0.5242 H   0  0  0  0  0  0  0  0  0  0  0  0
    0.4905   -5.8742    0.1635 H   0  0  0  0  0  0  0  0  0  0  0  0
    5.0444   -3.5164    0.4419 H   0  0  0  0  0  0  0  0  0  0  0  0
    3.9234   -4.8996    0.2033 H   0  0  0  0  0  0  0  0  0  0  0  0
    3.3367   -3.3925    0.9851 H   0  0  0  0  0  0  0  0  0  0  0  0
    5.5812   -3.5305   -1.9982 H   0  0  0  0  0  0  0  0  0  0  0  0
    4.2594   -3.4167   -3.2092 H   0  0  0  0  0  0  0  0  0  0  0  0
    4.4602   -4.9137   -2.2368 H   0  0  0  0  0  0  0  0  0  0  0  0
    4.7651   -1.4344   -0.9106 H   0  0  0  0  0  0  0  0  0  0  0  0
    3.0574   -1.3106   -0.3673 H   0  0  0  0  0  0  0  0  0  0  0  0
    3.4433   -1.3206   -2.1216 H   0  0  0  0  0  0  0  0  0  0  0  0
    1.2686   -2.1593   -2.8663 H   0  0  0  0  0  0  0  0  0  0  0  0
   -0.1359   -2.4102   -4.5408 H   0  0  0  0  0  0  0  0  0  0  0  0
   -0.1604   -5.1732   -5.8786 H   0  0  0  0  0  0  0  0  0  0  0  0
   -0.2047   -4.8614   -4.1102 H   0  0  0  0  0  0  0  0  0  0  0  0
   -2.4903   -5.2730   -5.0071 H   0  0  0  0  0  0  0  0  0  0  0  0
   -2.3303   -3.5949   -4.3869 H   0  0  0  0  0  0  0  0  0  0  0  0
   -2.0702   -4.4577   -7.3217 H   0  0  0  0  0  0  0  0  0  0  0  0
   -3.4878   -3.6312   -6.5909 H   0  0  0  0  0  0  0  0  0  0  0  0
   -2.0014   -2.0065   -7.7523 H   0  0  0  0  0  0  0  0  0  0  0  0
   -2.0457   -1.6946   -5.9839 H   0  0  0  0  0  0  0  0  0  0  0  0
    0.2843   -1.5948   -6.8553 H   0  0  0  0  0  0  0  0  0  0  0  0
    0.1242   -3.2729   -7.4756 H   0  0  0  0  0  0  0  0  0  0  0  0
    2.2756   -5.2871   -6.0498 H   0  0  0  0  0  0  0  0  0  0  0  0
    2.9200   -3.2304  -10.1304 H   0  0  0  0  0  0  0  0  0  0  0  0
    3.9283   -7.0938  -11.2931 H   0  0  0  0  0  0  0  0  0  0  0  0
    3.4985   -7.9034   -9.0053 H   0  0  0  0  0  0  0  0  0  0  0  0
  1  2  1  0  0  0  0
  1 56  1  0  0  0  0
  1 57  1  0  0  0  0
  1 58  1  0  0  0  0
  2  3  1  0  0  0  0
  2 59  1  0  0  0  0
  2 60  1  0  0  0  0
  3  4  1  0  0  0  0
  3 61  1  0  0  0  0
  3 62  1  0  0  0  0
  4  5  1  1  0  0  0
  4  6  1  0  0  0  0
  4 14  1  0  0  0  0
  6  7  2  0  0  0  0
  6  8  1  0  0  0  0
  8  9  2  0  0  0  0
  8 10  1  0  0  0  0
 10 11  1  0  0  0  0
 10 63  1  0  0  0  0
 11 13  1  0  0  0  0
 11 12  1  0  0  0  0
 11 64  1  0  0  0  0
 12 13  1  0  0  0  0
 12 65  1  0  0  0  0
 12 66  1  0  0  0  0
 13 67  1  0  0  0  0
 13 68  1  0  0  0  0
 14 15  1  0  0  0  0
 14 69  1  0  0  0  0
 15 16  2  0  0  0  0
 15 17  1  0  0  0  0
 17 18  1  6  0  0  0
 17 27  1  0  0  0  0
 17 19  1  0  0  0  0
 19 20  1  1  0  0  0
 19 24  1  0  0  0  0
 19 21  1  0  0  0  0
 21 22  1  0  0  0  0
 21 70  1  0  0  0  0
 21 71  1  0  0  0  0
 22 23  1  0  0  0  0
 22 72  1  0  0  0  0
 22 73  1  0  0  0  0
 23 24  1  0  0  0  0
 23 74  1  0  0  0  0
 23 75  1  0  0  0  0
 24 25  1  1  0  0  0
 24 26  1  0  0  0  0
 26 27  1  0  0  0  0
 26 76  1  0  0  0  0
 26 77  1  0  0  0  0
 27 28  1  0  0  0  0
 28 29  2  0  0  0  0
 28 30  1  0  0  0  0
 30 31  1  6  0  0  0
 30 32  1  0  0  0  0
 30 36  1  0  0  0  0
 32 33  1  0  0  0  0
 32 34  1  0  0  0  0
 32 35  1  0  0  0  0
 33 78  1  0  0  0  0
 33 79  1  0  0  0  0
 33 80  1  0  0  0  0
 34 81  1  0  0  0  0
 34 82  1  0  0  0  0
 34 83  1  0  0  0  0
 35 84  1  0  0  0  0
 35 85  1  0  0  0  0
 35 86  1  0  0  0  0
 36 37  1  0  0  0  0
 36 87  1  0  0  0  0
 37 38  2  0  0  0  0
 37 39  1  0  0  0  0
 39 40  1  6  0  0  0
 39 41  1  0  0  0  0
 39 47  1  0  0  0  0
 41 46  1  0  0  0  0
 41 42  1  0  0  0  0
 41 88  1  0  0  0  0
 42 43  1  0  0  0  0
 42 89  1  0  0  0  0
 42 90  1  0  0  0  0
 43 44  1  0  0  0  0
 43 91  1  0  0  0  0
 43 92  1  0  0  0  0
 44 45  1  0  0  0  0
 44 93  1  0  0  0  0
 44 94  1  0  0  0  0
 45 46  1  0  0  0  0
 45 95  1  0  0  0  0
 45 96  1  0  0  0  0
 46 97  1  0  0  0  0
 46 98  1  0  0  0  0
 47 48  1  0  0  0  0
 47 99  1  0  0  0  0
 48 49  2  0  0  0  0
 48 50  1  0  0  0  0
 50 55  2  0  0  0  0
 50 51  1  0  0  0  0
 51 52  2  0  0  0  0
 51100  1  0  0  0  0
 52 53  1  0  0  0  0
 53 54  2  0  0  0  0
 53101  1  0  0  0  0
 54 55  1  0  0  0  0
 54102  1  0  0  0  0
M  END
$$$$
