ZINC03831107
 OpenBabel08292219463D

 30 30  0  0  1  0  0  0  0  0999 V2000
    1.9536    0.1000    1.4995 C   0  0  0  0  0  0  0  0  0  0  0  0
    1.9672    1.6216    1.3403 C   0  0  0  0  0  0  0  0  0  0  0  0
    1.4885    1.9917   -0.0650 C   0  0  0  0  0  0  0  0  0  0  0  0
    1.5990    3.4888   -0.2617 C   0  0  0  0  0  0  0  0  0  0  0  0
    2.5132    3.9797   -0.8795 O   0  0  0  0  0  0  0  0  0  0  0  0
    0.5075    4.3425    0.3532 C   0  0  2  0  0  0  0  0  0  0  0  0
    0.4987    4.2093    1.3442 H   0  0  0  0  0  0  0  0  0  0  0  0
   -0.8286    3.9100   -0.2534 C   0  0  0  0  0  0  0  0  0  0  0  0
   -0.9579    2.4621   -0.2647 N   0  0  0  0  0  0  0  0  0  0  0  0
    0.0477    1.5912   -0.2296 C   0  0  0  0  0  0  0  0  0  0  0  0
   -0.2107    0.4115   -0.3413 O   0  0  0  0  0  0  0  0  0  0  0  0
    0.7660    5.8175    0.0395 C   0  0  0  0  0  0  0  0  0  0  0  0
    2.3449    1.2685   -1.1063 C   0  0  0  0  0  0  0  0  0  0  0  0
    1.8224    1.5891   -2.5081 C   0  0  0  0  0  0  0  0  0  0  0  0
    2.3221   -0.1650    2.4904 H   0  0  0  0  0  0  0  0  0  0  0  0
    0.9348   -0.2687    1.3801 H   0  0  0  0  0  0  0  0  0  0  0  0
    2.5941   -0.3504    0.7412 H   0  0  0  0  0  0  0  0  0  0  0  0
    2.9810    1.9934    1.4885 H   0  0  0  0  0  0  0  0  0  0  0  0
    1.3040    2.0702    2.0799 H   0  0  0  0  0  0  0  0  0  0  0  0
   -1.6422    4.3392    0.3314 H   0  0  0  0  0  0  0  0  0  0  0  0
   -0.8924    4.2790   -1.2771 H   0  0  0  0  0  0  0  0  0  0  0  0
   -1.8568    2.0989   -0.2967 H   0  0  0  0  0  0  0  0  0  0  0  0
    0.7726    5.9635   -1.0407 H   0  0  0  0  0  0  0  0  0  0  0  0
   -0.0212    6.4268    0.4836 H   0  0  0  0  0  0  0  0  0  0  0  0
    1.7306    6.1131    0.4520 H   0  0  0  0  0  0  0  0  0  0  0  0
    3.3796    1.6002   -1.0196 H   0  0  0  0  0  0  0  0  0  0  0  0
    2.2927    0.1931   -0.9362 H   0  0  0  0  0  0  0  0  0  0  0  0
    0.8256    1.1652   -2.6300 H   0  0  0  0  0  0  0  0  0  0  0  0
    1.7761    2.6701   -2.6402 H   0  0  0  0  0  0  0  0  0  0  0  0
    2.4931    1.1605   -3.2527 H   0  0  0  0  0  0  0  0  0  0  0  0
  1  2  1  0  0  0  0
  1 15  1  0  0  0  0
  1 16  1  0  0  0  0
  1 17  1  0  0  0  0
  2  3  1  0  0  0  0
  2 18  1  0  0  0  0
  2 19  1  0  0  0  0
  3 10  1  0  0  0  0
  3  4  1  0  0  0  0
  3 13  1  0  0  0  0
  4  5  2  0  0  0  0
  4  6  1  0  0  0  0
  6  7  1  1  0  0  0
  6  8  1  0  0  0  0
  6 12  1  0  0  0  0
  8  9  1  0  0  0  0
  8 20  1  0  0  0  0
  8 21  1  0  0  0  0
  9 10  1  0  0  0  0
  9 22  1  0  0  0  0
 10 11  2  0  0  0  0
 12 23  1  0  0  0  0
 12 24  1  0  0  0  0
 12 25  1  0  0  0  0
 13 14  1  0  0  0  0
 13 26  1  0  0  0  0
 13 27  1  0  0  0  0
 14 28  1  0  0  0  0
 14 29  1  0  0  0  0
 14 30  1  0  0  0  0
M  END
$$$$
