ZINC12466082
 OpenBabel08292219463D

 44 44  0  0  0  0  0  0  0  0999 V2000
   -0.0516    1.3209    1.2621 C   0  0  0  0  0  0  0  0  0  0  0  0
   -0.0256   -0.0879    1.0244 O   0  0  0  0  0  0  0  0  0  0  0  0
   -1.3186   -0.6734    0.8586 C   0  0  0  0  0  0  0  0  0  0  0  0
   -1.1702   -2.1759    0.6112 C   0  0  0  0  0  0  0  0  0  0  0  0
   -2.5545   -2.8028    0.4338 C   0  0  0  0  0  0  0  0  0  0  0  0
   -2.4061   -4.3053    0.1864 C   0  0  0  0  0  0  0  0  0  0  0  0
   -3.7697   -4.9227    0.0116 C   0  0  0  0  0  0  0  0  0  0  0  0
   -4.8283   -4.1832    0.0827 N   0  0  0  0  0  0  0  0  0  0  0  0
   -6.1121   -4.7797    0.0502 O   0  0  0  0  0  0  0  0  0  0  0  0
   -7.1896   -3.8451    0.1371 C   0  0  0  0  0  0  0  0  0  0  0  0
   -8.5215   -4.5968    0.0928 C   0  0  0  0  0  0  0  0  0  0  0  0
   -8.6453   -5.4446    1.2861 N   0  3  0  0  0  0  0  0  0  0  0  0
   -3.8970   -6.3718   -0.2408 C   0  0  0  0  0  0  0  0  0  0  0  0
   -4.8586   -6.8459   -1.1351 C   0  0  0  0  0  0  0  0  0  0  0  0
   -4.9722   -8.2012   -1.3664 C   0  0  0  0  0  0  0  0  0  0  0  0
   -4.1363   -9.0900   -0.7139 C   0  0  0  0  0  0  0  0  0  0  0  0
   -3.1815   -8.6269    0.1739 C   0  0  0  0  0  0  0  0  0  0  0  0
   -3.0527   -7.2737    0.4094 C   0  0  0  0  0  0  0  0  0  0  0  0
   -4.2667  -10.5691   -0.9712 C   0  0  0  0  0  0  0  0  0  0  0  0
   -3.4364  -10.9320   -2.0371 F   0  0  0  0  0  0  0  0  0  0  0  0
   -3.8899  -11.2768    0.1753 F   0  0  0  0  0  0  0  0  0  0  0  0
   -5.5947  -10.8716   -1.2906 F   0  0  0  0  0  0  0  0  0  0  0  0
    0.9679    1.6889    1.3769 H   0  0  0  0  0  0  0  0  0  0  0  0
   -0.5263    1.8230    0.4190 H   0  0  0  0  0  0  0  0  0  0  0  0
   -0.6163    1.5256    2.1717 H   0  0  0  0  0  0  0  0  0  0  0  0
   -1.9096   -0.5101    1.7598 H   0  0  0  0  0  0  0  0  0  0  0  0
   -1.8196   -0.2127    0.0072 H   0  0  0  0  0  0  0  0  0  0  0  0
   -0.5792   -2.3392   -0.2900 H   0  0  0  0  0  0  0  0  0  0  0  0
   -0.6692   -2.6366    1.4627 H   0  0  0  0  0  0  0  0  0  0  0  0
   -3.1455   -2.6395    1.3350 H   0  0  0  0  0  0  0  0  0  0  0  0
   -3.0555   -2.3421   -0.4176 H   0  0  0  0  0  0  0  0  0  0  0  0
   -1.8151   -4.4685   -0.7148 H   0  0  0  0  0  0  0  0  0  0  0  0
   -1.9051   -4.7660    1.0378 H   0  0  0  0  0  0  0  0  0  0  0  0
   -7.1158   -3.2915    1.0731 H   0  0  0  0  0  0  0  0  0  0  0  0
   -7.1365   -3.1504   -0.7011 H   0  0  0  0  0  0  0  0  0  0  0  0
   -9.3426   -3.8802    0.0695 H   0  0  0  0  0  0  0  0  0  0  0  0
   -8.5576   -5.2199   -0.8008 H   0  0  0  0  0  0  0  0  0  0  0  0
   -9.5236   -5.9403    1.2570 H   0  0  0  0  0  0  0  0  0  0  0  0
   -7.8853   -6.1079    1.3077 H   0  0  0  0  0  0  0  0  0  0  0  0
   -5.5122   -6.1533   -1.6445 H   0  0  0  0  0  0  0  0  0  0  0  0
   -5.7156   -8.5693   -2.0579 H   0  0  0  0  0  0  0  0  0  0  0  0
   -2.5327   -9.3261    0.6804 H   0  0  0  0  0  0  0  0  0  0  0  0
   -2.3036   -6.9132    1.0988 H   0  0  0  0  0  0  0  0  0  0  0  0
   -8.6119   -4.8678    2.1134 H   0  0  0  0  0  0  0  0  0  0  0  0
  1  2  1  0  0  0  0
  1 23  1  0  0  0  0
  1 24  1  0  0  0  0
  1 25  1  0  0  0  0
  2  3  1  0  0  0  0
  3  4  1  0  0  0  0
  3 26  1  0  0  0  0
  3 27  1  0  0  0  0
  4  5  1  0  0  0  0
  4 28  1  0  0  0  0
  4 29  1  0  0  0  0
  5  6  1  0  0  0  0
  5 30  1  0  0  0  0
  5 31  1  0  0  0  0
  6  7  1  0  0  0  0
  6 32  1  0  0  0  0
  6 33  1  0  0  0  0
  7  8  2  0  0  0  0
  7 13  1  0  0  0  0
  8  9  1  0  0  0  0
  9 10  1  0  0  0  0
 10 11  1  0  0  0  0
 10 34  1  0  0  0  0
 10 35  1  0  0  0  0
 11 12  1  0  0  0  0
 11 36  1  0  0  0  0
 11 37  1  0  0  0  0
 12 38  1  0  0  0  0
 12 39  1  0  0  0  0
 12 44  1  0  0  0  0
 13 18  2  0  0  0  0
 13 14  1  0  0  0  0
 14 15  2  0  0  0  0
 14 40  1  0  0  0  0
 15 16  1  0  0  0  0
 15 41  1  0  0  0  0
 16 17  2  0  0  0  0
 16 19  1  0  0  0  0
 17 18  1  0  0  0  0
 17 42  1  0  0  0  0
 18 43  1  0  0  0  0
 19 20  1  0  0  0  0
 19 21  1  0  0  0  0
 19 22  1  0  0  0  0
M  CHG  1  12   1
M  END
$$$$
