ZINC00643114
 OpenBabel08292219463D

 40 42  0  0  1  0  0  0  0  0999 V2000
   -0.0187    1.5258    0.0104 C   0  0  0  0  0  0  0  0  0  0  0  0
    0.0021   -0.0041    0.0020 C   0  0  2  0  0  0  0  0  0  0  0  0
    0.5208   -0.3698   -0.8842 H   0  0  0  0  0  0  0  0  0  0  0  0
   -1.4317   -0.5572    0.0471 C   0  0  0  0  0  0  0  0  0  0  0  0
   -1.4885   -1.3609    1.3269 C   0  0  0  0  0  0  0  0  0  0  0  0
   -2.5172   -2.0864    1.8965 C   0  0  0  0  0  0  0  0  0  0  0  0
   -2.3203   -2.7472    3.0946 C   0  0  0  0  0  0  0  0  0  0  0  0
   -1.0901   -2.6806    3.7229 C   0  0  0  0  0  0  0  0  0  0  0  0
   -0.0608   -1.9582    3.1587 C   0  0  0  0  0  0  0  0  0  0  0  0
   -0.2518   -1.2878    1.9483 C   0  0  0  0  0  0  0  0  0  0  0  0
    0.6494   -0.5104    1.2152 N   0  0  0  0  0  0  0  0  0  0  0  0
    1.9758   -0.2518    1.5849 N   0  0  0  0  0  0  0  0  0  0  0  0
    2.2410    0.6241    2.5744 C   0  0  0  0  0  0  0  0  0  0  0  0
    1.3294    1.1896    3.1460 O   0  0  0  0  0  0  0  0  0  0  0  0
    3.6401    0.8968    2.9644 C   0  0  0  0  0  0  0  0  0  0  0  0
    4.6896    0.2530    2.3058 C   0  0  0  0  0  0  0  0  0  0  0  0
    5.9928    0.5115    2.6741 C   0  0  0  0  0  0  0  0  0  0  0  0
    6.2621    1.4080    3.6954 C   0  0  0  0  0  0  0  0  0  0  0  0
    5.2254    2.0493    4.3526 C   0  0  0  0  0  0  0  0  0  0  0  0
    3.9179    1.8035    3.9888 C   0  0  0  0  0  0  0  0  0  0  0  0
    5.5778    3.1874    5.6507 S   0  0  0  0  0  0  0  0  0  0  0  0
    6.5770    4.0692    5.1575 O   0  0  0  0  0  0  0  0  0  0  0  0
    4.3251    3.6507    6.1359 O   0  0  0  0  0  0  0  0  0  0  0  0
    6.2729    2.3257    6.8821 N   0  0  0  0  0  0  0  0  0  0  0  0
    7.9056    1.7284    4.1536 Cl  0  0  0  0  0  0  0  0  0  0  0  0
    1.0039    1.9031    0.0027 H   0  0  0  0  0  0  0  0  0  0  0  0
   -0.5459    1.8868   -0.8726 H   0  0  0  0  0  0  0  0  0  0  0  0
   -0.5289    1.8773    0.9072 H   0  0  0  0  0  0  0  0  0  0  0  0
   -2.1535    0.2590    0.0783 H   0  0  0  0  0  0  0  0  0  0  0  0
   -1.6190   -1.1991   -0.8137 H   0  0  0  0  0  0  0  0  0  0  0  0
   -3.4774   -2.1371    1.4047 H   0  0  0  0  0  0  0  0  0  0  0  0
   -3.1250   -3.3143    3.5387 H   0  0  0  0  0  0  0  0  0  0  0  0
   -0.9354   -3.1963    4.6592 H   0  0  0  0  0  0  0  0  0  0  0  0
    0.8974   -1.9102    3.6545 H   0  0  0  0  0  0  0  0  0  0  0  0
    2.7032   -0.7031    1.1288 H   0  0  0  0  0  0  0  0  0  0  0  0
    4.4809   -0.4464    1.5097 H   0  0  0  0  0  0  0  0  0  0  0  0
    6.8054    0.0138    2.1657 H   0  0  0  0  0  0  0  0  0  0  0  0
    3.1105    2.3081    4.4986 H   0  0  0  0  0  0  0  0  0  0  0  0
    6.9141    2.7530    7.4714 H   0  0  0  0  0  0  0  0  0  0  0  0
    6.0390    1.3936    7.0142 H   0  0  0  0  0  0  0  0  0  0  0  0
  1  2  1  0  0  0  0
  1 26  1  0  0  0  0
  1 27  1  0  0  0  0
  1 28  1  0  0  0  0
  2  3  1  6  0  0  0
  2 11  1  0  0  0  0
  2  4  1  0  0  0  0
  4  5  1  0  0  0  0
  4 29  1  0  0  0  0
  4 30  1  0  0  0  0
  5 10  2  0  0  0  0
  5  6  1  0  0  0  0
  6  7  2  0  0  0  0
  6 31  1  0  0  0  0
  7  8  1  0  0  0  0
  7 32  1  0  0  0  0
  8  9  2  0  0  0  0
  8 33  1  0  0  0  0
  9 10  1  0  0  0  0
  9 34  1  0  0  0  0
 10 11  1  0  0  0  0
 11 12  1  0  0  0  0
 12 13  1  0  0  0  0
 12 35  1  0  0  0  0
 13 14  2  0  0  0  0
 13 15  1  0  0  0  0
 15 20  2  0  0  0  0
 15 16  1  0  0  0  0
 16 17  2  0  0  0  0
 16 36  1  0  0  0  0
 17 18  1  0  0  0  0
 17 37  1  0  0  0  0
 18 19  2  0  0  0  0
 18 25  1  0  0  0  0
 19 20  1  0  0  0  0
 19 21  1  0  0  0  0
 20 38  1  0  0  0  0
 21 22  2  0  0  0  0
 21 23  2  0  0  0  0
 21 24  1  0  0  0  0
 24 39  1  0  0  0  0
 24 40  1  0  0  0  0
M  END
$$$$
