ZINC19632839
 OpenBabel08292219463D

 44 47  0  0  1  0  0  0  0  0999 V2000
   -1.5477    0.5069   -0.3342 C   0  0  0  0  0  0  0  0  0  0  0  0
   -1.0559   -0.6506    0.4250 N   0  0  0  0  0  0  0  0  0  0  0  0
   -1.4465   -1.9097   -0.2231 C   0  0  0  0  0  0  0  0  0  0  0  0
   -1.0752   -3.0854    0.6870 C   0  0  0  0  0  0  0  0  0  0  0  0
    0.3511   -2.9786    1.0297 N   0  0  0  0  0  0  0  0  0  0  0  0
    0.8460   -1.6981    1.5575 C   0  0  0  0  0  0  0  0  0  0  0  0
    0.3992   -0.5771    0.6131 C   0  0  0  0  0  0  0  0  0  0  0  0
    1.1824   -4.0266    0.8649 C   0  0  0  0  0  0  0  0  0  0  0  0
    0.7563   -5.0773    0.4280 O   0  0  0  0  0  0  0  0  0  0  0  0
    2.4851   -3.9092    1.1845 O   0  0  0  0  0  0  0  0  0  0  0  0
    3.2872   -5.0873    1.0808 C   0  0  2  0  0  0  0  0  0  0  0  0
    2.8560   -5.7702    0.3487 H   0  0  0  0  0  0  0  0  0  0  0  0
    3.3884   -5.7650    2.4246 C   0  0  0  0  0  0  0  0  0  0  0  0
    4.7438   -5.7805    2.7582 C   0  0  0  0  0  0  0  0  0  0  0  0
    5.1280   -6.3264    3.9092 N   0  0  0  0  0  0  0  0  0  0  0  0
    4.2301   -6.8460    4.7221 C   0  0  0  0  0  0  0  0  0  0  0  0
    2.8849   -6.8273    4.3834 C   0  0  0  0  0  0  0  0  0  0  0  0
    2.4962   -6.2858    3.2410 N   0  0  0  0  0  0  0  0  0  0  0  0
    5.4975   -5.1327    1.6639 C   0  0  0  0  0  0  0  0  0  0  0  0
    6.7034   -4.9839    1.6437 O   0  0  0  0  0  0  0  0  0  0  0  0
    4.6568   -4.7320    0.6929 N   0  0  0  0  0  0  0  0  0  0  0  0
    5.0248   -4.0860   -0.4857 C   0  0  0  0  0  0  0  0  0  0  0  0
    4.0428   -3.6634   -1.3750 C   0  0  0  0  0  0  0  0  0  0  0  0
    4.4214   -3.0233   -2.5415 C   0  0  0  0  0  0  0  0  0  0  0  0
    5.7760   -2.8269   -2.7799 C   0  0  0  0  0  0  0  0  0  0  0  0
    6.6975   -3.2733   -1.8519 C   0  0  0  0  0  0  0  0  0  0  0  0
    6.3054   -3.8758   -0.7456 N   0  0  0  0  0  0  0  0  0  0  0  0
    6.3053   -2.0298   -4.2284 Cl  0  0  0  0  0  0  0  0  0  0  0  0
   -1.0694    0.5291   -1.3134 H   0  0  0  0  0  0  0  0  0  0  0  0
   -2.6276    0.4273   -0.4591 H   0  0  0  0  0  0  0  0  0  0  0  0
   -1.3111    1.4232    0.2066 H   0  0  0  0  0  0  0  0  0  0  0  0
   -2.5224   -1.9105   -0.3977 H   0  0  0  0  0  0  0  0  0  0  0  0
   -0.9232   -2.0067   -1.1744 H   0  0  0  0  0  0  0  0  0  0  0  0
   -1.6743   -3.0475    1.5968 H   0  0  0  0  0  0  0  0  0  0  0  0
   -1.2569   -4.0245    0.1644 H   0  0  0  0  0  0  0  0  0  0  0  0
    0.4317   -1.5269    2.5510 H   0  0  0  0  0  0  0  0  0  0  0  0
    1.9345   -1.7201    1.6104 H   0  0  0  0  0  0  0  0  0  0  0  0
    0.8967   -0.6927   -0.3498 H   0  0  0  0  0  0  0  0  0  0  0  0
    0.6617    0.3886    1.0451 H   0  0  0  0  0  0  0  0  0  0  0  0
    4.5431   -7.2888    5.6561 H   0  0  0  0  0  0  0  0  0  0  0  0
    2.1541   -7.2550    5.0537 H   0  0  0  0  0  0  0  0  0  0  0  0
    2.9985   -3.8329   -1.1580 H   0  0  0  0  0  0  0  0  0  0  0  0
    3.6810   -2.6844   -3.2509 H   0  0  0  0  0  0  0  0  0  0  0  0
    7.7516   -3.1234   -2.0326 H   0  0  0  0  0  0  0  0  0  0  0  0
  1  2  1  0  0  0  0
  1 29  1  0  0  0  0
  1 30  1  0  0  0  0
  1 31  1  0  0  0  0
  2  7  1  0  0  0  0
  2  3  1  0  0  0  0
  3  4  1  0  0  0  0
  3 32  1  0  0  0  0
  3 33  1  0  0  0  0
  4  5  1  0  0  0  0
  4 34  1  0  0  0  0
  4 35  1  0  0  0  0
  5  6  1  0  0  0  0
  5  8  1  0  0  0  0
  6  7  1  0  0  0  0
  6 36  1  0  0  0  0
  6 37  1  0  0  0  0
  7 38  1  0  0  0  0
  7 39  1  0  0  0  0
  8  9  2  0  0  0  0
  8 10  1  0  0  0  0
 10 11  1  0  0  0  0
 11 12  1  6  0  0  0
 11 21  1  0  0  0  0
 11 13  1  0  0  0  0
 13 18  2  0  0  0  0
 13 14  1  0  0  0  0
 14 15  2  0  0  0  0
 14 19  1  0  0  0  0
 15 16  1  0  0  0  0
 16 17  2  0  0  0  0
 16 40  1  0  0  0  0
 17 18  1  0  0  0  0
 17 41  1  0  0  0  0
 19 20  2  0  0  0  0
 19 21  1  0  0  0  0
 21 22  1  0  0  0  0
 22 27  2  0  0  0  0
 22 23  1  0  0  0  0
 23 24  2  0  0  0  0
 23 42  1  0  0  0  0
 24 25  1  0  0  0  0
 24 43  1  0  0  0  0
 25 26  2  0  0  0  0
 25 28  1  0  0  0  0
 26 27  1  0  0  0  0
 26 44  1  0  0  0  0
M  END
$$$$
