ZINC02007678
 OpenBabel08292219463D

 58 59  0  0  1  0  0  0  0  0999 V2000
   -0.5275   -0.1805   -0.2989 C   0  0  0  0  0  0  0  0  0  0  0  0
   -0.0088    1.2405   -0.0696 C   0  0  0  0  0  0  0  0  0  0  0  0
   -0.8450    1.9195    1.0169 C   0  0  1  0  0  0  0  0  0  0  0  0
   -0.8300    1.3104    1.9207 H   0  0  0  0  0  0  0  0  0  0  0  0
   -0.2603    3.3000    1.3224 C   0  0  0  0  0  0  0  0  0  0  0  0
    1.2215    3.1591    1.6766 C   0  0  0  0  0  0  0  0  0  0  0  0
    1.8336    4.5478    1.8711 C   0  0  1  0  0  0  0  0  0  0  0  0
    2.9000    4.4497    2.0741 H   0  0  0  0  0  0  0  0  0  0  0  0
    1.6302    5.3772    0.6016 C   0  0  0  0  0  0  0  0  0  0  0  0
    1.3947    4.4725    4.2511 C   0  0  0  0  0  0  0  0  0  0  0  0
    1.6411    6.6056    3.1325 C   0  0  0  0  0  0  0  0  0  0  0  0
   -0.4054    4.1861    0.1121 C   0  0  0  0  0  0  0  0  0  0  0  0
   -1.2457    5.2829    0.1553 C   0  0  0  0  0  0  0  0  0  0  0  0
   -1.3752    6.0984   -0.9533 C   0  0  0  0  0  0  0  0  0  0  0  0
   -0.6724    5.8112   -2.1085 C   0  0  0  0  0  0  0  0  0  0  0  0
    0.1638    4.7114   -2.1534 C   0  0  0  0  0  0  0  0  0  0  0  0
    0.2973    3.8988   -1.0431 C   0  0  0  0  0  0  0  0  0  0  0  0
   -0.9986    3.9122    2.4848 C   0  0  0  0  0  0  0  0  0  0  0  0
   -1.8036    3.1233    3.2851 C   0  0  0  0  0  0  0  0  0  0  0  0
   -2.4771    3.6841    4.3542 C   0  0  0  0  0  0  0  0  0  0  0  0
   -2.3538    5.0356    4.6167 C   0  0  0  0  0  0  0  0  0  0  0  0
   -1.5528    5.8255    3.8132 C   0  0  0  0  0  0  0  0  0  0  0  0
   -0.8753    5.2638    2.7473 C   0  0  0  0  0  0  0  0  0  0  0  0
   -2.2135    2.0652    0.5541 O   0  0  0  0  0  0  0  0  0  0  0  0
   -3.0578    1.0563    0.8209 C   0  0  0  0  0  0  0  0  0  0  0  0
   -2.6662    0.0837    1.4213 O   0  0  0  0  0  0  0  0  0  0  0  0
   -4.4940    1.1368    0.3716 C   0  0  0  0  0  0  0  0  0  0  0  0
   -1.5699   -0.1402   -0.6148 H   0  0  0  0  0  0  0  0  0  0  0  0
    0.0683   -0.6643   -1.0730 H   0  0  0  0  0  0  0  0  0  0  0  0
   -0.4504   -0.7494    0.6276 H   0  0  0  0  0  0  0  0  0  0  0  0
    1.0337    1.2001    0.2463 H   0  0  0  0  0  0  0  0  0  0  0  0
   -0.0859    1.8094   -0.9961 H   0  0  0  0  0  0  0  0  0  0  0  0
    1.3219    2.5855    2.5980 H   0  0  0  0  0  0  0  0  0  0  0  0
    1.7407    2.6431    0.8689 H   0  0  0  0  0  0  0  0  0  0  0  0
    2.2896    6.2448    0.6249 H   0  0  0  0  0  0  0  0  0  0  0  0
    1.8626    4.7677   -0.2717 H   0  0  0  0  0  0  0  0  0  0  0  0
    0.5937    5.7099    0.5471 H   0  0  0  0  0  0  0  0  0  0  0  0
    2.4581    4.4636    4.4900 H   0  0  0  0  0  0  0  0  0  0  0  0
    0.8445    4.9526    5.0604 H   0  0  0  0  0  0  0  0  0  0  0  0
    1.0412    3.4486    4.1289 H   0  0  0  0  0  0  0  0  0  0  0  0
    1.4062    7.1531    2.2196 H   0  0  0  0  0  0  0  0  0  0  0  0
    1.1409    7.0777    3.9781 H   0  0  0  0  0  0  0  0  0  0  0  0
    2.7187    6.6164    3.2955 H   0  0  0  0  0  0  0  0  0  0  0  0
   -1.7982    5.5047    1.0564 H   0  0  0  0  0  0  0  0  0  0  0  0
   -2.0288    6.9575   -0.9183 H   0  0  0  0  0  0  0  0  0  0  0  0
   -0.7770    6.4459   -2.9760 H   0  0  0  0  0  0  0  0  0  0  0  0
    0.7126    4.4868   -3.0560 H   0  0  0  0  0  0  0  0  0  0  0  0
    0.9504    3.0394   -1.0783 H   0  0  0  0  0  0  0  0  0  0  0  0
   -1.9035    2.0682    3.0773 H   0  0  0  0  0  0  0  0  0  0  0  0
   -3.1031    3.0670    4.9817 H   0  0  0  0  0  0  0  0  0  0  0  0
   -2.8834    5.4746    5.4493 H   0  0  0  0  0  0  0  0  0  0  0  0
   -1.4568    6.8816    4.0181 H   0  0  0  0  0  0  0  0  0  0  0  0
   -0.2498    5.8810    2.1193 H   0  0  0  0  0  0  0  0  0  0  0  0
   -4.5869    0.7089   -0.6266 H   0  0  0  0  0  0  0  0  0  0  0  0
   -5.1235    0.5800    1.0657 H   0  0  0  0  0  0  0  0  0  0  0  0
   -4.8103    2.1797    0.3508 H   0  0  0  0  0  0  0  0  0  0  0  0
    1.1510    5.2177    2.9981 N   0  3  0  0  0  0  0  0  0  0  0  0
    0.1413    5.2370    2.8126 H   0  0  0  0  0  0  0  0  0  0  0  0
  1  2  1  0  0  0  0
  1 28  1  0  0  0  0
  1 29  1  0  0  0  0
  1 30  1  0  0  0  0
  2  3  1  0  0  0  0
  2 31  1  0  0  0  0
  2 32  1  0  0  0  0
  3  4  1  1  0  0  0
  3  5  1  0  0  0  0
  3 24  1  0  0  0  0
  5  6  1  0  0  0  0
  5 12  1  0  0  0  0
  5 18  1  0  0  0  0
  6  7  1  0  0  0  0
  6 33  1  0  0  0  0
  6 34  1  0  0  0  0
  7  8  1  1  0  0  0
  7  9  1  0  0  0  0
  7 57  1  0  0  0  0
  9 35  1  0  0  0  0
  9 36  1  0  0  0  0
  9 37  1  0  0  0  0
 10 38  1  0  0  0  0
 10 39  1  0  0  0  0
 10 40  1  0  0  0  0
 10 57  1  0  0  0  0
 11 41  1  0  0  0  0
 11 42  1  0  0  0  0
 11 43  1  0  0  0  0
 11 57  1  0  0  0  0
 12 17  2  0  0  0  0
 12 13  1  0  0  0  0
 13 14  2  0  0  0  0
 13 44  1  0  0  0  0
 14 15  1  0  0  0  0
 14 45  1  0  0  0  0
 15 16  2  0  0  0  0
 15 46  1  0  0  0  0
 16 17  1  0  0  0  0
 16 47  1  0  0  0  0
 17 48  1  0  0  0  0
 18 23  2  0  0  0  0
 18 19  1  0  0  0  0
 19 20  2  0  0  0  0
 19 49  1  0  0  0  0
 20 21  1  0  0  0  0
 20 50  1  0  0  0  0
 21 22  2  0  0  0  0
 21 51  1  0  0  0  0
 22 23  1  0  0  0  0
 22 52  1  0  0  0  0
 23 53  1  0  0  0  0
 24 25  1  0  0  0  0
 25 26  2  0  0  0  0
 25 27  1  0  0  0  0
 27 54  1  0  0  0  0
 27 55  1  0  0  0  0
 27 56  1  0  0  0  0
 57 58  1  0  0  0  0
M  CHG  1  57   1
M  END
$$$$
