ZINC01530861
 OpenBabel08292219463D

 50 51  0  0  1  0  0  0  0  0999 V2000
    0.0823    1.4510   -0.2163 C   0  0  0  0  0  0  0  0  0  0  0  0
    0.0237   -0.0664   -0.0289 C   0  0  0  0  0  0  0  0  0  0  0  0
   -1.3740   -0.4850    0.1418 N   0  3  0  0  0  0  0  0  0  0  0  0
   -2.1159   -0.2330   -1.1009 C   0  0  0  0  0  0  0  0  0  0  0  0
   -3.5996   -0.5332   -0.8788 C   0  0  0  0  0  0  0  0  0  0  0  0
   -1.4206   -1.9189    0.4577 C   0  0  0  0  0  0  0  0  0  0  0  0
   -0.7562   -2.1642    1.8139 C   0  0  0  0  0  0  0  0  0  0  0  0
   -0.8047   -3.6576    2.1429 C   0  0  0  0  0  0  0  0  0  0  0  0
   -0.1402   -3.9029    3.4991 C   0  0  2  0  0  0  0  0  0  0  0  0
    0.8696   -3.4928    3.4883 H   0  0  0  0  0  0  0  0  0  0  0  0
   -0.0770   -5.4071    3.7714 C   0  0  0  0  0  0  0  0  0  0  0  0
   -0.9219   -3.2486    4.5513 N   0  0  0  0  0  0  0  0  0  0  0  0
   -0.3101   -2.8735    5.7376 C   0  0  0  0  0  0  0  0  0  0  0  0
    1.0409   -3.1017    5.9489 C   0  0  0  0  0  0  0  0  0  0  0  0
    1.6245   -2.7142    7.1468 C   0  0  0  0  0  0  0  0  0  0  0  0
    0.9324   -2.1317    8.0984 N   0  0  0  0  0  0  0  0  0  0  0  0
   -0.3748   -1.8810    7.9634 C   0  0  0  0  0  3  0  0  0  0  0  0
   -1.0437   -2.2401    6.7687 C   0  0  0  0  0  0  0  0  0  0  0  0
   -2.4124   -1.9700    6.6303 C   0  0  0  0  0  0  0  0  0  0  0  0
   -3.0847   -1.3591    7.6453 C   0  0  0  0  0  0  0  0  0  0  0  0
   -2.4283   -0.9984    8.8210 C   0  0  0  0  0  0  0  0  0  0  0  0
   -1.1016   -1.2576    8.9919 C   0  0  0  0  0  0  0  0  0  0  0  0
   -3.3181   -0.2204   10.0925 Cl  0  0  0  0  0  0  0  0  0  0  0  0
    1.1228    1.7753   -0.2311 H   0  0  0  0  0  0  0  0  0  0  0  0
   -0.3953    1.7194   -1.1586 H   0  0  0  0  0  0  0  0  0  0  0  0
   -0.4388    1.9392    0.6072 H   0  0  0  0  0  0  0  0  0  0  0  0
    0.4455   -0.5574   -0.9059 H   0  0  0  0  0  0  0  0  0  0  0  0
    0.5971   -0.3457    0.8550 H   0  0  0  0  0  0  0  0  0  0  0  0
   -1.9958    0.8109   -1.3904 H   0  0  0  0  0  0  0  0  0  0  0  0
   -1.7294   -0.8761   -1.8915 H   0  0  0  0  0  0  0  0  0  0  0  0
   -4.1656   -0.2421   -1.7637 H   0  0  0  0  0  0  0  0  0  0  0  0
   -3.7314   -1.6000   -0.6980 H   0  0  0  0  0  0  0  0  0  0  0  0
   -3.9590    0.0285   -0.0166 H   0  0  0  0  0  0  0  0  0  0  0  0
   -2.4588   -2.2488    0.4968 H   0  0  0  0  0  0  0  0  0  0  0  0
   -0.8905   -2.4782   -0.3132 H   0  0  0  0  0  0  0  0  0  0  0  0
    0.2820   -1.8343    1.7748 H   0  0  0  0  0  0  0  0  0  0  0  0
   -1.2864   -1.6049    2.5847 H   0  0  0  0  0  0  0  0  0  0  0  0
   -1.8428   -3.9875    2.1820 H   0  0  0  0  0  0  0  0  0  0  0  0
   -0.2745   -4.2169    1.3720 H   0  0  0  0  0  0  0  0  0  0  0  0
   -1.0868   -5.8172    3.7821 H   0  0  0  0  0  0  0  0  0  0  0  0
    0.5046   -5.8940    2.9885 H   0  0  0  0  0  0  0  0  0  0  0  0
    0.3964   -5.5819    4.7375 H   0  0  0  0  0  0  0  0  0  0  0  0
   -1.8674   -3.0779    4.4180 H   0  0  0  0  0  0  0  0  0  0  0  0
    1.6364   -3.5792    5.1848 H   0  0  0  0  0  0  0  0  0  0  0  0
    2.6777   -2.8972    7.3008 H   0  0  0  0  0  0  0  0  0  0  0  0
   -2.9309   -2.2445    5.7235 H   0  0  0  0  0  0  0  0  0  0  0  0
   -4.1391   -1.1514    7.5378 H   0  0  0  0  0  0  0  0  0  0  0  0
   -0.6074   -0.9726    9.9090 H   0  0  0  0  0  0  0  0  0  0  0  0
   -1.7925    0.0392    0.8955 H   0  0  0  0  0  0  0  0  0  0  0  0
    1.3801   -1.8771    8.9203 H   0  0  0  0  0  0  0  0  0  0  0  0
  1  2  1  0  0  0  0
  1 24  1  0  0  0  0
  1 25  1  0  0  0  0
  1 26  1  0  0  0  0
  2  3  1  0  0  0  0
  2 27  1  0  0  0  0
  2 28  1  0  0  0  0
  3  4  1  0  0  0  0
  3  6  1  0  0  0  0
  3 49  1  0  0  0  0
  4  5  1  0  0  0  0
  4 29  1  0  0  0  0
  4 30  1  0  0  0  0
  5 31  1  0  0  0  0
  5 32  1  0  0  0  0
  5 33  1  0  0  0  0
  6  7  1  0  0  0  0
  6 34  1  0  0  0  0
  6 35  1  0  0  0  0
  7  8  1  0  0  0  0
  7 36  1  0  0  0  0
  7 37  1  0  0  0  0
  8  9  1  0  0  0  0
  8 38  1  0  0  0  0
  8 39  1  0  0  0  0
  9 10  1  6  0  0  0
  9 11  1  0  0  0  0
  9 12  1  0  0  0  0
 11 40  1  0  0  0  0
 11 41  1  0  0  0  0
 11 42  1  0  0  0  0
 12 13  1  0  0  0  0
 12 43  1  0  0  0  0
 13 18  2  0  0  0  0
 13 14  1  0  0  0  0
 14 15  2  0  0  0  0
 14 44  1  0  0  0  0
 15 16  1  0  0  0  0
 15 45  1  0  0  0  0
 16 17  1  0  0  0  0
 16 50  1  0  0  0  0
 17 22  1  0  0  0  0
 17 18  1  0  0  0  0
 18 19  1  0  0  0  0
 19 20  2  0  0  0  0
 19 46  1  0  0  0  0
 20 21  1  0  0  0  0
 20 47  1  0  0  0  0
 21 22  2  0  0  0  0
 21 23  1  0  0  0  0
 22 48  1  0  0  0  0
M  CHG  1   3   1
M  END
$$$$
