ZINC00001863
 OpenBabel08292219463D

 36 38  0  0  0  0  0  0  0  0999 V2000
   -0.0863    1.2480   -0.1668 C   0  0  0  0  0  0  0  0  0  0  0  0
    0.4312    0.8062    1.0377 C   0  0  0  0  0  0  0  0  0  0  0  0
    1.6541    0.1681    1.0739 C   0  0  0  0  0  0  0  0  0  0  0  0
    2.3687   -0.0311   -0.1072 C   0  0  0  0  0  0  0  0  0  0  0  0
    1.8417    0.4165   -1.3184 C   0  0  0  0  0  0  0  0  0  0  0  0
    0.6178    1.0533   -1.3417 C   0  0  0  0  0  0  0  0  0  0  0  0
    3.6824   -0.7151   -0.0752 C   0  0  0  0  0  0  0  0  0  0  0  0
    4.0067   -1.8353    0.6623 C   0  0  0  0  0  0  0  0  0  0  0  0
    5.3006   -2.1126    0.3899 O   0  0  0  0  0  0  0  0  0  0  0  0
    5.7460   -1.1961   -0.4800 C   0  0  0  0  0  0  0  0  0  0  0  0
    4.7872   -0.3640   -0.7664 N   0  0  0  0  0  0  0  0  0  0  0  0
    7.1418   -1.1411   -1.0455 C   0  0  0  0  0  0  0  0  0  0  0  0
    8.0255   -0.2811   -0.1397 C   0  0  0  0  0  0  0  0  0  0  0  0
    9.4213   -0.2262   -0.7052 C   0  0  0  0  0  0  0  0  0  0  0  0
    9.6848   -0.8199   -1.7370 O   0  0  0  0  0  0  0  0  0  0  0  0
   10.2870    0.4119   -0.1309 O   0  0  0  0  0  1  0  0  0  0  0  0
    3.1156   -2.5831    1.5705 C   0  0  0  0  0  0  0  0  0  0  0  0
    1.8319   -2.9438    1.1542 C   0  0  0  0  0  0  0  0  0  0  0  0
    1.0045   -3.6426    2.0083 C   0  0  0  0  0  0  0  0  0  0  0  0
    1.4432   -3.9859    3.2750 C   0  0  0  0  0  0  0  0  0  0  0  0
    2.7134   -3.6315    3.6942 C   0  0  0  0  0  0  0  0  0  0  0  0
    3.5540   -2.9384    2.8483 C   0  0  0  0  0  0  0  0  0  0  0  0
   -1.0459    1.7429   -0.1906 H   0  0  0  0  0  0  0  0  0  0  0  0
   -0.1229    0.9614    1.9517 H   0  0  0  0  0  0  0  0  0  0  0  0
    2.0573   -0.1760    2.0148 H   0  0  0  0  0  0  0  0  0  0  0  0
    2.3906    0.2654   -2.2361 H   0  0  0  0  0  0  0  0  0  0  0  0
    0.2087    1.4004   -2.2790 H   0  0  0  0  0  0  0  0  0  0  0  0
    7.5512   -2.1498   -1.1010 H   0  0  0  0  0  0  0  0  0  0  0  0
    7.1123   -0.7055   -2.0442 H   0  0  0  0  0  0  0  0  0  0  0  0
    7.6160    0.7275   -0.0842 H   0  0  0  0  0  0  0  0  0  0  0  0
    8.0550   -0.7168    0.8590 H   0  0  0  0  0  0  0  0  0  0  0  0
    1.4880   -2.6758    0.1661 H   0  0  0  0  0  0  0  0  0  0  0  0
    0.0118   -3.9221    1.6878 H   0  0  0  0  0  0  0  0  0  0  0  0
    0.7909   -4.5328    3.9397 H   0  0  0  0  0  0  0  0  0  0  0  0
    3.0490   -3.9021    4.6844 H   0  0  0  0  0  0  0  0  0  0  0  0
    4.5469   -2.6667    3.1750 H   0  0  0  0  0  0  0  0  0  0  0  0
  1  6  2  0  0  0  0
  1  2  1  0  0  0  0
  1 23  1  0  0  0  0
  2  3  2  0  0  0  0
  2 24  1  0  0  0  0
  3  4  1  0  0  0  0
  3 25  1  0  0  0  0
  4  5  2  0  0  0  0
  4  7  1  0  0  0  0
  5  6  1  0  0  0  0
  5 26  1  0  0  0  0
  6 27  1  0  0  0  0
  7 11  1  0  0  0  0
  7  8  2  0  0  0  0
  8  9  1  0  0  0  0
  8 17  1  0  0  0  0
  9 10  1  0  0  0  0
 10 11  2  0  0  0  0
 10 12  1  0  0  0  0
 12 13  1  0  0  0  0
 12 28  1  0  0  0  0
 12 29  1  0  0  0  0
 13 14  1  0  0  0  0
 13 30  1  0  0  0  0
 13 31  1  0  0  0  0
 14 15  2  0  0  0  0
 14 16  1  0  0  0  0
 17 22  2  0  0  0  0
 17 18  1  0  0  0  0
 18 19  2  0  0  0  0
 18 32  1  0  0  0  0
 19 20  1  0  0  0  0
 19 33  1  0  0  0  0
 20 21  2  0  0  0  0
 20 34  1  0  0  0  0
 21 22  1  0  0  0  0
 21 35  1  0  0  0  0
 22 36  1  0  0  0  0
M  END
$$$$
