ZINC03798064
 OpenBabel08292219463D

 31 33  0  0  1  0  0  0  0  0999 V2000
   -0.0164    1.3592    0.0095 C   0  0  0  0  0  0  0  0  0  0  0  0
    1.2005    1.8201    0.0004 N   0  0  0  0  0  0  0  0  0  0  0  0
    2.0747    0.7850   -0.0135 C   0  0  0  0  0  0  0  0  0  0  0  0
    3.4758    0.6753   -0.0279 C   0  0  0  0  0  0  0  0  0  0  0  0
    4.0162   -0.5385   -0.0400 N   0  0  0  0  0  0  0  0  0  0  0  0
    3.2613   -1.6237   -0.0386 C   0  0  0  0  0  0  0  0  0  0  0  0
    1.9451   -1.5686   -0.0258 N   0  0  0  0  0  0  0  0  0  0  0  0
    1.3163   -0.3974   -0.0126 C   0  0  0  0  0  0  0  0  0  0  0  0
    0.0021   -0.0041    0.0020 N   0  0  0  0  0  0  0  0  0  0  0  0
   -1.1670   -0.8869    0.0084 C   0  0  1  0  0  0  0  0  0  0  0  0
   -0.9746   -1.7745   -0.5943 H   0  0  0  0  0  0  0  0  0  0  0  0
   -1.5302   -1.2878    1.4554 C   0  0  0  0  0  0  0  0  0  0  0  0
   -3.0750   -1.3163    1.4606 C   0  0  1  0  0  0  0  0  0  0  0  0
   -3.4681   -0.5878    2.1697 H   0  0  0  0  0  0  0  0  0  0  0  0
   -3.4624   -0.9293    0.0161 C   0  0  2  0  0  0  0  0  0  0  0  0
   -3.6240   -1.8235   -0.5860 H   0  0  0  0  0  0  0  0  0  0  0  0
   -2.3291   -0.1859   -0.4855 O   0  0  0  0  0  0  0  0  0  0  0  0
   -4.7182   -0.0553    0.0175 C   0  0  0  0  0  0  0  0  0  0  0  0
   -5.1260    0.1947   -1.3291 O   0  0  0  0  0  0  0  0  0  0  0  0
   -3.5506   -2.6266    1.7754 O   0  0  0  0  0  0  0  0  0  0  0  0
    4.0328   -3.1787   -0.0548 Cl  0  0  0  0  0  0  0  0  0  0  0  0
    4.2743    1.8056   -0.0299 N   0  0  0  0  0  0  0  0  0  0  0  0
   -0.9091    1.9668    0.0254 H   0  0  0  0  0  0  0  0  0  0  0  0
   -1.1292   -2.2737    1.6907 H   0  0  0  0  0  0  0  0  0  0  0  0
   -1.1596   -0.5452    2.1620 H   0  0  0  0  0  0  0  0  0  0  0  0
   -5.5183   -0.5696    0.5499 H   0  0  0  0  0  0  0  0  0  0  0  0
   -4.5017    0.8911    0.5131 H   0  0  0  0  0  0  0  0  0  0  0  0
   -5.9182    0.7441   -1.4046 H   0  0  0  0  0  0  0  0  0  0  0  0
   -3.2842   -2.9421    2.6498 H   0  0  0  0  0  0  0  0  0  0  0  0
    3.8680    2.6864   -0.0214 H   0  0  0  0  0  0  0  0  0  0  0  0
    5.2402    1.7170   -0.0399 H   0  0  0  0  0  0  0  0  0  0  0  0
  1  9  1  0  0  0  0
  1  2  2  0  0  0  0
  1 23  1  0  0  0  0
  2  3  1  0  0  0  0
  3  8  2  0  0  0  0
  3  4  1  0  0  0  0
  4  5  2  0  0  0  0
  4 22  1  0  0  0  0
  5  6  1  0  0  0  0
  6  7  2  0  0  0  0
  6 21  1  0  0  0  0
  7  8  1  0  0  0  0
  8  9  1  0  0  0  0
  9 10  1  0  0  0  0
 10 11  1  6  0  0  0
 10 17  1  0  0  0  0
 10 12  1  0  0  0  0
 12 13  1  0  0  0  0
 12 24  1  0  0  0  0
 12 25  1  0  0  0  0
 13 14  1  1  0  0  0
 13 15  1  0  0  0  0
 13 20  1  0  0  0  0
 15 16  1  6  0  0  0
 15 17  1  0  0  0  0
 15 18  1  0  0  0  0
 18 19  1  0  0  0  0
 18 26  1  0  0  0  0
 18 27  1  0  0  0  0
 19 28  1  0  0  0  0
 20 29  1  0  0  0  0
 22 30  1  0  0  0  0
 22 31  1  0  0  0  0
M  END
$$$$
