ZINC04212953
 OpenBabel08292219463D

 75 77  0  0  1  0  0  0  0  0999 V2000
   -6.0104    2.3917   -3.0628 C   0  0  0  0  0  0  0  0  0  0  0  0
   -6.1688    3.0413   -1.6866 C   0  0  1  0  0  0  0  0  0  0  0  0
   -5.9842    4.1127   -1.7640 H   0  0  0  0  0  0  0  0  0  0  0  0
   -7.5874    2.7960   -1.1619 C   0  0  0  0  0  0  0  0  0  0  0  0
   -7.6981    3.3233    0.2696 C   0  0  0  0  0  0  0  0  0  0  0  0
   -6.7578    2.5381    1.1856 C   0  0  1  0  0  0  0  0  0  0  0  0
   -6.9893    1.4750    1.1190 H   0  0  0  0  0  0  0  0  0  0  0  0
   -5.3115    2.7691    0.7500 C   0  0  0  0  0  0  0  0  0  0  0  0
   -5.1844    2.4249   -0.7175 C   0  0  0  0  0  0  0  0  0  0  0  0
   -4.2357    1.5979   -1.1436 C   0  0  0  0  0  0  0  0  0  0  0  0
   -3.3738    0.9048   -0.1734 C   0  0  0  0  0  0  0  0  0  0  0  0
   -2.3513    0.1708   -0.5989 C   0  0  0  0  0  0  0  0  0  0  0  0
   -2.0220    0.0099   -2.0761 C   0  0  0  0  0  0  0  0  0  0  0  0
   -0.5444    0.2979   -2.3349 C   0  0  0  0  0  0  0  0  0  0  0  0
    0.3554   -0.4655   -1.3468 C   0  0  0  0  0  0  0  0  0  0  0  0
   -0.0133   -0.0122    0.0465 C   0  0  1  0  0  0  0  0  0  0  0  0
   -1.4389   -0.5580    0.3424 C   0  0  1  0  0  0  0  0  0  0  0  0
   -1.4851   -1.6347    0.1789 H   0  0  0  0  0  0  0  0  0  0  0  0
   -1.5817   -0.2293    1.8302 C   0  0  0  0  0  0  0  0  0  0  0  0
   -0.1882   -0.6149    2.4023 C   0  0  0  0  0  0  0  0  0  0  0  0
    0.8078   -0.5324    1.2161 C   0  0  2  0  0  0  0  0  0  0  0  0
    1.2078   -1.5204    0.9882 H   0  0  0  0  0  0  0  0  0  0  0  0
    1.9449    0.4384    1.5407 C   0  0  2  0  0  0  0  0  0  0  0  0
    1.5286    1.4110    1.8031 H   0  0  0  0  0  0  0  0  0  0  0  0
    2.8541    0.5858    0.3189 C   0  0  0  0  0  0  0  0  0  0  0  0
    2.7452   -0.0951    2.7009 C   0  0  0  0  0  0  0  0  0  0  0  0
    2.8463    0.6047    3.8037 C   0  0  0  0  0  0  0  0  0  0  0  0
    3.6466    0.0712    4.9639 C   0  0  2  0  0  0  0  0  0  0  0  0
    4.0629   -0.9013    4.7014 H   0  0  0  0  0  0  0  0  0  0  0  0
    2.7375   -0.0761    6.1856 C   0  0  0  0  0  0  0  0  0  0  0  0
    4.7837    1.0420    5.2884 C   0  0  0  0  0  0  0  0  0  0  0  0
    5.5962    0.5004    6.4663 C   0  0  0  0  0  0  0  0  0  0  0  0
    5.6928    1.1894    4.0666 C   0  0  0  0  0  0  0  0  0  0  0  0
   -0.0413    1.5170    0.0897 C   0  0  0  0  0  0  0  0  0  0  0  0
   -6.9276    2.9793    2.5341 O   0  0  0  0  0  0  0  0  0  0  0  0
   -6.2021    1.3216   -2.9837 H   0  0  0  0  0  0  0  0  0  0  0  0
   -6.7207    2.8376   -3.7589 H   0  0  0  0  0  0  0  0  0  0  0  0
   -4.9955    2.5532   -3.4261 H   0  0  0  0  0  0  0  0  0  0  0  0
   -8.3048    3.3155   -1.7971 H   0  0  0  0  0  0  0  0  0  0  0  0
   -7.7994    1.7268   -1.1731 H   0  0  0  0  0  0  0  0  0  0  0  0
   -7.4254    4.3784    0.2892 H   0  0  0  0  0  0  0  0  0  0  0  0
   -8.7240    3.2087    0.6196 H   0  0  0  0  0  0  0  0  0  0  0  0
   -4.6481    2.1316    1.3344 H   0  0  0  0  0  0  0  0  0  0  0  0
   -5.0483    3.8155    0.9047 H   0  0  0  0  0  0  0  0  0  0  0  0
   -4.0974    1.4344   -2.2021 H   0  0  0  0  0  0  0  0  0  0  0  0
   -3.5723    0.9927    0.8845 H   0  0  0  0  0  0  0  0  0  0  0  0
   -2.2482   -1.0105   -2.3853 H   0  0  0  0  0  0  0  0  0  0  0  0
   -2.6294    0.7039   -2.6569 H   0  0  0  0  0  0  0  0  0  0  0  0
   -0.2955   -0.0082   -3.3510 H   0  0  0  0  0  0  0  0  0  0  0  0
   -0.3682    1.3688   -2.2335 H   0  0  0  0  0  0  0  0  0  0  0  0
    1.3967   -0.2178   -1.5530 H   0  0  0  0  0  0  0  0  0  0  0  0
    0.2051   -1.5412   -1.4377 H   0  0  0  0  0  0  0  0  0  0  0  0
   -2.3667   -0.8330    2.2856 H   0  0  0  0  0  0  0  0  0  0  0  0
   -1.7790    0.8327    1.9769 H   0  0  0  0  0  0  0  0  0  0  0  0
   -0.2143   -1.6296    2.7993 H   0  0  0  0  0  0  0  0  0  0  0  0
    0.1024    0.0863    3.1846 H   0  0  0  0  0  0  0  0  0  0  0  0
    2.2753    0.9716   -0.5203 H   0  0  0  0  0  0  0  0  0  0  0  0
    3.6642    1.2774    0.5501 H   0  0  0  0  0  0  0  0  0  0  0  0
    3.2704   -0.3868    0.0564 H   0  0  0  0  0  0  0  0  0  0  0  0
    3.2353   -1.0543    2.6231 H   0  0  0  0  0  0  0  0  0  0  0  0
    2.3563    1.5640    3.8814 H   0  0  0  0  0  0  0  0  0  0  0  0
    3.3163   -0.4620    7.0248 H   0  0  0  0  0  0  0  0  0  0  0  0
    2.3211    0.8964    6.4481 H   0  0  0  0  0  0  0  0  0  0  0  0
    1.9274   -0.7678    5.9544 H   0  0  0  0  0  0  0  0  0  0  0  0
    4.3674    2.0146    5.5509 H   0  0  0  0  0  0  0  0  0  0  0  0
    6.0125   -0.4722    6.2038 H   0  0  0  0  0  0  0  0  0  0  0  0
    6.4063    1.1920    6.6975 H   0  0  0  0  0  0  0  0  0  0  0  0
    4.9485    0.3954    7.3367 H   0  0  0  0  0  0  0  0  0  0  0  0
    5.1140    1.5752    3.2275 H   0  0  0  0  0  0  0  0  0  0  0  0
    6.5029    1.8810    4.2978 H   0  0  0  0  0  0  0  0  0  0  0  0
    6.1092    0.2168    3.8042 H   0  0  0  0  0  0  0  0  0  0  0  0
    0.9504    1.9052   -0.1426 H   0  0  0  0  0  0  0  0  0  0  0  0
   -0.7576    1.8880   -0.6434 H   0  0  0  0  0  0  0  0  0  0  0  0
   -0.3367    1.8470    1.0856 H   0  0  0  0  0  0  0  0  0  0  0  0
   -6.3612    2.5232    3.1715 H   0  0  0  0  0  0  0  0  0  0  0  0
  1  2  1  0  0  0  0
  1 36  1  0  0  0  0
  1 37  1  0  0  0  0
  1 38  1  0  0  0  0
  2  3  1  6  0  0  0
  2  9  1  0  0  0  0
  2  4  1  0  0  0  0
  4  5  1  0  0  0  0
  4 39  1  0  0  0  0
  4 40  1  0  0  0  0
  5  6  1  0  0  0  0
  5 41  1  0  0  0  0
  5 42  1  0  0  0  0
  6  7  1  6  0  0  0
  6  8  1  0  0  0  0
  6 35  1  0  0  0  0
  8  9  1  0  0  0  0
  8 43  1  0  0  0  0
  8 44  1  0  0  0  0
  9 10  2  0  0  0  0
 10 11  1  0  0  0  0
 10 45  1  0  0  0  0
 11 12  2  0  0  0  0
 11 46  1  0  0  0  0
 12 17  1  0  0  0  0
 12 13  1  0  0  0  0
 13 14  1  0  0  0  0
 13 47  1  0  0  0  0
 13 48  1  0  0  0  0
 14 15  1  0  0  0  0
 14 49  1  0  0  0  0
 14 50  1  0  0  0  0
 15 16  1  0  0  0  0
 15 51  1  0  0  0  0
 15 52  1  0  0  0  0
 16 21  1  0  0  0  0
 16 17  1  0  0  0  0
 16 34  1  1  0  0  0
 17 18  1  6  0  0  0
 17 19  1  0  0  0  0
 19 20  1  0  0  0  0
 19 53  1  0  0  0  0
 19 54  1  0  0  0  0
 20 21  1  0  0  0  0
 20 55  1  0  0  0  0
 20 56  1  0  0  0  0
 21 22  1  6  0  0  0
 21 23  1  0  0  0  0
 23 24  1  1  0  0  0
 23 25  1  0  0  0  0
 23 26  1  0  0  0  0
 25 57  1  0  0  0  0
 25 58  1  0  0  0  0
 25 59  1  0  0  0  0
 26 27  2  0  0  0  0
 26 60  1  0  0  0  0
 27 28  1  0  0  0  0
 27 61  1  0  0  0  0
 28 29  1  6  0  0  0
 28 30  1  0  0  0  0
 28 31  1  0  0  0  0
 30 62  1  0  0  0  0
 30 63  1  0  0  0  0
 30 64  1  0  0  0  0
 31 32  1  0  0  0  0
 31 33  1  0  0  0  0
 31 65  1  0  0  0  0
 32 66  1  0  0  0  0
 32 67  1  0  0  0  0
 32 68  1  0  0  0  0
 33 69  1  0  0  0  0
 33 70  1  0  0  0  0
 33 71  1  0  0  0  0
 34 72  1  0  0  0  0
 34 73  1  0  0  0  0
 34 74  1  0  0  0  0
 35 75  1  0  0  0  0
M  END
$$$$
