ZINC36388590
 OpenBabel08292219463D

 64 67  0  0  1  0  0  0  0  0999 V2000
   -1.3837    1.4670    0.0754 C   0  0  0  0  0  0  0  0  0  0  0  0
   -1.1566   -0.0454    0.0304 C   0  0  0  0  0  0  0  0  0  0  0  0
   -0.1268   -0.3677   -1.0215 C   0  0  0  0  0  0  0  0  0  0  0  0
    0.3742    0.5211   -1.6688 O   0  0  0  0  0  0  0  0  0  0  0  0
    0.2340   -1.6421   -1.2393 O   0  0  0  0  0  0  0  0  0  0  0  0
    1.1325   -1.8888   -2.3377 C   0  0  2  0  0  0  0  0  0  0  0  0
    0.4489   -1.4352   -3.6441 C   0  0  2  0  0  0  0  0  0  0  0  0
   -0.6136   -1.2488   -3.4504 H   0  0  0  0  0  0  0  0  0  0  0  0
    0.5991   -2.5717   -4.6684 C   0  0  0  0  0  0  0  0  0  0  0  0
    1.3548   -3.7199   -3.9720 C   0  0  2  0  0  0  0  0  0  0  0  0
    0.7675   -4.6696   -4.1209 H   0  0  0  0  0  0  0  0  0  0  0  0
    1.3397   -3.3934   -2.4827 C   0  0  1  0  0  0  0  0  0  0  0  0
    2.4203   -4.0157   -1.6508 C   0  0  0  0  0  0  0  0  0  0  0  0
    3.7744   -4.2084   -2.3309 C   0  0  1  0  0  0  0  0  0  0  0  0
    4.3194   -4.9282   -1.6821 H   0  0  0  0  0  0  0  0  0  0  0  0
    3.5936   -4.8290   -3.7045 C   0  0  1  0  0  0  0  0  0  0  0  0
    2.7197   -3.9332   -4.5823 C   0  0  2  0  0  0  0  0  0  0  0  0
    2.5590   -4.5055   -5.5228 H   0  0  0  0  0  0  0  0  0  0  0  0
    3.4618   -2.6656   -4.9621 C   0  0  0  0  0  0  0  0  0  0  0  0
    4.6017   -3.0250   -5.9162 C   0  0  1  0  0  0  0  0  0  0  0  0
    5.3952   -2.2820   -5.8225 H   0  0  0  0  0  0  0  0  0  0  0  0
    5.1752   -4.3864   -5.6342 C   0  0  0  0  0  0  0  0  0  0  0  0
    6.0620   -4.8484   -6.5385 C   0  0  0  0  0  0  0  0  0  0  0  0
    6.6175   -6.2074   -6.3710 C   0  0  0  0  0  0  0  0  0  0  0  0
    7.6718   -6.5448   -6.8940 O   0  0  0  0  0  0  0  0  0  0  0  0
    5.8159   -7.1630   -5.5706 C   0  0  0  0  0  0  0  0  0  0  0  0
    4.9524   -6.6808   -4.6696 C   0  0  0  0  0  0  0  0  0  0  0  0
    4.8639   -5.1986   -4.4261 C   0  0  2  0  0  0  0  0  0  0  0  0
    6.0384   -4.9369   -3.4831 C   0  0  0  0  0  0  0  0  0  0  0  0
    4.1180   -3.0051   -7.2313 F   0  0  0  0  0  0  0  0  0  0  0  0
    2.8645   -6.0332   -3.5264 F   0  0  0  0  0  0  0  0  0  0  0  0
    4.5035   -2.9902   -2.3314 O   0  0  0  0  0  0  0  0  0  0  0  0
    0.0167   -4.0289   -1.9426 C   0  0  0  0  0  0  0  0  0  0  0  0
    1.0983   -0.1494   -4.1595 C   0  0  0  0  0  0  0  0  0  0  0  0
    2.3960   -1.1140   -2.1138 C   0  0  0  0  0  0  0  0  0  0  0  0
    3.0660   -0.7662   -3.0564 O   0  0  0  0  0  0  0  0  0  0  0  0
    2.8301   -0.7692   -0.7125 C   0  0  0  0  0  0  0  0  0  0  0  0
    4.2908    0.2858   -0.7783 Cl  0  0  0  0  0  0  0  0  0  0  0  0
   -0.4467    1.9680    0.3187 H   0  0  0  0  0  0  0  0  0  0  0  0
   -1.7375    1.8104   -0.8968 H   0  0  0  0  0  0  0  0  0  0  0  0
   -2.1286    1.7002    0.8362 H   0  0  0  0  0  0  0  0  0  0  0  0
   -0.8028   -0.3887    1.0026 H   0  0  0  0  0  0  0  0  0  0  0  0
   -2.0936   -0.5464   -0.2129 H   0  0  0  0  0  0  0  0  0  0  0  0
   -0.4018   -2.9145   -4.9815 H   0  0  0  0  0  0  0  0  0  0  0  0
    1.1177   -2.2234   -5.5632 H   0  0  0  0  0  0  0  0  0  0  0  0
    2.5691   -3.4327   -0.7358 H   0  0  0  0  0  0  0  0  0  0  0  0
    2.0720   -5.0101   -1.3231 H   0  0  0  0  0  0  0  0  0  0  0  0
    2.7915   -1.9740   -5.4917 H   0  0  0  0  0  0  0  0  0  0  0  0
    3.8626   -2.1399   -4.1023 H   0  0  0  0  0  0  0  0  0  0  0  0
    6.3628   -4.2198   -7.3818 H   0  0  0  0  0  0  0  0  0  0  0  0
    5.9287   -8.2411   -5.7156 H   0  0  0  0  0  0  0  0  0  0  0  0
    4.3144   -7.3619   -4.1063 H   0  0  0  0  0  0  0  0  0  0  0  0
    5.9259   -5.5446   -2.5852 H   0  0  0  0  0  0  0  0  0  0  0  0
    6.9711   -5.1973   -3.9835 H   0  0  0  0  0  0  0  0  0  0  0  0
    6.0557   -3.8823   -3.2082 H   0  0  0  0  0  0  0  0  0  0  0  0
    4.6836   -2.6392   -1.4485 H   0  0  0  0  0  0  0  0  0  0  0  0
   -0.8281   -3.6566   -2.5221 H   0  0  0  0  0  0  0  0  0  0  0  0
    0.0707   -5.1137   -2.0348 H   0  0  0  0  0  0  0  0  0  0  0  0
   -0.1145   -3.7594   -0.8947 H   0  0  0  0  0  0  0  0  0  0  0  0
    2.0464   -0.3891   -4.6411 H   0  0  0  0  0  0  0  0  0  0  0  0
    0.4353    0.3288   -4.8804 H   0  0  0  0  0  0  0  0  0  0  0  0
    1.2761    0.5279   -3.3242 H   0  0  0  0  0  0  0  0  0  0  0  0
    2.0241   -0.2423   -0.2017 H   0  0  0  0  0  0  0  0  0  0  0  0
    3.0670   -1.6844   -0.1700 H   0  0  0  0  0  0  0  0  0  0  0  0
  1  2  1  0  0  0  0
  1 39  1  0  0  0  0
  1 40  1  0  0  0  0
  1 41  1  0  0  0  0
  2  3  1  0  0  0  0
  2 42  1  0  0  0  0
  2 43  1  0  0  0  0
  3  4  2  0  0  0  0
  3  5  1  0  0  0  0
  6  5  1  1  0  0  0
  6 12  1  0  0  0  0
  6  7  1  0  0  0  0
  6 35  1  0  0  0  0
  7  8  1  1  0  0  0
  7  9  1  0  0  0  0
  7 34  1  0  0  0  0
  9 10  1  0  0  0  0
  9 44  1  0  0  0  0
  9 45  1  0  0  0  0
 10 11  1  6  0  0  0
 10 17  1  0  0  0  0
 10 12  1  0  0  0  0
 12 13  1  0  0  0  0
 12 33  1  1  0  0  0
 13 14  1  0  0  0  0
 13 46  1  0  0  0  0
 13 47  1  0  0  0  0
 14 15  1  1  0  0  0
 14 16  1  0  0  0  0
 14 32  1  0  0  0  0
 16 28  1  0  0  0  0
 16 17  1  0  0  0  0
 16 31  1  1  0  0  0
 17 18  1  6  0  0  0
 17 19  1  0  0  0  0
 19 20  1  0  0  0  0
 19 48  1  0  0  0  0
 19 49  1  0  0  0  0
 20 21  1  1  0  0  0
 20 22  1  0  0  0  0
 20 30  1  0  0  0  0
 22 28  1  0  0  0  0
 22 23  2  0  0  0  0
 23 24  1  0  0  0  0
 23 50  1  0  0  0  0
 24 25  2  0  0  0  0
 24 26  1  0  0  0  0
 26 27  2  0  0  0  0
 26 51  1  0  0  0  0
 27 28  1  0  0  0  0
 27 52  1  0  0  0  0
 28 29  1  1  0  0  0
 29 53  1  0  0  0  0
 29 54  1  0  0  0  0
 29 55  1  0  0  0  0
 32 56  1  0  0  0  0
 33 57  1  0  0  0  0
 33 58  1  0  0  0  0
 33 59  1  0  0  0  0
 34 60  1  0  0  0  0
 34 61  1  0  0  0  0
 34 62  1  0  0  0  0
 35 36  2  0  0  0  0
 35 37  1  0  0  0  0
 37 38  1  0  0  0  0
 37 63  1  0  0  0  0
 37 64  1  0  0  0  0
M  END
$$$$
