ZINC04474405
 OpenBabel08292219463D

 67 68  0  0  1  0  0  0  0  0999 V2000
   -7.4710   -3.1985   -2.6143 C   0  0  0  0  0  0  0  0  0  0  0  0
   -6.0184   -2.7242   -2.5359 C   0  0  0  0  0  0  0  0  0  0  0  0
   -5.2446   -3.3401   -3.6166 N   0  0  0  0  0  0  0  0  0  0  0  0
   -3.9313   -3.0662   -3.7459 C   0  0  0  0  0  0  0  0  0  0  0  0
   -3.3901   -2.3098   -2.9675 O   0  0  0  0  0  0  0  0  0  0  0  0
   -3.1353   -3.6998   -4.8576 C   0  0  0  0  0  0  0  0  0  0  0  0
   -1.6828   -3.2255   -4.7792 C   0  0  0  0  0  0  0  0  0  0  0  0
   -0.8746   -3.8688   -5.9079 C   0  0  0  0  0  0  0  0  0  0  0  0
    0.5561   -3.4016   -5.8307 C   0  0  0  0  0  0  0  0  0  0  0  0
    1.5309   -4.2767   -5.8143 C   0  0  0  0  0  0  0  0  0  0  0  0
    1.2366   -5.7368   -6.0435 C   0  0  0  0  0  0  0  0  0  0  0  0
    2.1229   -6.2643   -7.1736 C   0  0  1  0  0  0  0  0  0  0  0  0
    3.1730   -6.1002   -6.9319 H   0  0  0  0  0  0  0  0  0  0  0  0
    1.8599   -7.7684   -7.3932 C   0  0  2  0  0  0  0  0  0  0  0  0
    2.7786   -8.2778   -7.6840 H   0  0  0  0  0  0  0  0  0  0  0  0
    0.8285   -7.8092   -8.5480 C   0  0  0  0  0  0  0  0  0  0  0  0
    1.3026   -6.6588   -9.4704 C   0  0  2  0  0  0  0  0  0  0  0  0
    2.1313   -6.9890  -10.0968 H   0  0  0  0  0  0  0  0  0  0  0  0
    1.7694   -5.5579   -8.4942 C   0  0  2  0  0  0  0  0  0  0  0  0
    0.9665   -4.8392   -8.3299 H   0  0  0  0  0  0  0  0  0  0  0  0
    2.9844   -4.8580   -9.0465 C   0  0  0  0  0  0  0  0  0  0  0  0
    2.9662   -3.5611   -9.2303 C   0  0  0  0  0  0  0  0  0  0  0  0
    4.1812   -2.8613   -9.7827 C   0  0  2  0  0  0  0  0  0  0  0  0
    4.5852   -2.1854   -9.0290 H   0  0  0  0  0  0  0  0  0  0  0  0
    3.7878   -2.0617  -11.0264 C   0  0  0  0  0  0  0  0  0  0  0  0
    4.9913   -1.2529  -11.5145 C   0  0  0  0  0  0  0  0  0  0  0  0
    4.6038   -0.4653  -12.7395 C   0  0  0  0  0  0  0  0  0  0  0  0
    4.7548   -1.0224  -13.9956 C   0  0  0  0  0  0  0  0  0  0  0  0
    4.3993   -0.3000  -15.1193 C   0  0  0  0  0  0  0  0  0  0  0  0
    3.8925    0.9793  -14.9869 C   0  0  0  0  0  0  0  0  0  0  0  0
    3.7408    1.5360  -13.7307 C   0  0  0  0  0  0  0  0  0  0  0  0
    4.0922    0.8120  -12.6068 C   0  0  0  0  0  0  0  0  0  0  0  0
    5.1711   -3.8305  -10.1329 O   0  0  0  0  0  0  0  0  0  0  0  0
    0.2224   -6.1887  -10.2792 O   0  0  0  0  0  0  0  0  0  0  0  0
    1.3150   -8.3586   -6.2113 O   0  0  0  0  0  0  0  0  0  0  0  0
   -7.8960   -2.9099   -3.5756 H   0  0  0  0  0  0  0  0  0  0  0  0
   -7.5050   -4.2832   -2.5130 H   0  0  0  0  0  0  0  0  0  0  0  0
   -8.0467   -2.7402   -1.8102 H   0  0  0  0  0  0  0  0  0  0  0  0
   -5.9844   -1.6394   -2.6372 H   0  0  0  0  0  0  0  0  0  0  0  0
   -5.5934   -3.0128   -1.5746 H   0  0  0  0  0  0  0  0  0  0  0  0
   -5.6774   -3.9451   -4.2392 H   0  0  0  0  0  0  0  0  0  0  0  0
   -3.1693   -4.7845   -4.7563 H   0  0  0  0  0  0  0  0  0  0  0  0
   -3.5603   -3.4112   -5.8189 H   0  0  0  0  0  0  0  0  0  0  0  0
   -1.6488   -2.1408   -4.8805 H   0  0  0  0  0  0  0  0  0  0  0  0
   -1.2577   -3.5141   -3.8179 H   0  0  0  0  0  0  0  0  0  0  0  0
   -0.9086   -4.9535   -5.8066 H   0  0  0  0  0  0  0  0  0  0  0  0
   -1.2996   -3.5802   -6.8692 H   0  0  0  0  0  0  0  0  0  0  0  0
    0.7778   -2.3455   -5.7888 H   0  0  0  0  0  0  0  0  0  0  0  0
    2.5453   -3.9517   -5.6364 H   0  0  0  0  0  0  0  0  0  0  0  0
    1.4406   -6.2962   -5.1305 H   0  0  0  0  0  0  0  0  0  0  0  0
    0.1885   -5.8576   -6.3172 H   0  0  0  0  0  0  0  0  0  0  0  0
    0.8706   -8.7652   -9.0699 H   0  0  0  0  0  0  0  0  0  0  0  0
   -0.1771   -7.6155   -8.1747 H   0  0  0  0  0  0  0  0  0  0  0  0
    3.8701   -5.4257   -9.2908 H   0  0  0  0  0  0  0  0  0  0  0  0
    2.0805   -2.9934   -8.9860 H   0  0  0  0  0  0  0  0  0  0  0  0
    3.4672   -2.7460  -11.8119 H   0  0  0  0  0  0  0  0  0  0  0  0
    2.9707   -1.3839  -10.7792 H   0  0  0  0  0  0  0  0  0  0  0  0
    5.3119   -0.5686  -10.7290 H   0  0  0  0  0  0  0  0  0  0  0  0
    5.8084   -1.9306  -11.7617 H   0  0  0  0  0  0  0  0  0  0  0  0
    5.1507   -2.0218  -14.0991 H   0  0  0  0  0  0  0  0  0  0  0  0
    4.5179   -0.7349  -16.1007 H   0  0  0  0  0  0  0  0  0  0  0  0
    3.6155    1.5440  -15.8648 H   0  0  0  0  0  0  0  0  0  0  0  0
    3.3451    2.5356  -13.6272 H   0  0  0  0  0  0  0  0  0  0  0  0
    3.9701    1.2455  -11.6252 H   0  0  0  0  0  0  0  0  0  0  0  0
    4.8799   -4.4665  -10.8007 H   0  0  0  0  0  0  0  0  0  0  0  0
   -0.1462   -6.8587  -10.8712 H   0  0  0  0  0  0  0  0  0  0  0  0
    1.1301   -9.3042   -6.2932 H   0  0  0  0  0  0  0  0  0  0  0  0
  1  2  1  0  0  0  0
  1 36  1  0  0  0  0
  1 37  1  0  0  0  0
  1 38  1  0  0  0  0
  2  3  1  0  0  0  0
  2 39  1  0  0  0  0
  2 40  1  0  0  0  0
  3  4  1  0  0  0  0
  3 41  1  0  0  0  0
  4  5  2  0  0  0  0
  4  6  1  0  0  0  0
  6  7  1  0  0  0  0
  6 42  1  0  0  0  0
  6 43  1  0  0  0  0
  7  8  1  0  0  0  0
  7 44  1  0  0  0  0
  7 45  1  0  0  0  0
  8  9  1  0  0  0  0
  8 46  1  0  0  0  0
  8 47  1  0  0  0  0
  9 10  2  0  0  0  0
  9 48  1  0  0  0  0
 10 11  1  0  0  0  0
 10 49  1  0  0  0  0
 11 12  1  0  0  0  0
 11 50  1  0  0  0  0
 11 51  1  0  0  0  0
 12 13  1  1  0  0  0
 12 19  1  0  0  0  0
 12 14  1  0  0  0  0
 14 15  1  6  0  0  0
 14 16  1  0  0  0  0
 14 35  1  0  0  0  0
 16 17  1  0  0  0  0
 16 52  1  0  0  0  0
 16 53  1  0  0  0  0
 17 18  1  6  0  0  0
 17 19  1  0  0  0  0
 17 34  1  0  0  0  0
 19 20  1  1  0  0  0
 19 21  1  0  0  0  0
 21 22  2  0  0  0  0
 21 54  1  0  0  0  0
 22 23  1  0  0  0  0
 22 55  1  0  0  0  0
 23 24  1  1  0  0  0
 23 25  1  0  0  0  0
 23 33  1  0  0  0  0
 25 26  1  0  0  0  0
 25 56  1  0  0  0  0
 25 57  1  0  0  0  0
 26 27  1  0  0  0  0
 26 58  1  0  0  0  0
 26 59  1  0  0  0  0
 27 32  2  0  0  0  0
 27 28  1  0  0  0  0
 28 29  2  0  0  0  0
 28 60  1  0  0  0  0
 29 30  1  0  0  0  0
 29 61  1  0  0  0  0
 30 31  2  0  0  0  0
 30 62  1  0  0  0  0
 31 32  1  0  0  0  0
 31 63  1  0  0  0  0
 32 64  1  0  0  0  0
 33 65  1  0  0  0  0
 34 66  1  0  0  0  0
 35 67  1  0  0  0  0
M  END
$$$$
