ZINC01530939
 OpenBabel08292219463D

 55 56  0  0  0  0  0  0  0  0999 V2000
    0.0744    1.3156    0.8085 C   0  0  0  0  0  0  0  0  0  0  0  0
    0.0685   -0.2143    0.8205 C   0  0  0  0  0  0  0  0  0  0  0  0
   -1.3718   -0.7197    0.7157 C   0  0  0  0  0  0  0  0  0  0  0  0
   -1.3777   -2.2496    0.7277 C   0  0  0  0  0  0  0  0  0  0  0  0
   -2.7229   -2.7216    0.6298 O   0  0  0  0  0  0  0  0  0  0  0  0
   -2.9052   -4.0652    0.6270 C   0  0  0  0  0  0  0  0  0  0  0  0
   -4.2076   -4.5691    0.5268 C   0  0  0  0  0  0  0  0  0  0  0  0
   -4.4093   -5.9417    0.5226 C   0  0  0  0  0  0  0  0  0  0  0  0
   -3.2246   -6.7941    0.6252 C   0  0  0  0  0  0  0  0  0  0  0  0
   -3.3250   -8.1899    0.6288 C   0  0  0  0  0  0  0  0  0  0  0  0
   -2.1946   -8.9458    0.7258 C   0  0  0  0  0  0  0  0  0  0  0  0
   -0.9413   -8.3455    0.8217 C   0  0  0  0  0  0  0  0  0  0  0  0
   -0.8090   -6.9908    0.8210 C   0  0  0  0  0  0  0  0  0  0  0  0
   -1.9527   -6.1785    0.7220 C   0  0  0  0  0  0  0  0  0  0  0  0
   -1.8541   -4.8461    0.7128 N   0  0  0  0  0  0  0  0  0  0  0  0
   -5.7670   -6.5199    0.4192 C   0  0  0  0  0  0  0  0  0  0  0  0
   -5.9091   -7.7226    0.3163 O   0  0  0  0  0  0  0  0  0  0  0  0
   -6.8464   -5.7130    0.4391 N   0  0  0  0  0  0  0  0  0  0  0  0
   -8.1910   -6.2856    0.3366 C   0  0  0  0  0  0  0  0  0  0  0  0
   -9.2286   -5.1623    0.3837 C   0  0  0  0  0  0  0  0  0  0  0  0
  -10.5785   -5.7417    0.3705 N   0  3  0  0  0  0  0  0  0  0  0  0
  -10.7959   -6.5049    1.6066 C   0  0  0  0  0  0  0  0  0  0  0  0
  -12.1519   -7.2104    1.5386 C   0  0  0  0  0  0  0  0  0  0  0  0
  -11.5729   -4.6643    0.2789 C   0  0  0  0  0  0  0  0  0  0  0  0
  -11.4512   -3.9721   -1.0802 C   0  0  0  0  0  0  0  0  0  0  0  0
    1.1005    1.6756    0.8832 H   0  0  0  0  0  0  0  0  0  0  0  0
   -0.3695    1.6733   -0.1205 H   0  0  0  0  0  0  0  0  0  0  0  0
   -0.5037    1.6878    1.6543 H   0  0  0  0  0  0  0  0  0  0  0  0
    0.6466   -0.5865   -0.0252 H   0  0  0  0  0  0  0  0  0  0  0  0
    0.5123   -0.5721    1.7496 H   0  0  0  0  0  0  0  0  0  0  0  0
   -1.9499   -0.3475    1.5615 H   0  0  0  0  0  0  0  0  0  0  0  0
   -1.8157   -0.3619   -0.2134 H   0  0  0  0  0  0  0  0  0  0  0  0
   -0.7996   -2.6218   -0.1181 H   0  0  0  0  0  0  0  0  0  0  0  0
   -0.9338   -2.6074    1.6568 H   0  0  0  0  0  0  0  0  0  0  0  0
   -5.0481   -3.8949    0.4538 H   0  0  0  0  0  0  0  0  0  0  0  0
   -4.2920   -8.6653    0.5556 H   0  0  0  0  0  0  0  0  0  0  0  0
   -2.2718  -10.0230    0.7286 H   0  0  0  0  0  0  0  0  0  0  0  0
   -0.0600   -8.9652    0.8983 H   0  0  0  0  0  0  0  0  0  0  0  0
    0.1702   -6.5416    0.8965 H   0  0  0  0  0  0  0  0  0  0  0  0
   -6.7329   -4.7532    0.5212 H   0  0  0  0  0  0  0  0  0  0  0  0
   -8.2844   -6.8273   -0.6046 H   0  0  0  0  0  0  0  0  0  0  0  0
   -8.3586   -6.9702    1.1680 H   0  0  0  0  0  0  0  0  0  0  0  0
   -9.0922   -4.5797    1.2948 H   0  0  0  0  0  0  0  0  0  0  0  0
   -9.1026   -4.5146   -0.4839 H   0  0  0  0  0  0  0  0  0  0  0  0
  -10.0055   -7.2470    1.7192 H   0  0  0  0  0  0  0  0  0  0  0  0
  -10.7816   -5.8266    2.4597 H   0  0  0  0  0  0  0  0  0  0  0  0
  -12.3132   -7.7768    2.4558 H   0  0  0  0  0  0  0  0  0  0  0  0
  -12.9423   -6.4683    1.4260 H   0  0  0  0  0  0  0  0  0  0  0  0
  -12.1661   -7.8887    0.6854 H   0  0  0  0  0  0  0  0  0  0  0  0
  -12.5735   -5.0834    0.3848 H   0  0  0  0  0  0  0  0  0  0  0  0
  -11.3968   -3.9389    1.0731 H   0  0  0  0  0  0  0  0  0  0  0  0
  -10.4343   -3.6015   -1.2094 H   0  0  0  0  0  0  0  0  0  0  0  0
  -11.6818   -4.6842   -1.8725 H   0  0  0  0  0  0  0  0  0  0  0  0
  -12.1508   -3.1375   -1.1268 H   0  0  0  0  0  0  0  0  0  0  0  0
  -10.6732   -6.3553   -0.4248 H   0  0  0  0  0  0  0  0  0  0  0  0
  1  2  1  0  0  0  0
  1 26  1  0  0  0  0
  1 27  1  0  0  0  0
  1 28  1  0  0  0  0
  2  3  1  0  0  0  0
  2 29  1  0  0  0  0
  2 30  1  0  0  0  0
  3  4  1  0  0  0  0
  3 31  1  0  0  0  0
  3 32  1  0  0  0  0
  4  5  1  0  0  0  0
  4 33  1  0  0  0  0
  4 34  1  0  0  0  0
  5  6  1  0  0  0  0
  6 15  2  0  0  0  0
  6  7  1  0  0  0  0
  7  8  2  0  0  0  0
  7 35  1  0  0  0  0
  8  9  1  0  0  0  0
  8 16  1  0  0  0  0
  9 14  2  0  0  0  0
  9 10  1  0  0  0  0
 10 11  2  0  0  0  0
 10 36  1  0  0  0  0
 11 12  1  0  0  0  0
 11 37  1  0  0  0  0
 12 13  2  0  0  0  0
 12 38  1  0  0  0  0
 13 14  1  0  0  0  0
 13 39  1  0  0  0  0
 14 15  1  0  0  0  0
 16 17  2  0  0  0  0
 16 18  1  0  0  0  0
 18 19  1  0  0  0  0
 18 40  1  0  0  0  0
 19 20  1  0  0  0  0
 19 41  1  0  0  0  0
 19 42  1  0  0  0  0
 20 21  1  0  0  0  0
 20 43  1  0  0  0  0
 20 44  1  0  0  0  0
 21 22  1  0  0  0  0
 21 24  1  0  0  0  0
 21 55  1  0  0  0  0
 22 23  1  0  0  0  0
 22 45  1  0  0  0  0
 22 46  1  0  0  0  0
 23 47  1  0  0  0  0
 23 48  1  0  0  0  0
 23 49  1  0  0  0  0
 24 25  1  0  0  0  0
 24 50  1  0  0  0  0
 24 51  1  0  0  0  0
 25 52  1  0  0  0  0
 25 53  1  0  0  0  0
 25 54  1  0  0  0  0
M  CHG  1  21   1
M  END
$$$$
