ZINC21982951
 OpenBabel08292219463D

 60 63  0  0  0  0  0  0  0  0999 V2000
   -2.0700    1.6928    0.2333 C   0  0  0  0  0  0  0  0  0  0  0  0
   -1.6482    0.2604    0.0301 C   0  0  0  0  0  0  0  0  0  0  0  0
   -1.8479   -0.3525   -1.1919 C   0  0  0  0  0  0  0  0  0  0  0  0
   -1.4615   -1.6665   -1.3798 C   0  0  0  0  0  0  0  0  0  0  0  0
   -0.8738   -2.3725   -0.3459 C   0  0  0  0  0  0  0  0  0  0  0  0
   -0.6714   -1.7660    0.8791 C   0  0  0  0  0  0  0  0  0  0  0  0
   -1.0534   -0.4428    1.0688 C   0  0  0  0  0  0  0  0  0  0  0  0
   -0.8441    0.1769    2.3055 N   0  0  0  0  0  0  0  0  0  0  0  0
   -1.2819   -0.4110    3.4365 C   0  0  0  0  0  0  0  0  0  0  0  0
   -1.7689   -1.5261    3.3939 O   0  0  0  0  0  0  0  0  0  0  0  0
   -1.1720    0.2905    4.7149 C   0  0  0  0  0  0  0  0  0  0  0  0
   -1.5472   -0.1201    5.9866 C   0  0  0  0  0  0  0  0  0  0  0  0
   -1.3262    0.7270    6.9599 N   0  0  0  0  0  0  0  0  0  0  0  0
   -0.7756    1.9070    6.7361 C   0  0  0  0  0  0  0  0  0  0  0  0
   -0.5107    1.9100    5.0742 S   0  0  0  0  0  0  0  0  0  0  0  0
   -0.4817    2.8997    7.6498 N   0  0  0  0  0  0  0  0  0  0  0  0
   -0.6908    2.6801    9.0050 C   0  0  0  0  0  3  0  0  0  0  0  0
   -1.0534    1.4192    9.4679 C   0  0  0  0  0  0  0  0  0  0  0  0
   -1.2512    1.2508   10.8352 C   0  0  0  0  0  0  0  0  0  0  0  0
   -1.0875    2.2952   11.6453 N   0  0  0  0  0  0  0  0  0  0  0  0
   -0.7435    3.4737   11.1677 C   0  0  0  0  0  0  0  0  0  0  0  0
   -0.5417    3.6719    9.8809 N   0  0  0  0  0  0  0  0  0  0  0  0
   -0.5694    4.6273   12.1217 C   0  0  0  0  0  0  0  0  0  0  0  0
   -1.6138    0.0143   11.3464 N   0  0  0  0  0  0  0  0  0  0  0  0
   -2.0559   -0.1253   12.7422 C   0  0  0  0  0  0  0  0  0  0  0  0
   -3.3866   -0.8852   12.7576 C   0  0  0  0  0  0  0  0  0  0  0  0
   -3.2335   -2.1493   12.0251 N   0  0  0  0  0  0  0  0  0  0  0  0
   -2.9165   -1.9105   10.6107 C   0  0  0  0  0  0  0  0  0  0  0  0
   -1.5725   -1.1917   10.5056 C   0  0  0  0  0  0  0  0  0  0  0  0
   -4.4334   -2.9856   12.1619 C   0  0  0  0  0  0  0  0  0  0  0  0
   -4.1483   -4.3816   11.6043 C   0  0  0  0  0  0  0  0  0  0  0  0
   -3.1500   -5.0191   12.4038 O   0  0  0  0  0  0  0  0  0  0  0  0
    0.0658   -2.6526    2.1768 Cl  0  0  0  0  0  0  0  0  0  0  0  0
   -1.2464    2.3553   -0.0328 H   0  0  0  0  0  0  0  0  0  0  0  0
   -2.9308    1.9112   -0.3987 H   0  0  0  0  0  0  0  0  0  0  0  0
   -2.3379    1.8478    1.2784 H   0  0  0  0  0  0  0  0  0  0  0  0
   -2.3069    0.1956   -2.0014 H   0  0  0  0  0  0  0  0  0  0  0  0
   -1.6193   -2.1430   -2.3361 H   0  0  0  0  0  0  0  0  0  0  0  0
   -0.5731   -3.3989   -0.4959 H   0  0  0  0  0  0  0  0  0  0  0  0
   -0.3838    1.0296    2.3489 H   0  0  0  0  0  0  0  0  0  0  0  0
   -1.9972   -1.0858    6.1634 H   0  0  0  0  0  0  0  0  0  0  0  0
   -0.1293    3.7505    7.3451 H   0  0  0  0  0  0  0  0  0  0  0  0
   -1.1784    0.5927    8.7841 H   0  0  0  0  0  0  0  0  0  0  0  0
    0.4644    4.6619   12.4652 H   0  0  0  0  0  0  0  0  0  0  0  0
   -0.8146    5.5596   11.6130 H   0  0  0  0  0  0  0  0  0  0  0  0
   -1.2322    4.4948   12.9768 H   0  0  0  0  0  0  0  0  0  0  0  0
   -1.3096   -0.6823   13.3087 H   0  0  0  0  0  0  0  0  0  0  0  0
   -2.1929    0.8619   13.1834 H   0  0  0  0  0  0  0  0  0  0  0  0
   -3.6740   -1.0944   13.7880 H   0  0  0  0  0  0  0  0  0  0  0  0
   -4.1569   -0.2794   12.2806 H   0  0  0  0  0  0  0  0  0  0  0  0
   -2.8631   -2.8634   10.0841 H   0  0  0  0  0  0  0  0  0  0  0  0
   -3.6935   -1.2904   10.1636 H   0  0  0  0  0  0  0  0  0  0  0  0
   -1.3900   -0.9091    9.4688 H   0  0  0  0  0  0  0  0  0  0  0  0
   -0.7788   -1.8532   10.8529 H   0  0  0  0  0  0  0  0  0  0  0  0
   -4.7041   -3.0633   13.2149 H   0  0  0  0  0  0  0  0  0  0  0  0
   -5.2561   -2.5340   11.6075 H   0  0  0  0  0  0  0  0  0  0  0  0
   -5.0627   -4.9745   11.6240 H   0  0  0  0  0  0  0  0  0  0  0  0
   -3.7921   -4.2970   10.5776 H   0  0  0  0  0  0  0  0  0  0  0  0
   -2.9188   -5.9101   12.1076 H   0  0  0  0  0  0  0  0  0  0  0  0
   -0.2852    4.5531    9.5669 H   0  0  0  0  0  0  0  0  0  0  0  0
  1  2  1  0  0  0  0
  1 34  1  0  0  0  0
  1 35  1  0  0  0  0
  1 36  1  0  0  0  0
  2  7  2  0  0  0  0
  2  3  1  0  0  0  0
  3  4  2  0  0  0  0
  3 37  1  0  0  0  0
  4  5  1  0  0  0  0
  4 38  1  0  0  0  0
  5  6  2  0  0  0  0
  5 39  1  0  0  0  0
  6  7  1  0  0  0  0
  6 33  1  0  0  0  0
  7  8  1  0  0  0  0
  8  9  1  0  0  0  0
  8 40  1  0  0  0  0
  9 10  2  0  0  0  0
  9 11  1  0  0  0  0
 11 15  1  0  0  0  0
 11 12  2  0  0  0  0
 12 13  1  0  0  0  0
 12 41  1  0  0  0  0
 13 14  2  0  0  0  0
 14 15  1  0  0  0  0
 14 16  1  0  0  0  0
 16 17  1  0  0  0  0
 16 42  1  0  0  0  0
 17 22  1  0  0  0  0
 17 18  1  0  0  0  0
 18 19  2  0  0  0  0
 18 43  1  0  0  0  0
 19 20  1  0  0  0  0
 19 24  1  0  0  0  0
 20 21  2  0  0  0  0
 21 22  1  0  0  0  0
 21 23  1  0  0  0  0
 22 60  1  0  0  0  0
 23 44  1  0  0  0  0
 23 45  1  0  0  0  0
 23 46  1  0  0  0  0
 24 29  1  0  0  0  0
 24 25  1  0  0  0  0
 25 26  1  0  0  0  0
 25 47  1  0  0  0  0
 25 48  1  0  0  0  0
 26 27  1  0  0  0  0
 26 49  1  0  0  0  0
 26 50  1  0  0  0  0
 27 28  1  0  0  0  0
 27 30  1  0  0  0  0
 28 29  1  0  0  0  0
 28 51  1  0  0  0  0
 28 52  1  0  0  0  0
 29 53  1  0  0  0  0
 29 54  1  0  0  0  0
 30 31  1  0  0  0  0
 30 55  1  0  0  0  0
 30 56  1  0  0  0  0
 31 32  1  0  0  0  0
 31 57  1  0  0  0  0
 31 58  1  0  0  0  0
 32 59  1  0  0  0  0
M  END
$$$$
