ZINC01999261
 OpenBabel08292219463D

 42 44  0  0  0  0  0  0  0  0999 V2000
    0.3614    2.2037    0.8714 C   0  0  0  0  0  0  0  0  0  0  0  0
    0.1478    0.7026    0.6659 C   0  0  0  0  0  0  0  0  0  0  0  0
    0.9202   -0.0734    1.7346 C   0  0  0  0  0  0  0  0  0  0  0  0
    0.7066   -1.5744    1.5291 C   0  0  0  0  0  0  0  0  0  0  0  0
    1.4675   -2.3388    2.5817 C   0  0  0  0  0  0  0  0  0  0  0  0
    2.8046   -2.7038    2.5188 C   0  0  0  0  0  0  0  0  0  0  0  0
    3.1094   -3.3776    3.6591 N   0  0  0  0  0  0  0  0  0  0  0  0
    1.9545   -3.4388    4.4495 N   0  0  0  0  0  0  0  0  0  0  0  0
    0.9562   -2.7966    3.7875 C   0  0  0  0  0  0  0  0  0  0  0  0
   -0.2971   -2.6371    4.2201 O   0  5  0  0  0  0  0  0  0  0  0  0
    1.8487   -4.0488    5.7035 C   0  0  0  0  0  0  0  0  0  0  0  0
    0.8001   -4.9205    5.9672 C   0  0  0  0  0  0  0  0  0  0  0  0
    0.6986   -5.5212    7.2067 C   0  0  0  0  0  0  0  0  0  0  0  0
    1.6392   -5.2552    8.1848 C   0  0  0  0  0  0  0  0  0  0  0  0
    2.6842   -4.3873    7.9256 C   0  0  0  0  0  0  0  0  0  0  0  0
    2.7953   -3.7885    6.6861 C   0  0  0  0  0  0  0  0  0  0  0  0
    4.3579   -3.9162    3.9861 C   0  0  0  0  0  0  0  0  0  0  0  0
    4.4551   -5.2291    4.4290 C   0  0  0  0  0  0  0  0  0  0  0  0
    5.6896   -5.7579    4.7511 C   0  0  0  0  0  0  0  0  0  0  0  0
    6.8280   -4.9817    4.6335 C   0  0  0  0  0  0  0  0  0  0  0  0
    6.7346   -3.6741    4.1933 C   0  0  0  0  0  0  0  0  0  0  0  0
    5.5040   -3.1413    3.8632 C   0  0  0  0  0  0  0  0  0  0  0  0
    3.6441   -2.4400    1.5145 O   0  0  0  0  0  0  0  0  0  0  0  0
    1.4238    2.4339    0.7908 H   0  0  0  0  0  0  0  0  0  0  0  0
   -0.1889    2.7565    0.1100 H   0  0  0  0  0  0  0  0  0  0  0  0
    0.0015    2.4900    1.8596 H   0  0  0  0  0  0  0  0  0  0  0  0
   -0.9146    0.4724    0.7464 H   0  0  0  0  0  0  0  0  0  0  0  0
    0.5077    0.4163   -0.3223 H   0  0  0  0  0  0  0  0  0  0  0  0
    1.9826    0.1568    1.6540 H   0  0  0  0  0  0  0  0  0  0  0  0
    0.5603    0.2129    2.7228 H   0  0  0  0  0  0  0  0  0  0  0  0
   -0.3557   -1.8046    1.6096 H   0  0  0  0  0  0  0  0  0  0  0  0
    1.0665   -1.8607    0.5409 H   0  0  0  0  0  0  0  0  0  0  0  0
    0.0648   -5.1282    5.2040 H   0  0  0  0  0  0  0  0  0  0  0  0
   -0.1166   -6.1992    7.4124 H   0  0  0  0  0  0  0  0  0  0  0  0
    1.5573   -5.7259    9.1533 H   0  0  0  0  0  0  0  0  0  0  0  0
    3.4170   -4.1814    8.6918 H   0  0  0  0  0  0  0  0  0  0  0  0
    3.6143   -3.1146    6.4827 H   0  0  0  0  0  0  0  0  0  0  0  0
    3.5663   -5.8356    4.5217 H   0  0  0  0  0  0  0  0  0  0  0  0
    5.7659   -6.7786    5.0955 H   0  0  0  0  0  0  0  0  0  0  0  0
    7.7922   -5.3975    4.8864 H   0  0  0  0  0  0  0  0  0  0  0  0
    7.6256   -3.0704    4.1029 H   0  0  0  0  0  0  0  0  0  0  0  0
    5.4322   -2.1215    3.5149 H   0  0  0  0  0  0  0  0  0  0  0  0
  1  2  1  0  0  0  0
  1 24  1  0  0  0  0
  1 25  1  0  0  0  0
  1 26  1  0  0  0  0
  2  3  1  0  0  0  0
  2 27  1  0  0  0  0
  2 28  1  0  0  0  0
  3  4  1  0  0  0  0
  3 29  1  0  0  0  0
  3 30  1  0  0  0  0
  4 31  1  0  0  0  0
  4 32  1  0  0  0  0
  4  5  1  0  0  0  0
  5  6  1  0  0  0  0
  5  9  2  0  0  0  0
  6  7  1  0  0  0  0
  6 23  2  0  0  0  0
  7  8  1  0  0  0  0
  7 17  1  0  0  0  0
  8  9  1  0  0  0  0
  8 11  1  0  0  0  0
  9 10  1  0  0  0  0
 11 16  2  0  0  0  0
 11 12  1  0  0  0  0
 12 13  2  0  0  0  0
 12 33  1  0  0  0  0
 13 14  1  0  0  0  0
 13 34  1  0  0  0  0
 14 15  2  0  0  0  0
 14 35  1  0  0  0  0
 15 16  1  0  0  0  0
 15 36  1  0  0  0  0
 16 37  1  0  0  0  0
 17 22  2  0  0  0  0
 17 18  1  0  0  0  0
 18 19  2  0  0  0  0
 18 38  1  0  0  0  0
 19 20  1  0  0  0  0
 19 39  1  0  0  0  0
 20 21  2  0  0  0  0
 20 40  1  0  0  0  0
 21 22  1  0  0  0  0
 21 41  1  0  0  0  0
 22 42  1  0  0  0  0
M  CHG  1  10  -1
M  END
$$$$
