ZINC00075008
 OpenBabel08292219463D

 32 33  0  0  1  0  0  0  0  0999 V2000
   -0.0187    1.5258    0.0104 C   0  0  0  0  0  0  0  0  0  0  0  0
    0.0021   -0.0041    0.0020 C   0  0  0  0  0  0  0  0  0  0  0  0
    0.7421   -0.5109    1.2415 C   0  0  1  0  0  0  0  0  0  0  0  0
    0.3057   -0.0870    2.1460 H   0  0  0  0  0  0  0  0  0  0  0  0
    0.7115   -2.0596    1.2975 C   0  0  2  0  0  0  0  0  0  0  0  0
    0.6061   -2.4144    2.3227 H   0  0  0  0  0  0  0  0  0  0  0  0
    2.1164   -2.3969    0.7292 C   0  0  0  0  0  0  0  0  0  0  0  0
    2.9309   -1.3180    1.2350 O   0  0  0  0  0  0  0  0  0  0  0  0
    2.2184   -0.1737    1.1547 C   0  0  0  0  0  0  0  0  0  0  0  0
    2.6790    0.9365    1.0319 O   0  0  0  0  0  0  0  0  0  0  0  0
   -0.3962   -2.6229    0.4051 C   0  0  0  0  0  0  0  0  0  0  0  0
   -0.4722   -4.1176    0.5817 C   0  0  0  0  0  0  0  0  0  0  0  0
   -1.1569   -4.7798    1.5337 C   0  0  0  0  0  0  0  0  0  0  0  0
   -0.9664   -6.0938    1.3437 N   0  0  0  0  0  4  0  0  0  0  0  0
   -0.1897   -6.2711    0.3101 C   0  0  0  0  0  0  0  0  0  0  0  0
    0.1367   -5.0634   -0.1984 N   0  0  0  0  0  0  0  0  0  0  0  0
    0.9865   -4.8122   -1.3650 C   0  0  0  0  0  0  0  0  0  0  0  0
    1.0039    1.9031    0.0027 H   0  0  0  0  0  0  0  0  0  0  0  0
   -0.5459    1.8868   -0.8726 H   0  0  0  0  0  0  0  0  0  0  0  0
   -0.5289    1.8773    0.9072 H   0  0  0  0  0  0  0  0  0  0  0  0
   -1.0205   -0.3814    0.0098 H   0  0  0  0  0  0  0  0  0  0  0  0
    0.5123   -0.3556   -0.8948 H   0  0  0  0  0  0  0  0  0  0  0  0
    2.4668   -3.3565    1.1094 H   0  0  0  0  0  0  0  0  0  0  0  0
    2.1035   -2.3932   -0.3607 H   0  0  0  0  0  0  0  0  0  0  0  0
   -1.3502   -2.1752    0.6837 H   0  0  0  0  0  0  0  0  0  0  0  0
   -0.1766   -2.3909   -0.6370 H   0  0  0  0  0  0  0  0  0  0  0  0
   -1.7546   -4.3313    2.3135 H   0  0  0  0  0  0  0  0  0  0  0  0
    0.1349   -7.2257   -0.0769 H   0  0  0  0  0  0  0  0  0  0  0  0
    2.0244   -4.7197   -1.0453 H   0  0  0  0  0  0  0  0  0  0  0  0
    0.8950   -5.6415   -2.0664 H   0  0  0  0  0  0  0  0  0  0  0  0
    0.6724   -3.8887   -1.8512 H   0  0  0  0  0  0  0  0  0  0  0  0
   -1.3459   -6.8007    1.8888 H   0  0  0  0  0  0  0  0  0  0  0  0
  1  2  1  0  0  0  0
  1 18  1  0  0  0  0
  1 19  1  0  0  0  0
  1 20  1  0  0  0  0
  2  3  1  0  0  0  0
  2 21  1  0  0  0  0
  2 22  1  0  0  0  0
  3  4  1  1  0  0  0
  3  9  1  0  0  0  0
  3  5  1  0  0  0  0
  5  6  1  1  0  0  0
  5  7  1  0  0  0  0
  5 11  1  0  0  0  0
  7  8  1  0  0  0  0
  7 23  1  0  0  0  0
  7 24  1  0  0  0  0
  8  9  1  0  0  0  0
  9 10  2  0  0  0  0
 11 12  1  0  0  0  0
 11 25  1  0  0  0  0
 11 26  1  0  0  0  0
 12 16  1  0  0  0  0
 12 13  2  0  0  0  0
 13 14  1  0  0  0  0
 13 27  1  0  0  0  0
 14 15  2  0  0  0  0
 14 32  1  0  0  0  0
 15 16  1  0  0  0  0
 15 28  1  0  0  0  0
 16 17  1  0  0  0  0
 17 29  1  0  0  0  0
 17 30  1  0  0  0  0
 17 31  1  0  0  0  0
M  END
$$$$
