ZINC22010379
 OpenBabel08292219463D

 31 32  0  0  1  0  0  0  0  0999 V2000
    1.3998    1.6698    2.4743 C   0  0  0  0  0  0  0  0  0  0  0  0
   -0.0157    1.0907    2.4302 C   0  0  1  0  0  0  0  0  0  0  0  0
    0.0207   -0.0078    2.3849 H   0  0  0  0  0  0  0  0  0  0  0  0
   -0.7968    1.5556    3.6621 C   0  0  2  0  0  0  0  0  0  0  0  0
   -1.8199    1.1518    3.6743 H   0  0  0  0  0  0  0  0  0  0  0  0
   -0.9260    2.9795    3.6292 O   0  0  0  0  0  0  0  0  0  0  0  0
   -1.5888    3.4706    2.4609 C   0  0  0  0  0  0  0  0  0  0  0  0
   -0.8157    3.0252    1.2169 C   0  0  0  0  0  0  0  0  0  0  0  0
   -0.7003    1.5596    1.2166 N   0  0  0  0  0  0  0  0  0  0  0  0
   -0.0127    1.0858    0.0080 C   0  0  0  0  0  0  0  0  0  0  0  0
   -0.0589    1.1451    4.9103 C   0  0  0  0  0  0  0  0  0  0  0  0
    0.9535    1.9436    5.4089 C   0  0  0  0  0  0  0  0  0  0  0  0
    1.6268    1.5697    6.5568 C   0  0  0  0  0  0  0  0  0  0  0  0
    1.2955    0.3916    7.1998 C   0  0  0  0  0  0  0  0  0  0  0  0
    0.2867   -0.4094    6.6982 C   0  0  0  0  0  0  0  0  0  0  0  0
   -0.3905   -0.0327    5.5535 C   0  0  0  0  0  0  0  0  0  0  0  0
    1.9115    1.3186    3.3825 H   0  0  0  0  0  0  0  0  0  0  0  0
    1.3463    2.7684    2.4851 H   0  0  0  0  0  0  0  0  0  0  0  0
    1.9592    1.3387    1.5870 H   0  0  0  0  0  0  0  0  0  0  0  0
   -2.6117    3.0678    2.4230 H   0  0  0  0  0  0  0  0  0  0  0  0
   -1.6285    4.5693    2.4964 H   0  0  0  0  0  0  0  0  0  0  0  0
   -1.3528    3.3528    0.3146 H   0  0  0  0  0  0  0  0  0  0  0  0
    0.1885    3.4740    1.2290 H   0  0  0  0  0  0  0  0  0  0  0  0
   -0.5447    1.4502   -0.8832 H   0  0  0  0  0  0  0  0  0  0  0  0
    0.0021   -0.0141    0.0020 H   0  0  0  0  0  0  0  0  0  0  0  0
    1.0193    1.4665    0.0002 H   0  0  0  0  0  0  0  0  0  0  0  0
    1.2155    2.8615    4.9039 H   0  0  0  0  0  0  0  0  0  0  0  0
    2.4147    2.1957    6.9488 H   0  0  0  0  0  0  0  0  0  0  0  0
    1.8246    0.0973    8.0941 H   0  0  0  0  0  0  0  0  0  0  0  0
    0.0279   -1.3298    7.2006 H   0  0  0  0  0  0  0  0  0  0  0  0
   -1.1784   -0.6587    5.1615 H   0  0  0  0  0  0  0  0  0  0  0  0
  1  2  1  0  0  0  0
  1 17  1  0  0  0  0
  1 18  1  0  0  0  0
  1 19  1  0  0  0  0
  2  3  1  6  0  0  0
  2  9  1  0  0  0  0
  2  4  1  0  0  0  0
  4  5  1  6  0  0  0
  4  6  1  0  0  0  0
  4 11  1  0  0  0  0
  6  7  1  0  0  0  0
  7  8  1  0  0  0  0
  7 20  1  0  0  0  0
  7 21  1  0  0  0  0
  8  9  1  0  0  0  0
  8 22  1  0  0  0  0
  8 23  1  0  0  0  0
  9 10  1  0  0  0  0
 10 24  1  0  0  0  0
 10 25  1  0  0  0  0
 10 26  1  0  0  0  0
 11 16  2  0  0  0  0
 11 12  1  0  0  0  0
 12 13  2  0  0  0  0
 12 27  1  0  0  0  0
 13 14  1  0  0  0  0
 13 28  1  0  0  0  0
 14 15  2  0  0  0  0
 14 29  1  0  0  0  0
 15 16  1  0  0  0  0
 15 30  1  0  0  0  0
 16 31  1  0  0  0  0
M  END
$$$$
