ZINC34142547
 OpenBabel08292219463D

 53 56  0  0  1  0  0  0  0  0999 V2000
    0.6224   -0.6886    1.2217 C   0  0  0  0  0  0  0  0  0  0  0  0
    0.0021   -0.0041    0.0020 C   0  0  0  0  0  0  0  0  0  0  0  0
    0.7983   -0.3976   -1.2739 C   0  0  1  0  0  0  0  0  0  0  0  0
    2.1613    0.2151   -1.0961 C   0  0  0  0  0  0  0  0  0  0  0  0
    3.2642   -0.4706   -1.8978 C   0  0  0  0  0  0  0  0  0  0  0  0
    3.2739   -1.9483   -1.4969 C   0  0  1  0  0  0  0  0  0  0  0  0
    3.3076   -2.0230   -0.4064 H   0  0  0  0  0  0  0  0  0  0  0  0
    1.9731   -2.5731   -1.9978 C   0  0  1  0  0  0  0  0  0  0  0  0
    1.9892   -3.6408   -1.7218 H   0  0  0  0  0  0  0  0  0  0  0  0
    0.7678   -1.9277   -1.3274 C   0  0  2  0  0  0  0  0  0  0  0  0
    0.6519   -2.3361   -0.2991 H   0  0  0  0  0  0  0  0  0  0  0  0
   -0.4928   -2.2591   -2.1702 C   0  0  0  0  0  0  0  0  0  0  0  0
   -0.6135   -1.0916   -3.1686 C   0  0  0  0  0  0  0  0  0  0  0  0
   -0.0184    0.1369   -2.4491 C   0  0  2  0  0  0  0  0  0  0  0  0
    0.7701    0.9410   -3.3902 C   0  0  0  0  0  0  0  0  0  0  0  0
    1.4008    1.5842   -4.1429 C   0  0  0  0  0  0  0  0  0  0  0  0
   -1.0979    0.9434   -1.9429 O   0  0  0  0  0  0  0  0  0  0  0  0
    1.8867   -2.4799   -3.5178 C   0  0  0  0  0  0  0  0  0  0  0  0
    3.0402   -3.2653   -4.1502 C   0  0  0  0  0  0  0  0  0  0  0  0
    4.3507   -2.7585   -3.5774 C   0  0  0  0  0  0  0  0  0  0  0  0
    5.3050   -2.4015   -4.4256 C   0  0  0  0  0  0  0  0  0  0  0  0
    6.6114   -1.9473   -3.9192 C   0  0  0  0  0  0  0  0  0  0  0  0
    7.4318   -1.2671   -4.6536 N   0  0  0  0  0  0  0  0  0  0  0  0
    7.0835   -0.9388   -5.9862 O   0  0  0  0  0  0  0  0  0  0  0  0
    6.9603   -2.3502   -2.4998 C   0  0  0  0  0  0  0  0  0  0  0  0
    5.7667   -2.0179   -1.6071 C   0  0  0  0  0  0  0  0  0  0  0  0
    4.4852   -2.6685   -2.0881 C   0  0  1  0  0  0  0  0  0  0  0  0
    4.4748   -3.6939   -1.7006 H   0  0  0  0  0  0  0  0  0  0  0  0
    0.4540   -1.7637    1.1597 H   0  0  0  0  0  0  0  0  0  0  0  0
    1.6938   -0.4893    1.2443 H   0  0  0  0  0  0  0  0  0  0  0  0
    0.1614   -0.3003    2.1298 H   0  0  0  0  0  0  0  0  0  0  0  0
   -1.0351   -0.3218   -0.1046 H   0  0  0  0  0  0  0  0  0  0  0  0
    0.0390    1.0772    0.1343 H   0  0  0  0  0  0  0  0  0  0  0  0
    2.1497    1.2802   -1.3050 H   0  0  0  0  0  0  0  0  0  0  0  0
    2.4280    0.1185   -0.0270 H   0  0  0  0  0  0  0  0  0  0  0  0
    3.0945   -0.3685   -2.9643 H   0  0  0  0  0  0  0  0  0  0  0  0
    4.2216   -0.0087   -1.6445 H   0  0  0  0  0  0  0  0  0  0  0  0
   -0.3787   -3.2096   -2.6907 H   0  0  0  0  0  0  0  0  0  0  0  0
   -1.3796   -2.3020   -1.5300 H   0  0  0  0  0  0  0  0  0  0  0  0
   -0.0618   -1.2993   -4.0814 H   0  0  0  0  0  0  0  0  0  0  0  0
   -1.6638   -0.9079   -3.4042 H   0  0  0  0  0  0  0  0  0  0  0  0
    1.9650    2.1596   -4.8162 H   0  0  0  0  0  0  0  0  0  0  0  0
   -1.6638    1.3198   -2.6308 H   0  0  0  0  0  0  0  0  0  0  0  0
    0.9469   -2.9164   -3.8658 H   0  0  0  0  0  0  0  0  0  0  0  0
    1.9427   -1.4445   -3.8435 H   0  0  0  0  0  0  0  0  0  0  0  0
    2.9260   -4.3250   -3.9204 H   0  0  0  0  0  0  0  0  0  0  0  0
    3.0302   -3.1217   -5.2299 H   0  0  0  0  0  0  0  0  0  0  0  0
    5.1251   -2.4422   -5.4902 H   0  0  0  0  0  0  0  0  0  0  0  0
    7.7588   -0.4297   -6.4552 H   0  0  0  0  0  0  0  0  0  0  0  0
    7.1670   -3.4203   -2.4604 H   0  0  0  0  0  0  0  0  0  0  0  0
    7.8379   -1.7951   -2.1652 H   0  0  0  0  0  0  0  0  0  0  0  0
    5.9805   -2.3732   -0.5946 H   0  0  0  0  0  0  0  0  0  0  0  0
    5.6468   -0.9374   -1.5728 H   0  0  0  0  0  0  0  0  0  0  0  0
  1  2  1  0  0  0  0
  1 29  1  0  0  0  0
  1 30  1  0  0  0  0
  1 31  1  0  0  0  0
  2 32  1  0  0  0  0
  2 33  1  0  0  0  0
  3  2  1  1  0  0  0
  3 10  1  0  0  0  0
  3 14  1  0  0  0  0
  3  4  1  0  0  0  0
  4  5  1  0  0  0  0
  4 34  1  0  0  0  0
  4 35  1  0  0  0  0
  5  6  1  0  0  0  0
  5 36  1  0  0  0  0
  5 37  1  0  0  0  0
  6  7  1  1  0  0  0
  6 27  1  0  0  0  0
  6  8  1  0  0  0  0
  8  9  1  1  0  0  0
  8 10  1  0  0  0  0
  8 18  1  0  0  0  0
 10 11  1  1  0  0  0
 10 12  1  0  0  0  0
 12 13  1  0  0  0  0
 12 38  1  0  0  0  0
 12 39  1  0  0  0  0
 13 14  1  0  0  0  0
 13 40  1  0  0  0  0
 13 41  1  0  0  0  0
 14 15  1  6  0  0  0
 14 17  1  0  0  0  0
 15 16  3  0  0  0  0
 16 42  1  0  0  0  0
 17 43  1  0  0  0  0
 18 19  1  0  0  0  0
 18 44  1  0  0  0  0
 18 45  1  0  0  0  0
 19 20  1  0  0  0  0
 19 46  1  0  0  0  0
 19 47  1  0  0  0  0
 20 27  1  0  0  0  0
 20 21  2  0  0  0  0
 21 22  1  0  0  0  0
 21 48  1  0  0  0  0
 22 23  2  0  0  0  0
 22 25  1  0  0  0  0
 23 24  1  0  0  0  0
 24 49  1  0  0  0  0
 25 26  1  0  0  0  0
 25 50  1  0  0  0  0
 25 51  1  0  0  0  0
 26 27  1  0  0  0  0
 26 52  1  0  0  0  0
 26 53  1  0  0  0  0
 27 28  1  1  0  0  0
M  END
$$$$
