ZINC03830709
 OpenBabel08292219463D

 58 58  0  0  1  0  0  0  0  0999 V2000
    1.1636    1.5627    0.2135 C   0  0  0  0  0  0  0  0  0  0  0  0
    1.1751    0.0327    0.2109 C   0  0  0  0  0  0  0  0  0  0  0  0
    1.6404   -0.4714   -1.1567 C   0  0  0  0  0  0  0  0  0  0  0  0
    1.6520   -2.0014   -1.1593 C   0  0  0  0  0  0  0  0  0  0  0  0
    2.1173   -2.5055   -2.5269 C   0  0  0  0  0  0  0  0  0  0  0  0
    2.1288   -4.0355   -2.5295 C   0  0  1  0  0  0  0  0  0  0  0  0
    1.1454   -4.4067   -2.2410 H   0  0  0  0  0  0  0  0  0  0  0  0
    2.4682   -4.5329   -3.9110 C   0  0  0  0  0  0  0  0  0  0  0  0
    3.4720   -5.3569   -4.0822 C   0  0  0  0  0  0  0  0  0  0  0  0
    3.8114   -5.8543   -5.4637 C   0  0  1  0  0  0  0  0  0  0  0  0
    3.1338   -5.4230   -6.2006 H   0  0  0  0  0  0  0  0  0  0  0  0
    5.2813   -5.5162   -5.8157 C   0  0  1  0  0  0  0  0  0  0  0  0
    5.9248   -5.6371   -4.9443 H   0  0  0  0  0  0  0  0  0  0  0  0
    5.6234   -6.5673   -6.9008 C   0  0  0  0  0  0  0  0  0  0  0  0
    4.9078   -7.8485   -6.4253 C   0  0  1  0  0  0  0  0  0  0  0  0
    5.6010   -8.4783   -5.8675 H   0  0  0  0  0  0  0  0  0  0  0  0
    3.7522   -7.3950   -5.5125 C   0  0  2  0  0  0  0  0  0  0  0  0
    3.8845   -7.8056   -4.5115 H   0  0  0  0  0  0  0  0  0  0  0  0
    2.4118   -7.8499   -6.0933 C   0  0  0  0  0  0  0  0  0  0  0  0
    2.3173   -9.3523   -6.0218 C   0  0  0  0  0  0  0  0  0  0  0  0
    1.2737   -9.9173   -5.4672 C   0  0  0  0  0  0  0  0  0  0  0  0
    0.0924   -9.0774   -5.0547 C   0  0  0  0  0  0  0  0  0  0  0  0
   -1.1818   -9.6464   -5.6820 C   0  0  0  0  0  0  0  0  0  0  0  0
   -2.3812   -8.7937   -5.2632 C   0  0  0  0  0  0  0  0  0  0  0  0
   -3.6362   -9.3541   -5.8811 C   0  0  0  0  0  0  0  0  0  0  0  0
   -3.5770  -10.3438   -6.5906 O   0  0  0  0  0  0  0  0  0  0  0  0
   -4.7109   -8.8178   -5.6714 O   0  0  0  0  0  1  0  0  0  0  0  0
    4.3904   -8.5656   -7.5478 O   0  0  0  0  0  0  0  0  0  0  0  0
    5.3847   -4.1905   -6.3391 O   0  0  0  0  0  0  0  0  0  0  0  0
    3.1071   -4.5061   -1.6002 O   0  0  0  0  0  0  0  0  0  0  0  0
    2.1684    1.9340    0.0121 H   0  0  0  0  0  0  0  0  0  0  0  0
    0.4820    1.9222   -0.5575 H   0  0  0  0  0  0  0  0  0  0  0  0
    0.8320    1.9219    1.1878 H   0  0  0  0  0  0  0  0  0  0  0  0
    1.8566   -0.3268    0.9818 H   0  0  0  0  0  0  0  0  0  0  0  0
    0.1702   -0.3385    0.4123 H   0  0  0  0  0  0  0  0  0  0  0  0
    0.9589   -0.1119   -1.9276 H   0  0  0  0  0  0  0  0  0  0  0  0
    2.6453   -0.1002   -1.3581 H   0  0  0  0  0  0  0  0  0  0  0  0
    2.3335   -2.3609   -0.3884 H   0  0  0  0  0  0  0  0  0  0  0  0
    0.6471   -2.3726   -0.9579 H   0  0  0  0  0  0  0  0  0  0  0  0
    1.4358   -2.1460   -3.2978 H   0  0  0  0  0  0  0  0  0  0  0  0
    3.1222   -2.1343   -2.7283 H   0  0  0  0  0  0  0  0  0  0  0  0
    1.8837   -4.2100   -4.7599 H   0  0  0  0  0  0  0  0  0  0  0  0
    4.0565   -5.6797   -3.2334 H   0  0  0  0  0  0  0  0  0  0  0  0
    5.2386   -6.2531   -7.8710 H   0  0  0  0  0  0  0  0  0  0  0  0
    6.7004   -6.7279   -6.9503 H   0  0  0  0  0  0  0  0  0  0  0  0
    1.5980   -7.4070   -5.5192 H   0  0  0  0  0  0  0  0  0  0  0  0
    2.3390   -7.5303   -7.1328 H   0  0  0  0  0  0  0  0  0  0  0  0
    3.1100   -9.9631   -6.4279 H   0  0  0  0  0  0  0  0  0  0  0  0
    1.2598  -10.9850   -5.3055 H   0  0  0  0  0  0  0  0  0  0  0  0
   -0.0006   -9.0895   -3.9687 H   0  0  0  0  0  0  0  0  0  0  0  0
    0.2387   -8.0524   -5.3954 H   0  0  0  0  0  0  0  0  0  0  0  0
   -1.0889   -9.6342   -6.7679 H   0  0  0  0  0  0  0  0  0  0  0  0
   -1.3281  -10.6714   -5.3413 H   0  0  0  0  0  0  0  0  0  0  0  0
   -2.4741   -8.8058   -4.1772 H   0  0  0  0  0  0  0  0  0  0  0  0
   -2.2349   -7.7687   -5.6039 H   0  0  0  0  0  0  0  0  0  0  0  0
    5.0674   -8.8602   -8.1724 H   0  0  0  0  0  0  0  0  0  0  0  0
    6.2856   -3.9301   -6.5753 H   0  0  0  0  0  0  0  0  0  0  0  0
    4.0079   -4.2136   -1.7955 H   0  0  0  0  0  0  0  0  0  0  0  0
  1  2  1  0  0  0  0
  1 31  1  0  0  0  0
  1 32  1  0  0  0  0
  1 33  1  0  0  0  0
  2  3  1  0  0  0  0
  2 34  1  0  0  0  0
  2 35  1  0  0  0  0
  3  4  1  0  0  0  0
  3 36  1  0  0  0  0
  3 37  1  0  0  0  0
  4  5  1  0  0  0  0
  4 38  1  0  0  0  0
  4 39  1  0  0  0  0
  5  6  1  0  0  0  0
  5 40  1  0  0  0  0
  5 41  1  0  0  0  0
  6  7  1  1  0  0  0
  6  8  1  0  0  0  0
  6 30  1  0  0  0  0
  8  9  2  0  0  0  0
  8 42  1  0  0  0  0
  9 10  1  0  0  0  0
  9 43  1  0  0  0  0
 10 11  1  6  0  0  0
 10 17  1  0  0  0  0
 10 12  1  0  0  0  0
 12 13  1  1  0  0  0
 12 14  1  0  0  0  0
 12 29  1  0  0  0  0
 14 15  1  0  0  0  0
 14 44  1  0  0  0  0
 14 45  1  0  0  0  0
 15 16  1  1  0  0  0
 15 17  1  0  0  0  0
 15 28  1  0  0  0  0
 17 18  1  1  0  0  0
 17 19  1  0  0  0  0
 19 20  1  0  0  0  0
 19 46  1  0  0  0  0
 19 47  1  0  0  0  0
 20 21  2  0  0  0  0
 20 48  1  0  0  0  0
 21 22  1  0  0  0  0
 21 49  1  0  0  0  0
 22 23  1  0  0  0  0
 22 50  1  0  0  0  0
 22 51  1  0  0  0  0
 23 24  1  0  0  0  0
 23 52  1  0  0  0  0
 23 53  1  0  0  0  0
 24 25  1  0  0  0  0
 24 54  1  0  0  0  0
 24 55  1  0  0  0  0
 25 26  2  0  0  0  0
 25 27  1  0  0  0  0
 28 56  1  0  0  0  0
 29 57  1  0  0  0  0
 30 58  1  0  0  0  0
M  END
$$$$
