ZINC13782937
 OpenBabel08292219463D

 54 56  0  0  1  0  0  0  0  0999 V2000
    0.0233    1.5257   -0.0147 C   0  0  0  0  0  0  0  0  0  0  0  0
    0.0021   -0.0041    0.0020 C   0  0  0  0  0  0  0  0  0  0  0  0
    0.6900   -0.5374   -1.2563 C   0  0  0  0  0  0  0  0  0  0  0  0
    0.7126   -0.4907    1.1921 N   0  3  1  0  0  0  0  0  0  0  0  0
    0.0234   -0.0448    2.4322 C   0  0  2  0  0  0  0  0  0  0  0  0
    0.2382    0.9966    2.6719 H   0  0  0  0  0  0  0  0  0  0  0  0
    0.5377   -1.0135    3.5219 C   0  0  0  0  0  0  0  0  0  0  0  0
    0.9480   -2.2883    2.7558 C   0  0  0  0  0  0  0  0  0  0  0  0
    0.6442   -1.9741    1.2728 C   0  0  1  0  0  0  0  0  0  0  0  0
    1.3495   -2.4569    0.5963 H   0  0  0  0  0  0  0  0  0  0  0  0
   -0.8125   -2.3787    0.9952 C   0  0  0  0  0  0  0  0  0  0  0  0
   -1.7032   -1.8183    2.1077 C   0  0  2  0  0  0  0  0  0  0  0  0
   -1.4801   -0.2947    2.2329 C   0  0  0  0  0  0  0  0  0  0  0  0
   -1.3780   -2.4566    3.3441 O   0  0  0  0  0  0  0  0  0  0  0  0
   -2.3678   -2.5877    4.2411 C   0  0  0  0  0  0  0  0  0  0  0  0
   -3.4738   -2.1741    3.9851 O   0  0  0  0  0  0  0  0  0  0  0  0
   -2.0997   -3.2507    5.5676 C   0  0  1  0  0  0  0  0  0  0  0  0
   -1.7586   -4.2724    5.4008 H   0  0  0  0  0  0  0  0  0  0  0  0
   -1.0206   -2.4691    6.3196 C   0  0  0  0  0  0  0  0  0  0  0  0
   -0.6831   -3.1609    7.5235 O   0  0  0  0  0  0  0  0  0  0  0  0
   -3.3662   -3.2709    6.3842 C   0  0  0  0  0  0  0  0  0  0  0  0
   -3.9918   -2.0846    6.7189 C   0  0  0  0  0  0  0  0  0  0  0  0
   -5.1535   -2.1031    7.4679 C   0  0  0  0  0  0  0  0  0  0  0  0
   -5.6898   -3.3081    7.8818 C   0  0  0  0  0  0  0  0  0  0  0  0
   -5.0647   -4.4945    7.5463 C   0  0  0  0  0  0  0  0  0  0  0  0
   -3.9053   -4.4761    6.7937 C   0  0  0  0  0  0  0  0  0  0  0  0
    2.1097   -0.0371    1.1815 C   0  0  0  0  0  0  0  0  0  0  0  0
    1.0557    1.8745   -0.0399 H   0  0  0  0  0  0  0  0  0  0  0  0
   -0.5039    1.8868   -0.8977 H   0  0  0  0  0  0  0  0  0  0  0  0
   -0.4668    1.9057    0.8818 H   0  0  0  0  0  0  0  0  0  0  0  0
   -1.0303   -0.3529    0.0272 H   0  0  0  0  0  0  0  0  0  0  0  0
    1.7224   -0.1886   -1.2815 H   0  0  0  0  0  0  0  0  0  0  0  0
    0.6749   -1.6272   -1.2444 H   0  0  0  0  0  0  0  0  0  0  0  0
    0.1628   -0.1763   -2.1393 H   0  0  0  0  0  0  0  0  0  0  0  0
    1.3991   -0.5852    4.0343 H   0  0  0  0  0  0  0  0  0  0  0  0
   -0.2556   -1.2382    4.2348 H   0  0  0  0  0  0  0  0  0  0  0  0
    2.0111   -2.4868    2.8914 H   0  0  0  0  0  0  0  0  0  0  0  0
    0.3564   -3.1399    3.0919 H   0  0  0  0  0  0  0  0  0  0  0  0
   -1.1279   -1.9712    0.0348 H   0  0  0  0  0  0  0  0  0  0  0  0
   -0.8922   -3.4657    0.9765 H   0  0  0  0  0  0  0  0  0  0  0  0
   -2.7488   -2.0094    1.8659 H   0  0  0  0  0  0  0  0  0  0  0  0
   -2.0304    0.0835    3.0944 H   0  0  0  0  0  0  0  0  0  0  0  0
   -1.8180    0.2135    1.3297 H   0  0  0  0  0  0  0  0  0  0  0  0
   -0.1340   -2.3782    5.6920 H   0  0  0  0  0  0  0  0  0  0  0  0
   -1.3957   -1.4754    6.5645 H   0  0  0  0  0  0  0  0  0  0  0  0
   -0.0030   -2.7214    8.0523 H   0  0  0  0  0  0  0  0  0  0  0  0
   -3.5728   -1.1432    6.3956 H   0  0  0  0  0  0  0  0  0  0  0  0
   -5.6419   -1.1762    7.7300 H   0  0  0  0  0  0  0  0  0  0  0  0
   -6.5970   -3.3226    8.4676 H   0  0  0  0  0  0  0  0  0  0  0  0
   -5.4835   -5.4359    7.8700 H   0  0  0  0  0  0  0  0  0  0  0  0
   -3.4190   -5.4032    6.5284 H   0  0  0  0  0  0  0  0  0  0  0  0
    2.1379    1.0523    1.1599 H   0  0  0  0  0  0  0  0  0  0  0  0
    2.6151   -0.3959    2.0781 H   0  0  0  0  0  0  0  0  0  0  0  0
    2.6129   -0.4311    0.2985 H   0  0  0  0  0  0  0  0  0  0  0  0
  1  2  1  0  0  0  0
  1 28  1  0  0  0  0
  1 29  1  0  0  0  0
  1 30  1  0  0  0  0
  2  3  1  0  0  0  0
  2 31  1  0  0  0  0
  3 32  1  0  0  0  0
  3 33  1  0  0  0  0
  3 34  1  0  0  0  0
  4  2  1  6  0  0  0
  4  9  1  0  0  0  0
  4  5  1  0  0  0  0
  4 27  1  0  0  0  0
  5  6  1  1  0  0  0
  5 13  1  0  0  0  0
  5  7  1  0  0  0  0
  7  8  1  0  0  0  0
  7 35  1  0  0  0  0
  7 36  1  0  0  0  0
  8  9  1  0  0  0  0
  8 37  1  0  0  0  0
  8 38  1  0  0  0  0
  9 10  1  6  0  0  0
  9 11  1  0  0  0  0
 11 12  1  0  0  0  0
 11 39  1  0  0  0  0
 11 40  1  0  0  0  0
 12 13  1  0  0  0  0
 12 14  1  0  0  0  0
 12 41  1  6  0  0  0
 13 42  1  0  0  0  0
 13 43  1  0  0  0  0
 14 15  1  0  0  0  0
 15 16  2  0  0  0  0
 15 17  1  0  0  0  0
 17 18  1  6  0  0  0
 17 19  1  0  0  0  0
 17 21  1  0  0  0  0
 19 20  1  0  0  0  0
 19 44  1  0  0  0  0
 19 45  1  0  0  0  0
 20 46  1  0  0  0  0
 21 26  2  0  0  0  0
 21 22  1  0  0  0  0
 22 23  2  0  0  0  0
 22 47  1  0  0  0  0
 23 24  1  0  0  0  0
 23 48  1  0  0  0  0
 24 25  2  0  0  0  0
 24 49  1  0  0  0  0
 25 26  1  0  0  0  0
 25 50  1  0  0  0  0
 26 51  1  0  0  0  0
 27 52  1  0  0  0  0
 27 53  1  0  0  0  0
 27 54  1  0  0  0  0
M  CHG  1   4   1
M  END
$$$$
