ZINC03830994
 OpenBabel08292219463D

 35 36  0  0  1  0  0  0  0  0999 V2000
    4.1789    5.0963    1.1874 C   0  0  0  0  0  0  0  0  0  0  0  0
    4.7725    5.4346   -0.0147 C   0  0  0  0  0  0  0  0  0  0  0  0
    4.1568    5.1079   -1.2089 C   0  0  0  0  0  0  0  0  0  0  0  0
    2.9458    4.4421   -1.2039 C   0  0  0  0  0  0  0  0  0  0  0  0
    2.3476    4.1013    0.0012 C   0  0  0  0  0  0  0  0  0  0  0  0
    2.9654    4.4351    1.1984 C   0  0  0  0  0  0  0  0  0  0  0  0
    2.0628    3.9307    3.0204 I   0  0  0  0  0  0  0  0  0  0  0  0
    1.1566    3.4470    0.0091 O   0  0  0  0  0  0  0  0  0  0  0  0
    1.1751    2.0875    0.0020 C   0  0  0  0  0  0  0  0  0  0  0  0
   -0.0167    1.3776    0.0096 C   0  0  0  0  0  0  0  0  0  0  0  0
    0.0021   -0.0041    0.0020 C   0  0  0  0  0  0  0  0  0  0  0  0
    1.2128   -0.6813   -0.0132 C   0  0  0  0  0  0  0  0  0  0  0  0
    2.4047    0.0288   -0.0207 C   0  0  0  0  0  0  0  0  0  0  0  0
    2.3858    1.4105   -0.0131 C   0  0  0  0  0  0  0  0  0  0  0  0
    4.2331   -0.9937   -0.0429 I   0  0  0  0  0  0  0  0  0  0  0  0
    1.2314   -2.0411   -0.0202 O   0  0  0  0  0  0  0  0  0  0  0  0
   -1.7978   -1.0762    0.0141 I   0  0  0  0  0  0  0  0  0  0  0  0
    2.0140    3.9471   -3.0139 I   0  0  0  0  0  0  0  0  0  0  0  0
    6.0933    6.1602   -0.0234 C   0  0  0  0  0  0  0  0  0  0  0  0
    5.8458    7.6700   -0.0141 C   0  0  2  0  0  0  0  0  0  0  0  0
    5.1976    7.9371   -0.8488 H   0  0  0  0  0  0  0  0  0  0  0  0
    7.1601    8.3954   -0.1466 C   0  0  0  0  0  0  0  0  0  0  0  0
    7.6978    8.8551    0.8329 O   0  0  0  0  0  0  0  0  0  0  0  0
    4.6619    5.3530    2.1186 H   0  0  0  0  0  0  0  0  0  0  0  0
    4.6225    5.3737   -2.1464 H   0  0  0  0  0  0  0  0  0  0  0  0
   -0.9592    1.9048    0.0169 H   0  0  0  0  0  0  0  0  0  0  0  0
    3.3136    1.9632   -0.0193 H   0  0  0  0  0  0  0  0  0  0  0  0
    1.2281   -2.4299   -0.9056 H   0  0  0  0  0  0  0  0  0  0  0  0
    6.6672    5.8807    0.8600 H   0  0  0  0  0  0  0  0  0  0  0  0
    6.6510    5.8890   -0.9198 H   0  0  0  0  0  0  0  0  0  0  0  0
    5.7820    7.8153    2.0385 H   0  0  0  0  0  0  0  0  0  0  0  0
    4.9680    9.0345    1.2532 H   0  0  0  0  0  0  0  0  0  0  0  0
    7.7334    8.5307   -1.3527 O   0  0  0  0  0  1  0  0  0  0  0  0
    5.1797    8.0381    1.2478 N   0  3  0  0  0  0  0  0  0  0  0  0
    4.3040    7.5091    1.3341 H   0  0  0  0  0  0  0  0  0  0  0  0
  1  6  2  0  0  0  0
  1  2  1  0  0  0  0
  1 24  1  0  0  0  0
  2  3  2  0  0  0  0
  2 19  1  0  0  0  0
  3  4  1  0  0  0  0
  3 25  1  0  0  0  0
  4  5  2  0  0  0  0
  4 18  1  0  0  0  0
  5  6  1  0  0  0  0
  5  8  1  0  0  0  0
  6  7  1  0  0  0  0
  8  9  1  0  0  0  0
  9 14  2  0  0  0  0
  9 10  1  0  0  0  0
 10 11  2  0  0  0  0
 10 26  1  0  0  0  0
 11 12  1  0  0  0  0
 11 17  1  0  0  0  0
 12 13  2  0  0  0  0
 12 16  1  0  0  0  0
 13 14  1  0  0  0  0
 13 15  1  0  0  0  0
 14 27  1  0  0  0  0
 16 28  1  0  0  0  0
 19 20  1  0  0  0  0
 19 29  1  0  0  0  0
 19 30  1  0  0  0  0
 20 21  1  6  0  0  0
 20 22  1  0  0  0  0
 20 34  1  0  0  0  0
 22 23  2  0  0  0  0
 22 33  1  0  0  0  0
 31 34  1  0  0  0  0
 32 34  1  0  0  0  0
 34 35  1  0  0  0  0
M  CHG  1  34   1
M  END
$$$$
