ZINC03875992
 OpenBabel08292219463D

 47 50  0  0  1  0  0  0  0  0999 V2000
   -0.2085    1.4109   -0.0720 C   0  0  0  0  0  0  0  0  0  0  0  0
   -0.0753    0.1078   -0.0873 C   0  0  0  0  0  0  0  0  0  0  0  0
   -1.2926   -0.7753    0.0102 C   0  0  0  0  0  0  0  0  0  0  0  0
   -1.3177   -1.7022   -1.1291 N   0  3  1  0  0  0  0  0  0  0  0  0
   -0.1540   -2.5882   -1.0471 C   0  0  0  0  0  0  0  0  0  0  0  0
   -0.1681   -3.5710   -2.2247 C   0  0  0  0  0  0  0  0  0  0  0  0
   -1.4555   -4.4013   -2.1178 C   0  0  2  0  0  0  0  0  0  0  0  0
   -1.4950   -5.4605   -3.2116 C   0  0  0  0  0  0  0  0  0  0  0  0
   -2.8003   -6.2539   -3.1112 C   0  0  0  0  0  0  0  0  0  0  0  0
   -3.9882   -5.3017   -3.2639 C   0  0  0  0  0  0  0  0  0  0  0  0
   -3.9479   -4.2503   -2.1531 C   0  0  0  0  0  0  0  0  0  0  0  0
   -2.6476   -3.4510   -2.2553 C   0  0  1  0  0  0  0  0  0  0  0  0
   -2.6033   -2.9418   -3.2180 H   0  0  0  0  0  0  0  0  0  0  0  0
   -2.5722   -2.4407   -1.1101 C   0  0  1  0  0  0  0  0  0  0  0  0
   -3.3807   -1.7231   -1.2498 H   0  0  0  0  0  0  0  0  0  0  0  0
   -2.8246   -3.1360    0.2151 C   0  0  0  0  0  0  0  0  0  0  0  0
   -2.1009   -4.4512    0.3186 C   0  0  0  0  0  0  0  0  0  0  0  0
   -1.4782   -5.0478   -0.7559 C   0  0  0  0  0  0  0  0  0  0  0  0
   -0.8479   -6.2723   -0.6023 C   0  0  0  0  0  0  0  0  0  0  0  0
   -0.8270   -6.8991    0.6331 C   0  0  0  0  0  0  0  0  0  0  0  0
   -1.4408   -6.2921    1.7190 C   0  0  0  0  0  0  0  0  0  0  0  0
   -2.0729   -5.0774    1.5592 C   0  0  0  0  0  0  0  0  0  0  0  0
   -0.2089   -8.1004    0.7802 O   0  0  0  0  0  0  0  0  0  0  0  0
    0.6639    2.0437   -0.1419 H   0  0  0  0  0  0  0  0  0  0  0  0
   -1.1910    1.8524    0.0059 H   0  0  0  0  0  0  0  0  0  0  0  0
    0.9069   -0.3338   -0.1697 H   0  0  0  0  0  0  0  0  0  0  0  0
   -1.2561   -1.3431    0.9399 H   0  0  0  0  0  0  0  0  0  0  0  0
   -2.1911   -0.1583   -0.0035 H   0  0  0  0  0  0  0  0  0  0  0  0
    0.7583   -1.9927   -1.0826 H   0  0  0  0  0  0  0  0  0  0  0  0
   -0.1870   -3.1443   -0.1102 H   0  0  0  0  0  0  0  0  0  0  0  0
   -0.1593   -3.0211   -3.1658 H   0  0  0  0  0  0  0  0  0  0  0  0
    0.7009   -4.2267   -2.1700 H   0  0  0  0  0  0  0  0  0  0  0  0
   -1.4381   -4.9772   -4.1870 H   0  0  0  0  0  0  0  0  0  0  0  0
   -0.6489   -6.1372   -3.0923 H   0  0  0  0  0  0  0  0  0  0  0  0
   -2.8316   -7.0036   -3.9017 H   0  0  0  0  0  0  0  0  0  0  0  0
   -2.8522   -6.7468   -2.1404 H   0  0  0  0  0  0  0  0  0  0  0  0
   -3.9349   -4.8073   -4.2339 H   0  0  0  0  0  0  0  0  0  0  0  0
   -4.9177   -5.8668   -3.1954 H   0  0  0  0  0  0  0  0  0  0  0  0
   -4.7980   -3.5764   -2.2596 H   0  0  0  0  0  0  0  0  0  0  0  0
   -3.9953   -4.7447   -1.1829 H   0  0  0  0  0  0  0  0  0  0  0  0
   -2.4923   -2.4854    1.0241 H   0  0  0  0  0  0  0  0  0  0  0  0
   -3.8948   -3.3123    0.3232 H   0  0  0  0  0  0  0  0  0  0  0  0
   -0.3706   -6.7408   -1.4503 H   0  0  0  0  0  0  0  0  0  0  0  0
   -1.4239   -6.7702    2.6873 H   0  0  0  0  0  0  0  0  0  0  0  0
   -2.5512   -4.6080    2.4061 H   0  0  0  0  0  0  0  0  0  0  0  0
    0.7257   -8.0351    1.0196 H   0  0  0  0  0  0  0  0  0  0  0  0
   -1.2634   -1.1705   -1.9849 H   0  0  0  0  0  0  0  0  0  0  0  0
  1  2  2  0  0  0  0
  1 24  1  0  0  0  0
  1 25  1  0  0  0  0
  2  3  1  0  0  0  0
  2 26  1  0  0  0  0
  3  4  1  0  0  0  0
  3 27  1  0  0  0  0
  3 28  1  0  0  0  0
  4 14  1  0  0  0  0
  4  5  1  0  0  0  0
  4 47  1  6  0  0  0
  5  6  1  0  0  0  0
  5 29  1  0  0  0  0
  5 30  1  0  0  0  0
  6  7  1  0  0  0  0
  6 31  1  0  0  0  0
  6 32  1  0  0  0  0
  7 12  1  0  0  0  0
  7 18  1  1  0  0  0
  7  8  1  0  0  0  0
  8  9  1  0  0  0  0
  8 33  1  0  0  0  0
  8 34  1  0  0  0  0
  9 10  1  0  0  0  0
  9 35  1  0  0  0  0
  9 36  1  0  0  0  0
 10 11  1  0  0  0  0
 10 37  1  0  0  0  0
 10 38  1  0  0  0  0
 11 12  1  0  0  0  0
 11 39  1  0  0  0  0
 11 40  1  0  0  0  0
 12 13  1  6  0  0  0
 12 14  1  0  0  0  0
 14 15  1  6  0  0  0
 14 16  1  0  0  0  0
 16 17  1  0  0  0  0
 16 41  1  0  0  0  0
 16 42  1  0  0  0  0
 17 22  2  0  0  0  0
 17 18  1  0  0  0  0
 18 19  2  0  0  0  0
 19 20  1  0  0  0  0
 19 43  1  0  0  0  0
 20 21  2  0  0  0  0
 20 23  1  0  0  0  0
 21 22  1  0  0  0  0
 21 44  1  0  0  0  0
 22 45  1  0  0  0  0
 23 46  1  0  0  0  0
M  CHG  1   4   1
M  END
$$$$
