ZINC00001673
 OpenBabel08292219463D

 37 37  0  0  1  0  0  0  0  0999 V2000
   -1.0424   -0.9574   -2.9747 C   0  0  0  0  0  0  0  0  0  0  0  0
   -1.7770   -0.5964   -4.0871 C   0  0  0  0  0  0  0  0  0  0  0  0
   -1.5374    0.6217   -4.7103 C   0  0  0  0  0  0  0  0  0  0  0  0
   -0.5631    1.4753   -4.2085 C   0  0  0  0  0  0  0  0  0  0  0  0
    0.1640    1.1105   -3.0924 C   0  0  0  0  0  0  0  0  0  0  0  0
   -0.0771   -0.1029   -2.4745 C   0  0  0  0  0  0  0  0  0  0  0  0
    0.7182   -0.4975   -1.2568 C   0  0  0  0  0  0  0  0  0  0  0  0
    0.0021   -0.0041    0.0020 C   0  0  1  0  0  0  0  0  0  0  0  0
   -1.0205   -0.3814    0.0098 H   0  0  0  0  0  0  0  0  0  0  0  0
    0.7309   -0.5033    1.2229 C   0  0  0  0  0  0  0  0  0  0  0  0
    1.4853    0.2294    1.8179 O   0  0  0  0  0  0  0  0  0  0  0  0
   -2.2748    0.9877   -5.8386 N   0  0  0  0  0  0  0  0  0  0  0  0
   -3.3020    0.0862   -6.3664 C   0  0  0  0  0  0  0  0  0  0  0  0
   -4.6448    0.3990   -5.7031 C   0  0  0  0  0  0  0  0  0  0  0  0
   -5.9089   -0.7104   -6.3526 Cl  0  0  0  0  0  0  0  0  0  0  0  0
   -2.0211    2.2730   -6.4943 C   0  0  0  0  0  0  0  0  0  0  0  0
   -0.9476    2.0938   -7.5697 C   0  0  0  0  0  0  0  0  0  0  0  0
   -0.6354    3.6756   -8.3767 Cl  0  0  0  0  0  0  0  0  0  0  0  0
   -1.2249   -1.9064   -2.4925 H   0  0  0  0  0  0  0  0  0  0  0  0
   -2.5337   -1.2623   -4.4747 H   0  0  0  0  0  0  0  0  0  0  0  0
   -0.3745    2.4232   -4.6905 H   0  0  0  0  0  0  0  0  0  0  0  0
    0.9214    1.7738   -2.7016 H   0  0  0  0  0  0  0  0  0  0  0  0
    1.7103   -0.0491   -1.3098 H   0  0  0  0  0  0  0  0  0  0  0  0
    0.8116   -1.5829   -1.2198 H   0  0  0  0  0  0  0  0  0  0  0  0
    0.9191    1.8392    0.0032 H   0  0  0  0  0  0  0  0  0  0  0  0
   -0.5563    1.8234   -0.7642 H   0  0  0  0  0  0  0  0  0  0  0  0
   -3.3881    0.2249   -7.4441 H   0  0  0  0  0  0  0  0  0  0  0  0
   -3.0235   -0.9459   -6.1540 H   0  0  0  0  0  0  0  0  0  0  0  0
   -4.5586    0.2604   -4.6254 H   0  0  0  0  0  0  0  0  0  0  0  0
   -4.9232    1.4312   -5.9155 H   0  0  0  0  0  0  0  0  0  0  0  0
   -2.9407    2.6334   -6.9554 H   0  0  0  0  0  0  0  0  0  0  0  0
   -1.6776    2.9965   -5.7550 H   0  0  0  0  0  0  0  0  0  0  0  0
   -0.0281    1.7334   -7.1086 H   0  0  0  0  0  0  0  0  0  0  0  0
   -1.2912    1.3703   -8.3090 H   0  0  0  0  0  0  0  0  0  0  0  0
    0.5421   -1.7619    1.6494 O   0  0  0  0  0  1  0  0  0  0  0  0
   -0.0294    1.4689    0.0323 N   0  3  0  0  0  0  0  0  0  0  0  0
   -0.4837    1.7790    0.8993 H   0  0  0  0  0  0  0  0  0  0  0  0
  1  6  2  0  0  0  0
  1  2  1  0  0  0  0
  1 19  1  0  0  0  0
  2  3  2  0  0  0  0
  2 20  1  0  0  0  0
  3  4  1  0  0  0  0
  3 12  1  0  0  0  0
  4  5  2  0  0  0  0
  4 21  1  0  0  0  0
  5  6  1  0  0  0  0
  5 22  1  0  0  0  0
  6  7  1  0  0  0  0
  7  8  1  0  0  0  0
  7 23  1  0  0  0  0
  7 24  1  0  0  0  0
  8  9  1  1  0  0  0
  8 10  1  0  0  0  0
  8 36  1  0  0  0  0
 10 11  2  0  0  0  0
 10 35  1  0  0  0  0
 12 13  1  0  0  0  0
 12 16  1  0  0  0  0
 13 14  1  0  0  0  0
 13 27  1  0  0  0  0
 13 28  1  0  0  0  0
 14 15  1  0  0  0  0
 14 29  1  0  0  0  0
 14 30  1  0  0  0  0
 16 17  1  0  0  0  0
 16 31  1  0  0  0  0
 16 32  1  0  0  0  0
 17 18  1  0  0  0  0
 17 33  1  0  0  0  0
 17 34  1  0  0  0  0
 25 36  1  0  0  0  0
 26 36  1  0  0  0  0
 36 37  1  0  0  0  0
M  CHG  1  36   1
M  END
$$$$
