ZINC01542392
 OpenBabel08292219463D

 56 58  0  0  1  0  0  0  0  0999 V2000
   -0.0178    1.4608    0.0101 C   0  0  0  0  0  0  0  0  0  0  0  0
    0.0021   -0.0041    0.0020 N   0  0  0  0  0  0  0  0  0  0  0  0
    0.0241   -0.7433    1.2666 C   0  0  0  0  0  0  0  0  0  0  0  0
   -1.4105   -1.0203    1.7205 C   0  0  0  0  0  0  0  0  0  0  0  0
   -1.3875   -1.7923    3.0413 C   0  0  0  0  0  0  0  0  0  0  0  0
   -2.7612   -2.0575    3.4759 N   0  0  0  0  0  0  0  0  0  0  0  0
   -2.9875   -2.7295    4.6221 C   0  0  0  0  0  0  0  0  0  0  0  0
   -2.0539   -3.1146    5.2937 O   0  0  0  0  0  0  0  0  0  0  0  0
   -4.4005   -3.0023    5.0692 C   0  0  2  0  0  0  0  0  0  0  0  0
   -4.9420   -3.5282    4.2828 H   0  0  0  0  0  0  0  0  0  0  0  0
   -5.1126   -1.6720    5.3958 C   0  0  0  0  0  0  0  0  0  0  0  0
   -5.9430   -2.0431    6.6546 C   0  0  0  0  0  0  0  0  0  0  0  0
   -4.9979   -3.0613    7.3408 C   0  0  0  0  0  0  0  0  0  0  0  0
   -4.3882   -3.7933    6.2633 O   0  0  0  0  0  0  0  0  0  0  0  0
    0.0000   -0.6895   -1.2002 C   0  0  0  0  0  0  0  0  0  0  0  0
   -0.0147    0.0031   -2.3228 N   0  0  0  0  0  0  0  0  0  0  0  0
   -0.0176   -0.6255   -3.5089 C   0  0  0  0  0  3  0  0  0  0  0  0
   -0.0330    0.0812   -4.7179 C   0  0  0  0  0  0  0  0  0  0  0  0
   -0.0350   -0.6109   -5.9088 C   0  0  0  0  0  0  0  0  0  0  0  0
   -0.0223   -2.0124   -5.9221 C   0  0  0  0  0  0  0  0  0  0  0  0
   -0.0071   -2.7213   -4.7549 C   0  0  0  0  0  0  0  0  0  0  0  0
   -0.0043   -2.0417   -3.5303 C   0  0  0  0  0  0  0  0  0  0  0  0
    0.0117   -2.7310   -2.2937 C   0  0  0  0  0  0  0  0  0  0  0  0
    0.0183   -2.0190   -1.1759 N   0  0  0  0  0  0  0  0  0  0  0  0
    0.0253   -4.1098   -2.2534 N   0  0  0  0  0  0  0  0  0  0  0  0
   -0.0255   -2.6738   -7.1106 O   0  0  0  0  0  0  0  0  0  0  0  0
   -0.0120   -4.1018   -7.0585 C   0  0  0  0  0  0  0  0  0  0  0  0
   -0.0499    0.0722   -7.0830 O   0  0  0  0  0  0  0  0  0  0  0  0
   -0.0628    1.4989   -7.0034 C   0  0  0  0  0  0  0  0  0  0  0  0
    1.0048    1.8381    0.0023 H   0  0  0  0  0  0  0  0  0  0  0  0
   -0.5450    1.8219   -0.8730 H   0  0  0  0  0  0  0  0  0  0  0  0
   -0.5280    1.8123    0.9069 H   0  0  0  0  0  0  0  0  0  0  0  0
    0.5496   -1.6879    1.1262 H   0  0  0  0  0  0  0  0  0  0  0  0
    0.5371   -0.1514    2.0246 H   0  0  0  0  0  0  0  0  0  0  0  0
   -1.9359   -0.0757    1.8610 H   0  0  0  0  0  0  0  0  0  0  0  0
   -1.9235   -1.6122    0.9626 H   0  0  0  0  0  0  0  0  0  0  0  0
   -0.8620   -2.7369    2.9008 H   0  0  0  0  0  0  0  0  0  0  0  0
   -0.8745   -1.2004    3.7993 H   0  0  0  0  0  0  0  0  0  0  0  0
   -3.5078   -1.7495    2.9388 H   0  0  0  0  0  0  0  0  0  0  0  0
   -4.3882   -0.8905    5.6253 H   0  0  0  0  0  0  0  0  0  0  0  0
   -5.7645   -1.3696    4.5762 H   0  0  0  0  0  0  0  0  0  0  0  0
   -6.1074   -1.1712    7.2878 H   0  0  0  0  0  0  0  0  0  0  0  0
   -6.8886   -2.5094    6.3780 H   0  0  0  0  0  0  0  0  0  0  0  0
   -4.2378   -2.5396    7.9223 H   0  0  0  0  0  0  0  0  0  0  0  0
   -5.5680   -3.7353    7.9801 H   0  0  0  0  0  0  0  0  0  0  0  0
   -0.0436    1.1612   -4.7164 H   0  0  0  0  0  0  0  0  0  0  0  0
    0.0022   -3.8010   -4.7761 H   0  0  0  0  0  0  0  0  0  0  0  0
    0.0239   -4.6192   -3.0789 H   0  0  0  0  0  0  0  0  0  0  0  0
    0.0362   -4.5700   -1.3996 H   0  0  0  0  0  0  0  0  0  0  0  0
   -0.8947   -4.4542   -6.5248 H   0  0  0  0  0  0  0  0  0  0  0  0
   -0.0163   -4.5025   -8.0721 H   0  0  0  0  0  0  0  0  0  0  0  0
    0.8852   -4.4380   -6.5387 H   0  0  0  0  0  0  0  0  0  0  0  0
   -0.0740    1.9188   -8.0092 H   0  0  0  0  0  0  0  0  0  0  0  0
   -0.9521    1.8247   -6.4638 H   0  0  0  0  0  0  0  0  0  0  0  0
    0.8277    1.8416   -6.4766 H   0  0  0  0  0  0  0  0  0  0  0  0
   -0.0238    0.9725   -2.2910 H   0  0  0  0  0  0  0  0  0  0  0  0
  1  2  1  0  0  0  0
  1 30  1  0  0  0  0
  1 31  1  0  0  0  0
  1 32  1  0  0  0  0
  2  3  1  0  0  0  0
  2 15  1  0  0  0  0
  3  4  1  0  0  0  0
  3 33  1  0  0  0  0
  3 34  1  0  0  0  0
  4  5  1  0  0  0  0
  4 35  1  0  0  0  0
  4 36  1  0  0  0  0
  5  6  1  0  0  0  0
  5 37  1  0  0  0  0
  5 38  1  0  0  0  0
  6  7  1  0  0  0  0
  6 39  1  0  0  0  0
  7  8  2  0  0  0  0
  7  9  1  0  0  0  0
  9 10  1  6  0  0  0
  9 14  1  0  0  0  0
  9 11  1  0  0  0  0
 11 12  1  0  0  0  0
 11 40  1  0  0  0  0
 11 41  1  0  0  0  0
 12 13  1  0  0  0  0
 12 42  1  0  0  0  0
 12 43  1  0  0  0  0
 13 14  1  0  0  0  0
 13 44  1  0  0  0  0
 13 45  1  0  0  0  0
 15 24  2  0  0  0  0
 15 16  1  0  0  0  0
 16 17  1  0  0  0  0
 16 56  1  0  0  0  0
 17 22  1  0  0  0  0
 17 18  1  0  0  0  0
 18 19  2  0  0  0  0
 18 46  1  0  0  0  0
 19 20  1  0  0  0  0
 19 28  1  0  0  0  0
 20 21  2  0  0  0  0
 20 26  1  0  0  0  0
 21 22  1  0  0  0  0
 21 47  1  0  0  0  0
 22 23  2  0  0  0  0
 23 24  1  0  0  0  0
 23 25  1  0  0  0  0
 25 48  1  0  0  0  0
 25 49  1  0  0  0  0
 26 27  1  0  0  0  0
 27 50  1  0  0  0  0
 27 51  1  0  0  0  0
 27 52  1  0  0  0  0
 28 29  1  0  0  0  0
 29 53  1  0  0  0  0
 29 54  1  0  0  0  0
 29 55  1  0  0  0  0
M  END
$$$$
