ZINC03830387
 OpenBabel08292219463D

 21 20  0  0  0  0  0  0  0  0999 V2000
    2.4220    1.1852   -0.0147 C   0  0  0  0  0  0  0  0  0  0  0  0
    3.5713    2.1952   -0.0203 C   0  0  0  0  0  0  0  0  0  0  0  0
    5.1447    1.3150   -0.0400 Cl  0  0  0  0  0  0  0  0  0  0  0  0
    1.1435    1.9004    0.0013 N   0  0  0  0  0  0  0  0  0  0  0  0
   -0.0144    1.2107    0.0087 C   0  0  0  0  0  0  0  0  0  0  0  0
    0.0021   -0.0041    0.0020 O   0  0  0  0  0  0  0  0  0  0  0  0
   -1.1906    1.8686    0.0179 N   0  0  0  0  0  0  0  0  0  0  0  0
   -2.4493    1.1190    0.0197 C   0  0  0  0  0  0  0  0  0  0  0  0
   -2.8806    0.8501    1.4629 C   0  0  0  0  0  0  0  0  0  0  0  0
   -4.4297   -0.0725    1.4652 Cl  0  0  0  0  0  0  0  0  0  0  0  0
   -1.2081    3.1585    0.0249 N   0  0  0  0  0  0  0  0  0  0  0  0
   -2.2711    3.7531    0.0332 O   0  0  0  0  0  0  0  0  0  0  0  0
    2.4967    0.5546    0.8712 H   0  0  0  0  0  0  0  0  0  0  0  0
    2.4797    0.5642   -0.9086 H   0  0  0  0  0  0  0  0  0  0  0  0
    3.4965    2.8258   -0.9062 H   0  0  0  0  0  0  0  0  0  0  0  0
    3.5135    2.8162    0.8737 H   0  0  0  0  0  0  0  0  0  0  0  0
    1.1303    2.8703    0.0067 H   0  0  0  0  0  0  0  0  0  0  0  0
   -3.2193    1.7004   -0.4873 H   0  0  0  0  0  0  0  0  0  0  0  0
   -2.3085    0.1712   -0.4999 H   0  0  0  0  0  0  0  0  0  0  0  0
   -2.1106    0.2687    1.9699 H   0  0  0  0  0  0  0  0  0  0  0  0
   -3.0214    1.7979    1.9825 H   0  0  0  0  0  0  0  0  0  0  0  0
  1  2  1  0  0  0  0
  1  4  1  0  0  0  0
  1 13  1  0  0  0  0
  1 14  1  0  0  0  0
  2  3  1  0  0  0  0
  2 15  1  0  0  0  0
  2 16  1  0  0  0  0
  4  5  1  0  0  0  0
  4 17  1  0  0  0  0
  5  6  2  0  0  0  0
  5  7  1  0  0  0  0
  7  8  1  0  0  0  0
  7 11  1  0  0  0  0
  8  9  1  0  0  0  0
  8 18  1  0  0  0  0
  8 19  1  0  0  0  0
  9 10  1  0  0  0  0
  9 20  1  0  0  0  0
  9 21  1  0  0  0  0
 11 12  2  0  0  0  0
M  END
$$$$
