ZINC85536982
 OpenBabel08292219463D

 97105  0  0  1  0  0  0  0  0999 V2000
   -0.0184    1.5025    0.0103 C   0  0  0  0  0  0  0  0  0  0  0  0
    0.0021   -0.0041    0.0020 C   0  0  0  0  0  0  0  0  0  0  0  0
   -0.0153   -0.6910   -1.1958 C   0  0  0  0  0  0  0  0  0  0  0  0
    0.0225   -2.0751   -1.2124 C   0  0  0  0  0  0  0  0  0  0  0  0
    0.0893   -2.7857   -0.0271 C   0  0  0  0  0  0  0  0  0  0  0  0
    0.0531   -2.0985    1.1772 C   0  0  0  0  0  0  0  0  0  0  0  0
    0.0230   -0.7080    1.1940 C   0  0  0  0  0  0  0  0  0  0  0  0
    0.0127   -0.0413    2.3793 O   0  0  0  0  0  0  0  0  0  0  0  0
   -1.2651    0.2479    2.9500 C   0  0  0  0  0  0  0  0  0  0  0  0
    0.0149   -2.7765    2.3564 O   0  0  0  0  0  0  0  0  0  0  0  0
    0.2100   -4.2864   -0.0333 C   0  0  2  0  0  0  0  0  0  0  0  0
   -0.3131   -4.6745    0.8531 H   0  0  0  0  0  0  0  0  0  0  0  0
    1.6437   -4.7591   -0.0116 C   0  0  2  0  0  0  0  0  0  0  0  0
    1.7167   -5.8287   -0.0363 H   0  0  0  0  0  0  0  0  0  0  0  0
    2.3462   -4.2265    1.2336 C   0  0  2  0  0  0  0  0  0  0  0  0
    2.0030   -3.1968    1.4026 H   0  0  0  0  0  0  0  0  0  0  0  0
    3.8473   -4.1348    1.0865 C   0  0  0  0  0  0  0  0  0  0  0  0
    4.4709   -4.5366   -0.0826 C   0  0  0  0  0  0  0  0  0  0  0  0
    5.8472   -4.4371   -0.1718 C   0  0  0  0  0  0  0  0  0  0  0  0
    6.5980   -3.9327    0.9006 C   0  0  0  0  0  0  0  0  0  0  0  0
    5.9796   -3.5217    2.0741 C   0  0  0  0  0  0  0  0  0  0  0  0
    4.5932   -3.6289    2.1437 C   0  0  0  0  0  0  0  0  0  0  0  0
    3.9607   -3.2176    3.2746 O   0  0  0  0  0  0  0  0  0  0  0  0
    3.7665   -4.1181    4.2511 C   0  0  0  0  0  0  0  0  0  0  0  0
    4.1501   -5.2551    4.1094 O   0  0  0  0  0  0  0  0  0  0  0  0
    3.0701   -3.7109    5.5240 C   0  0  0  0  0  0  0  0  0  0  0  0
    6.7775   -2.9770    3.2314 C   0  0  0  0  0  0  0  0  0  0  0  0
    7.9039   -3.9384    0.5692 O   0  0  0  0  0  0  0  0  0  0  0  0
    8.0252   -4.5670   -0.7131 C   0  0  0  0  0  0  0  0  0  0  0  0
    6.6838   -4.7561   -1.1793 O   0  0  0  0  0  0  0  0  0  0  0  0
    3.6413   -5.0617   -1.2288 C   0  0  2  0  0  0  0  0  0  0  0  0
    4.1504   -4.8814   -2.1621 H   0  0  0  0  0  0  0  0  0  0  0  0
    2.3900   -4.2127   -1.2142 N   0  0  1  0  0  0  0  0  0  0  0  0
    1.6509   -4.6386   -2.4439 C   0  0  2  0  0  0  0  0  0  0  0  0
    2.0855   -3.9757   -3.2433 H   0  0  0  0  0  0  0  0  0  0  0  0
    0.1802   -4.2931   -2.4146 C   0  0  2  0  0  0  0  0  0  0  0  0
   -0.3074   -4.7605   -3.2751 H   0  0  0  0  0  0  0  0  0  0  0  0
   -0.0314   -2.7800   -2.5433 C   0  0  0  0  0  0  0  0  0  0  0  0
   -0.5629   -4.7873   -1.2147 N   0  0  0  0  0  0  0  0  0  0  0  0
   -0.4247   -6.2827   -1.2271 C   0  0  0  0  0  0  0  0  0  0  0  0
    1.9067   -5.9461   -2.8953 O   0  0  0  0  0  0  0  0  0  0  0  0
    3.3836   -6.5310   -0.9941 C   0  0  0  0  0  0  0  0  0  0  0  0
    3.6667   -6.8913    0.3691 O   0  0  0  0  0  0  0  0  0  0  0  0
    2.9662   -7.9474    0.8231 C   0  0  0  0  0  0  0  0  0  0  0  0
    2.9214   -8.9580    0.1572 O   0  0  0  0  0  0  0  0  0  0  0  0
    2.2365   -7.8826    2.1337 C   0  0  1  0  0  0  0  0  0  0  0  0
    1.2249   -6.7442    2.1273 C   0  0  0  0  0  0  0  0  0  0  0  0
    1.9668   -5.2041    2.7012 S   0  0  0  0  0  0  0  0  0  0  0  0
    1.5196   -9.1897    2.3664 C   0  0  0  0  0  0  0  0  0  0  0  0
    0.2120   -9.3362    1.9389 C   0  0  0  0  0  0  0  0  0  0  0  0
   -0.4585  -10.5288    2.1477 C   0  0  0  0  0  0  0  0  0  0  0  0
    0.1918  -11.5820    2.7814 C   0  0  0  0  0  0  0  0  0  0  0  0
    1.5010  -11.4302    3.2024 C   0  0  0  0  0  0  0  0  0  0  0  0
    2.1663  -10.2303    3.0015 C   0  0  0  0  0  0  0  0  0  0  0  0
    3.5825  -10.0916    3.4880 C   0  0  0  0  0  0  0  0  0  0  0  0
    4.2272   -8.7773    3.0713 C   0  0  0  0  0  0  0  0  0  0  0  0
    3.2303   -7.6747    3.2240 N   0  0  0  0  0  0  0  0  0  0  0  0
   -0.4578  -12.7584    2.9871 O   0  0  0  0  0  0  0  0  0  0  0  0
   -1.7476  -10.6676    1.7387 O   0  0  0  0  0  0  0  0  0  0  0  0
   -2.3502   -9.5408    1.0990 C   0  0  0  0  0  0  0  0  0  0  0  0
    1.0042    1.8798    0.0026 H   0  0  0  0  0  0  0  0  0  0  0  0
   -0.5455    1.8636   -0.8728 H   0  0  0  0  0  0  0  0  0  0  0  0
   -0.5285    1.8540    0.9071 H   0  0  0  0  0  0  0  0  0  0  0  0
   -0.0595   -0.1455   -2.1272 H   0  0  0  0  0  0  0  0  0  0  0  0
   -1.8003   -0.6838    3.1334 H   0  0  0  0  0  0  0  0  0  0  0  0
   -1.1304    0.7808    3.8913 H   0  0  0  0  0  0  0  0  0  0  0  0
   -1.8391    0.8671    2.2608 H   0  0  0  0  0  0  0  0  0  0  0  0
    0.8869   -2.9742    2.7247 H   0  0  0  0  0  0  0  0  0  0  0  0
    2.7997   -2.6564    5.4689 H   0  0  0  0  0  0  0  0  0  0  0  0
    2.1693   -4.3108    5.6532 H   0  0  0  0  0  0  0  0  0  0  0  0
    3.7378   -3.8710    6.3706 H   0  0  0  0  0  0  0  0  0  0  0  0
    6.8757   -1.8963    3.1283 H   0  0  0  0  0  0  0  0  0  0  0  0
    6.2661   -3.2078    4.1659 H   0  0  0  0  0  0  0  0  0  0  0  0
    7.7675   -3.4329    3.2367 H   0  0  0  0  0  0  0  0  0  0  0  0
    8.5763   -3.9217   -1.3968 H   0  0  0  0  0  0  0  0  0  0  0  0
    8.5282   -5.5288   -0.6134 H   0  0  0  0  0  0  0  0  0  0  0  0
   -1.0091   -2.6057   -2.9923 H   0  0  0  0  0  0  0  0  0  0  0  0
    0.7379   -2.3725   -3.1943 H   0  0  0  0  0  0  0  0  0  0  0  0
   -0.8278   -6.6925   -0.3010 H   0  0  0  0  0  0  0  0  0  0  0  0
   -0.9746   -6.6913   -2.0749 H   0  0  0  0  0  0  0  0  0  0  0  0
    0.6285   -6.5495   -1.3144 H   0  0  0  0  0  0  0  0  0  0  0  0
    1.4144   -6.1909   -3.6909 H   0  0  0  0  0  0  0  0  0  0  0  0
    2.3645   -6.8369   -1.1912 H   0  0  0  0  0  0  0  0  0  0  0  0
    4.0507   -7.1234   -1.6358 H   0  0  0  0  0  0  0  0  0  0  0  0
    0.8086   -6.6246    1.1342 H   0  0  0  0  0  0  0  0  0  0  0  0
    0.3968   -7.0102    2.8020 H   0  0  0  0  0  0  0  0  0  0  0  0
   -0.2898   -8.5223    1.4357 H   0  0  0  0  0  0  0  0  0  0  0  0
    2.0090  -12.2531    3.6850 H   0  0  0  0  0  0  0  0  0  0  0  0
    3.5919  -10.1660    4.5756 H   0  0  0  0  0  0  0  0  0  0  0  0
    4.1721  -10.9176    3.0810 H   0  0  0  0  0  0  0  0  0  0  0  0
    5.0738   -8.5583    3.7208 H   0  0  0  0  0  0  0  0  0  0  0  0
    4.5555   -8.8239    2.0394 H   0  0  0  0  0  0  0  0  0  0  0  0
    3.7862   -6.8380    2.8569 H   0  0  0  0  0  0  0  0  0  0  0  0
   -0.3602  -13.3932    2.2642 H   0  0  0  0  0  0  0  0  0  0  0  0
   -3.3762   -9.7850    0.8237 H   0  0  0  0  0  0  0  0  0  0  0  0
   -2.3496   -8.6917    1.7825 H   0  0  0  0  0  0  0  0  0  0  0  0
   -1.7843   -9.2861    0.2028 H   0  0  0  0  0  0  0  0  0  0  0  0
  1  2  1  0  0  0  0
  1 61  1  0  0  0  0
  1 62  1  0  0  0  0
  1 63  1  0  0  0  0
  2  7  2  0  0  0  0
  2  3  1  0  0  0  0
  3  4  2  0  0  0  0
  3 64  1  0  0  0  0
  4 38  1  0  0  0  0
  4  5  1  0  0  0  0
  5  6  2  0  0  0  0
  5 11  1  0  0  0  0
  6  7  1  0  0  0  0
  6 10  1  0  0  0  0
  7  8  1  0  0  0  0
  8  9  1  0  0  0  0
  9 65  1  0  0  0  0
  9 66  1  0  0  0  0
  9 67  1  0  0  0  0
 10 68  1  0  0  0  0
 11 12  1  1  0  0  0
 11 39  1  0  0  0  0
 11 13  1  0  0  0  0
 13 14  1  6  0  0  0
 13 33  1  0  0  0  0
 13 15  1  0  0  0  0
 15 16  1  1  0  0  0
 15 48  1  0  0  0  0
 15 17  1  0  0  0  0
 17 22  2  0  0  0  0
 17 18  1  0  0  0  0
 18 19  2  0  0  0  0
 18 31  1  0  0  0  0
 19 30  1  0  0  0  0
 19 20  1  0  0  0  0
 20 21  2  0  0  0  0
 20 28  1  0  0  0  0
 21 22  1  0  0  0  0
 21 27  1  0  0  0  0
 22 23  1  0  0  0  0
 23 24  1  0  0  0  0
 24 25  2  0  0  0  0
 24 26  1  0  0  0  0
 26 69  1  0  0  0  0
 26 70  1  0  0  0  0
 26 71  1  0  0  0  0
 27 72  1  0  0  0  0
 27 73  1  0  0  0  0
 27 74  1  0  0  0  0
 28 29  1  0  0  0  0
 29 30  1  0  0  0  0
 29 75  1  0  0  0  0
 29 76  1  0  0  0  0
 31 32  1  6  0  0  0
 31 33  1  0  0  0  0
 31 42  1  0  0  0  0
 33 34  1  0  0  0  0
 34 35  1  0  0  0  0
 34 36  1  0  0  0  0
 34 41  1  0  0  0  0
 36 37  1  0  0  0  0
 36 38  1  0  0  0  0
 36 39  1  0  0  0  0
 38 77  1  0  0  0  0
 38 78  1  0  0  0  0
 39 40  1  0  0  0  0
 40 79  1  0  0  0  0
 40 80  1  0  0  0  0
 40 81  1  0  0  0  0
 41 82  1  0  0  0  0
 42 43  1  0  0  0  0
 42 83  1  0  0  0  0
 42 84  1  0  0  0  0
 43 44  1  0  0  0  0
 44 45  2  0  0  0  0
 44 46  1  0  0  0  0
 46 57  1  0  0  0  0
 46 47  1  0  0  0  0
 46 49  1  0  0  0  0
 47 48  1  0  0  0  0
 47 85  1  0  0  0  0
 47 86  1  0  0  0  0
 49 54  2  0  0  0  0
 49 50  1  0  0  0  0
 50 51  2  0  0  0  0
 50 87  1  0  0  0  0
 51 52  1  0  0  0  0
 51 59  1  0  0  0  0
 52 53  2  0  0  0  0
 52 58  1  0  0  0  0
 53 54  1  0  0  0  0
 53 88  1  0  0  0  0
 54 55  1  0  0  0  0
 55 56  1  0  0  0  0
 55 89  1  0  0  0  0
 55 90  1  0  0  0  0
 56 57  1  0  0  0  0
 56 91  1  0  0  0  0
 56 92  1  0  0  0  0
 57 93  1  0  0  0  0
 58 94  1  0  0  0  0
 59 60  1  0  0  0  0
 60 95  1  0  0  0  0
 60 96  1  0  0  0  0
 60 97  1  0  0  0  0
M  END
$$$$
