ZINC00006016
 OpenBabel08292219463D

 48 49  0  0  1  0  0  0  0  0999 V2000
   -0.0431    0.8944    0.4822 C   0  0  0  0  0  0  0  0  0  0  0  0
    0.2923   -0.5243    0.3012 N   0  3  0  0  0  0  0  0  0  0  0  0
   -0.9152   -1.3403    0.4858 C   0  0  0  0  0  0  0  0  0  0  0  0
    0.8222   -0.7333   -1.0529 C   0  0  0  0  0  0  0  0  0  0  0  0
    2.1250    0.0518   -1.2175 C   0  0  2  0  0  0  0  0  0  0  0  0
    1.9501    1.1005   -0.9774 H   0  0  0  0  0  0  0  0  0  0  0  0
    2.6050   -0.0643   -2.6413 C   0  0  0  0  0  0  0  0  0  0  0  0
    2.6097   -1.2959   -3.2697 C   0  0  0  0  0  0  0  0  0  0  0  0
    3.0496   -1.4050   -4.5747 C   0  0  0  0  0  0  0  0  0  0  0  0
    3.4865   -0.2776   -5.2548 C   0  0  0  0  0  0  0  0  0  0  0  0
    3.4804    0.9571   -4.6221 C   0  0  0  0  0  0  0  0  0  0  0  0
    3.0347    1.0618   -3.3187 C   0  0  0  0  0  0  0  0  0  0  0  0
    3.9202   -0.3824   -6.5385 O   0  0  0  0  0  0  0  0  0  0  0  0
    4.3554    0.8199   -7.1765 C   0  0  0  0  0  0  0  0  0  0  0  0
    3.1862   -0.5174   -0.2735 C   0  0  0  0  0  0  0  0  0  0  0  0
    3.2983   -2.0287   -0.4841 C   0  0  0  0  0  0  0  0  0  0  0  0
    4.3594   -2.5978    0.4598 C   0  0  0  0  0  0  0  0  0  0  0  0
    5.7092   -1.9403    0.1655 C   0  0  0  0  0  0  0  0  0  0  0  0
    5.5971   -0.4290    0.3761 C   0  0  0  0  0  0  0  0  0  0  0  0
    4.5360    0.1401   -0.5679 C   0  0  0  0  0  0  0  0  0  0  0  0
    2.8118   -0.2515    1.0797 O   0  0  0  0  0  0  0  0  0  0  0  0
    0.8529    1.4999    0.3452 H   0  0  0  0  0  0  0  0  0  0  0  0
   -0.7947    1.1866   -0.2512 H   0  0  0  0  0  0  0  0  0  0  0  0
   -0.4363    1.0495    1.4869 H   0  0  0  0  0  0  0  0  0  0  0  0
   -1.6668   -1.0481   -0.2476 H   0  0  0  0  0  0  0  0  0  0  0  0
   -0.6664   -2.3929    0.3516 H   0  0  0  0  0  0  0  0  0  0  0  0
   -1.3084   -1.1852    1.4906 H   0  0  0  0  0  0  0  0  0  0  0  0
    1.0156   -1.7948   -1.2075 H   0  0  0  0  0  0  0  0  0  0  0  0
    0.0938   -0.3862   -1.7857 H   0  0  0  0  0  0  0  0  0  0  0  0
    2.2695   -2.1733   -2.7399 H   0  0  0  0  0  0  0  0  0  0  0  0
    3.0538   -2.3674   -5.0649 H   0  0  0  0  0  0  0  0  0  0  0  0
    3.8201    1.8363   -5.1494 H   0  0  0  0  0  0  0  0  0  0  0  0
    3.0256    2.0234   -2.8272 H   0  0  0  0  0  0  0  0  0  0  0  0
    3.5336    1.5354   -7.2025 H   0  0  0  0  0  0  0  0  0  0  0  0
    5.1900    1.2454   -6.6192 H   0  0  0  0  0  0  0  0  0  0  0  0
    4.6747    0.5961   -8.1943 H   0  0  0  0  0  0  0  0  0  0  0  0
    2.3367   -2.4971   -0.2745 H   0  0  0  0  0  0  0  0  0  0  0  0
    3.5838   -2.2315   -1.5163 H   0  0  0  0  0  0  0  0  0  0  0  0
    4.0739   -2.3950    1.4920 H   0  0  0  0  0  0  0  0  0  0  0  0
    4.4393   -3.6745    0.3097 H   0  0  0  0  0  0  0  0  0  0  0  0
    6.4652   -2.3458    0.8379 H   0  0  0  0  0  0  0  0  0  0  0  0
    5.9948   -2.1431   -0.8667 H   0  0  0  0  0  0  0  0  0  0  0  0
    5.3115   -0.2262    1.4083 H   0  0  0  0  0  0  0  0  0  0  0  0
    6.5587    0.0394    0.1664 H   0  0  0  0  0  0  0  0  0  0  0  0
    4.8215   -0.0627   -1.6000 H   0  0  0  0  0  0  0  0  0  0  0  0
    4.4561    1.2168   -0.4178 H   0  0  0  0  0  0  0  0  0  0  0  0
    3.4404   -0.5850    1.7345 H   0  0  0  0  0  0  0  0  0  0  0  0
    0.9880   -0.7947    0.9801 H   0  0  0  0  0  0  0  0  0  0  0  0
  1  2  1  0  0  0  0
  1 22  1  0  0  0  0
  1 23  1  0  0  0  0
  1 24  1  0  0  0  0
  2  3  1  0  0  0  0
  2  4  1  0  0  0  0
  2 48  1  0  0  0  0
  3 25  1  0  0  0  0
  3 26  1  0  0  0  0
  3 27  1  0  0  0  0
  4  5  1  0  0  0  0
  4 28  1  0  0  0  0
  4 29  1  0  0  0  0
  5  6  1  1  0  0  0
  5  7  1  0  0  0  0
  5 15  1  0  0  0  0
  7 12  2  0  0  0  0
  7  8  1  0  0  0  0
  8  9  2  0  0  0  0
  8 30  1  0  0  0  0
  9 10  1  0  0  0  0
  9 31  1  0  0  0  0
 10 11  2  0  0  0  0
 10 13  1  0  0  0  0
 11 12  1  0  0  0  0
 11 32  1  0  0  0  0
 12 33  1  0  0  0  0
 13 14  1  0  0  0  0
 14 34  1  0  0  0  0
 14 35  1  0  0  0  0
 14 36  1  0  0  0  0
 15 20  1  0  0  0  0
 15 16  1  0  0  0  0
 15 21  1  0  0  0  0
 16 17  1  0  0  0  0
 16 37  1  0  0  0  0
 16 38  1  0  0  0  0
 17 18  1  0  0  0  0
 17 39  1  0  0  0  0
 17 40  1  0  0  0  0
 18 19  1  0  0  0  0
 18 41  1  0  0  0  0
 18 42  1  0  0  0  0
 19 20  1  0  0  0  0
 19 43  1  0  0  0  0
 19 44  1  0  0  0  0
 20 45  1  0  0  0  0
 20 46  1  0  0  0  0
 21 47  1  0  0  0  0
M  CHG  1   2   1
M  END
$$$$
