ZINC00105216
 OpenBabel08292219463D

 30 31  0  0  1  0  0  0  0  0999 V2000
   -0.0187    1.5258    0.0104 C   0  0  0  0  0  0  0  0  0  0  0  0
    0.0021   -0.0041    0.0020 C   0  0  1  0  0  0  0  0  0  0  0  0
   -1.0205   -0.3814    0.0098 H   0  0  0  0  0  0  0  0  0  0  0  0
    0.7074   -0.4901   -1.2379 C   0  0  0  0  0  0  0  0  0  0  0  0
    2.0367   -0.1325   -1.4560 C   0  0  0  0  0  0  0  0  0  0  0  0
    2.7027   -0.5545   -2.5653 C   0  0  0  0  0  0  0  0  0  0  0  0
    2.0432   -1.3636   -3.5068 C   0  0  0  0  0  0  0  0  0  0  0  0
    2.6987   -1.8182   -4.6628 C   0  0  0  0  0  0  0  0  0  0  0  0
    2.0264   -2.6031   -5.5556 C   0  0  0  0  0  0  0  0  0  0  0  0
    0.6925   -2.9604   -5.3345 C   0  0  0  0  0  0  0  0  0  0  0  0
    0.0299   -2.5361   -4.2254 C   0  0  0  0  0  0  0  0  0  0  0  0
    0.6914   -1.7275   -3.2846 C   0  0  0  0  0  0  0  0  0  0  0  0
    0.0385   -1.2762   -2.1250 C   0  0  0  0  0  0  0  0  0  0  0  0
    2.6617   -3.0423   -6.6736 O   0  0  0  0  0  0  0  0  0  0  0  0
    1.9067   -3.8599   -7.5700 C   0  0  0  0  0  0  0  0  0  0  0  0
    0.7309   -0.5033    1.2229 C   0  0  0  0  0  0  0  0  0  0  0  0
    0.3210   -0.2204    2.3358 O   0  0  0  0  0  0  0  0  0  0  0  0
    1.7305   -1.1901    1.0978 O   0  0  0  0  0  1  0  0  0  0  0  0
    1.0039    1.9031    0.0027 H   0  0  0  0  0  0  0  0  0  0  0  0
   -0.5459    1.8868   -0.8726 H   0  0  0  0  0  0  0  0  0  0  0  0
   -0.5289    1.8773    0.9072 H   0  0  0  0  0  0  0  0  0  0  0  0
    2.5458    0.4890   -0.7342 H   0  0  0  0  0  0  0  0  0  0  0  0
    3.7325   -0.2690   -2.7216 H   0  0  0  0  0  0  0  0  0  0  0  0
    3.7285   -1.5483   -4.8448 H   0  0  0  0  0  0  0  0  0  0  0  0
    0.1814   -3.5818   -6.0549 H   0  0  0  0  0  0  0  0  0  0  0  0
   -1.0004   -2.8192   -4.0679 H   0  0  0  0  0  0  0  0  0  0  0  0
   -0.9902   -1.5485   -1.9405 H   0  0  0  0  0  0  0  0  0  0  0  0
    2.5306   -4.1410   -8.4184 H   0  0  0  0  0  0  0  0  0  0  0  0
    1.5744   -4.7583   -7.0499 H   0  0  0  0  0  0  0  0  0  0  0  0
    1.0391   -3.3040   -7.9254 H   0  0  0  0  0  0  0  0  0  0  0  0
  1  2  1  0  0  0  0
  1 19  1  0  0  0  0
  1 20  1  0  0  0  0
  1 21  1  0  0  0  0
  2  3  1  1  0  0  0
  2  4  1  0  0  0  0
  2 16  1  0  0  0  0
  4 13  2  0  0  0  0
  4  5  1  0  0  0  0
  5  6  2  0  0  0  0
  5 22  1  0  0  0  0
  6  7  1  0  0  0  0
  6 23  1  0  0  0  0
  7 12  2  0  0  0  0
  7  8  1  0  0  0  0
  8  9  2  0  0  0  0
  8 24  1  0  0  0  0
  9 10  1  0  0  0  0
  9 14  1  0  0  0  0
 10 11  2  0  0  0  0
 10 25  1  0  0  0  0
 11 12  1  0  0  0  0
 11 26  1  0  0  0  0
 12 13  1  0  0  0  0
 13 27  1  0  0  0  0
 14 15  1  0  0  0  0
 15 28  1  0  0  0  0
 15 29  1  0  0  0  0
 15 30  1  0  0  0  0
 16 17  2  0  0  0  0
 16 18  1  0  0  0  0
M  END
$$$$
