ZINC08585138
 OpenBabel08292219463D

 71 74  0  0  1  0  0  0  0  0999 V2000
    1.5475    5.3699    6.9048 C   0  0  0  0  0  0  0  0  0  0  0  0
    1.9133    4.3736    5.8028 C   0  0  0  0  0  0  0  0  0  0  0  0
    0.7540    3.4409    5.5637 C   0  0  0  0  0  0  0  0  0  0  0  0
   -0.2607    3.5608    6.2085 O   0  0  0  0  0  0  0  0  0  0  0  0
    0.8487    2.4771    4.6343 O   0  0  0  0  0  0  0  0  0  0  0  0
   -0.3067    1.6155    4.4580 C   0  0  0  0  0  0  0  0  0  0  0  0
   -0.0178    0.6020    3.3808 C   0  0  0  0  0  0  0  0  0  0  0  0
    1.0131    0.6632    2.7550 O   0  0  0  0  0  0  0  0  0  0  0  0
   -1.0155   -0.4880    3.0847 C   0  0  2  0  0  0  0  0  0  0  0  0
   -0.3087   -1.6923    2.4297 C   0  0  0  0  0  0  0  0  0  0  0  0
   -0.9431   -1.8650    1.0322 C   0  0  0  0  0  0  0  0  0  0  0  0
   -1.4954   -0.4478    0.6956 C   0  0  1  0  0  0  0  0  0  0  0  0
   -2.2626   -0.4758   -0.0782 H   0  0  0  0  0  0  0  0  0  0  0  0
   -2.0459    0.0023    2.0592 C   0  0  2  0  0  0  0  0  0  0  0  0
   -2.2807    1.4937    2.1362 C   0  0  0  0  0  0  0  0  0  0  0  0
   -1.0185    2.2660    1.7573 C   0  0  1  0  0  0  0  0  0  0  0  0
   -0.2104    2.0035    2.4401 H   0  0  0  0  0  0  0  0  0  0  0  0
   -0.6237    1.8892    0.3235 C   0  0  2  0  0  0  0  0  0  0  0  0
   -1.4382    2.1051   -0.3680 H   0  0  0  0  0  0  0  0  0  0  0  0
   -0.2898    0.4000    0.2786 C   0  0  2  0  0  0  0  0  0  0  0  0
    0.5333    0.1952    0.9631 H   0  0  0  0  0  0  0  0  0  0  0  0
    0.1201   -0.0061   -1.1403 C   0  0  0  0  0  0  0  0  0  0  0  0
    1.3943    0.7390   -1.5477 C   0  0  0  0  0  0  0  0  0  0  0  0
    1.1381    2.2256   -1.3850 C   0  0  0  0  0  0  0  0  0  0  0  0
    1.3855    3.0373   -2.4033 C   0  0  0  0  0  0  0  0  0  0  0  0
    1.1293    4.4814   -2.2866 C   0  0  0  0  0  0  0  0  0  0  0  0
    1.3905    5.2359   -3.2049 O   0  0  0  0  0  0  0  0  0  0  0  0
    0.5500    4.9931   -1.0330 C   0  0  0  0  0  0  0  0  0  0  0  0
    0.3175    4.1645   -0.0270 C   0  0  0  0  0  0  0  0  0  0  0  0
    0.6148    2.7048   -0.0641 C   0  0  1  0  0  0  0  0  0  0  0  0
    1.6932    2.4398    0.9883 C   0  0  0  0  0  0  0  0  0  0  0  0
   -1.2753    3.6698    1.8307 O   0  0  0  0  0  0  0  0  0  0  0  0
   -3.3775   -0.7063    2.3156 C   0  0  0  0  0  0  0  0  0  0  0  0
   -1.6812   -0.9022    4.3069 O   0  0  0  0  0  0  0  0  0  0  0  0
   -0.9096   -1.4322    5.2731 C   0  0  0  0  0  0  0  0  0  0  0  0
    0.2953   -1.4803    5.1300 O   0  0  0  0  0  0  0  0  0  0  0  0
   -1.4730   -1.9091    6.3979 O   0  0  0  0  0  0  0  0  0  0  0  0
   -0.5795   -2.4666    7.3975 C   0  0  0  0  0  0  0  0  0  0  0  0
   -1.3958   -2.9540    8.5962 C   0  0  0  0  0  0  0  0  0  0  0  0
    0.6746    5.9463    6.5983 H   0  0  0  0  0  0  0  0  0  0  0  0
    1.3211    4.8286    7.8235 H   0  0  0  0  0  0  0  0  0  0  0  0
    2.3860    6.0445    7.0778 H   0  0  0  0  0  0  0  0  0  0  0  0
    2.7862    3.7971    6.1093 H   0  0  0  0  0  0  0  0  0  0  0  0
    2.1397    4.9149    4.8842 H   0  0  0  0  0  0  0  0  0  0  0  0
   -1.0970    2.1678    4.1927 H   0  0  0  0  0  0  0  0  0  0  0  0
   -0.5215    1.0998    5.3939 H   0  0  0  0  0  0  0  0  0  0  0  0
   -0.4693   -2.5900    3.0267 H   0  0  0  0  0  0  0  0  0  0  0  0
    0.7587   -1.4935    2.3338 H   0  0  0  0  0  0  0  0  0  0  0  0
   -1.7535   -2.5931    1.0671 H   0  0  0  0  0  0  0  0  0  0  0  0
   -0.1892   -2.1647    0.3042 H   0  0  0  0  0  0  0  0  0  0  0  0
   -3.0853    1.7653    1.4529 H   0  0  0  0  0  0  0  0  0  0  0  0
   -2.5709    1.7585    3.1530 H   0  0  0  0  0  0  0  0  0  0  0  0
    0.3033   -1.0802   -1.1708 H   0  0  0  0  0  0  0  0  0  0  0  0
   -0.6820    0.2443   -1.8346 H   0  0  0  0  0  0  0  0  0  0  0  0
    2.2207    0.4348   -0.9053 H   0  0  0  0  0  0  0  0  0  0  0  0
    1.6347    0.5172   -2.5875 H   0  0  0  0  0  0  0  0  0  0  0  0
    1.7779    2.6355   -3.3258 H   0  0  0  0  0  0  0  0  0  0  0  0
    0.3156    6.0427   -0.9345 H   0  0  0  0  0  0  0  0  0  0  0  0
   -0.1139    4.5714    0.8756 H   0  0  0  0  0  0  0  0  0  0  0  0
    1.9064    1.3717    1.0292 H   0  0  0  0  0  0  0  0  0  0  0  0
    2.6010    2.9816    0.7228 H   0  0  0  0  0  0  0  0  0  0  0  0
    1.3406    2.7774    1.9629 H   0  0  0  0  0  0  0  0  0  0  0  0
   -1.5308    3.9775    2.7111 H   0  0  0  0  0  0  0  0  0  0  0  0
   -3.2201   -1.7849    2.3200 H   0  0  0  0  0  0  0  0  0  0  0  0
   -3.7757   -0.3933    3.2807 H   0  0  0  0  0  0  0  0  0  0  0  0
   -4.0852   -0.4457    1.5286 H   0  0  0  0  0  0  0  0  0  0  0  0
   -0.0302   -3.3041    6.9672 H   0  0  0  0  0  0  0  0  0  0  0  0
    0.1236   -1.7004    7.7241 H   0  0  0  0  0  0  0  0  0  0  0  0
   -1.9451   -2.1166    9.0264 H   0  0  0  0  0  0  0  0  0  0  0  0
   -2.0989   -3.7202    8.2695 H   0  0  0  0  0  0  0  0  0  0  0  0
   -0.7251   -3.3726    9.3465 H   0  0  0  0  0  0  0  0  0  0  0  0
  1  2  1  0  0  0  0
  1 40  1  0  0  0  0
  1 41  1  0  0  0  0
  1 42  1  0  0  0  0
  2  3  1  0  0  0  0
  2 43  1  0  0  0  0
  2 44  1  0  0  0  0
  3  4  2  0  0  0  0
  3  5  1  0  0  0  0
  5  6  1  0  0  0  0
  6  7  1  0  0  0  0
  6 45  1  0  0  0  0
  6 46  1  0  0  0  0
  7  8  2  0  0  0  0
  9  7  1  1  0  0  0
  9 14  1  0  0  0  0
  9 10  1  0  0  0  0
  9 34  1  0  0  0  0
 10 11  1  0  0  0  0
 10 47  1  0  0  0  0
 10 48  1  0  0  0  0
 11 12  1  0  0  0  0
 11 49  1  0  0  0  0
 11 50  1  0  0  0  0
 12 13  1  6  0  0  0
 12 20  1  0  0  0  0
 12 14  1  0  0  0  0
 14 15  1  0  0  0  0
 14 33  1  1  0  0  0
 15 16  1  0  0  0  0
 15 51  1  0  0  0  0
 15 52  1  0  0  0  0
 16 17  1  1  0  0  0
 16 18  1  0  0  0  0
 16 32  1  0  0  0  0
 18 19  1  6  0  0  0
 18 30  1  0  0  0  0
 18 20  1  0  0  0  0
 20 21  1  1  0  0  0
 20 22  1  0  0  0  0
 22 23  1  0  0  0  0
 22 53  1  0  0  0  0
 22 54  1  0  0  0  0
 23 24  1  0  0  0  0
 23 55  1  0  0  0  0
 23 56  1  0  0  0  0
 24 30  1  0  0  0  0
 24 25  2  0  0  0  0
 25 26  1  0  0  0  0
 25 57  1  0  0  0  0
 26 27  2  0  0  0  0
 26 28  1  0  0  0  0
 28 29  2  0  0  0  0
 28 58  1  0  0  0  0
 29 30  1  0  0  0  0
 29 59  1  0  0  0  0
 30 31  1  1  0  0  0
 31 60  1  0  0  0  0
 31 61  1  0  0  0  0
 31 62  1  0  0  0  0
 32 63  1  0  0  0  0
 33 64  1  0  0  0  0
 33 65  1  0  0  0  0
 33 66  1  0  0  0  0
 34 35  1  0  0  0  0
 35 36  2  0  0  0  0
 35 37  1  0  0  0  0
 37 38  1  0  0  0  0
 38 39  1  0  0  0  0
 38 67  1  0  0  0  0
 38 68  1  0  0  0  0
 39 69  1  0  0  0  0
 39 70  1  0  0  0  0
 39 71  1  0  0  0  0
M  END
$$$$
