ZINC05844788
 OpenBabel08292219463D

 55 58  0  0  1  0  0  0  0  0999 V2000
    4.6654   -0.6867   -8.5286 C   0  0  0  0  0  0  0  0  0  0  0  0
    3.9570   -0.4679   -7.3645 C   0  0  0  0  0  0  0  0  0  0  0  0
    2.5670   -0.4248   -7.3878 C   0  0  0  0  0  0  0  0  0  0  0  0
    1.8945   -0.6068   -8.5835 C   0  0  0  0  0  0  0  0  0  0  0  0
    2.6085   -0.8255   -9.7496 C   0  0  0  0  0  0  0  0  0  0  0  0
    3.9911   -0.8652   -9.7243 C   0  0  0  0  0  0  0  0  0  0  0  0
    4.6824   -1.0784  -10.8653 F   0  0  0  0  0  0  0  0  0  0  0  0
    0.3886   -0.5735   -8.6509 C   0  0  0  0  0  0  0  0  0  0  0  0
   -0.1688    0.1033   -7.3962 C   0  0  0  0  0  0  0  0  0  0  0  0
    0.5149   -0.5162   -6.1706 C   0  0  1  0  0  0  0  0  0  0  0  0
    0.3846   -1.5983   -6.1854 H   0  0  0  0  0  0  0  0  0  0  0  0
    1.9062   -0.1977   -6.2221 O   0  0  0  0  0  0  0  0  0  0  0  0
   -0.0985    0.0592   -4.8925 C   0  0  1  0  0  0  0  0  0  0  0  0
   -1.1429   -0.2446   -4.8221 H   0  0  0  0  0  0  0  0  0  0  0  0
    0.6685   -0.4662   -3.6774 C   0  0  0  0  0  0  0  0  0  0  0  0
    0.7182   -0.4975   -1.2568 C   0  0  0  0  0  0  0  0  0  0  0  0
    0.0021   -0.0041    0.0020 C   0  0  1  0  0  0  0  0  0  0  0  0
   -1.0205   -0.3814    0.0098 H   0  0  0  0  0  0  0  0  0  0  0  0
    0.7421   -0.5109    1.2415 C   0  0  2  0  0  0  0  0  0  0  0  0
    0.6904   -1.5990    1.2806 H   0  0  0  0  0  0  0  0  0  0  0  0
    0.1028    0.0824    2.5036 C   0  0  0  0  0  0  0  0  0  0  0  0
    0.7929   -0.5297    3.7251 C   0  0  0  0  0  0  0  0  0  0  0  0
    2.2890   -0.4589    3.5518 C   0  0  0  0  0  0  0  0  0  0  0  0
    3.0964   -0.6048    4.6679 C   0  0  0  0  0  0  0  0  0  0  0  0
    4.4727   -0.5486    4.5455 C   0  0  0  0  0  0  0  0  0  0  0  0
    5.0481   -0.3461    3.3023 C   0  0  0  0  0  0  0  0  0  0  0  0
    4.2470   -0.1992    2.1886 C   0  0  0  0  0  0  0  0  0  0  0  0
    2.8620   -0.2536    2.3094 C   0  0  0  0  0  0  0  0  0  0  0  0
    2.1075   -0.0950    1.1903 O   0  0  0  0  0  0  0  0  0  0  0  0
    5.2551   -0.6907    5.6377 F   0  0  0  0  0  0  0  0  0  0  0  0
   -0.0173    1.4248    0.0099 O   0  0  0  0  0  0  0  0  0  0  0  0
   -0.0185    1.4856   -4.9260 O   0  0  0  0  0  0  0  0  0  0  0  0
    5.7447   -0.7183   -8.5067 H   0  0  0  0  0  0  0  0  0  0  0  0
    4.4840   -0.3290   -6.4321 H   0  0  0  0  0  0  0  0  0  0  0  0
    2.0837   -0.9653  -10.6831 H   0  0  0  0  0  0  0  0  0  0  0  0
    0.0057   -1.5921   -8.7140 H   0  0  0  0  0  0  0  0  0  0  0  0
    0.0780   -0.0140   -9.5332 H   0  0  0  0  0  0  0  0  0  0  0  0
   -1.2450   -0.0597   -7.3381 H   0  0  0  0  0  0  0  0  0  0  0  0
    0.0400    1.1726   -7.4320 H   0  0  0  0  0  0  0  0  0  0  0  0
    1.6907   -0.0887   -3.7019 H   0  0  0  0  0  0  0  0  0  0  0  0
    0.6829   -1.5559   -3.7001 H   0  0  0  0  0  0  0  0  0  0  0  0
    1.7408   -0.1202   -1.2645 H   0  0  0  0  0  0  0  0  0  0  0  0
    0.7330   -1.5874   -1.2628 H   0  0  0  0  0  0  0  0  0  0  0  0
    0.2369    1.1641    2.5095 H   0  0  0  0  0  0  0  0  0  0  0  0
   -0.9604   -0.1567    2.5240 H   0  0  0  0  0  0  0  0  0  0  0  0
    0.5048    0.0229    4.6193 H   0  0  0  0  0  0  0  0  0  0  0  0
    0.4895   -1.5715    3.8290 H   0  0  0  0  0  0  0  0  0  0  0  0
    2.6490   -0.7635    5.6380 H   0  0  0  0  0  0  0  0  0  0  0  0
    6.1228   -0.3029    3.2046 H   0  0  0  0  0  0  0  0  0  0  0  0
    4.6967   -0.0416    1.2194 H   0  0  0  0  0  0  0  0  0  0  0  0
    0.8606    1.8301    0.0037 H   0  0  0  0  0  0  0  0  0  0  0  0
    0.8839    1.8275   -4.9885 H   0  0  0  0  0  0  0  0  0  0  0  0
   -0.0011   -0.0048   -2.4466 N   0  3  0  0  0  0  0  0  0  0  0  0
   -0.9643   -0.3603   -2.4315 H   0  0  0  0  0  0  0  0  0  0  0  0
   -0.0150    1.0217   -2.4331 H   0  0  0  0  0  0  0  0  0  0  0  0
  1  6  2  0  0  0  0
  1  2  1  0  0  0  0
  1 33  1  0  0  0  0
  2  3  2  0  0  0  0
  2 34  1  0  0  0  0
  3 12  1  0  0  0  0
  3  4  1  0  0  0  0
  4  5  2  0  0  0  0
  4  8  1  0  0  0  0
  5  6  1  0  0  0  0
  5 35  1  0  0  0  0
  6  7  1  0  0  0  0
  8  9  1  0  0  0  0
  8 36  1  0  0  0  0
  8 37  1  0  0  0  0
  9 10  1  0  0  0  0
  9 38  1  0  0  0  0
  9 39  1  0  0  0  0
 10 11  1  6  0  0  0
 10 12  1  0  0  0  0
 10 13  1  0  0  0  0
 13 14  1  1  0  0  0
 13 15  1  0  0  0  0
 13 32  1  0  0  0  0
 15 40  1  0  0  0  0
 15 41  1  0  0  0  0
 15 53  1  0  0  0  0
 16 17  1  0  0  0  0
 16 42  1  0  0  0  0
 16 43  1  0  0  0  0
 16 53  1  0  0  0  0
 17 18  1  1  0  0  0
 17 19  1  0  0  0  0
 17 31  1  0  0  0  0
 19 20  1  1  0  0  0
 19 29  1  0  0  0  0
 19 21  1  0  0  0  0
 21 22  1  0  0  0  0
 21 44  1  0  0  0  0
 21 45  1  0  0  0  0
 22 23  1  0  0  0  0
 22 46  1  0  0  0  0
 22 47  1  0  0  0  0
 23 28  2  0  0  0  0
 23 24  1  0  0  0  0
 24 25  2  0  0  0  0
 24 48  1  0  0  0  0
 25 26  1  0  0  0  0
 25 30  1  0  0  0  0
 26 27  2  0  0  0  0
 26 49  1  0  0  0  0
 27 28  1  0  0  0  0
 27 50  1  0  0  0  0
 28 29  1  0  0  0  0
 31 51  1  0  0  0  0
 32 52  1  0  0  0  0
 53 54  1  0  0  0  0
 53 55  1  0  0  0  0
M  CHG  1  53   1
M  END
$$$$
