ZINC22002218
 OpenBabel08292219463D

 44 46  0  0  1  0  0  0  0  0999 V2000
   -0.0187    1.5258    0.0104 C   0  0  0  0  0  0  0  0  0  0  0  0
    0.0021   -0.0041    0.0020 C   0  0  0  0  0  0  0  0  0  0  0  0
   -1.4117   -0.5257    0.0127 C   0  0  0  0  0  0  0  0  0  0  0  0
   -2.1658   -0.8072    1.0953 C   0  0  0  0  0  0  0  0  0  0  0  0
   -3.3919   -1.2587    0.6864 N   0  0  0  0  0  0  0  0  0  0  0  0
   -4.1105   -1.5241    1.2814 H   0  0  0  0  0  0  0  0  0  0  0  0
   -3.4595   -1.2814   -0.6485 C   0  0  0  0  0  0  0  0  0  0  0  0
   -2.2434   -0.8222   -1.1401 C   0  0  0  0  0  0  0  0  0  0  0  0
   -1.9803   -0.7072   -2.5784 C   0  0  0  0  0  0  0  0  0  0  0  0
   -0.8696   -0.5052   -3.0233 O   0  0  0  0  0  0  0  0  0  0  0  0
   -3.2030   -0.8604   -3.4718 C   0  0  2  0  0  0  0  0  0  0  0  0
   -3.7880    0.0591   -3.4543 H   0  0  0  0  0  0  0  0  0  0  0  0
   -4.0491   -2.0205   -2.9378 C   0  0  0  0  0  0  0  0  0  0  0  0
   -4.5948   -1.7037   -1.5453 C   0  0  0  0  0  0  0  0  0  0  0  0
   -2.7596   -1.1619   -4.9048 C   0  0  0  0  0  0  0  0  0  0  0  0
   -2.0292   -0.0072   -5.4445 N   0  0  0  0  0  0  0  0  0  0  0  0
   -2.9179    1.1539   -5.5973 C   0  0  0  0  0  0  0  0  0  0  0  0
   -2.1054    2.3483   -6.1044 C   0  0  0  0  0  0  0  0  0  0  0  0
   -1.4615    1.9941   -7.3313 O   0  0  0  0  0  0  0  0  0  0  0  0
   -0.5879    0.8674   -7.2186 C   0  0  0  0  0  0  0  0  0  0  0  0
   -1.3850   -0.3420   -6.7229 C   0  0  0  0  0  0  0  0  0  0  0  0
   -1.7275   -0.6503    2.5286 C   0  0  0  0  0  0  0  0  0  0  0  0
    1.0039    1.9031    0.0027 H   0  0  0  0  0  0  0  0  0  0  0  0
   -0.5459    1.8868   -0.8726 H   0  0  0  0  0  0  0  0  0  0  0  0
   -0.5289    1.8773    0.9072 H   0  0  0  0  0  0  0  0  0  0  0  0
    0.5123   -0.3556   -0.8948 H   0  0  0  0  0  0  0  0  0  0  0  0
    0.5293   -0.3651    0.8851 H   0  0  0  0  0  0  0  0  0  0  0  0
   -4.8812   -2.2009   -3.6183 H   0  0  0  0  0  0  0  0  0  0  0  0
   -3.4326   -2.9176   -2.8802 H   0  0  0  0  0  0  0  0  0  0  0  0
   -5.0812   -2.5847   -1.1265 H   0  0  0  0  0  0  0  0  0  0  0  0
   -5.3173   -0.8914   -1.6249 H   0  0  0  0  0  0  0  0  0  0  0  0
   -2.1094   -2.0367   -4.9075 H   0  0  0  0  0  0  0  0  0  0  0  0
   -3.6359   -1.3585   -5.5225 H   0  0  0  0  0  0  0  0  0  0  0  0
   -3.7046    0.9182   -6.3140 H   0  0  0  0  0  0  0  0  0  0  0  0
   -3.3642    1.3999   -4.6338 H   0  0  0  0  0  0  0  0  0  0  0  0
   -2.7704    3.1953   -6.2736 H   0  0  0  0  0  0  0  0  0  0  0  0
   -1.3531    2.6178   -5.3631 H   0  0  0  0  0  0  0  0  0  0  0  0
   -0.1553    0.6434   -8.1937 H   0  0  0  0  0  0  0  0  0  0  0  0
    0.2085    1.0939   -6.5098 H   0  0  0  0  0  0  0  0  0  0  0  0
   -0.7123   -1.1879   -6.5809 H   0  0  0  0  0  0  0  0  0  0  0  0
   -2.1472   -0.6016   -7.4575 H   0  0  0  0  0  0  0  0  0  0  0  0
   -1.9773    0.3518    2.8772 H   0  0  0  0  0  0  0  0  0  0  0  0
   -2.2380   -1.3881    3.1475 H   0  0  0  0  0  0  0  0  0  0  0  0
   -0.6502   -0.8010    2.5976 H   0  0  0  0  0  0  0  0  0  0  0  0
  1  2  1  0  0  0  0
  1 23  1  0  0  0  0
  1 24  1  0  0  0  0
  1 25  1  0  0  0  0
  2  3  1  0  0  0  0
  2 26  1  0  0  0  0
  2 27  1  0  0  0  0
  3  8  1  0  0  0  0
  3  4  2  0  0  0  0
  4  5  1  0  0  0  0
  4 22  1  0  0  0  0
  5  6  1  0  0  0  0
  5  7  1  0  0  0  0
  7 14  1  0  0  0  0
  7  8  2  0  0  0  0
  8  9  1  0  0  0  0
  9 10  2  0  0  0  0
  9 11  1  0  0  0  0
 11 12  1  1  0  0  0
 11 13  1  0  0  0  0
 11 15  1  0  0  0  0
 13 14  1  0  0  0  0
 13 28  1  0  0  0  0
 13 29  1  0  0  0  0
 14 30  1  0  0  0  0
 14 31  1  0  0  0  0
 15 16  1  0  0  0  0
 15 32  1  0  0  0  0
 15 33  1  0  0  0  0
 16 21  1  0  0  0  0
 16 17  1  0  0  0  0
 17 18  1  0  0  0  0
 17 34  1  0  0  0  0
 17 35  1  0  0  0  0
 18 19  1  0  0  0  0
 18 36  1  0  0  0  0
 18 37  1  0  0  0  0
 19 20  1  0  0  0  0
 20 21  1  0  0  0  0
 20 38  1  0  0  0  0
 20 39  1  0  0  0  0
 21 40  1  0  0  0  0
 21 41  1  0  0  0  0
 22 42  1  0  0  0  0
 22 43  1  0  0  0  0
 22 44  1  0  0  0  0
M  END
$$$$
