ZINC12468792
 OpenBabel08292219463D

 71 72  0  0  1  0  0  0  0  0999 V2000
    2.6800   -6.6318   -1.3791 C   0  0  0  0  0  0  0  0  0  0  0  0
    2.2005   -6.0359   -2.7042 C   0  0  0  0  0  0  0  0  0  0  0  0
    3.1083   -6.5171   -3.8379 C   0  0  0  0  0  0  0  0  0  0  0  0
    0.8584   -6.4563   -2.9576 O   0  0  0  0  0  0  0  0  0  0  0  0
   -0.1247   -5.6742   -2.4848 C   0  0  0  0  0  0  0  0  0  0  0  0
    0.1453   -4.6661   -1.8758 O   0  0  0  0  0  0  0  0  0  0  0  0
   -1.5651   -6.0535   -2.7133 C   0  0  0  0  0  0  0  0  0  0  0  0
   -2.4765   -5.0018   -2.0776 C   0  0  0  0  0  0  0  0  0  0  0  0
   -3.9390   -5.3869   -2.3096 C   0  0  0  0  0  0  0  0  0  0  0  0
   -4.8366   -4.3510   -1.6834 C   0  0  0  0  0  0  0  0  0  0  0  0
   -5.7829   -3.7887   -2.3937 C   0  0  0  0  0  0  0  0  0  0  0  0
   -6.0860   -4.2950   -3.7804 C   0  0  0  0  0  0  0  0  0  0  0  0
   -7.5772   -4.6191   -3.8904 C   0  0  1  0  0  0  0  0  0  0  0  0
   -8.1696   -3.7369   -3.6478 H   0  0  0  0  0  0  0  0  0  0  0  0
   -7.9091   -5.1025   -5.3173 C   0  0  2  0  0  0  0  0  0  0  0  0
   -8.9059   -4.7725   -5.6097 H   0  0  0  0  0  0  0  0  0  0  0  0
   -7.8573   -6.6473   -5.2166 C   0  0  0  0  0  0  0  0  0  0  0  0
   -8.4749   -6.9198   -3.8225 C   0  0  2  0  0  0  0  0  0  0  0  0
   -9.5631   -6.8832   -3.8735 H   0  0  0  0  0  0  0  0  0  0  0  0
   -7.9372   -5.7737   -2.9391 C   0  0  2  0  0  0  0  0  0  0  0  0
   -7.0495   -6.1032   -2.3990 H   0  0  0  0  0  0  0  0  0  0  0  0
   -9.0149   -5.3223   -1.9513 C   0  0  0  0  0  0  0  0  0  0  0  0
   -9.2737   -6.4361   -0.9347 C   0  0  0  0  0  0  0  0  0  0  0  0
  -10.3514   -5.9847    0.0531 C   0  0  2  0  0  0  0  0  0  0  0  0
  -10.0537   -5.0405    0.5092 H   0  0  0  0  0  0  0  0  0  0  0  0
  -10.5217   -7.0458    1.1421 C   0  0  0  0  0  0  0  0  0  0  0  0
  -11.5078   -6.5402    2.1970 C   0  0  0  0  0  0  0  0  0  0  0  0
  -11.6756   -7.5854    3.2696 C   0  0  0  0  0  0  0  0  0  0  0  0
  -12.6548   -8.5531    3.1445 C   0  0  0  0  0  0  0  0  0  0  0  0
  -12.8087   -9.5118    4.1284 C   0  0  0  0  0  0  0  0  0  0  0  0
  -11.9832   -9.5031    5.2372 C   0  0  0  0  0  0  0  0  0  0  0  0
  -11.0035   -8.5358    5.3619 C   0  0  0  0  0  0  0  0  0  0  0  0
  -10.8467   -7.5797    4.3759 C   0  0  0  0  0  0  0  0  0  0  0  0
  -11.5891   -5.8098   -0.6394 O   0  0  0  0  0  0  0  0  0  0  0  0
   -8.0412   -8.1862   -3.3223 O   0  0  0  0  0  0  0  0  0  0  0  0
   -6.9333   -4.6263   -6.2463 O   0  0  0  0  0  0  0  0  0  0  0  0
    3.7037   -6.3112   -1.1858 H   0  0  0  0  0  0  0  0  0  0  0  0
    2.0332   -6.2890   -0.5714 H   0  0  0  0  0  0  0  0  0  0  0  0
    2.6446   -7.7197   -1.4361 H   0  0  0  0  0  0  0  0  0  0  0  0
    2.2359   -4.9480   -2.6473 H   0  0  0  0  0  0  0  0  0  0  0  0
    3.0729   -7.6050   -3.8949 H   0  0  0  0  0  0  0  0  0  0  0  0
    2.7667   -6.0925   -4.7820 H   0  0  0  0  0  0  0  0  0  0  0  0
    4.1320   -6.1964   -3.6446 H   0  0  0  0  0  0  0  0  0  0  0  0
   -1.7618   -6.1051   -3.7842 H   0  0  0  0  0  0  0  0  0  0  0  0
   -1.7611   -7.0255   -2.2607 H   0  0  0  0  0  0  0  0  0  0  0  0
   -2.2799   -4.9502   -1.0067 H   0  0  0  0  0  0  0  0  0  0  0  0
   -2.2805   -4.0298   -2.5302 H   0  0  0  0  0  0  0  0  0  0  0  0
   -4.1356   -5.4385   -3.3805 H   0  0  0  0  0  0  0  0  0  0  0  0
   -4.1350   -6.3589   -1.8570 H   0  0  0  0  0  0  0  0  0  0  0  0
   -4.6998   -4.0721   -0.6490 H   0  0  0  0  0  0  0  0  0  0  0  0
   -6.3458   -2.9623   -1.9856 H   0  0  0  0  0  0  0  0  0  0  0  0
   -5.8256   -3.5297   -4.5116 H   0  0  0  0  0  0  0  0  0  0  0  0
   -5.5032   -5.1956   -3.9738 H   0  0  0  0  0  0  0  0  0  0  0  0
   -8.4585   -7.1059   -6.0017 H   0  0  0  0  0  0  0  0  0  0  0  0
   -6.8279   -7.0029   -5.2593 H   0  0  0  0  0  0  0  0  0  0  0  0
   -8.6779   -4.4261   -1.4304 H   0  0  0  0  0  0  0  0  0  0  0  0
   -9.9353   -5.1035   -2.4927 H   0  0  0  0  0  0  0  0  0  0  0  0
   -9.6107   -7.3323   -1.4556 H   0  0  0  0  0  0  0  0  0  0  0  0
   -8.3533   -6.6549   -0.3933 H   0  0  0  0  0  0  0  0  0  0  0  0
  -10.9046   -7.9644    0.6975 H   0  0  0  0  0  0  0  0  0  0  0  0
   -9.5577   -7.2433    1.6109 H   0  0  0  0  0  0  0  0  0  0  0  0
  -11.1250   -5.6216    2.6415 H   0  0  0  0  0  0  0  0  0  0  0  0
  -12.4718   -6.3427    1.7282 H   0  0  0  0  0  0  0  0  0  0  0  0
  -13.2997   -8.5600    2.2783 H   0  0  0  0  0  0  0  0  0  0  0  0
  -13.5741  -10.2675    4.0311 H   0  0  0  0  0  0  0  0  0  0  0  0
  -12.1039  -10.2517    6.0063 H   0  0  0  0  0  0  0  0  0  0  0  0
  -10.3587   -8.5288    6.2283 H   0  0  0  0  0  0  0  0  0  0  0  0
  -10.0789   -6.8263    4.4715 H   0  0  0  0  0  0  0  0  0  0  0  0
  -11.9151   -6.6116   -1.0707 H   0  0  0  0  0  0  0  0  0  0  0  0
   -8.3040   -8.9371   -3.8719 H   0  0  0  0  0  0  0  0  0  0  0  0
   -7.0929   -4.9007   -7.1597 H   0  0  0  0  0  0  0  0  0  0  0  0
  1  2  1  0  0  0  0
  1 37  1  0  0  0  0
  1 38  1  0  0  0  0
  1 39  1  0  0  0  0
  2  3  1  0  0  0  0
  2  4  1  0  0  0  0
  2 40  1  0  0  0  0
  3 41  1  0  0  0  0
  3 42  1  0  0  0  0
  3 43  1  0  0  0  0
  4  5  1  0  0  0  0
  5  6  2  0  0  0  0
  5  7  1  0  0  0  0
  7  8  1  0  0  0  0
  7 44  1  0  0  0  0
  7 45  1  0  0  0  0
  8  9  1  0  0  0  0
  8 46  1  0  0  0  0
  8 47  1  0  0  0  0
  9 10  1  0  0  0  0
  9 48  1  0  0  0  0
  9 49  1  0  0  0  0
 10 11  2  0  0  0  0
 10 50  1  0  0  0  0
 11 12  1  0  0  0  0
 11 51  1  0  0  0  0
 12 13  1  0  0  0  0
 12 52  1  0  0  0  0
 12 53  1  0  0  0  0
 13 14  1  1  0  0  0
 13 20  1  0  0  0  0
 13 15  1  0  0  0  0
 15 16  1  6  0  0  0
 15 17  1  0  0  0  0
 15 36  1  0  0  0  0
 17 18  1  0  0  0  0
 17 54  1  0  0  0  0
 17 55  1  0  0  0  0
 18 19  1  6  0  0  0
 18 20  1  0  0  0  0
 18 35  1  0  0  0  0
 20 21  1  1  0  0  0
 20 22  1  0  0  0  0
 22 23  1  0  0  0  0
 22 56  1  0  0  0  0
 22 57  1  0  0  0  0
 23 24  1  0  0  0  0
 23 58  1  0  0  0  0
 23 59  1  0  0  0  0
 24 25  1  1  0  0  0
 24 26  1  0  0  0  0
 24 34  1  0  0  0  0
 26 27  1  0  0  0  0
 26 60  1  0  0  0  0
 26 61  1  0  0  0  0
 27 28  1  0  0  0  0
 27 62  1  0  0  0  0
 27 63  1  0  0  0  0
 28 33  2  0  0  0  0
 28 29  1  0  0  0  0
 29 30  2  0  0  0  0
 29 64  1  0  0  0  0
 30 31  1  0  0  0  0
 30 65  1  0  0  0  0
 31 32  2  0  0  0  0
 31 66  1  0  0  0  0
 32 33  1  0  0  0  0
 32 67  1  0  0  0  0
 33 68  1  0  0  0  0
 34 69  1  0  0  0  0
 35 70  1  0  0  0  0
 36 71  1  0  0  0  0
M  END
$$$$
