ZINC02568036
 OpenBabel08292219463D

 33 35  0  0  0  0  0  0  0  0999 V2000
   -0.0172    1.4047    0.0101 C   0  0  0  0  0  0  0  0  0  0  0  0
    1.1635    2.1012    0.0034 C   0  0  0  0  0  0  0  0  0  0  0  0
    2.3742    1.4240   -0.0136 C   0  0  0  0  0  0  0  0  0  0  0  0
    2.4052    0.0371   -0.0241 C   0  0  0  0  0  0  0  0  0  0  0  0
    1.2367   -0.6798   -0.0177 C   0  0  0  0  0  0  0  0  0  0  0  0
    0.0021   -0.0032   -0.0005 C   0  0  0  0  0  0  0  0  0  0  0  0
   -1.2124   -0.7339    0.0067 C   0  0  0  0  0  0  0  0  0  0  0  0
   -1.3170   -2.1470    0.0031 C   0  0  0  0  0  0  0  0  0  0  0  0
   -2.6376   -2.4596    0.0133 C   0  0  0  0  0  0  0  0  0  0  0  0
   -3.3652   -1.1809    0.0234 C   0  0  0  0  0  0  0  0  0  0  0  0
   -2.4428   -0.1937    0.0239 O   0  0  0  0  0  0  0  0  0  0  0  0
   -4.7435   -1.0188    0.0356 C   0  0  0  0  0  0  0  0  0  0  0  0
   -5.2686    0.2010    0.0439 N   0  0  0  0  0  0  0  0  0  0  0  0
   -6.5466    0.3537   -0.0430 N   0  0  0  0  0  0  0  0  0  0  0  0
   -7.5623   -0.7132   -0.0448 C   0  0  0  0  0  0  0  0  0  0  0  0
   -8.8713    0.0414   -0.1668 C   0  0  0  0  0  0  0  0  0  0  0  0
   -9.9874   -0.4303   -0.2075 O   0  0  0  0  0  0  0  0  0  0  0  0
   -8.5364    1.3457   -0.2197 N   0  0  0  0  0  0  0  0  0  0  0  0
   -7.2119    1.5186   -0.1438 C   0  0  0  0  0  0  0  0  0  0  0  0
   -6.6706    2.6054   -0.1665 O   0  0  0  0  0  0  0  0  0  0  0  0
    3.6426    2.1872   -0.0211 N   0  0  0  0  0  4  0  0  0  0  0  0
    3.6190    3.5039   -0.0116 O   0  0  0  0  0  0  0  0  0  0  0  0
    4.7948    1.5493   -0.0372 O   0  5  0  0  0  0  0  0  0  0  0  0
   -0.9586    1.9338    0.0278 H   0  0  0  0  0  0  0  0  0  0  0  0
    1.1512    3.1811    0.0111 H   0  0  0  0  0  0  0  0  0  0  0  0
    3.3534   -0.4797   -0.0377 H   0  0  0  0  0  0  0  0  0  0  0  0
    1.2631   -1.7594   -0.0263 H   0  0  0  0  0  0  0  0  0  0  0  0
   -0.4953   -2.8477   -0.0061 H   0  0  0  0  0  0  0  0  0  0  0  0
   -3.0687   -3.4498    0.0134 H   0  0  0  0  0  0  0  0  0  0  0  0
   -5.3890   -1.8847    0.0383 H   0  0  0  0  0  0  0  0  0  0  0  0
   -7.4208   -1.3760   -0.8985 H   0  0  0  0  0  0  0  0  0  0  0  0
   -7.5294   -1.2757    0.8883 H   0  0  0  0  0  0  0  0  0  0  0  0
   -9.1768    2.0699   -0.2997 H   0  0  0  0  0  0  0  0  0  0  0  0
  1  6  2  0  0  0  0
  1  2  1  0  0  0  0
  1 24  1  0  0  0  0
  2  3  2  0  0  0  0
  2 25  1  0  0  0  0
  3  4  1  0  0  0  0
  3 21  1  0  0  0  0
  4  5  2  0  0  0  0
  4 26  1  0  0  0  0
  5  6  1  0  0  0  0
  5 27  1  0  0  0  0
  6  7  1  0  0  0  0
  7 11  1  0  0  0  0
  7  8  2  0  0  0  0
  8  9  1  0  0  0  0
  8 28  1  0  0  0  0
  9 10  2  0  0  0  0
  9 29  1  0  0  0  0
 10 11  1  0  0  0  0
 10 12  1  0  0  0  0
 12 13  2  0  0  0  0
 12 30  1  0  0  0  0
 13 14  1  0  0  0  0
 14 19  1  0  0  0  0
 14 15  1  0  0  0  0
 15 16  1  0  0  0  0
 15 31  1  0  0  0  0
 15 32  1  0  0  0  0
 16 17  2  0  0  0  0
 16 18  1  0  0  0  0
 18 19  1  0  0  0  0
 18 33  1  0  0  0  0
 19 20  2  0  0  0  0
 21 22  2  0  0  0  0
 21 23  1  0  0  0  0
M  CHG  1  23  -1
M  END
$$$$
