ZINC34142545
 OpenBabel08292219463D

 53 56  0  0  1  0  0  0  0  0999 V2000
   -0.0187    1.5258    0.0104 C   0  0  0  0  0  0  0  0  0  0  0  0
    0.0021   -0.0041    0.0020 C   0  0  0  0  0  0  0  0  0  0  0  0
    0.7182   -0.4975   -1.2568 C   0  0  1  0  0  0  0  0  0  0  0  0
    2.1251    0.0939   -1.3807 C   0  0  0  0  0  0  0  0  0  0  0  0
    3.0570   -0.5166   -0.3387 C   0  0  0  0  0  0  0  0  0  0  0  0
    3.1758   -2.0224   -0.6037 C   0  0  2  0  0  0  0  0  0  0  0  0
    3.5413   -2.1890   -1.6170 H   0  0  0  0  0  0  0  0  0  0  0  0
    1.7960   -2.6557   -0.4444 C   0  0  1  0  0  0  0  0  0  0  0  0
    1.4588   -2.5098    0.5818 H   0  0  0  0  0  0  0  0  0  0  0  0
    0.7715   -2.0331   -1.3228 C   0  0  2  0  0  0  0  0  0  0  0  0
   -0.2101   -2.4354   -1.0723 H   0  0  0  0  0  0  0  0  0  0  0  0
    1.0505   -2.3196   -2.8102 C   0  0  0  0  0  0  0  0  0  0  0  0
    0.1876   -1.2694   -3.5470 C   0  0  0  0  0  0  0  0  0  0  0  0
   -0.0508   -0.1191   -2.5510 C   0  0  2  0  0  0  0  0  0  0  0  0
    0.4733    1.1421   -3.1002 C   0  0  0  0  0  0  0  0  0  0  0  0
    0.8913    2.1479   -3.5382 C   0  0  0  0  0  0  0  0  0  0  0  0
   -1.4467    0.0083   -2.2731 O   0  0  0  0  0  0  0  0  0  0  0  0
    1.8880   -4.1595   -0.7248 C   0  0  0  0  0  0  0  0  0  0  0  0
    2.7764   -4.8171    0.3329 C   0  0  0  0  0  0  0  0  0  0  0  0
    4.1227   -4.1158    0.3399 C   0  0  0  0  0  0  0  0  0  0  0  0
    5.2133   -4.8715    0.2857 C   0  0  0  0  0  0  0  0  0  0  0  0
    6.5460   -4.2432    0.3057 C   0  0  0  0  0  0  0  0  0  0  0  0
    7.5964   -4.8558   -0.1410 N   0  0  0  0  0  0  0  0  0  0  0  0
    7.4821   -6.1655   -0.6668 O   0  0  0  0  0  0  0  0  0  0  0  0
    6.6216   -2.8409    0.8778 C   0  0  0  0  0  0  0  0  0  0  0  0
    5.5268   -2.0139    0.2055 C   0  0  0  0  0  0  0  0  0  0  0  0
    4.1652   -2.6176    0.4065 C   0  0  1  0  0  0  0  0  0  0  0  0
    3.8420   -2.3250    1.4056 H   0  0  0  0  0  0  0  0  0  0  0  0
    1.0039    1.9031    0.0027 H   0  0  0  0  0  0  0  0  0  0  0  0
   -0.5459    1.8868   -0.8726 H   0  0  0  0  0  0  0  0  0  0  0  0
   -0.5289    1.8773    0.9072 H   0  0  0  0  0  0  0  0  0  0  0  0
    0.5293   -0.3651    0.8851 H   0  0  0  0  0  0  0  0  0  0  0  0
   -1.0205   -0.3814    0.0098 H   0  0  0  0  0  0  0  0  0  0  0  0
    2.5155   -0.1128   -2.3772 H   0  0  0  0  0  0  0  0  0  0  0  0
    2.0761    1.1725   -1.2311 H   0  0  0  0  0  0  0  0  0  0  0  0
    4.0411   -0.0538   -0.4128 H   0  0  0  0  0  0  0  0  0  0  0  0
    2.6479   -0.3523    0.6582 H   0  0  0  0  0  0  0  0  0  0  0  0
    2.1069   -2.1761   -3.0372 H   0  0  0  0  0  0  0  0  0  0  0  0
    0.7340   -3.3291   -3.0726 H   0  0  0  0  0  0  0  0  0  0  0  0
    0.7179   -0.8996   -4.4246 H   0  0  0  0  0  0  0  0  0  0  0  0
   -0.7644   -1.7099   -3.8435 H   0  0  0  0  0  0  0  0  0  0  0  0
    1.2651    3.0475   -3.9299 H   0  0  0  0  0  0  0  0  0  0  0  0
   -1.9813    0.2438   -3.0437 H   0  0  0  0  0  0  0  0  0  0  0  0
    0.8910   -4.5984   -0.6867 H   0  0  0  0  0  0  0  0  0  0  0  0
    2.3193   -4.3197   -1.7130 H   0  0  0  0  0  0  0  0  0  0  0  0
    2.3094   -4.7222    1.3132 H   0  0  0  0  0  0  0  0  0  0  0  0
    2.9142   -5.8710    0.0911 H   0  0  0  0  0  0  0  0  0  0  0  0
    5.1236   -5.9462    0.2274 H   0  0  0  0  0  0  0  0  0  0  0  0
    8.3186   -6.5400   -0.9752 H   0  0  0  0  0  0  0  0  0  0  0  0
    6.4551   -2.8705    1.9546 H   0  0  0  0  0  0  0  0  0  0  0  0
    7.5981   -2.4059    0.6648 H   0  0  0  0  0  0  0  0  0  0  0  0
    5.5382   -1.0058    0.6198 H   0  0  0  0  0  0  0  0  0  0  0  0
    5.7292   -1.9592   -0.8641 H   0  0  0  0  0  0  0  0  0  0  0  0
  1  2  1  0  0  0  0
  1 29  1  0  0  0  0
  1 30  1  0  0  0  0
  1 31  1  0  0  0  0
  2 32  1  0  0  0  0
  2 33  1  0  0  0  0
  3  2  1  1  0  0  0
  3 10  1  0  0  0  0
  3 14  1  0  0  0  0
  3  4  1  0  0  0  0
  4  5  1  0  0  0  0
  4 34  1  0  0  0  0
  4 35  1  0  0  0  0
  5  6  1  0  0  0  0
  5 36  1  0  0  0  0
  5 37  1  0  0  0  0
  6  7  1  6  0  0  0
  6 27  1  0  0  0  0
  6  8  1  0  0  0  0
  8  9  1  1  0  0  0
  8 10  1  0  0  0  0
  8 18  1  0  0  0  0
 10 11  1  1  0  0  0
 10 12  1  0  0  0  0
 12 13  1  0  0  0  0
 12 38  1  0  0  0  0
 12 39  1  0  0  0  0
 13 14  1  0  0  0  0
 13 40  1  0  0  0  0
 13 41  1  0  0  0  0
 14 15  1  6  0  0  0
 14 17  1  0  0  0  0
 15 16  3  0  0  0  0
 16 42  1  0  0  0  0
 17 43  1  0  0  0  0
 18 19  1  0  0  0  0
 18 44  1  0  0  0  0
 18 45  1  0  0  0  0
 19 20  1  0  0  0  0
 19 46  1  0  0  0  0
 19 47  1  0  0  0  0
 20 27  1  0  0  0  0
 20 21  2  0  0  0  0
 21 22  1  0  0  0  0
 21 48  1  0  0  0  0
 22 23  2  0  0  0  0
 22 25  1  0  0  0  0
 23 24  1  0  0  0  0
 24 49  1  0  0  0  0
 25 26  1  0  0  0  0
 25 50  1  0  0  0  0
 25 51  1  0  0  0  0
 26 27  1  0  0  0  0
 26 52  1  0  0  0  0
 26 53  1  0  0  0  0
 27 28  1  1  0  0  0
M  END
$$$$
