ZINC01530689
 OpenBabel08292219463D

 58 60  0  0  0  0  0  0  0  0999 V2000
   -0.8620   -1.2103    0.4196 C   0  0  0  0  0  0  0  0  0  0  0  0
   -0.0027   -0.0154    0.0014 C   0  0  0  0  0  0  0  0  0  0  0  0
    0.8449   -0.3968   -1.1848 C   0  0  0  0  0  0  0  0  0  0  0  0
    2.1086   -0.8505   -0.9971 C   0  0  0  0  0  0  0  0  0  0  0  0
    2.7052   -0.8396    0.3571 C   0  0  0  0  0  0  0  0  0  0  0  0
    2.9272    0.3707    1.0153 C   0  0  0  0  0  0  0  0  0  0  0  0
    3.4837    0.3740    2.2776 C   0  0  0  0  0  0  0  0  0  0  0  0
    3.8216   -0.8192    2.8911 C   0  0  0  0  0  0  0  0  0  0  0  0
    3.6040   -2.0226    2.2439 C   0  0  0  0  0  0  0  0  0  0  0  0
    3.0428   -2.0399    0.9837 C   0  0  0  0  0  0  0  0  0  0  0  0
    2.8911   -1.3565   -2.1461 C   0  0  0  0  0  0  0  0  0  0  0  0
    2.4761   -2.5039   -2.8244 C   0  0  0  0  0  0  0  0  0  0  0  0
    3.2080   -2.9722   -3.8945 C   0  0  0  0  0  0  0  0  0  0  0  0
    4.3568   -2.3043   -4.2980 C   0  0  0  0  0  0  0  0  0  0  0  0
    4.7731   -1.1628   -3.6254 C   0  0  0  0  0  0  0  0  0  0  0  0
    4.0432   -0.6847   -2.5583 C   0  0  0  0  0  0  0  0  0  0  0  0
    5.0755   -2.7690   -5.3531 O   0  0  0  0  0  0  0  0  0  0  0  0
    6.2462   -2.0338   -5.7148 C   0  0  0  0  0  0  0  0  0  0  0  0
    6.9183   -2.7034   -6.9152 C   0  0  0  0  0  0  0  0  0  0  0  0
    6.0308   -2.6198   -8.0828 N   0  3  0  0  0  0  0  0  0  0  0  0
    5.8597   -1.2126   -8.4681 C   0  0  0  0  0  0  0  0  0  0  0  0
    6.6223   -3.3655   -9.2018 C   0  0  0  0  0  0  0  0  0  0  0  0
    0.3013   -0.2769   -2.5460 C   0  0  0  0  0  0  0  0  0  0  0  0
    0.8638    0.6300   -3.4504 C   0  0  0  0  0  0  0  0  0  0  0  0
    0.3487    0.7362   -4.7249 C   0  0  0  0  0  0  0  0  0  0  0  0
   -0.7224   -0.0512   -5.1102 C   0  0  0  0  0  0  0  0  0  0  0  0
   -1.2849   -0.9506   -4.2211 C   0  0  0  0  0  0  0  0  0  0  0  0
   -0.7774   -1.0732   -2.9450 C   0  0  0  0  0  0  0  0  0  0  0  0
   -1.5889   -1.4268   -0.3633 H   0  0  0  0  0  0  0  0  0  0  0  0
   -0.2239   -2.0805    0.5736 H   0  0  0  0  0  0  0  0  0  0  0  0
   -1.3853   -0.9749    1.3463 H   0  0  0  0  0  0  0  0  0  0  0  0
   -0.6488    0.8203   -0.2674 H   0  0  0  0  0  0  0  0  0  0  0  0
    0.6424    0.2760    0.8303 H   0  0  0  0  0  0  0  0  0  0  0  0
    2.6642    1.3028    0.5373 H   0  0  0  0  0  0  0  0  0  0  0  0
    3.6564    1.3100    2.7879 H   0  0  0  0  0  0  0  0  0  0  0  0
    4.2573   -0.8113    3.8793 H   0  0  0  0  0  0  0  0  0  0  0  0
    3.8702   -2.9506    2.7280 H   0  0  0  0  0  0  0  0  0  0  0  0
    2.8693   -2.9801    0.4814 H   0  0  0  0  0  0  0  0  0  0  0  0
    1.5831   -3.0240   -2.5110 H   0  0  0  0  0  0  0  0  0  0  0  0
    2.8878   -3.8600   -4.4196 H   0  0  0  0  0  0  0  0  0  0  0  0
    5.6672   -0.6463   -3.9419 H   0  0  0  0  0  0  0  0  0  0  0  0
    4.3649    0.2058   -2.0388 H   0  0  0  0  0  0  0  0  0  0  0  0
    5.9678   -1.0131   -5.9769 H   0  0  0  0  0  0  0  0  0  0  0  0
    6.9389   -2.0168   -4.8734 H   0  0  0  0  0  0  0  0  0  0  0  0
    7.8574   -2.1958   -7.1356 H   0  0  0  0  0  0  0  0  0  0  0  0
    7.1165   -3.7499   -6.6836 H   0  0  0  0  0  0  0  0  0  0  0  0
    5.2012   -1.1506   -9.3345 H   0  0  0  0  0  0  0  0  0  0  0  0
    5.4209   -0.6593   -7.6378 H   0  0  0  0  0  0  0  0  0  0  0  0
    6.8302   -0.7837   -8.7180 H   0  0  0  0  0  0  0  0  0  0  0  0
    6.7492   -4.4096   -8.9159 H   0  0  0  0  0  0  0  0  0  0  0  0
    5.9637   -3.3034  -10.0682 H   0  0  0  0  0  0  0  0  0  0  0  0
    7.5927   -2.9366   -9.4516 H   0  0  0  0  0  0  0  0  0  0  0  0
    1.6992    1.2456   -3.1510 H   0  0  0  0  0  0  0  0  0  0  0  0
    0.7818    1.4358   -5.4243 H   0  0  0  0  0  0  0  0  0  0  0  0
   -1.1216    0.0368   -6.1098 H   0  0  0  0  0  0  0  0  0  0  0  0
   -2.1210   -1.5610   -4.5292 H   0  0  0  0  0  0  0  0  0  0  0  0
   -1.2145   -1.7786   -2.2539 H   0  0  0  0  0  0  0  0  0  0  0  0
    5.1325   -3.0168   -7.8515 H   0  0  0  0  0  0  0  0  0  0  0  0
  1  2  1  0  0  0  0
  1 29  1  0  0  0  0
  1 30  1  0  0  0  0
  1 31  1  0  0  0  0
  2  3  1  0  0  0  0
  2 32  1  0  0  0  0
  2 33  1  0  0  0  0
  3  4  2  0  0  0  0
  3 23  1  0  0  0  0
  4  5  1  0  0  0  0
  4 11  1  0  0  0  0
  5 10  2  0  0  0  0
  5  6  1  0  0  0  0
  6  7  2  0  0  0  0
  6 34  1  0  0  0  0
  7  8  1  0  0  0  0
  7 35  1  0  0  0  0
  8  9  2  0  0  0  0
  8 36  1  0  0  0  0
  9 10  1  0  0  0  0
  9 37  1  0  0  0  0
 10 38  1  0  0  0  0
 11 16  2  0  0  0  0
 11 12  1  0  0  0  0
 12 13  2  0  0  0  0
 12 39  1  0  0  0  0
 13 14  1  0  0  0  0
 13 40  1  0  0  0  0
 14 15  2  0  0  0  0
 14 17  1  0  0  0  0
 15 16  1  0  0  0  0
 15 41  1  0  0  0  0
 16 42  1  0  0  0  0
 17 18  1  0  0  0  0
 18 19  1  0  0  0  0
 18 43  1  0  0  0  0
 18 44  1  0  0  0  0
 19 20  1  0  0  0  0
 19 45  1  0  0  0  0
 19 46  1  0  0  0  0
 20 21  1  0  0  0  0
 20 22  1  0  0  0  0
 20 58  1  0  0  0  0
 21 47  1  0  0  0  0
 21 48  1  0  0  0  0
 21 49  1  0  0  0  0
 22 50  1  0  0  0  0
 22 51  1  0  0  0  0
 22 52  1  0  0  0  0
 23 28  2  0  0  0  0
 23 24  1  0  0  0  0
 24 25  2  0  0  0  0
 24 53  1  0  0  0  0
 25 26  1  0  0  0  0
 25 54  1  0  0  0  0
 26 27  2  0  0  0  0
 26 55  1  0  0  0  0
 27 28  1  0  0  0  0
 27 56  1  0  0  0  0
 28 57  1  0  0  0  0
M  CHG  1  20   1
M  END
$$$$
