ZINC03830515
 OpenBabel08292219463D

 43 45  0  0  1  0  0  0  0  0999 V2000
   -0.0184    1.5028    0.0103 C   0  0  0  0  0  0  0  0  0  0  0  0
    0.0021   -0.0041    0.0020 C   0  0  0  0  0  0  0  0  0  0  0  0
   -1.1812   -0.6001    0.0049 C   0  0  0  0  0  0  0  0  0  0  0  0
   -1.2792   -2.0012   -0.0500 N   0  0  0  0  0  0  0  0  0  0  0  0
   -0.1995   -2.9851    0.2230 C   0  0  1  0  0  0  0  0  0  0  0  0
   -0.0517   -3.2448    1.2712 H   0  0  0  0  0  0  0  0  0  0  0  0
   -1.0295   -3.9685   -0.5740 C   0  0  1  0  0  0  0  0  0  0  0  0
   -1.2069   -4.9156   -0.0644 H   0  0  0  0  0  0  0  0  0  0  0  0
   -2.1293   -2.9585   -0.3915 C   0  0  0  0  0  0  0  0  0  0  0  0
   -3.3354   -3.0033   -0.5114 O   0  0  0  0  0  0  0  0  0  0  0  0
   -0.5900   -4.1339   -1.9617 N   0  0  0  0  0  0  0  0  0  0  0  0
   -0.8644   -5.2752   -2.6240 C   0  0  0  0  0  0  0  0  0  0  0  0
   -1.4752   -6.1653   -2.0711 O   0  0  0  0  0  0  0  0  0  0  0  0
   -0.4124   -5.4454   -4.0514 C   0  0  1  0  0  0  0  0  0  0  0  0
   -0.5514   -4.5085   -4.5908 H   0  0  0  0  0  0  0  0  0  0  0  0
    1.0454   -5.8268   -4.0746 C   0  0  0  0  0  0  0  0  0  0  0  0
    1.8962   -4.9971   -4.5974 C   0  0  0  0  0  0  0  0  0  0  0  0
    3.3668   -5.2789   -4.6701 C   0  0  0  0  0  0  0  0  0  0  0  0
    3.6456   -6.7445   -4.5237 C   0  0  0  0  0  0  0  0  0  0  0  0
    2.7948   -7.5742   -4.0009 C   0  0  0  0  0  0  0  0  0  0  0  0
    1.4513   -7.1451   -3.4875 C   0  0  0  0  0  0  0  0  0  0  0  0
   -1.2053   -6.5023   -4.6935 N   0  3  0  0  0  0  0  0  0  0  0  0
    1.2943   -2.3448   -0.6082 S   0  0  0  0  0  0  0  0  0  0  0  0
    1.3546   -0.6399   -0.0143 C   0  0  0  0  0  0  0  0  0  0  0  0
   -2.4062    0.2135    0.0668 C   0  0  0  0  0  0  0  0  0  0  0  0
   -2.3284    1.4336    0.1152 O   0  0  0  0  0  0  0  0  0  0  0  0
   -3.5022   -0.3302    0.0698 O   0  0  0  0  0  1  0  0  0  0  0  0
    1.0042    1.8801    0.0026 H   0  0  0  0  0  0  0  0  0  0  0  0
   -0.5455    1.8639   -0.8728 H   0  0  0  0  0  0  0  0  0  0  0  0
   -0.5286    1.8543    0.9071 H   0  0  0  0  0  0  0  0  0  0  0  0
   -0.1015   -3.4221   -2.4039 H   0  0  0  0  0  0  0  0  0  0  0  0
    1.5285   -4.0637   -4.9975 H   0  0  0  0  0  0  0  0  0  0  0  0
    3.7490   -4.9368   -5.6318 H   0  0  0  0  0  0  0  0  0  0  0  0
    3.8743   -4.7372   -3.8719 H   0  0  0  0  0  0  0  0  0  0  0  0
    4.5950   -7.1268   -4.8684 H   0  0  0  0  0  0  0  0  0  0  0  0
    3.0672   -8.6168   -3.9291 H   0  0  0  0  0  0  0  0  0  0  0  0
    1.4916   -7.0555   -2.4020 H   0  0  0  0  0  0  0  0  0  0  0  0
    0.7109   -7.8987   -3.7556 H   0  0  0  0  0  0  0  0  0  0  0  0
   -1.0765   -7.3697   -4.1942 H   0  0  0  0  0  0  0  0  0  0  0  0
   -2.1813   -6.2470   -4.6780 H   0  0  0  0  0  0  0  0  0  0  0  0
    2.0130   -0.0577   -0.6589 H   0  0  0  0  0  0  0  0  0  0  0  0
    1.7594   -0.6397    0.9977 H   0  0  0  0  0  0  0  0  0  0  0  0
   -0.9026   -6.6163   -5.6492 H   0  0  0  0  0  0  0  0  0  0  0  0
  1  2  1  0  0  0  0
  1 28  1  0  0  0  0
  1 29  1  0  0  0  0
  1 30  1  0  0  0  0
  2 24  1  0  0  0  0
  2  3  2  0  0  0  0
  3  4  1  0  0  0  0
  3 25  1  0  0  0  0
  4  9  1  0  0  0  0
  4  5  1  0  0  0  0
  5  6  1  1  0  0  0
  5  7  1  0  0  0  0
  5 23  1  0  0  0  0
  7  8  1  1  0  0  0
  7  9  1  0  0  0  0
  7 11  1  0  0  0  0
  9 10  2  0  0  0  0
 11 12  1  0  0  0  0
 11 31  1  0  0  0  0
 12 13  2  0  0  0  0
 12 14  1  0  0  0  0
 14 15  1  6  0  0  0
 14 16  1  0  0  0  0
 14 22  1  0  0  0  0
 16 21  1  0  0  0  0
 16 17  2  0  0  0  0
 17 18  1  0  0  0  0
 17 32  1  0  0  0  0
 18 19  1  0  0  0  0
 18 33  1  0  0  0  0
 18 34  1  0  0  0  0
 19 20  2  0  0  0  0
 19 35  1  0  0  0  0
 20 21  1  0  0  0  0
 20 36  1  0  0  0  0
 21 37  1  0  0  0  0
 21 38  1  0  0  0  0
 22 39  1  0  0  0  0
 22 40  1  0  0  0  0
 22 43  1  0  0  0  0
 23 24  1  0  0  0  0
 24 41  1  0  0  0  0
 24 42  1  0  0  0  0
 25 26  2  0  0  0  0
 25 27  1  0  0  0  0
M  CHG  1  22   1
M  END
$$$$
