ZINC03938746
 OpenBabel08292219463D

 85 90  0  0  1  0  0  0  0  0999 V2000
   -3.1708   -8.0302   -2.4788 C   0  0  0  0  0  0  0  0  0  0  0  0
   -3.6064   -6.6830   -2.2856 O   0  0  0  0  0  0  0  0  0  0  0  0
   -2.6412   -5.7316   -2.1789 C   0  0  0  0  0  0  0  0  0  0  0  0
   -1.3077   -6.1144   -2.2616 C   0  0  0  0  0  0  0  0  0  0  0  0
   -0.2826   -5.2076   -2.1620 C   0  0  0  0  0  0  0  0  0  0  0  0
   -0.6370   -3.8678   -1.9734 C   0  0  0  0  0  0  0  0  0  0  0  0
   -1.9963   -3.4695   -1.8872 C   0  0  0  0  0  0  0  0  0  0  0  0
   -3.0196   -4.4090   -1.9905 C   0  0  0  0  0  0  0  0  0  0  0  0
   -2.0142   -2.1159   -1.7045 N   0  0  0  0  0  0  0  0  0  0  0  0
   -2.8146   -1.5762   -1.6096 H   0  0  0  0  0  0  0  0  0  0  0  0
   -0.7320   -1.6359   -1.6748 C   0  0  0  0  0  0  0  0  0  0  0  0
    0.1417   -2.6571   -1.8297 C   0  0  0  0  0  0  0  0  0  0  0  0
    1.6388   -2.4780   -1.8419 C   0  0  0  0  0  0  0  0  0  0  0  0
    1.9414   -0.9877   -2.0519 C   0  0  0  0  0  0  0  0  0  0  0  0
   -0.2929   -0.2039   -1.4999 C   0  0  1  0  0  0  0  0  0  0  0  0
   -0.4311    0.3398   -2.4344 H   0  0  0  0  0  0  0  0  0  0  0  0
   -1.1119    0.4639   -0.3939 C   0  0  0  0  0  0  0  0  0  0  0  0
   -0.6325    1.9113   -0.2287 C   0  0  1  0  0  0  0  0  0  0  0  0
   -1.1826    2.3884    0.5825 H   0  0  0  0  0  0  0  0  0  0  0  0
    0.8625    1.9093    0.0967 C   0  0  1  0  0  0  0  0  0  0  0  0
    1.0252    1.3927    1.0426 H   0  0  0  0  0  0  0  0  0  0  0  0
    1.6285    1.1866   -1.0134 C   0  0  0  0  0  0  0  0  0  0  0  0
    1.3687    3.3455    0.2233 C   0  0  0  0  0  0  0  0  0  0  0  0
    1.1295    4.0932   -1.0899 C   0  0  2  0  0  0  0  0  0  0  0  0
    1.4899    5.1176   -0.9962 H   0  0  0  0  0  0  0  0  0  0  0  0
   -0.3691    4.1052   -1.3997 C   0  0  1  0  0  0  0  0  0  0  0  0
   -0.5432    4.6422   -2.3321 H   0  0  0  0  0  0  0  0  0  0  0  0
   -0.8708    2.6670   -1.5379 C   0  0  1  0  0  0  0  0  0  0  0  0
   -1.9372    2.6749   -1.7634 H   0  0  0  0  0  0  0  0  0  0  0  0
   -0.1275    1.9815   -2.6553 C   0  0  0  0  0  0  0  0  0  0  0  0
    1.0147    2.2907   -2.8999 O   0  0  0  0  0  0  0  0  0  0  0  0
   -0.7342    1.0275   -3.3788 O   0  0  0  0  0  0  0  0  0  0  0  0
   -0.0096    0.5085   -4.5251 C   0  0  0  0  0  0  0  0  0  0  0  0
   -1.0702    4.7546   -0.3372 O   0  0  0  0  0  0  0  0  0  0  0  0
   -1.2199    6.1644   -0.5160 C   0  0  0  0  0  0  0  0  0  0  0  0
    1.8418    3.4252   -2.1645 O   0  0  0  0  0  0  0  0  0  0  0  0
    2.1920    4.1772   -3.2264 C   0  0  0  0  0  0  0  0  0  0  0  0
    1.8308    5.3353   -3.2963 O   0  0  0  0  0  0  0  0  0  0  0  0
    3.0136    3.5947   -4.3037 C   0  0  0  0  0  0  0  0  0  0  0  0
    3.4661    2.2762   -4.2040 C   0  0  0  0  0  0  0  0  0  0  0  0
    4.2315    1.7311   -5.2176 C   0  0  0  0  0  0  0  0  0  0  0  0
    4.5607    2.4978   -6.3324 C   0  0  0  0  0  0  0  0  0  0  0  0
    4.1160    3.8136   -6.4317 C   0  0  0  0  0  0  0  0  0  0  0  0
    3.3459    4.3621   -5.4236 C   0  0  0  0  0  0  0  0  0  0  0  0
    4.4393    4.5596   -7.5219 O   0  0  0  0  0  0  0  0  0  0  0  0
    3.9492    5.9014   -7.5585 C   0  0  0  0  0  0  0  0  0  0  0  0
    5.3176    1.9611   -7.3250 O   0  0  0  0  0  0  0  0  0  0  0  0
    6.7347    2.1060   -7.2108 C   0  0  0  0  0  0  0  0  0  0  0  0
    4.6675    0.4463   -5.1238 O   0  0  0  0  0  0  0  0  0  0  0  0
    4.2016   -0.3172   -4.0093 C   0  0  0  0  0  0  0  0  0  0  0  0
   -4.0386   -8.6863   -2.5476 H   0  0  0  0  0  0  0  0  0  0  0  0
   -2.5914   -8.0963   -3.3997 H   0  0  0  0  0  0  0  0  0  0  0  0
   -2.5503   -8.3358   -1.6364 H   0  0  0  0  0  0  0  0  0  0  0  0
   -1.0710   -7.1578   -2.4089 H   0  0  0  0  0  0  0  0  0  0  0  0
    0.7508   -5.5145   -2.2272 H   0  0  0  0  0  0  0  0  0  0  0  0
   -4.0588   -4.1221   -1.9273 H   0  0  0  0  0  0  0  0  0  0  0  0
    2.0722   -3.0596   -2.6555 H   0  0  0  0  0  0  0  0  0  0  0  0
    2.0564   -2.8076   -0.8905 H   0  0  0  0  0  0  0  0  0  0  0  0
    1.7031   -0.7099   -3.0786 H   0  0  0  0  0  0  0  0  0  0  0  0
    2.9982   -0.8012   -1.8610 H   0  0  0  0  0  0  0  0  0  0  0  0
   -0.9709   -0.0767    0.5421 H   0  0  0  0  0  0  0  0  0  0  0  0
   -2.1678    0.4574   -0.6640 H   0  0  0  0  0  0  0  0  0  0  0  0
    2.6910    1.1691   -0.7707 H   0  0  0  0  0  0  0  0  0  0  0  0
    1.4795    1.7082   -1.9588 H   0  0  0  0  0  0  0  0  0  0  0  0
    0.8348    3.8486    1.0296 H   0  0  0  0  0  0  0  0  0  0  0  0
    2.4356    3.3359    0.4461 H   0  0  0  0  0  0  0  0  0  0  0  0
   -0.5605   -0.3281   -4.9548 H   0  0  0  0  0  0  0  0  0  0  0  0
    0.0989    1.2944   -5.2726 H   0  0  0  0  0  0  0  0  0  0  0  0
    0.9768    0.1697   -4.2084 H   0  0  0  0  0  0  0  0  0  0  0  0
   -1.7759    6.3574   -1.4334 H   0  0  0  0  0  0  0  0  0  0  0  0
   -1.7619    6.5827    0.3322 H   0  0  0  0  0  0  0  0  0  0  0  0
   -0.2359    6.6287   -0.5830 H   0  0  0  0  0  0  0  0  0  0  0  0
    3.2149    1.6825   -3.3375 H   0  0  0  0  0  0  0  0  0  0  0  0
    3.0015    5.3828   -5.5009 H   0  0  0  0  0  0  0  0  0  0  0  0
    4.3355    6.4528   -6.7013 H   0  0  0  0  0  0  0  0  0  0  0  0
    4.2784    6.3835   -8.4790 H   0  0  0  0  0  0  0  0  0  0  0  0
    2.8598    5.8914   -7.5231 H   0  0  0  0  0  0  0  0  0  0  0  0
    7.2183    1.6341   -8.0662 H   0  0  0  0  0  0  0  0  0  0  0  0
    6.9909    3.1652   -7.1873 H   0  0  0  0  0  0  0  0  0  0  0  0
    7.0758    1.6291   -6.2919 H   0  0  0  0  0  0  0  0  0  0  0  0
    4.7107   -1.2809   -3.9909 H   0  0  0  0  0  0  0  0  0  0  0  0
    4.4117    0.2224   -3.0859 H   0  0  0  0  0  0  0  0  0  0  0  0
    3.1271   -0.4756   -4.1012 H   0  0  0  0  0  0  0  0  0  0  0  0
    1.1288   -0.2027   -1.0914 N   0  3  2  0  0  0  0  0  0  0  0  0
    1.2067   -0.6350   -0.1634 H   0  0  0  0  0  0  0  0  0  0  0  0
  1  2  1  0  0  0  0
  1 51  1  0  0  0  0
  1 52  1  0  0  0  0
  1 53  1  0  0  0  0
  2  3  1  0  0  0  0
  3  8  2  0  0  0  0
  3  4  1  0  0  0  0
  4  5  2  0  0  0  0
  4 54  1  0  0  0  0
  5  6  1  0  0  0  0
  5 55  1  0  0  0  0
  6 12  1  0  0  0  0
  6  7  2  0  0  0  0
  7  8  1  0  0  0  0
  7  9  1  0  0  0  0
  8 56  1  0  0  0  0
  9 10  1  0  0  0  0
  9 11  1  0  0  0  0
 11 15  1  0  0  0  0
 11 12  2  0  0  0  0
 12 13  1  0  0  0  0
 13 14  1  0  0  0  0
 13 57  1  0  0  0  0
 13 58  1  0  0  0  0
 14 59  1  0  0  0  0
 14 60  1  0  0  0  0
 14 84  1  0  0  0  0
 15 16  1  6  0  0  0
 15 17  1  0  0  0  0
 15 84  1  0  0  0  0
 17 18  1  0  0  0  0
 17 61  1  0  0  0  0
 17 62  1  0  0  0  0
 18 19  1  1  0  0  0
 18 28  1  0  0  0  0
 18 20  1  0  0  0  0
 20 21  1  1  0  0  0
 20 22  1  0  0  0  0
 20 23  1  0  0  0  0
 22 63  1  0  0  0  0
 22 64  1  0  0  0  0
 22 84  1  0  0  0  0
 23 24  1  0  0  0  0
 23 65  1  0  0  0  0
 23 66  1  0  0  0  0
 24 25  1  1  0  0  0
 24 26  1  0  0  0  0
 24 36  1  0  0  0  0
 26 27  1  6  0  0  0
 26 28  1  0  0  0  0
 26 34  1  0  0  0  0
 28 29  1  6  0  0  0
 28 30  1  0  0  0  0
 30 31  2  0  0  0  0
 30 32  1  0  0  0  0
 32 33  1  0  0  0  0
 33 67  1  0  0  0  0
 33 68  1  0  0  0  0
 33 69  1  0  0  0  0
 34 35  1  0  0  0  0
 35 70  1  0  0  0  0
 35 71  1  0  0  0  0
 35 72  1  0  0  0  0
 36 37  1  0  0  0  0
 37 38  2  0  0  0  0
 37 39  1  0  0  0  0
 39 44  2  0  0  0  0
 39 40  1  0  0  0  0
 40 41  2  0  0  0  0
 40 73  1  0  0  0  0
 41 42  1  0  0  0  0
 41 49  1  0  0  0  0
 42 43  2  0  0  0  0
 42 47  1  0  0  0  0
 43 44  1  0  0  0  0
 43 45  1  0  0  0  0
 44 74  1  0  0  0  0
 45 46  1  0  0  0  0
 46 75  1  0  0  0  0
 46 76  1  0  0  0  0
 46 77  1  0  0  0  0
 47 48  1  0  0  0  0
 48 78  1  0  0  0  0
 48 79  1  0  0  0  0
 48 80  1  0  0  0  0
 49 50  1  0  0  0  0
 50 81  1  0  0  0  0
 50 82  1  0  0  0  0
 50 83  1  0  0  0  0
 84 85  1  1  0  0  0
M  CHG  1  84   1
M  END
$$$$
