ZINC01536109
 OpenBabel08292219463D

 56 58  0  0  1  0  0  0  0  0999 V2000
    0.2710   -9.7925    1.5698 C   0  0  0  0  0  0  0  0  0  0  0  0
    0.1113   -8.6323    1.4875 C   0  0  0  0  0  0  0  0  0  0  0  0
   -0.0889   -7.1776    1.3844 C   0  0  0  0  0  0  0  0  0  0  0  0
    1.1022   -6.5491    0.6585 C   0  0  1  0  0  0  0  0  0  0  0  0
    2.0260   -6.8330    1.1626 H   0  0  0  0  0  0  0  0  0  0  0  0
    1.1375   -7.0455   -0.7883 C   0  0  0  0  0  0  0  0  0  0  0  0
    2.3847   -6.5363   -1.4639 C   0  0  0  0  0  0  0  0  0  0  0  0
    3.5827   -7.2350   -1.3189 C   0  0  0  0  0  0  0  0  0  0  0  0
    4.6838   -6.8127   -1.9033 N   0  0  0  0  0  0  0  0  0  0  0  0
    4.6546   -5.6961   -2.6350 C   0  0  0  0  0  0  0  0  0  0  0  0
    3.4355   -4.9870   -2.7746 C   0  0  0  0  0  0  0  0  0  0  0  0
    2.3336   -5.4336   -2.1804 N   0  0  0  0  0  0  0  0  0  0  0  0
    3.4429   -3.7677   -3.5848 C   0  0  0  0  0  0  0  0  0  0  0  0
    4.5910   -3.4027   -4.1384 N   0  0  0  0  0  0  0  0  0  0  0  0
    5.6986   -4.1168   -3.9648 C   0  0  0  0  0  0  0  0  0  0  0  0
    5.7469   -5.2208   -3.2461 N   0  0  0  0  0  0  0  0  0  0  0  0
    6.8610   -3.6789   -4.5701 N   0  0  0  0  0  0  0  0  0  0  0  0
    2.2964   -3.0258   -3.7664 N   0  0  0  0  0  0  0  0  0  0  0  0
    0.9635   -5.0485    0.6714 C   0  0  0  0  0  0  0  0  0  0  0  0
    1.9398   -4.2718    1.2697 C   0  0  0  0  0  0  0  0  0  0  0  0
    1.8184   -2.8976    1.2858 C   0  0  0  0  0  0  0  0  0  0  0  0
    0.7080   -2.2913    0.6964 C   0  0  0  0  0  0  0  0  0  0  0  0
   -0.2756   -3.0809    0.0988 C   0  0  0  0  0  0  0  0  0  0  0  0
   -0.1397   -4.4537    0.0854 C   0  0  0  0  0  0  0  0  0  0  0  0
    0.5712   -0.8192    0.7104 C   0  0  0  0  0  0  0  0  0  0  0  0
    1.4269   -0.1343    1.2360 O   0  0  0  0  0  0  0  0  0  0  0  0
   -0.5022   -0.2367    0.1404 N   0  0  0  0  0  0  0  0  0  0  0  0
   -0.6378    1.2219    0.1543 C   0  0  1  0  0  0  0  0  0  0  0  0
    0.3472    1.6793    0.0609 H   0  0  0  0  0  0  0  0  0  0  0  0
   -1.5182    1.6635   -1.0165 C   0  0  0  0  0  0  0  0  0  0  0  0
   -0.8155    1.3348   -2.3353 C   0  0  0  0  0  0  0  0  0  0  0  0
   -1.6827    1.7697   -3.4885 C   0  0  0  0  0  0  0  0  0  0  0  0
   -2.7529    2.2892   -3.2773 O   0  0  0  0  0  0  0  0  0  0  0  0
   -1.2719    1.6552    1.4509 C   0  0  0  0  0  0  0  0  0  0  0  0
   -1.5791    0.8302    2.2785 O   0  0  0  0  0  0  0  0  0  0  0  0
    0.4138  -10.8301    1.6433 H   0  0  0  0  0  0  0  0  0  0  0  0
   -0.1719   -6.7506    2.3838 H   0  0  0  0  0  0  0  0  0  0  0  0
   -1.0028   -6.9753    0.8259 H   0  0  0  0  0  0  0  0  0  0  0  0
    1.1380   -8.1355   -0.7985 H   0  0  0  0  0  0  0  0  0  0  0  0
    0.2601   -6.6776   -1.3202 H   0  0  0  0  0  0  0  0  0  0  0  0
    3.6064   -8.1358   -0.7236 H   0  0  0  0  0  0  0  0  0  0  0  0
    7.6838   -4.1808   -4.4604 H   0  0  0  0  0  0  0  0  0  0  0  0
    6.8543   -2.8695   -5.1048 H   0  0  0  0  0  0  0  0  0  0  0  0
    1.4652   -3.3086   -3.3540 H   0  0  0  0  0  0  0  0  0  0  0  0
    2.3203   -2.2205   -4.3066 H   0  0  0  0  0  0  0  0  0  0  0  0
    2.7985   -4.7422    1.7254 H   0  0  0  0  0  0  0  0  0  0  0  0
    2.5812   -2.2924    1.7531 H   0  0  0  0  0  0  0  0  0  0  0  0
   -1.1394   -2.6181   -0.3550 H   0  0  0  0  0  0  0  0  0  0  0  0
   -0.8982   -5.0657   -0.3800 H   0  0  0  0  0  0  0  0  0  0  0  0
   -1.1851   -0.7833   -0.2790 H   0  0  0  0  0  0  0  0  0  0  0  0
   -2.4721    1.1379   -0.9723 H   0  0  0  0  0  0  0  0  0  0  0  0
   -1.6921    2.7378   -0.9554 H   0  0  0  0  0  0  0  0  0  0  0  0
    0.1384    1.8604   -2.3796 H   0  0  0  0  0  0  0  0  0  0  0  0
   -0.6416    0.2605   -2.3964 H   0  0  0  0  0  0  0  0  0  0  0  0
   -1.2661    1.5799   -4.7503 O   0  0  0  0  0  1  0  0  0  0  0  0
   -1.4954    2.9576    1.6864 O   0  0  0  0  0  1  0  0  0  0  0  0
  1  2  3  0  0  0  0
  1 36  1  0  0  0  0
  2  3  1  0  0  0  0
  3  4  1  0  0  0  0
  3 37  1  0  0  0  0
  3 38  1  0  0  0  0
  4  5  1  1  0  0  0
  4  6  1  0  0  0  0
  4 19  1  0  0  0  0
  6  7  1  0  0  0  0
  6 39  1  0  0  0  0
  6 40  1  0  0  0  0
  7 12  2  0  0  0  0
  7  8  1  0  0  0  0
  8  9  2  0  0  0  0
  8 41  1  0  0  0  0
  9 10  1  0  0  0  0
 10 16  2  0  0  0  0
 10 11  1  0  0  0  0
 11 12  1  0  0  0  0
 11 13  2  0  0  0  0
 13 14  1  0  0  0  0
 13 18  1  0  0  0  0
 14 15  2  0  0  0  0
 15 16  1  0  0  0  0
 15 17  1  0  0  0  0
 17 42  1  0  0  0  0
 17 43  1  0  0  0  0
 18 44  1  0  0  0  0
 18 45  1  0  0  0  0
 19 24  2  0  0  0  0
 19 20  1  0  0  0  0
 20 21  2  0  0  0  0
 20 46  1  0  0  0  0
 21 22  1  0  0  0  0
 21 47  1  0  0  0  0
 22 23  2  0  0  0  0
 22 25  1  0  0  0  0
 23 24  1  0  0  0  0
 23 48  1  0  0  0  0
 24 49  1  0  0  0  0
 25 26  2  0  0  0  0
 25 27  1  0  0  0  0
 27 28  1  0  0  0  0
 27 50  1  0  0  0  0
 28 29  1  6  0  0  0
 28 30  1  0  0  0  0
 28 34  1  0  0  0  0
 30 31  1  0  0  0  0
 30 51  1  0  0  0  0
 30 52  1  0  0  0  0
 31 32  1  0  0  0  0
 31 53  1  0  0  0  0
 31 54  1  0  0  0  0
 32 33  2  0  0  0  0
 32 55  1  0  0  0  0
 34 35  2  0  0  0  0
 34 56  1  0  0  0  0
M  END
$$$$
