ZINC01996117
 OpenBabel08292219463D

 63 67  0  0  1  0  0  0  0  0999 V2000
    6.2679   -0.9746   -3.4775 C   0  0  0  0  0  0  0  0  0  0  0  0
    6.2774    0.1494   -2.6728 C   0  0  0  0  0  0  0  0  0  0  0  0
    5.4460    0.2173   -1.5705 C   0  0  0  0  0  0  0  0  0  0  0  0
    4.6049   -0.8386   -1.2731 C   0  0  0  0  0  0  0  0  0  0  0  0
    4.5947   -1.9622   -2.0782 C   0  0  0  0  0  0  0  0  0  0  0  0
    5.4271   -2.0307   -3.1798 C   0  0  0  0  0  0  0  0  0  0  0  0
    3.6993   -0.7650   -0.0708 C   0  0  0  0  0  0  0  0  0  0  0  0
    2.6283    0.2677   -0.3111 C   0  0  0  0  0  0  0  0  0  0  0  0
    2.5129    0.8682   -1.5508 C   0  0  0  0  0  0  0  0  0  0  0  0
    1.5305    1.8154   -1.7712 C   0  0  0  0  0  0  0  0  0  0  0  0
    0.6633    2.1618   -0.7520 C   0  0  0  0  0  0  0  0  0  0  0  0
    0.7781    1.5607    0.4875 C   0  0  0  0  0  0  0  0  0  0  0  0
    1.7578    0.6103    0.7066 C   0  0  0  0  0  0  0  0  0  0  0  0
    3.0485   -2.1300    0.1619 C   0  0  2  0  0  0  0  0  0  0  0  0
    2.4325   -2.4056   -0.6941 H   0  0  0  0  0  0  0  0  0  0  0  0
    2.1954   -2.1050    1.4509 C   0  0  0  0  0  0  0  0  0  0  0  0
    2.4706   -3.4959    2.0755 C   0  0  0  0  0  0  0  0  0  0  0  0
    3.9085   -3.7227    1.7802 N   0  3  2  0  0  0  0  0  0  0  0  0
    4.1269   -3.2007    0.4113 C   0  0  0  0  0  0  0  0  0  0  0  0
    4.2152   -5.1585    1.8284 C   0  0  0  0  0  0  0  0  0  0  0  0
    4.0516   -5.6671    3.2621 C   0  0  0  0  0  0  0  0  0  0  0  0
    4.3663   -7.1400    3.3116 C   0  0  0  0  0  0  0  0  0  0  0  0
    3.3641   -8.0709    3.1080 C   0  0  0  0  0  0  0  0  0  0  0  0
    3.6475   -9.4201    3.1480 C   0  0  0  0  0  0  0  0  0  0  0  0
    4.9469   -9.8570    3.3944 C   0  0  0  0  0  0  0  0  0  0  0  0
    5.9434   -8.9127    3.6046 C   0  0  0  0  0  0  0  0  0  0  0  0
    5.6599   -7.5657    3.5551 C   0  0  0  0  0  0  0  0  0  0  0  0
    7.2284   -9.6738    3.8681 C   0  0  0  0  0  0  0  0  0  0  0  0
    6.7019  -11.0988    4.1605 C   0  0  0  0  0  0  0  0  0  0  0  0
    5.4442  -11.1223    3.4644 O   0  0  0  0  0  0  0  0  0  0  0  0
    4.5056   -0.3795    1.1426 C   0  0  0  0  0  0  0  0  0  0  0  0
    4.1054    0.4924    1.8847 O   0  0  0  0  0  0  0  0  0  0  0  0
    5.6714   -1.0036    1.4031 N   0  0  0  0  0  0  0  0  0  0  0  0
    6.9142   -1.0258   -4.3412 H   0  0  0  0  0  0  0  0  0  0  0  0
    6.9346    0.9743   -2.9052 H   0  0  0  0  0  0  0  0  0  0  0  0
    5.4539    1.0951   -0.9414 H   0  0  0  0  0  0  0  0  0  0  0  0
    3.9381   -2.7874   -1.8455 H   0  0  0  0  0  0  0  0  0  0  0  0
    5.4195   -2.9087   -3.8086 H   0  0  0  0  0  0  0  0  0  0  0  0
    3.1904    0.5975   -2.3471 H   0  0  0  0  0  0  0  0  0  0  0  0
    1.4408    2.2851   -2.7396 H   0  0  0  0  0  0  0  0  0  0  0  0
   -0.1038    2.9024   -0.9240 H   0  0  0  0  0  0  0  0  0  0  0  0
    0.1008    1.8317    1.2839 H   0  0  0  0  0  0  0  0  0  0  0  0
    1.8452    0.1380    1.6739 H   0  0  0  0  0  0  0  0  0  0  0  0
    2.5281   -1.3099    2.1182 H   0  0  0  0  0  0  0  0  0  0  0  0
    1.1380   -1.9920    1.2116 H   0  0  0  0  0  0  0  0  0  0  0  0
    2.2974   -3.4756    3.1515 H   0  0  0  0  0  0  0  0  0  0  0  0
    1.8551   -4.2597    1.6001 H   0  0  0  0  0  0  0  0  0  0  0  0
    4.0251   -4.0065   -0.3156 H   0  0  0  0  0  0  0  0  0  0  0  0
    5.1182   -2.7535    0.3375 H   0  0  0  0  0  0  0  0  0  0  0  0
    3.5330   -5.6980    1.1714 H   0  0  0  0  0  0  0  0  0  0  0  0
    5.2415   -5.3220    1.4998 H   0  0  0  0  0  0  0  0  0  0  0  0
    4.7338   -5.1275    3.9191 H   0  0  0  0  0  0  0  0  0  0  0  0
    3.0253   -5.5036    3.5907 H   0  0  0  0  0  0  0  0  0  0  0  0
    2.3540   -7.7396    2.9170 H   0  0  0  0  0  0  0  0  0  0  0  0
    2.8591  -10.1405    2.9875 H   0  0  0  0  0  0  0  0  0  0  0  0
    6.4466   -6.8421    3.7101 H   0  0  0  0  0  0  0  0  0  0  0  0
    7.8714   -9.6690    2.9880 H   0  0  0  0  0  0  0  0  0  0  0  0
    7.7517   -9.2667    4.7333 H   0  0  0  0  0  0  0  0  0  0  0  0
    7.3802  -11.8512    3.7580 H   0  0  0  0  0  0  0  0  0  0  0  0
    6.5538  -11.2438    5.2306 H   0  0  0  0  0  0  0  0  0  0  0  0
    6.0369   -1.6350    0.7639 H   0  0  0  0  0  0  0  0  0  0  0  0
    6.1448   -0.8214    2.2299 H   0  0  0  0  0  0  0  0  0  0  0  0
    4.4827   -3.2205    2.4406 H   0  0  0  0  0  0  0  0  0  0  0  0
  1  6  2  0  0  0  0
  1  2  1  0  0  0  0
  1 34  1  0  0  0  0
  2  3  2  0  0  0  0
  2 35  1  0  0  0  0
  3  4  1  0  0  0  0
  3 36  1  0  0  0  0
  4  5  2  0  0  0  0
  4  7  1  0  0  0  0
  5  6  1  0  0  0  0
  5 37  1  0  0  0  0
  6 38  1  0  0  0  0
  7  8  1  0  0  0  0
  7 14  1  0  0  0  0
  7 31  1  0  0  0  0
  8 13  2  0  0  0  0
  8  9  1  0  0  0  0
  9 10  2  0  0  0  0
  9 39  1  0  0  0  0
 10 11  1  0  0  0  0
 10 40  1  0  0  0  0
 11 12  2  0  0  0  0
 11 41  1  0  0  0  0
 12 13  1  0  0  0  0
 12 42  1  0  0  0  0
 13 43  1  0  0  0  0
 14 15  1  6  0  0  0
 14 19  1  0  0  0  0
 14 16  1  0  0  0  0
 16 17  1  0  0  0  0
 16 44  1  0  0  0  0
 16 45  1  0  0  0  0
 17 18  1  0  0  0  0
 17 46  1  0  0  0  0
 17 47  1  0  0  0  0
 18 19  1  0  0  0  0
 18 20  1  0  0  0  0
 18 63  1  1  0  0  0
 19 48  1  0  0  0  0
 19 49  1  0  0  0  0
 20 21  1  0  0  0  0
 20 50  1  0  0  0  0
 20 51  1  0  0  0  0
 21 22  1  0  0  0  0
 21 52  1  0  0  0  0
 21 53  1  0  0  0  0
 22 27  2  0  0  0  0
 22 23  1  0  0  0  0
 23 24  2  0  0  0  0
 23 54  1  0  0  0  0
 24 25  1  0  0  0  0
 24 55  1  0  0  0  0
 25 30  1  0  0  0  0
 25 26  2  0  0  0  0
 26 27  1  0  0  0  0
 26 28  1  0  0  0  0
 27 56  1  0  0  0  0
 28 29  1  0  0  0  0
 28 57  1  0  0  0  0
 28 58  1  0  0  0  0
 29 30  1  0  0  0  0
 29 59  1  0  0  0  0
 29 60  1  0  0  0  0
 31 32  2  0  0  0  0
 31 33  1  0  0  0  0
 33 61  1  0  0  0  0
 33 62  1  0  0  0  0
M  CHG  1  18   1
M  END
$$$$
