ZINC00129343
 OpenBabel08292219463D

 24 24  0  0  1  0  0  0  0  0999 V2000
   -0.0167    1.3830    0.0096 C   0  0  0  0  0  0  0  0  0  0  0  0
    1.1706    2.0890    0.0021 C   0  0  0  0  0  0  0  0  0  0  0  0
    2.3781    1.4136   -0.0135 C   0  0  0  0  0  0  0  0  0  0  0  0
    2.3989    0.0301   -0.0211 C   0  0  0  0  0  0  0  0  0  0  0  0
    1.2137   -0.6795   -0.0136 C   0  0  0  0  0  0  0  0  0  0  0  0
    0.0021   -0.0041    0.0020 C   0  0  0  0  0  0  0  0  0  0  0  0
   -1.1651   -0.7005    0.0099 O   0  0  0  0  0  0  0  0  0  0  0  0
   -1.0700   -2.1263    0.0013 C   0  0  0  0  0  0  0  0  0  0  0  0
   -2.4752   -2.7313    0.0120 C   0  0  2  0  0  0  0  0  0  0  0  0
   -3.0336   -2.3381    0.8615 H   0  0  0  0  0  0  0  0  0  0  0  0
   -2.3742   -4.2535    0.1285 C   0  0  0  0  0  0  0  0  0  0  0  0
   -3.6845   -4.8095    0.2557 O   0  0  0  0  0  0  0  0  0  0  0  0
   -3.1500   -2.3902   -1.2006 O   0  0  0  0  0  0  0  0  0  0  0  0
    3.8689    2.3031   -0.0241 Cl  0  0  0  0  0  0  0  0  0  0  0  0
   -0.9590    1.9105    0.0260 H   0  0  0  0  0  0  0  0  0  0  0  0
    1.1564    3.1689    0.0080 H   0  0  0  0  0  0  0  0  0  0  0  0
    3.3424   -0.4953   -0.0333 H   0  0  0  0  0  0  0  0  0  0  0  0
    1.2303   -1.7593   -0.0203 H   0  0  0  0  0  0  0  0  0  0  0  0
   -0.5419   -2.4498   -0.8957 H   0  0  0  0  0  0  0  0  0  0  0  0
   -0.5243   -2.4593    0.8841 H   0  0  0  0  0  0  0  0  0  0  0  0
   -1.8941   -4.6552   -0.7638 H   0  0  0  0  0  0  0  0  0  0  0  0
   -1.7829   -4.5122    1.0069 H   0  0  0  0  0  0  0  0  0  0  0  0
   -3.6969   -5.7732    0.3343 H   0  0  0  0  0  0  0  0  0  0  0  0
   -2.7082   -2.7088   -1.9996 H   0  0  0  0  0  0  0  0  0  0  0  0
  1  6  2  0  0  0  0
  1  2  1  0  0  0  0
  1 15  1  0  0  0  0
  2  3  2  0  0  0  0
  2 16  1  0  0  0  0
  3  4  1  0  0  0  0
  3 14  1  0  0  0  0
  4  5  2  0  0  0  0
  4 17  1  0  0  0  0
  5  6  1  0  0  0  0
  5 18  1  0  0  0  0
  6  7  1  0  0  0  0
  7  8  1  0  0  0  0
  8  9  1  0  0  0  0
  8 19  1  0  0  0  0
  8 20  1  0  0  0  0
  9 10  1  1  0  0  0
  9 11  1  0  0  0  0
  9 13  1  0  0  0  0
 11 12  1  0  0  0  0
 11 21  1  0  0  0  0
 11 22  1  0  0  0  0
 12 23  1  0  0  0  0
 13 24  1  0  0  0  0
M  END
$$$$
