ZINC03782550
 OpenBabel08292219463D

 18 17  0  0  0  0  0  0  0  0999 V2000
   -0.0187    1.5258    0.0104 C   0  0  0  0  0  0  0  0  0  0  0  0
    0.0021   -0.0041    0.0020 C   0  0  0  0  0  0  0  0  0  0  0  0
   -1.4117   -0.5257    0.0127 C   0  0  0  0  0  0  0  0  0  0  0  0
   -2.3491    0.2539    0.0259 O   0  0  0  0  0  0  0  0  0  0  0  0
   -1.6182   -1.7273    0.0082 O   0  0  0  0  0  1  0  0  0  0  0  0
    1.3951    2.0474   -0.0003 C   0  0  0  0  0  0  0  0  0  0  0  0
    2.3235    1.2752   -0.0133 O   0  0  0  0  0  0  0  0  0  0  0  0
    1.6504    3.5326    0.0053 C   0  0  0  0  0  0  0  0  0  0  0  0
    3.0982    3.7807   -0.0072 N   0  3  0  0  0  0  0  0  0  0  0  0
   -0.5459    1.8868   -0.8726 H   0  0  0  0  0  0  0  0  0  0  0  0
   -0.5289    1.8773    0.9072 H   0  0  0  0  0  0  0  0  0  0  0  0
    0.5123   -0.3556   -0.8948 H   0  0  0  0  0  0  0  0  0  0  0  0
    0.5293   -0.3651    0.8851 H   0  0  0  0  0  0  0  0  0  0  0  0
    1.1970    3.9825   -0.8780 H   0  0  0  0  0  0  0  0  0  0  0  0
    1.2140    3.9729    0.9018 H   0  0  0  0  0  0  0  0  0  0  0  0
    3.5021    3.3731   -0.8372 H   0  0  0  0  0  0  0  0  0  0  0  0
    3.2691    4.7751   -0.0035 H   0  0  0  0  0  0  0  0  0  0  0  0
    3.5179    3.3642    0.8104 H   0  0  0  0  0  0  0  0  0  0  0  0
  1  2  1  0  0  0  0
  1  6  1  0  0  0  0
  1 10  1  0  0  0  0
  1 11  1  0  0  0  0
  2  3  1  0  0  0  0
  2 12  1  0  0  0  0
  2 13  1  0  0  0  0
  3  4  2  0  0  0  0
  3  5  1  0  0  0  0
  6  7  2  0  0  0  0
  6  8  1  0  0  0  0
  8  9  1  0  0  0  0
  8 14  1  0  0  0  0
  8 15  1  0  0  0  0
  9 16  1  0  0  0  0
  9 17  1  0  0  0  0
  9 18  1  0  0  0  0
M  CHG  1   9   1
M  END
$$$$
