ZINC08034121
 OpenBabel08292219463D

 12 11  0  0  0  0  0  0  0  0999 V2000
   -0.7955    1.5269   -1.1198 C   0  0  0  0  0  0  0  0  0  0  0  0
   -2.2069    0.9381   -1.0756 C   0  0  0  0  0  0  0  0  0  0  0  0
   -3.1749    1.5827   -2.4678 S   0  0  0  0  0  0  0  0  0  0  0  0
   -0.8526    2.6132   -1.0504 H   0  0  0  0  0  0  0  0  0  0  0  0
   -0.3144    1.2475   -2.0571 H   0  0  0  0  0  0  0  0  0  0  0  0
   -2.1498   -0.1482   -1.1450 H   0  0  0  0  0  0  0  0  0  0  0  0
   -2.6880    1.2175   -0.1383 H   0  0  0  0  0  0  0  0  0  0  0  0
   -4.3793    1.0017   -2.3234 H   0  0  0  0  0  0  0  0  0  0  0  0
    0.0021   -0.0041    0.0020 H   0  0  0  0  0  0  0  0  0  0  0  0
    0.9253    1.3792    0.0006 H   0  0  0  0  0  0  0  0  0  0  0  0
   -0.0252    1.0139    0.0269 N   0  3  0  0  0  0  0  0  0  0  0  0
   -0.4761    1.3157    0.8986 H   0  0  0  0  0  0  0  0  0  0  0  0
  1  2  1  0  0  0  0
  1  4  1  0  0  0  0
  1  5  1  0  0  0  0
  1 11  1  0  0  0  0
  2  3  1  0  0  0  0
  2  6  1  0  0  0  0
  2  7  1  0  0  0  0
  3  8  1  0  0  0  0
  9 11  1  0  0  0  0
 10 11  1  0  0  0  0
 11 12  1  0  0  0  0
M  CHG  1  11   1
M  END
$$$$
