ZINC19632927
 OpenBabel08292219463D

 48 51  0  0  0  0  0  0  0  0999 V2000
   -0.0178    1.4648    0.0101 C   0  0  0  0  0  0  0  0  0  0  0  0
    0.0021   -0.0041    0.0020 N   0  3  0  0  0  0  0  0  0  0  0  0
    0.6881   -0.4775   -1.2074 C   0  0  0  0  0  0  0  0  0  0  0  0
    0.6925   -2.0076   -1.2257 C   0  0  0  0  0  0  0  0  0  0  0  0
    1.3783   -2.5070   -0.0254 N   0  0  0  0  0  0  0  0  0  0  0  0
    0.7172   -2.0206    1.1938 C   0  0  0  0  0  0  0  0  0  0  0  0
    0.7125   -0.4904    1.1921 C   0  0  0  0  0  0  0  0  0  0  0  0
    1.4533   -3.9741   -0.0341 C   0  0  0  0  0  0  0  0  0  0  0  0
    2.3669   -4.4368    1.0715 C   0  0  0  0  0  0  0  0  0  0  0  0
    2.9027   -3.6245    1.7954 O   0  0  0  0  0  0  0  0  0  0  0  0
    2.5885   -5.7534    1.2559 N   0  0  0  0  0  0  0  0  0  0  0  0
    3.4268   -6.1930    2.2788 C   0  0  0  0  0  0  0  0  0  0  0  0
    4.7558   -5.7953    2.3068 C   0  0  0  0  0  0  0  0  0  0  0  0
    5.5974   -6.2612    3.2975 C   0  0  0  0  0  0  0  0  0  0  0  0
    5.1221   -7.1293    4.2666 C   0  0  0  0  0  0  0  0  0  0  0  0
    3.8013   -7.5220    4.2622 C   0  0  0  0  0  0  0  0  0  0  0  0
    2.9321   -7.0440    3.2767 C   0  0  0  0  0  0  0  0  0  0  0  0
    1.5076   -7.3936    3.3274 C   0  0  0  0  0  0  0  0  0  0  0  0
    0.9941   -7.4628    4.4272 O   0  0  0  0  0  0  0  0  0  0  0  0
    0.7308   -7.6402    2.2834 N   0  0  0  0  0  0  0  0  0  0  0  0
    1.1049   -7.6466    0.9429 C   0  0  0  0  0  0  0  0  0  0  0  0
    1.9766   -6.6982    0.4280 C   0  0  0  0  0  0  0  0  0  0  0  0
    2.2523   -6.6867   -0.8690 N   0  0  0  0  0  0  0  0  0  0  0  0
    1.7527   -7.5835   -1.6967 C   0  0  0  0  0  0  0  0  0  0  0  0
    0.9140   -8.5804   -1.2402 C   0  0  0  0  0  0  0  0  0  0  0  0
    0.5835   -8.6183    0.0940 C   0  0  0  0  0  0  0  0  0  0  0  0
    1.0047    1.8421    0.0024 H   0  0  0  0  0  0  0  0  0  0  0  0
   -0.5450    1.8259   -0.8730 H   0  0  0  0  0  0  0  0  0  0  0  0
   -0.5280    1.8163    0.9069 H   0  0  0  0  0  0  0  0  0  0  0  0
    0.1675   -0.1052   -2.0897 H   0  0  0  0  0  0  0  0  0  0  0  0
    1.7147   -0.1111   -1.2098 H   0  0  0  0  0  0  0  0  0  0  0  0
   -0.3339   -2.3742   -1.2371 H   0  0  0  0  0  0  0  0  0  0  0  0
    1.2146   -2.3592   -2.1156 H   0  0  0  0  0  0  0  0  0  0  0  0
   -0.3088   -2.3874    1.2222 H   0  0  0  0  0  0  0  0  0  0  0  0
    1.2573   -2.3817    2.0691 H   0  0  0  0  0  0  0  0  0  0  0  0
    1.7390   -0.1239    1.1774 H   0  0  0  0  0  0  0  0  0  0  0  0
    0.2100   -0.1276    2.0887 H   0  0  0  0  0  0  0  0  0  0  0  0
    0.4575   -4.3897    0.1196 H   0  0  0  0  0  0  0  0  0  0  0  0
    1.8441   -4.3122   -0.9938 H   0  0  0  0  0  0  0  0  0  0  0  0
    5.1327   -5.1207    1.5523 H   0  0  0  0  0  0  0  0  0  0  0  0
    6.6308   -5.9477    3.3166 H   0  0  0  0  0  0  0  0  0  0  0  0
    5.7903   -7.5006    5.0294 H   0  0  0  0  0  0  0  0  0  0  0  0
    3.4373   -8.1998    5.0202 H   0  0  0  0  0  0  0  0  0  0  0  0
   -0.1996   -7.8381    2.4737 H   0  0  0  0  0  0  0  0  0  0  0  0
    2.0029   -7.5372   -2.7463 H   0  0  0  0  0  0  0  0  0  0  0  0
    0.5246   -9.3217   -1.9223 H   0  0  0  0  0  0  0  0  0  0  0  0
   -0.0739   -9.3867    0.4732 H   0  0  0  0  0  0  0  0  0  0  0  0
   -0.9446   -0.3531    0.0097 H   0  0  0  0  0  0  0  0  0  0  0  0
  1  2  1  0  0  0  0
  1 27  1  0  0  0  0
  1 28  1  0  0  0  0
  1 29  1  0  0  0  0
  2  7  1  0  0  0  0
  2  3  1  0  0  0  0
  2 48  1  0  0  0  0
  3  4  1  0  0  0  0
  3 30  1  0  0  0  0
  3 31  1  0  0  0  0
  4  5  1  0  0  0  0
  4 32  1  0  0  0  0
  4 33  1  0  0  0  0
  5  6  1  0  0  0  0
  5  8  1  0  0  0  0
  6  7  1  0  0  0  0
  6 34  1  0  0  0  0
  6 35  1  0  0  0  0
  7 36  1  0  0  0  0
  7 37  1  0  0  0  0
  8  9  1  0  0  0  0
  8 38  1  0  0  0  0
  8 39  1  0  0  0  0
  9 10  2  0  0  0  0
  9 11  1  0  0  0  0
 11 22  1  0  0  0  0
 11 12  1  0  0  0  0
 12 17  2  0  0  0  0
 12 13  1  0  0  0  0
 13 14  2  0  0  0  0
 13 40  1  0  0  0  0
 14 15  1  0  0  0  0
 14 41  1  0  0  0  0
 15 16  2  0  0  0  0
 15 42  1  0  0  0  0
 16 17  1  0  0  0  0
 16 43  1  0  0  0  0
 17 18  1  0  0  0  0
 18 19  2  0  0  0  0
 18 20  1  0  0  0  0
 20 21  1  0  0  0  0
 20 44  1  0  0  0  0
 21 26  2  0  0  0  0
 21 22  1  0  0  0  0
 22 23  2  0  0  0  0
 23 24  1  0  0  0  0
 24 25  2  0  0  0  0
 24 45  1  0  0  0  0
 25 26  1  0  0  0  0
 25 46  1  0  0  0  0
 26 47  1  0  0  0  0
M  CHG  1   2   1
M  END
$$$$
