ZINC00403010
 OpenBabel08292219463D

 49 50  0  0  1  0  0  0  0  0999 V2000
   -0.0187    1.5258    0.0104 C   0  0  0  0  0  0  0  0  0  0  0  0
    0.0021   -0.0041    0.0020 C   0  0  1  0  0  0  0  0  0  0  0  0
   -1.0205   -0.3814    0.0098 H   0  0  0  0  0  0  0  0  0  0  0  0
    0.7182   -0.4975   -1.2568 C   0  0  0  0  0  0  0  0  0  0  0  0
    0.6303   -2.0233   -1.3286 C   0  0  0  0  0  0  0  0  0  0  0  0
    1.3357   -2.5093   -2.5685 C   0  0  0  0  0  0  0  0  0  0  0  0
    0.6379   -2.6389   -3.7547 C   0  0  0  0  0  0  0  0  0  0  0  0
    1.2849   -3.0847   -4.8920 C   0  0  0  0  0  0  0  0  0  0  0  0
    2.6299   -3.4004   -4.8432 C   0  0  0  0  0  0  0  0  0  0  0  0
    3.3279   -3.2700   -3.6572 C   0  0  0  0  0  0  0  0  0  0  0  0
    2.6818   -2.8201   -2.5209 C   0  0  0  0  0  0  0  0  0  0  0  0
    0.7126   -0.4907    1.1921 N   0  3  0  0  0  0  0  0  0  0  0  0
   -0.0398   -0.1189    2.3978 C   0  0  0  0  0  0  0  0  0  0  0  0
    0.7001   -0.6257    3.6373 C   0  0  1  0  0  0  0  0  0  0  0  0
    1.6931   -0.1778    3.6761 H   0  0  0  0  0  0  0  0  0  0  0  0
   -0.0717   -0.2443    4.8741 C   0  0  0  0  0  0  0  0  0  0  0  0
   -1.0995   -1.0574    5.3237 C   0  0  0  0  0  0  0  0  0  0  0  0
   -1.8139   -0.7187    6.4555 C   0  0  0  0  0  0  0  0  0  0  0  0
   -1.5055    0.4410    7.1512 C   0  0  0  0  0  0  0  0  0  0  0  0
   -0.4664    1.2659    6.7000 C   0  0  0  0  0  0  0  0  0  0  0  0
    0.2515    0.9086    5.5559 C   0  0  0  0  0  0  0  0  0  0  0  0
   -0.1292    2.5019    7.4317 C   0  0  0  0  0  0  0  0  0  0  0  0
   -0.7535    2.8073    8.4293 O   0  0  0  0  0  0  0  0  0  0  0  0
    0.8709    3.2924    6.9942 N   0  0  0  0  0  0  0  0  0  0  0  0
   -2.2069    0.7753    8.2632 O   0  0  0  0  0  0  0  0  0  0  0  0
    0.8214   -2.0480    3.5713 O   0  0  0  0  0  0  0  0  0  0  0  0
    1.0039    1.9031    0.0027 H   0  0  0  0  0  0  0  0  0  0  0  0
   -0.5459    1.8868   -0.8726 H   0  0  0  0  0  0  0  0  0  0  0  0
   -0.5289    1.8773    0.9072 H   0  0  0  0  0  0  0  0  0  0  0  0
    0.2444   -0.0644   -2.1377 H   0  0  0  0  0  0  0  0  0  0  0  0
    1.7648   -0.1951   -1.2215 H   0  0  0  0  0  0  0  0  0  0  0  0
    1.1041   -2.4564   -0.4477 H   0  0  0  0  0  0  0  0  0  0  0  0
   -0.4163   -2.3257   -1.3639 H   0  0  0  0  0  0  0  0  0  0  0  0
   -0.4128   -2.3922   -3.7929 H   0  0  0  0  0  0  0  0  0  0  0  0
    0.7396   -3.1866   -5.8187 H   0  0  0  0  0  0  0  0  0  0  0  0
    3.1352   -3.7494   -5.7316 H   0  0  0  0  0  0  0  0  0  0  0  0
    4.3785   -3.5170   -3.6190 H   0  0  0  0  0  0  0  0  0  0  0  0
    3.2280   -2.7146   -1.5952 H   0  0  0  0  0  0  0  0  0  0  0  0
    0.7982   -1.4950    1.1455 H   0  0  0  0  0  0  0  0  0  0  0  0
   -0.1324    0.9660    2.4481 H   0  0  0  0  0  0  0  0  0  0  0  0
   -1.0328   -0.5668    2.3589 H   0  0  0  0  0  0  0  0  0  0  0  0
   -1.3434   -1.9614    4.7855 H   0  0  0  0  0  0  0  0  0  0  0  0
   -2.6141   -1.3573    6.7993 H   0  0  0  0  0  0  0  0  0  0  0  0
    1.0561    1.5374    5.2041 H   0  0  0  0  0  0  0  0  0  0  0  0
    1.3690    3.0487    6.1983 H   0  0  0  0  0  0  0  0  0  0  0  0
    1.0926    4.1050    7.4753 H   0  0  0  0  0  0  0  0  0  0  0  0
   -1.8364    0.4211    9.0832 H   0  0  0  0  0  0  0  0  0  0  0  0
   -0.0252   -2.5137    3.5341 H   0  0  0  0  0  0  0  0  0  0  0  0
    1.6317   -0.0761    1.2281 H   0  0  0  0  0  0  0  0  0  0  0  0
  1  2  1  0  0  0  0
  1 27  1  0  0  0  0
  1 28  1  0  0  0  0
  1 29  1  0  0  0  0
  2  3  1  1  0  0  0
  2  4  1  0  0  0  0
  2 12  1  0  0  0  0
  4  5  1  0  0  0  0
  4 30  1  0  0  0  0
  4 31  1  0  0  0  0
  5  6  1  0  0  0  0
  5 32  1  0  0  0  0
  5 33  1  0  0  0  0
  6 11  2  0  0  0  0
  6  7  1  0  0  0  0
  7  8  2  0  0  0  0
  7 34  1  0  0  0  0
  8  9  1  0  0  0  0
  8 35  1  0  0  0  0
  9 10  2  0  0  0  0
  9 36  1  0  0  0  0
 10 11  1  0  0  0  0
 10 37  1  0  0  0  0
 11 38  1  0  0  0  0
 12 13  1  0  0  0  0
 12 39  1  0  0  0  0
 12 49  1  0  0  0  0
 13 14  1  0  0  0  0
 13 40  1  0  0  0  0
 13 41  1  0  0  0  0
 14 15  1  1  0  0  0
 14 16  1  0  0  0  0
 14 26  1  0  0  0  0
 16 21  2  0  0  0  0
 16 17  1  0  0  0  0
 17 18  2  0  0  0  0
 17 42  1  0  0  0  0
 18 19  1  0  0  0  0
 18 43  1  0  0  0  0
 19 20  2  0  0  0  0
 19 25  1  0  0  0  0
 20 21  1  0  0  0  0
 20 22  1  0  0  0  0
 21 44  1  0  0  0  0
 22 23  2  0  0  0  0
 22 24  1  0  0  0  0
 24 45  1  0  0  0  0
 24 46  1  0  0  0  0
 25 47  1  0  0  0  0
 26 48  1  0  0  0  0
M  CHG  1  12   1
M  END
$$$$
