ZINC19594599
 OpenBabel08292219463D

 31 33  0  0  0  0  0  0  0  0999 V2000
   -0.0167    1.3780    0.0096 C   0  0  0  0  0  0  0  0  0  0  0  0
    1.1709    2.0861    0.0021 C   0  0  0  0  0  0  0  0  0  0  0  0
    2.3773    1.4123   -0.0135 C   0  0  0  0  0  0  0  0  0  0  0  0
    2.3967    0.0287   -0.0210 C   0  0  0  0  0  0  0  0  0  0  0  0
    1.2083   -0.6792   -0.0130 C   0  0  0  0  0  0  0  0  0  0  0  0
    0.0021   -0.0041    0.0020 C   0  0  0  0  0  0  0  0  0  0  0  0
    1.2286   -2.1860   -0.0218 C   0  0  0  0  0  0  0  0  0  0  0  0
    1.4894   -2.6801    1.3368 N   0  0  0  0  0  0  0  0  0  0  0  0
    1.7839   -4.1200    1.3262 C   0  0  0  0  0  0  0  0  0  0  0  0
    2.4421   -4.5012    2.6631 C   0  0  0  0  0  0  0  0  0  0  0  0
    1.6394   -3.8794    3.7589 C   0  0  0  0  0  0  0  0  0  0  0  0
    0.6937   -2.9077    3.6240 C   0  0  0  0  0  0  0  0  0  0  0  0
    0.0685   -2.4815    4.7933 C   0  0  0  0  0  0  0  0  0  0  0  0
    0.4131   -3.0275    5.9829 C   0  0  0  0  0  0  0  0  0  0  0  0
    1.6697   -4.2026    5.4992 S   0  0  0  0  0  0  0  0  0  0  0  0
    0.3784   -2.3509    2.2389 C   0  0  0  0  0  0  0  0  0  0  0  0
    3.9119   -0.8184   -0.0411 Cl  0  0  0  0  0  0  0  0  0  0  0  0
   -0.9592    1.9049    0.0259 H   0  0  0  0  0  0  0  0  0  0  0  0
    1.1556    3.1659    0.0080 H   0  0  0  0  0  0  0  0  0  0  0  0
    3.3048    1.9655   -0.0201 H   0  0  0  0  0  0  0  0  0  0  0  0
   -0.9258   -0.5566    0.0079 H   0  0  0  0  0  0  0  0  0  0  0  0
    0.2643   -2.5603   -0.3656 H   0  0  0  0  0  0  0  0  0  0  0  0
    2.0139   -2.5349   -0.6923 H   0  0  0  0  0  0  0  0  0  0  0  0
    0.8579   -4.6814    1.2017 H   0  0  0  0  0  0  0  0  0  0  0  0
    2.4645   -4.3477    0.5058 H   0  0  0  0  0  0  0  0  0  0  0  0
    2.4457   -5.5852    2.7772 H   0  0  0  0  0  0  0  0  0  0  0  0
    3.4638   -4.1225    2.6930 H   0  0  0  0  0  0  0  0  0  0  0  0
   -0.6912   -1.7150    4.7508 H   0  0  0  0  0  0  0  0  0  0  0  0
    0.0284   -2.8100    6.9683 H   0  0  0  0  0  0  0  0  0  0  0  0
    0.2630   -1.2686    2.2973 H   0  0  0  0  0  0  0  0  0  0  0  0
   -0.5418   -2.7998    1.8649 H   0  0  0  0  0  0  0  0  0  0  0  0
  1  6  2  0  0  0  0
  1  2  1  0  0  0  0
  1 18  1  0  0  0  0
  2  3  2  0  0  0  0
  2 19  1  0  0  0  0
  3  4  1  0  0  0  0
  3 20  1  0  0  0  0
  4  5  2  0  0  0  0
  4 17  1  0  0  0  0
  5  6  1  0  0  0  0
  5  7  1  0  0  0  0
  6 21  1  0  0  0  0
  7  8  1  0  0  0  0
  7 22  1  0  0  0  0
  7 23  1  0  0  0  0
  8 16  1  0  0  0  0
  8  9  1  0  0  0  0
  9 10  1  0  0  0  0
  9 24  1  0  0  0  0
  9 25  1  0  0  0  0
 10 11  1  0  0  0  0
 10 26  1  0  0  0  0
 10 27  1  0  0  0  0
 11 15  1  0  0  0  0
 11 12  2  0  0  0  0
 12 13  1  0  0  0  0
 12 16  1  0  0  0  0
 13 14  2  0  0  0  0
 13 28  1  0  0  0  0
 14 15  1  0  0  0  0
 14 29  1  0  0  0  0
 16 30  1  0  0  0  0
 16 31  1  0  0  0  0
M  END
$$$$
