ZINC36701290
 OpenBabel08292219463D

 67 71  0  0  1  0  0  0  0  0999 V2000
    0.1130    1.5923   -0.8479 C   0  0  0  0  0  0  0  0  0  0  0  0
    0.1813    0.0901   -0.7489 C   0  0  0  0  0  0  0  0  0  0  0  0
   -0.2172   -0.6895   -1.8160 C   0  0  0  0  0  0  0  0  0  0  0  0
   -0.1576   -2.0667   -1.7341 C   0  0  0  0  0  0  0  0  0  0  0  0
    0.3069   -2.6821   -0.5688 C   0  0  0  0  0  0  0  0  0  0  0  0
    0.7111   -1.9036    0.5129 C   0  0  0  0  0  0  0  0  0  0  0  0
    0.6540   -0.5116    0.4223 C   0  0  0  0  0  0  0  0  0  0  0  0
    1.0725    0.2978    1.5271 C   0  0  0  0  0  0  0  0  0  0  0  0
    1.4156    0.9613    2.4328 C   0  0  0  0  0  0  0  0  0  0  0  0
    1.8341    1.7706    3.5375 C   0  0  0  0  0  0  0  0  0  0  0  0
    1.8250    3.1542    3.6008 C   0  0  0  0  0  0  0  0  0  0  0  0
    2.2875    3.5183    4.7899 N   0  0  0  0  0  0  0  0  0  0  0  0
    2.5954    2.4378    5.4990 C   0  0  0  0  0  0  0  0  0  0  0  0
    2.3178    1.3265    4.7445 N   0  0  0  0  0  0  0  0  0  0  0  0
    2.5489    0.0499    5.2652 N   0  0  0  0  0  0  0  0  0  0  0  0
    3.0271   -0.1004    6.4724 C   0  0  0  0  0  0  0  0  0  0  0  0
    3.3192    1.0106    7.2724 C   0  0  0  0  0  0  0  0  0  0  0  0
    3.1138    2.2707    6.7959 C   0  0  0  0  0  0  0  0  0  0  0  0
    0.3685   -4.1568   -0.4841 C   0  0  0  0  0  0  0  0  0  0  0  0
    0.7728   -4.6909    0.5303 O   0  0  0  0  0  0  0  0  0  0  0  0
   -0.0234   -4.9089   -1.5315 N   0  0  0  0  0  0  0  0  0  0  0  0
    0.1280   -6.2985   -1.4901 C   0  0  0  0  0  0  0  0  0  0  0  0
   -0.0435   -6.9820   -0.2930 C   0  0  0  0  0  0  0  0  0  0  0  0
    0.1068   -8.3542   -0.2554 C   0  0  0  0  0  0  0  0  0  0  0  0
    0.4283   -9.0479   -1.4080 C   0  0  0  0  0  0  0  0  0  0  0  0
    0.6001   -8.3706   -2.6010 C   0  0  0  0  0  0  0  0  0  0  0  0
    0.4447   -6.9988   -2.6467 C   0  0  0  0  0  0  0  0  0  0  0  0
    0.9508   -9.1305   -3.8542 C   0  0  0  0  0  0  0  0  0  0  0  0
    1.0232   -8.2428   -4.9330 F   0  0  0  0  0  0  0  0  0  0  0  0
    2.1878   -9.7619   -3.6860 F   0  0  0  0  0  0  0  0  0  0  0  0
   -0.0331  -10.0924   -4.1070 F   0  0  0  0  0  0  0  0  0  0  0  0
    0.5920  -10.5453   -1.3632 C   0  0  0  0  0  0  0  0  0  0  0  0
   -0.6214  -11.1865   -1.8872 N   0  0  0  0  0  0  0  0  0  0  0  0
   -1.7868  -10.8732   -1.0483 C   0  0  0  0  0  0  0  0  0  0  0  0
   -3.0373  -11.5089   -1.6598 C   0  0  0  0  0  0  0  0  0  0  0  0
   -2.8536  -12.9634   -1.7491 N   0  3  2  0  0  0  0  0  0  0  0  0
   -1.7011  -13.2612   -2.6097 C   0  0  0  0  0  0  0  0  0  0  0  0
   -0.4395  -12.6401   -2.0062 C   0  0  0  0  0  0  0  0  0  0  0  0
   -4.0613  -13.5752   -2.3194 C   0  0  0  0  0  0  0  0  0  0  0  0
    1.0526    1.9732   -1.2481 H   0  0  0  0  0  0  0  0  0  0  0  0
   -0.7053    1.8759   -1.5098 H   0  0  0  0  0  0  0  0  0  0  0  0
   -0.0577    2.0144    0.1424 H   0  0  0  0  0  0  0  0  0  0  0  0
   -0.5779   -0.2200   -2.7193 H   0  0  0  0  0  0  0  0  0  0  0  0
   -0.4712   -2.6699   -2.5733 H   0  0  0  0  0  0  0  0  0  0  0  0
    1.0709   -2.3744    1.4159 H   0  0  0  0  0  0  0  0  0  0  0  0
    1.4980    3.8217    2.8172 H   0  0  0  0  0  0  0  0  0  0  0  0
    3.1987   -1.0946    6.8577 H   0  0  0  0  0  0  0  0  0  0  0  0
    3.7134    0.8687    8.2678 H   0  0  0  0  0  0  0  0  0  0  0  0
    3.3363    3.1304    7.4105 H   0  0  0  0  0  0  0  0  0  0  0  0
   -0.4106   -4.4863   -2.3141 H   0  0  0  0  0  0  0  0  0  0  0  0
   -0.2938   -6.4408    0.6075 H   0  0  0  0  0  0  0  0  0  0  0  0
   -0.0264   -8.8861    0.6749 H   0  0  0  0  0  0  0  0  0  0  0  0
    0.5743   -6.4709   -3.5799 H   0  0  0  0  0  0  0  0  0  0  0  0
    1.4482  -10.8355   -1.9721 H   0  0  0  0  0  0  0  0  0  0  0  0
    0.7546  -10.8624   -0.3331 H   0  0  0  0  0  0  0  0  0  0  0  0
   -1.6303  -11.2702   -0.0454 H   0  0  0  0  0  0  0  0  0  0  0  0
   -1.9170   -9.7922   -0.9957 H   0  0  0  0  0  0  0  0  0  0  0  0
   -3.9006  -11.2896   -1.0315 H   0  0  0  0  0  0  0  0  0  0  0  0
   -3.2012  -11.1014   -2.6574 H   0  0  0  0  0  0  0  0  0  0  0  0
   -1.5738  -14.3411   -2.6857 H   0  0  0  0  0  0  0  0  0  0  0  0
   -1.8719  -12.8448   -3.6025 H   0  0  0  0  0  0  0  0  0  0  0  0
    0.4132  -12.8482   -2.6523 H   0  0  0  0  0  0  0  0  0  0  0  0
   -0.2609  -13.0663   -1.0190 H   0  0  0  0  0  0  0  0  0  0  0  0
   -4.2384  -13.1694   -3.3154 H   0  0  0  0  0  0  0  0  0  0  0  0
   -3.9251  -14.6546   -2.3857 H   0  0  0  0  0  0  0  0  0  0  0  0
   -4.9164  -13.3554   -1.6802 H   0  0  0  0  0  0  0  0  0  0  0  0
   -2.6903  -13.3388   -0.8269 H   0  0  0  0  0  0  0  0  0  0  0  0
  1  2  1  0  0  0  0
  1 40  1  0  0  0  0
  1 41  1  0  0  0  0
  1 42  1  0  0  0  0
  2  7  2  0  0  0  0
  2  3  1  0  0  0  0
  3  4  2  0  0  0  0
  3 43  1  0  0  0  0
  4  5  1  0  0  0  0
  4 44  1  0  0  0  0
  5  6  2  0  0  0  0
  5 19  1  0  0  0  0
  6  7  1  0  0  0  0
  6 45  1  0  0  0  0
  7  8  1  0  0  0  0
  8  9  3  0  0  0  0
  9 10  1  0  0  0  0
 10 14  1  0  0  0  0
 10 11  2  0  0  0  0
 11 12  1  0  0  0  0
 11 46  1  0  0  0  0
 12 13  2  0  0  0  0
 13 18  1  0  0  0  0
 13 14  1  0  0  0  0
 14 15  1  0  0  0  0
 15 16  2  0  0  0  0
 16 17  1  0  0  0  0
 16 47  1  0  0  0  0
 17 18  2  0  0  0  0
 17 48  1  0  0  0  0
 18 49  1  0  0  0  0
 19 20  2  0  0  0  0
 19 21  1  0  0  0  0
 21 22  1  0  0  0  0
 21 50  1  0  0  0  0
 22 27  2  0  0  0  0
 22 23  1  0  0  0  0
 23 24  2  0  0  0  0
 23 51  1  0  0  0  0
 24 25  1  0  0  0  0
 24 52  1  0  0  0  0
 25 26  2  0  0  0  0
 25 32  1  0  0  0  0
 26 27  1  0  0  0  0
 26 28  1  0  0  0  0
 27 53  1  0  0  0  0
 28 29  1  0  0  0  0
 28 30  1  0  0  0  0
 28 31  1  0  0  0  0
 32 33  1  0  0  0  0
 32 54  1  0  0  0  0
 32 55  1  0  0  0  0
 33 38  1  0  0  0  0
 33 34  1  0  0  0  0
 34 35  1  0  0  0  0
 34 56  1  0  0  0  0
 34 57  1  0  0  0  0
 35 36  1  0  0  0  0
 35 58  1  0  0  0  0
 35 59  1  0  0  0  0
 36 37  1  0  0  0  0
 36 39  1  0  0  0  0
 36 67  1  1  0  0  0
 37 38  1  0  0  0  0
 37 60  1  0  0  0  0
 37 61  1  0  0  0  0
 38 62  1  0  0  0  0
 38 63  1  0  0  0  0
 39 64  1  0  0  0  0
 39 65  1  0  0  0  0
 39 66  1  0  0  0  0
M  CHG  1  36   1
M  END
$$$$
