ZINC04428529
 OpenBabel08292219463D

 53 56  0  0  1  0  0  0  0  0999 V2000
    0.4282    0.7651    1.2384 C   0  0  0  0  0  0  0  0  0  0  0  0
    0.0050   -0.0027    0.0127 C   0  0  0  0  0  0  0  0  0  0  0  0
    0.7040   -0.0010   -0.9721 O   0  0  0  0  0  0  0  0  0  0  0  0
   -1.2905   -0.7727    0.0158 C   0  0  1  0  0  0  0  0  0  0  0  0
   -2.0415   -0.2446    0.6034 H   0  0  0  0  0  0  0  0  0  0  0  0
   -1.7935   -0.9827   -1.4341 C   0  0  0  0  0  0  0  0  0  0  0  0
   -1.9305   -2.5169   -1.6323 C   0  0  0  0  0  0  0  0  0  0  0  0
   -2.1068   -3.0336   -0.2000 C   0  0  2  0  0  0  0  0  0  0  0  0
   -3.1156   -2.8264    0.1569 H   0  0  0  0  0  0  0  0  0  0  0  0
   -1.0708   -2.1742    0.5759 C   0  0  2  0  0  0  0  0  0  0  0  0
   -1.3489   -2.3630    2.0549 C   0  0  0  0  0  0  0  0  0  0  0  0
   -1.0643   -3.8367    2.3850 C   0  0  0  0  0  0  0  0  0  0  0  0
   -1.9046   -4.7802    1.5293 C   0  0  1  0  0  0  0  0  0  0  0  0
   -2.9551   -4.6575    1.7928 H   0  0  0  0  0  0  0  0  0  0  0  0
   -1.7585   -4.4942    0.0214 C   0  0  1  0  0  0  0  0  0  0  0  0
   -0.7305   -4.6831   -0.2877 H   0  0  0  0  0  0  0  0  0  0  0  0
   -2.7266   -5.3822   -0.7660 C   0  0  0  0  0  0  0  0  0  0  0  0
   -2.3186   -6.8466   -0.5915 C   0  0  0  0  0  0  0  0  0  0  0  0
   -2.2642   -7.1658    0.8913 C   0  0  0  0  0  0  0  0  0  0  0  0
   -2.8820   -8.2703    1.3099 C   0  0  0  0  0  0  0  0  0  0  0  0
   -3.4070   -8.8958    0.6032 H   0  0  0  0  0  0  0  0  0  0  0  0
   -2.8495   -8.6362    2.7300 C   0  0  0  0  0  0  0  0  0  0  0  0
   -3.6756   -9.3796    3.2168 O   0  0  0  0  0  0  0  0  0  0  0  0
   -1.7290   -8.0371    3.5574 C   0  0  0  0  0  0  0  0  0  0  0  0
   -1.9153   -8.2141    4.6167 H   0  0  0  0  0  0  0  0  0  0  0  0
   -0.7768   -8.4825    3.2693 H   0  0  0  0  0  0  0  0  0  0  0  0
   -1.7074   -6.5351    3.2776 C   0  0  0  0  0  0  0  0  0  0  0  0
   -1.4839   -6.2270    1.8163 C   0  0  2  0  0  0  0  0  0  0  0  0
    0.0121   -6.3503    1.5204 C   0  0  0  0  0  0  0  0  0  0  0  0
    0.3461   -2.6481    0.2465 C   0  0  0  0  0  0  0  0  0  0  0  0
    1.3837    1.2542    1.0489 H   0  0  0  0  0  0  0  0  0  0  0  0
   -0.3247    1.5173    1.4738 H   0  0  0  0  0  0  0  0  0  0  0  0
    0.5316    0.0791    2.0791 H   0  0  0  0  0  0  0  0  0  0  0  0
   -2.7617   -0.5002   -1.5678 H   0  0  0  0  0  0  0  0  0  0  0  0
   -1.0717   -0.5769   -2.1430 H   0  0  0  0  0  0  0  0  0  0  0  0
   -2.8065   -2.7509   -2.2372 H   0  0  0  0  0  0  0  0  0  0  0  0
   -1.0279   -2.9297   -2.0829 H   0  0  0  0  0  0  0  0  0  0  0  0
   -0.6944   -1.7180    2.6411 H   0  0  0  0  0  0  0  0  0  0  0  0
   -2.3917   -2.1291    2.2695 H   0  0  0  0  0  0  0  0  0  0  0  0
   -0.0085   -4.0427    2.2091 H   0  0  0  0  0  0  0  0  0  0  0  0
   -1.2894   -4.0152    3.4365 H   0  0  0  0  0  0  0  0  0  0  0  0
   -3.7398   -5.2390   -0.3905 H   0  0  0  0  0  0  0  0  0  0  0  0
   -2.6874   -5.1165   -1.8224 H   0  0  0  0  0  0  0  0  0  0  0  0
   -3.0518   -7.4905   -1.0771 H   0  0  0  0  0  0  0  0  0  0  0  0
   -1.3365   -7.0077   -1.0361 H   0  0  0  0  0  0  0  0  0  0  0  0
   -2.6504   -6.0986    3.6068 H   0  0  0  0  0  0  0  0  0  0  0  0
   -0.8915   -6.0806    3.8396 H   0  0  0  0  0  0  0  0  0  0  0  0
    0.5667   -5.6628    2.1591 H   0  0  0  0  0  0  0  0  0  0  0  0
    0.3383   -7.3717    1.7166 H   0  0  0  0  0  0  0  0  0  0  0  0
    0.1972   -6.1043    0.4748 H   0  0  0  0  0  0  0  0  0  0  0  0
    1.0689   -2.0310    0.7800 H   0  0  0  0  0  0  0  0  0  0  0  0
    0.4614   -3.6883    0.5512 H   0  0  0  0  0  0  0  0  0  0  0  0
    0.5175   -2.5628   -0.8266 H   0  0  0  0  0  0  0  0  0  0  0  0
  1  2  1  0  0  0  0
  1 31  1  0  0  0  0
  1 32  1  0  0  0  0
  1 33  1  0  0  0  0
  2  3  2  0  0  0  0
  2  4  1  0  0  0  0
  4  5  1  1  0  0  0
  4 10  1  0  0  0  0
  4  6  1  0  0  0  0
  6  7  1  0  0  0  0
  6 34  1  0  0  0  0
  6 35  1  0  0  0  0
  7  8  1  0  0  0  0
  7 36  1  0  0  0  0
  7 37  1  0  0  0  0
  8  9  1  1  0  0  0
  8 15  1  0  0  0  0
  8 10  1  0  0  0  0
 10 11  1  0  0  0  0
 10 30  1  6  0  0  0
 11 12  1  0  0  0  0
 11 38  1  0  0  0  0
 11 39  1  0  0  0  0
 12 13  1  0  0  0  0
 12 40  1  0  0  0  0
 12 41  1  0  0  0  0
 13 14  1  1  0  0  0
 13 28  1  0  0  0  0
 13 15  1  0  0  0  0
 15 16  1  6  0  0  0
 15 17  1  0  0  0  0
 17 18  1  0  0  0  0
 17 42  1  0  0  0  0
 17 43  1  0  0  0  0
 18 19  1  0  0  0  0
 18 44  1  0  0  0  0
 18 45  1  0  0  0  0
 19 28  1  0  0  0  0
 19 20  2  0  0  0  0
 20 21  1  0  0  0  0
 20 22  1  0  0  0  0
 22 23  2  0  0  0  0
 22 24  1  0  0  0  0
 24 25  1  0  0  0  0
 24 26  1  0  0  0  0
 24 27  1  0  0  0  0
 27 28  1  0  0  0  0
 27 46  1  0  0  0  0
 27 47  1  0  0  0  0
 28 29  1  6  0  0  0
 29 48  1  0  0  0  0
 29 49  1  0  0  0  0
 29 50  1  0  0  0  0
 30 51  1  0  0  0  0
 30 52  1  0  0  0  0
 30 53  1  0  0  0  0
M  END
$$$$
