ZINC03079340
 OpenBabel08292219463D

 26 25  0  0  1  0  0  0  0  0999 V2000
    0.1266    1.1662    0.4240 C   0  0  0  0  0  0  0  0  0  0  0  0
    0.0837   -0.2669    0.1042 N   0  3  0  0  0  0  0  0  0  0  0  0
    0.9269   -1.0059    1.0534 C   0  0  0  0  0  0  0  0  0  0  0  0
   -1.3006   -0.7489    0.2007 C   0  0  0  0  0  0  0  0  0  0  0  0
    0.5820   -0.4790   -1.2614 C   0  0  0  0  0  0  0  0  0  0  0  0
    2.0496   -0.0538   -1.3406 C   0  0  1  0  0  0  0  0  0  0  0  0
    2.6162   -0.5561   -0.5564 H   0  0  0  0  0  0  0  0  0  0  0  0
    2.6190   -0.4388   -2.7075 C   0  0  0  0  0  0  0  0  0  0  0  0
    4.0941   -0.1321   -2.7416 C   0  0  0  0  0  0  0  0  0  0  0  0
    4.6394    0.3497   -1.7633 O   0  0  0  0  0  0  0  0  0  0  0  0
    4.7422   -0.3658   -3.7475 O   0  0  0  0  0  1  0  0  0  0  0  0
    2.1457    1.3612   -1.1658 O   0  0  0  0  0  0  0  0  0  0  0  0
    1.1637    1.4825    0.5363 H   0  0  0  0  0  0  0  0  0  0  0  0
   -0.3407    1.7325   -0.3816 H   0  0  0  0  0  0  0  0  0  0  0  0
   -0.4112    1.3470    1.3547 H   0  0  0  0  0  0  0  0  0  0  0  0
    0.5572   -0.8486    2.0666 H   0  0  0  0  0  0  0  0  0  0  0  0
    0.8950   -2.0693    0.8160 H   0  0  0  0  0  0  0  0  0  0  0  0
    1.9540   -0.6483    0.9817 H   0  0  0  0  0  0  0  0  0  0  0  0
   -1.9262   -0.2006   -0.5036 H   0  0  0  0  0  0  0  0  0  0  0  0
   -1.3324   -1.8123   -0.0366 H   0  0  0  0  0  0  0  0  0  0  0  0
   -1.6703   -0.5915    1.2140 H   0  0  0  0  0  0  0  0  0  0  0  0
    0.4949   -1.5342   -1.5201 H   0  0  0  0  0  0  0  0  0  0  0  0
   -0.0068    0.1160   -1.9595 H   0  0  0  0  0  0  0  0  0  0  0  0
    2.4654   -1.5043   -2.8781 H   0  0  0  0  0  0  0  0  0  0  0  0
    2.1114    0.1308   -3.4860 H   0  0  0  0  0  0  0  0  0  0  0  0
    1.6641    1.8731   -1.8300 H   0  0  0  0  0  0  0  0  0  0  0  0
  1  2  1  0  0  0  0
  1 13  1  0  0  0  0
  1 14  1  0  0  0  0
  1 15  1  0  0  0  0
  2  3  1  0  0  0  0
  2  4  1  0  0  0  0
  2  5  1  0  0  0  0
  3 16  1  0  0  0  0
  3 17  1  0  0  0  0
  3 18  1  0  0  0  0
  4 19  1  0  0  0  0
  4 20  1  0  0  0  0
  4 21  1  0  0  0  0
  5  6  1  0  0  0  0
  5 22  1  0  0  0  0
  5 23  1  0  0  0  0
  6  7  1  1  0  0  0
  6  8  1  0  0  0  0
  6 12  1  0  0  0  0
  8  9  1  0  0  0  0
  8 24  1  0  0  0  0
  8 25  1  0  0  0  0
  9 10  2  0  0  0  0
  9 11  1  0  0  0  0
 12 26  1  0  0  0  0
M  CHG  1   2   1
M  END
$$$$
