ZINC04102187
 OpenBabel08292219463D

 46 49  0  0  1  0  0  0  0  0999 V2000
    0.0082    1.4845    0.3153 C   0  0  0  0  0  0  0  0  0  0  0  0
    0.0143   -0.0125    0.1418 C   0  0  0  0  0  0  0  0  0  0  0  0
   -1.0725   -0.8316    0.2321 C   0  0  0  0  0  0  0  0  0  0  0  0
   -0.5925   -2.2012   -0.0072 C   0  0  0  0  0  0  0  0  0  0  0  0
    0.6973   -2.1209   -0.2171 N   0  0  0  0  0  0  0  0  0  0  0  0
    1.0838   -0.7638   -0.1324 O   0  0  0  0  0  0  0  0  0  0  0  0
   -1.4123   -3.4363   -0.0097 C   0  0  0  0  0  0  0  0  0  0  0  0
   -2.5714   -3.5070   -0.7848 C   0  0  0  0  0  0  0  0  0  0  0  0
   -3.3310   -4.6621   -0.7822 C   0  0  0  0  0  0  0  0  0  0  0  0
   -2.9446   -5.7453   -0.0141 C   0  0  0  0  0  0  0  0  0  0  0  0
   -1.7975   -5.6810    0.7557 C   0  0  0  0  0  0  0  0  0  0  0  0
   -1.0261   -4.5349    0.7578 C   0  0  0  0  0  0  0  0  0  0  0  0
    0.4173   -4.4598    1.7195 Cl  0  0  0  0  0  0  0  0  0  0  0  0
   -2.9499   -2.4492   -1.5351 F   0  0  0  0  0  0  0  0  0  0  0  0
   -2.4589   -0.4236    0.5155 C   0  0  0  0  0  0  0  0  0  0  0  0
   -3.2072   -0.1362   -0.3992 O   0  0  0  0  0  0  0  0  0  0  0  0
   -2.8984   -0.3686    1.7884 N   0  0  0  0  0  0  0  0  0  0  0  0
   -4.2775    0.0373    2.0702 C   0  0  1  0  0  0  0  0  0  0  0  0
   -4.9509   -0.1544    1.2348 H   0  0  0  0  0  0  0  0  0  0  0  0
   -4.8021   -0.4871    3.4023 C   0  0  2  0  0  0  0  0  0  0  0  0
   -5.8141   -0.8919    3.4031 H   0  0  0  0  0  0  0  0  0  0  0  0
   -4.6254    0.9092    3.8540 N   0  0  0  0  0  0  0  0  0  0  0  0
   -4.3888    1.4381    2.6194 C   0  0  0  0  0  0  0  0  0  0  0  0
   -4.3039    2.5568    2.1588 O   0  0  0  0  0  0  0  0  0  0  0  0
   -3.5823    1.1277    4.8621 C   0  0  2  0  0  0  0  0  0  0  0  0
   -2.6556    1.4060    4.3603 H   0  0  0  0  0  0  0  0  0  0  0  0
   -3.3330   -0.1453    5.7174 C   0  0  0  0  0  0  0  0  0  0  0  0
   -3.5694   -1.4336    4.3840 S   0  0  0  0  0  0  0  0  0  0  0  0
   -1.9116   -0.1735    6.2829 C   0  0  0  0  0  0  0  0  0  0  0  0
   -4.3776   -0.2920    6.8256 C   0  0  0  0  0  0  0  0  0  0  0  0
   -4.0053    2.2527    5.7712 C   0  0  0  0  0  0  0  0  0  0  0  0
   -5.1332    2.7091    5.6922 O   0  0  0  0  0  0  0  0  0  0  0  0
   -3.2197    2.7066    6.5856 O   0  0  0  0  0  1  0  0  0  0  0  0
    1.0192    1.8698    0.1826 H   0  0  0  0  0  0  0  0  0  0  0  0
   -0.6520    1.9336   -0.4268 H   0  0  0  0  0  0  0  0  0  0  0  0
   -0.3470    1.7330    1.3154 H   0  0  0  0  0  0  0  0  0  0  0  0
   -4.2281   -4.7185   -1.3808 H   0  0  0  0  0  0  0  0  0  0  0  0
   -3.5416   -6.6453   -0.0151 H   0  0  0  0  0  0  0  0  0  0  0  0
   -1.5017   -6.5305    1.3535 H   0  0  0  0  0  0  0  0  0  0  0  0
   -2.3016   -0.5978    2.5179 H   0  0  0  0  0  0  0  0  0  0  0  0
   -1.7541    0.7013    6.9137 H   0  0  0  0  0  0  0  0  0  0  0  0
   -1.7742   -1.0781    6.8754 H   0  0  0  0  0  0  0  0  0  0  0  0
   -1.1939   -0.1640    5.4626 H   0  0  0  0  0  0  0  0  0  0  0  0
   -5.3705   -0.3646    6.3817 H   0  0  0  0  0  0  0  0  0  0  0  0
   -4.1709   -1.1932    7.4028 H   0  0  0  0  0  0  0  0  0  0  0  0
   -4.3357    0.5773    7.4818 H   0  0  0  0  0  0  0  0  0  0  0  0
  1  2  1  0  0  0  0
  1 34  1  0  0  0  0
  1 35  1  0  0  0  0
  1 36  1  0  0  0  0
  2  6  1  0  0  0  0
  2  3  2  0  0  0  0
  3  4  1  0  0  0  0
  3 15  1  0  0  0  0
  4  5  2  0  0  0  0
  4  7  1  0  0  0  0
  5  6  1  0  0  0  0
  7 12  2  0  0  0  0
  7  8  1  0  0  0  0
  8  9  2  0  0  0  0
  8 14  1  0  0  0  0
  9 10  1  0  0  0  0
  9 37  1  0  0  0  0
 10 11  2  0  0  0  0
 10 38  1  0  0  0  0
 11 12  1  0  0  0  0
 11 39  1  0  0  0  0
 12 13  1  0  0  0  0
 15 16  2  0  0  0  0
 15 17  1  0  0  0  0
 17 18  1  0  0  0  0
 17 40  1  0  0  0  0
 18 19  1  6  0  0  0
 18 23  1  0  0  0  0
 18 20  1  0  0  0  0
 20 21  1  1  0  0  0
 20 28  1  0  0  0  0
 20 22  1  0  0  0  0
 22 23  1  0  0  0  0
 22 25  1  0  0  0  0
 23 24  2  0  0  0  0
 25 26  1  6  0  0  0
 25 27  1  0  0  0  0
 25 31  1  0  0  0  0
 27 28  1  0  0  0  0
 27 29  1  0  0  0  0
 27 30  1  0  0  0  0
 29 41  1  0  0  0  0
 29 42  1  0  0  0  0
 29 43  1  0  0  0  0
 30 44  1  0  0  0  0
 30 45  1  0  0  0  0
 30 46  1  0  0  0  0
 31 32  2  0  0  0  0
 31 33  1  0  0  0  0
M  END
$$$$
