ZINC03973334
 OpenBabel08292219463D

 46 49  0  0  1  0  0  0  0  0999 V2000
   -0.0187    1.5258    0.0104 C   0  0  0  0  0  0  0  0  0  0  0  0
    0.0021   -0.0041    0.0020 C   0  0  2  0  0  0  0  0  0  0  0  0
   -1.4161   -0.5359    0.0796 C   0  0  0  0  0  0  0  0  0  0  0  0
   -2.0735    0.1111    1.3078 C   0  0  0  0  0  0  0  0  0  0  0  0
   -1.2952   -0.1749    2.5894 C   0  0  1  0  0  0  0  0  0  0  0  0
   -1.3544   -1.2397    2.8150 H   0  0  0  0  0  0  0  0  0  0  0  0
    0.1807    0.2348    2.4666 C   0  0  2  0  0  0  0  0  0  0  0  0
    0.2529    1.3128    2.3223 H   0  0  0  0  0  0  0  0  0  0  0  0
    0.7516   -0.5249    1.2573 C   0  0  2  0  0  0  0  0  0  0  0  0
    0.6105   -1.5998    1.3703 H   0  0  0  0  0  0  0  0  0  0  0  0
    2.2046   -0.1882    0.8977 C   0  0  0  0  0  0  0  0  0  0  0  0
    2.2728   -0.5571   -0.6094 C   0  0  0  0  0  0  0  0  0  0  0  0
    0.8440   -0.4931   -1.1394 C   0  0  0  0  0  0  0  0  0  0  0  0
    0.4675   -0.7776   -2.2509 O   0  0  0  0  0  0  0  0  0  0  0  0
    0.9409   -0.1701    3.7352 C   0  0  0  0  0  0  0  0  0  0  0  0
    0.2808    0.4850    4.9321 C   0  0  0  0  0  0  0  0  0  0  0  0
    0.9879    1.1194    5.8704 C   0  0  0  0  0  0  0  0  0  0  0  0
   -1.1899    0.3797    4.9991 C   0  0  0  0  0  0  0  0  0  0  0  0
   -1.7902    0.0847    6.1666 C   0  0  0  0  0  0  0  0  0  0  0  0
   -3.2428   -0.0865    6.2205 C   0  0  0  0  0  0  0  0  0  0  0  0
   -3.8065   -0.2932    7.2804 O   0  0  0  0  0  0  0  0  0  0  0  0
   -4.0082   -0.0037    4.9642 C   0  0  0  0  0  0  0  0  0  0  0  0
   -3.4010    0.3123    3.8319 C   0  0  0  0  0  0  0  0  0  0  0  0
   -1.9257    0.6191    3.7375 C   0  0  2  0  0  0  0  0  0  0  0  0
   -1.7835    2.1062    3.4072 C   0  0  0  0  0  0  0  0  0  0  0  0
    1.0039    1.9031    0.0027 H   0  0  0  0  0  0  0  0  0  0  0  0
   -0.5459    1.8868   -0.8726 H   0  0  0  0  0  0  0  0  0  0  0  0
   -0.5289    1.8773    0.9072 H   0  0  0  0  0  0  0  0  0  0  0  0
   -1.9649   -0.2639   -0.8221 H   0  0  0  0  0  0  0  0  0  0  0  0
   -1.4009   -1.6197    0.1939 H   0  0  0  0  0  0  0  0  0  0  0  0
   -2.1234    1.1893    1.1565 H   0  0  0  0  0  0  0  0  0  0  0  0
   -3.0863   -0.2778    1.4139 H   0  0  0  0  0  0  0  0  0  0  0  0
    2.4040    0.8731    1.0458 H   0  0  0  0  0  0  0  0  0  0  0  0
    2.8979   -0.7979    1.4771 H   0  0  0  0  0  0  0  0  0  0  0  0
    2.9004    0.1582   -1.1408 H   0  0  0  0  0  0  0  0  0  0  0  0
    2.6706   -1.5648   -0.7294 H   0  0  0  0  0  0  0  0  0  0  0  0
    0.9103   -1.2537    3.8490 H   0  0  0  0  0  0  0  0  0  0  0  0
    1.9765    0.1621    3.6620 H   0  0  0  0  0  0  0  0  0  0  0  0
    2.0633    1.1769    5.7895 H   0  0  0  0  0  0  0  0  0  0  0  0
    0.4843    1.5751    6.7101 H   0  0  0  0  0  0  0  0  0  0  0  0
   -1.2000   -0.0254    7.0644 H   0  0  0  0  0  0  0  0  0  0  0  0
   -5.0698   -0.2022    4.9675 H   0  0  0  0  0  0  0  0  0  0  0  0
   -3.9952    0.3507    2.9309 H   0  0  0  0  0  0  0  0  0  0  0  0
   -2.2976    2.3211    2.4703 H   0  0  0  0  0  0  0  0  0  0  0  0
   -2.2242    2.7000    4.2080 H   0  0  0  0  0  0  0  0  0  0  0  0
   -0.7274    2.3570    3.3078 H   0  0  0  0  0  0  0  0  0  0  0  0
  1 26  1  0  0  0  0
  1 27  1  0  0  0  0
  1 28  1  0  0  0  0
  2  1  1  1  0  0  0
  2  9  1  0  0  0  0
  2 13  1  0  0  0  0
  2  3  1  0  0  0  0
  3  4  1  0  0  0  0
  3 29  1  0  0  0  0
  3 30  1  0  0  0  0
  4  5  1  0  0  0  0
  4 31  1  0  0  0  0
  4 32  1  0  0  0  0
  5  6  1  1  0  0  0
  5 24  1  0  0  0  0
  5  7  1  0  0  0  0
  7  8  1  6  0  0  0
  7  9  1  0  0  0  0
  7 15  1  0  0  0  0
  9 10  1  1  0  0  0
  9 11  1  0  0  0  0
 11 12  1  0  0  0  0
 11 33  1  0  0  0  0
 11 34  1  0  0  0  0
 12 13  1  0  0  0  0
 12 35  1  0  0  0  0
 12 36  1  0  0  0  0
 13 14  2  0  0  0  0
 15 16  1  0  0  0  0
 15 37  1  0  0  0  0
 15 38  1  0  0  0  0
 16 17  2  0  0  0  0
 16 18  1  0  0  0  0
 17 39  1  0  0  0  0
 17 40  1  0  0  0  0
 18 24  1  0  0  0  0
 18 19  2  0  0  0  0
 19 20  1  0  0  0  0
 19 41  1  0  0  0  0
 20 21  2  0  0  0  0
 20 22  1  0  0  0  0
 22 23  2  0  0  0  0
 22 42  1  0  0  0  0
 23 24  1  0  0  0  0
 23 43  1  0  0  0  0
 24 25  1  6  0  0  0
 25 44  1  0  0  0  0
 25 45  1  0  0  0  0
 25 46  1  0  0  0  0
M  END
$$$$
