ZINC00000061
 OpenBabel08292219463D

 26 26  0  0  1  0  0  0  0  0999 V2000
   -0.0167    1.3782    0.0096 C   0  0  0  0  0  0  0  0  0  0  0  0
    1.1706    2.0858    0.0021 C   0  0  0  0  0  0  0  0  0  0  0  0
    2.3780    1.4104   -0.0130 C   0  0  0  0  0  0  0  0  0  0  0  0
    2.3961    0.0270   -0.0206 C   0  0  0  0  0  0  0  0  0  0  0  0
    1.2082   -0.6795   -0.0130 C   0  0  0  0  0  0  0  0  0  0  0  0
    0.0021   -0.0041    0.0020 C   0  0  0  0  0  0  0  0  0  0  0  0
   -1.2928   -0.7750    0.0107 C   0  0  1  0  0  0  0  0  0  0  0  0
   -2.1306   -0.0778    0.0227 H   0  0  0  0  0  0  0  0  0  0  0  0
   -1.3745   -1.6489   -1.2425 C   0  0  0  0  0  0  0  0  0  0  0  0
   -2.7200   -2.3254   -1.2963 C   0  0  0  0  0  0  0  0  0  0  0  0
   -3.5378   -2.1270   -0.4141 O   0  0  0  0  0  0  0  0  0  0  0  0
   -2.9907   -3.0712   -2.2221 O   0  0  0  0  0  1  0  0  0  0  0  0
   -1.3498   -1.6623    1.2558 C   0  0  0  0  0  0  0  0  0  0  0  0
   -1.3920   -0.8180    2.4572 N   0  3  0  0  0  0  0  0  0  0  0  0
    3.8696    2.2984   -0.0231 Cl  0  0  0  0  0  0  0  0  0  0  0  0
   -0.9592    1.9053    0.0259 H   0  0  0  0  0  0  0  0  0  0  0  0
    1.1558    3.1656    0.0076 H   0  0  0  0  0  0  0  0  0  0  0  0
    3.3383   -0.5007   -0.0327 H   0  0  0  0  0  0  0  0  0  0  0  0
    1.2222   -1.7594   -0.0193 H   0  0  0  0  0  0  0  0  0  0  0  0
   -1.2448   -1.0269   -2.1282 H   0  0  0  0  0  0  0  0  0  0  0  0
   -0.5891   -2.4040   -1.2107 H   0  0  0  0  0  0  0  0  0  0  0  0
   -2.2436   -2.2849    1.2177 H   0  0  0  0  0  0  0  0  0  0  0  0
   -0.4651   -2.2982    1.2896 H   0  0  0  0  0  0  0  0  0  0  0  0
   -0.5646   -0.2416    2.4925 H   0  0  0  0  0  0  0  0  0  0  0  0
   -2.2109   -0.2293    2.4260 H   0  0  0  0  0  0  0  0  0  0  0  0
   -1.4296   -1.4032    3.2784 H   0  0  0  0  0  0  0  0  0  0  0  0
  1  6  2  0  0  0  0
  1  2  1  0  0  0  0
  1 16  1  0  0  0  0
  2  3  2  0  0  0  0
  2 17  1  0  0  0  0
  3  4  1  0  0  0  0
  3 15  1  0  0  0  0
  4  5  2  0  0  0  0
  4 18  1  0  0  0  0
  5  6  1  0  0  0  0
  5 19  1  0  0  0  0
  6  7  1  0  0  0  0
  7  8  1  1  0  0  0
  7  9  1  0  0  0  0
  7 13  1  0  0  0  0
  9 10  1  0  0  0  0
  9 20  1  0  0  0  0
  9 21  1  0  0  0  0
 10 11  2  0  0  0  0
 10 12  1  0  0  0  0
 13 14  1  0  0  0  0
 13 22  1  0  0  0  0
 13 23  1  0  0  0  0
 14 24  1  0  0  0  0
 14 25  1  0  0  0  0
 14 26  1  0  0  0  0
M  CHG  1  14   1
M  END
$$$$
