ZINC00044027
 OpenBabel08292219463D

 41 43  0  0  0  0  0  0  0  0999 V2000
   -4.8538   -4.0638    0.9108 C   0  0  0  0  0  0  0  0  0  0  0  0
   -4.6244   -2.8061    1.6344 N   0  3  0  0  0  0  0  0  0  0  0  0
   -4.0000   -3.0949    2.9324 C   0  0  0  0  0  0  0  0  0  0  0  0
   -3.7364   -1.9420    0.8453 C   0  0  0  0  0  0  0  0  0  0  0  0
   -4.4383   -1.5396   -0.4533 C   0  0  0  0  0  0  0  0  0  0  0  0
   -3.5134   -0.6397   -1.2752 C   0  0  0  0  0  0  0  0  0  0  0  0
   -4.1855   -0.2544   -2.5186 N   0  0  0  0  0  0  0  0  0  0  0  0
   -4.9466    0.9115   -2.5039 C   0  0  0  0  0  0  0  0  0  0  0  0
   -5.4466    1.3707   -1.2896 C   0  0  0  0  0  0  0  0  0  0  0  0
   -6.2007    2.5274   -1.2376 C   0  0  0  0  0  0  0  0  0  0  0  0
   -6.4648    3.2382   -2.3930 C   0  0  0  0  0  0  0  0  0  0  0  0
   -5.9746    2.7903   -3.6059 C   0  0  0  0  0  0  0  0  0  0  0  0
   -5.2180    1.6285   -3.6658 C   0  0  0  0  0  0  0  0  0  0  0  0
   -4.6102    1.0681   -5.2211 S   0  0  0  0  0  0  0  0  0  0  0  0
   -4.1728   -0.6126   -4.9268 C   0  0  0  0  0  0  0  0  0  0  0  0
   -4.0101   -1.0788   -3.6268 C   0  0  0  0  0  0  0  0  0  0  0  0
   -3.6645   -2.4105   -3.4235 C   0  0  0  0  0  0  0  0  0  0  0  0
   -3.4778   -3.2563   -4.5018 C   0  0  0  0  0  0  0  0  0  0  0  0
   -3.6338   -2.7836   -5.7916 C   0  0  0  0  0  0  0  0  0  0  0  0
   -3.9865   -1.4684   -6.0025 C   0  0  0  0  0  0  0  0  0  0  0  0
   -3.0468   -4.9167   -4.2348 Cl  0  0  0  0  0  0  0  0  0  0  0  0
   -5.5127   -4.7049    1.4964 H   0  0  0  0  0  0  0  0  0  0  0  0
   -5.3171   -3.8495   -0.0523 H   0  0  0  0  0  0  0  0  0  0  0  0
   -3.9018   -4.5701    0.7514 H   0  0  0  0  0  0  0  0  0  0  0  0
   -3.0479   -3.6012    2.7730 H   0  0  0  0  0  0  0  0  0  0  0  0
   -3.8297   -2.1617    3.4693 H   0  0  0  0  0  0  0  0  0  0  0  0
   -4.6589   -3.7360    3.5180 H   0  0  0  0  0  0  0  0  0  0  0  0
   -3.4947   -1.0479    1.4199 H   0  0  0  0  0  0  0  0  0  0  0  0
   -2.8190   -2.4818    0.6102 H   0  0  0  0  0  0  0  0  0  0  0  0
   -4.6799   -2.4338   -1.0279 H   0  0  0  0  0  0  0  0  0  0  0  0
   -5.3556   -0.9999   -0.2183 H   0  0  0  0  0  0  0  0  0  0  0  0
   -3.2718    0.2545   -0.7007 H   0  0  0  0  0  0  0  0  0  0  0  0
   -2.5960   -1.1794   -1.5103 H   0  0  0  0  0  0  0  0  0  0  0  0
   -5.2447    0.8199   -0.3828 H   0  0  0  0  0  0  0  0  0  0  0  0
   -6.5853    2.8770   -0.2909 H   0  0  0  0  0  0  0  0  0  0  0  0
   -7.0538    4.1423   -2.3487 H   0  0  0  0  0  0  0  0  0  0  0  0
   -6.1810    3.3459   -4.5088 H   0  0  0  0  0  0  0  0  0  0  0  0
   -3.5416   -2.7862   -2.4184 H   0  0  0  0  0  0  0  0  0  0  0  0
   -3.4863   -3.4459   -6.6318 H   0  0  0  0  0  0  0  0  0  0  0  0
   -4.1082   -1.1006   -7.0106 H   0  0  0  0  0  0  0  0  0  0  0  0
   -5.5056   -2.3374    1.7820 H   0  0  0  0  0  0  0  0  0  0  0  0
  1  2  1  0  0  0  0
  1 22  1  0  0  0  0
  1 23  1  0  0  0  0
  1 24  1  0  0  0  0
  2  3  1  0  0  0  0
  2  4  1  0  0  0  0
  2 41  1  0  0  0  0
  3 25  1  0  0  0  0
  3 26  1  0  0  0  0
  3 27  1  0  0  0  0
  4  5  1  0  0  0  0
  4 28  1  0  0  0  0
  4 29  1  0  0  0  0
  5  6  1  0  0  0  0
  5 30  1  0  0  0  0
  5 31  1  0  0  0  0
  6  7  1  0  0  0  0
  6 32  1  0  0  0  0
  6 33  1  0  0  0  0
  7 16  1  0  0  0  0
  7  8  1  0  0  0  0
  8 13  2  0  0  0  0
  8  9  1  0  0  0  0
  9 10  2  0  0  0  0
  9 34  1  0  0  0  0
 10 11  1  0  0  0  0
 10 35  1  0  0  0  0
 11 12  2  0  0  0  0
 11 36  1  0  0  0  0
 12 13  1  0  0  0  0
 12 37  1  0  0  0  0
 13 14  1  0  0  0  0
 14 15  1  0  0  0  0
 15 20  2  0  0  0  0
 15 16  1  0  0  0  0
 16 17  2  0  0  0  0
 17 18  1  0  0  0  0
 17 38  1  0  0  0  0
 18 19  2  0  0  0  0
 18 21  1  0  0  0  0
 19 20  1  0  0  0  0
 19 39  1  0  0  0  0
 20 40  1  0  0  0  0
M  CHG  1   2   1
M  END
$$$$
