ZINC00538362
 OpenBabel08292219463D

 50 53  0  0  1  0  0  0  0  0999 V2000
    0.2561    0.9296    0.5182 C   0  0  0  0  0  0  0  0  0  0  0  0
    0.2580   -0.5961    0.4028 C   0  0  2  0  0  0  0  0  0  0  0  0
    0.7440   -0.8896   -0.5277 H   0  0  0  0  0  0  0  0  0  0  0  0
   -1.1852   -1.1108    0.4099 C   0  0  0  0  0  0  0  0  0  0  0  0
   -1.1557   -2.5814    0.4300 N   0  0  0  0  0  0  0  0  0  0  0  0
   -0.3151   -3.2442    1.4391 C   0  0  0  0  0  0  0  0  0  0  0  0
    1.0870   -2.6288    1.3834 C   0  0  1  0  0  0  0  0  0  0  0  0
    1.5479   -2.8610    0.4234 H   0  0  0  0  0  0  0  0  0  0  0  0
    0.9879   -1.1721    1.5393 N   0  3  0  0  0  0  0  0  0  0  0  0
    1.9426   -3.2058    2.5130 C   0  0  0  0  0  0  0  0  0  0  0  0
   -1.9039   -3.3263   -0.4815 C   0  0  0  0  0  0  0  0  0  0  0  0
   -3.2081   -3.6979   -0.1627 C   0  0  0  0  0  0  0  0  0  0  0  0
   -3.9590   -4.4374   -1.0608 C   0  0  0  0  0  0  0  0  0  0  0  0
   -3.3967   -4.8086   -2.2921 C   0  0  0  0  0  0  0  0  0  0  0  0
   -2.0783   -4.4319   -2.6123 C   0  0  0  0  0  0  0  0  0  0  0  0
   -1.3434   -3.6854   -1.7002 C   0  0  0  0  0  0  0  0  0  0  0  0
   -0.0793   -3.3123   -1.9972 F   0  0  0  0  0  0  0  0  0  0  0  0
   -1.5249   -4.7977   -3.8238 N   0  0  0  0  0  0  0  0  0  0  0  0
   -2.1917   -5.5117   -4.7384 C   0  0  0  0  0  0  0  0  0  0  0  0
   -3.4903   -5.9368   -4.5354 C   0  0  0  0  0  0  0  0  0  0  0  0
   -4.1629   -5.5933   -3.2695 C   0  0  0  0  0  0  0  0  0  0  0  0
   -5.3077   -5.9459   -3.0430 O   0  0  0  0  0  0  0  0  0  0  0  0
   -4.1877   -6.7175   -5.5616 C   0  0  0  0  0  0  0  0  0  0  0  0
   -3.6193   -6.9978   -6.6089 O   0  0  0  0  0  0  0  0  0  0  0  0
   -5.3385   -7.0891   -5.3712 O   0  0  0  0  0  1  0  0  0  0  0  0
   -0.1505   -4.3862   -4.1202 C   0  0  0  0  0  0  0  0  0  0  0  0
    0.4255   -4.7765   -5.4829 C   0  0  0  0  0  0  0  0  0  0  0  0
    0.9106   -5.4843   -4.2162 C   0  0  0  0  0  0  0  0  0  0  0  0
   -5.2635   -4.8107   -0.7444 N   0  0  0  0  0  0  0  0  0  0  0  0
   -3.7411   -3.3366    1.0250 F   0  0  0  0  0  0  0  0  0  0  0  0
    1.2828    1.2956    0.5134 H   0  0  0  0  0  0  0  0  0  0  0  0
   -0.2859    1.3570   -0.3254 H   0  0  0  0  0  0  0  0  0  0  0  0
   -0.2299    1.2230    1.4486 H   0  0  0  0  0  0  0  0  0  0  0  0
   -1.7010   -0.7426    1.2968 H   0  0  0  0  0  0  0  0  0  0  0  0
   -1.7011   -0.7670   -0.4866 H   0  0  0  0  0  0  0  0  0  0  0  0
   -0.7431   -3.0915    2.4299 H   0  0  0  0  0  0  0  0  0  0  0  0
   -0.2558   -4.3109    1.2230 H   0  0  0  0  0  0  0  0  0  0  0  0
    1.9147   -0.7753    1.5781 H   0  0  0  0  0  0  0  0  0  0  0  0
    2.0157   -4.2872    2.3974 H   0  0  0  0  0  0  0  0  0  0  0  0
    2.9400   -2.7680    2.4732 H   0  0  0  0  0  0  0  0  0  0  0  0
    1.4818   -2.9733    3.4730 H   0  0  0  0  0  0  0  0  0  0  0  0
   -1.6985   -5.7636   -5.6657 H   0  0  0  0  0  0  0  0  0  0  0  0
    0.1541   -3.4274   -3.7007 H   0  0  0  0  0  0  0  0  0  0  0  0
   -0.2182   -5.3394   -6.1588 H   0  0  0  0  0  0  0  0  0  0  0  0
    1.1091   -4.0743   -5.9602 H   0  0  0  0  0  0  0  0  0  0  0  0
    1.9133   -5.2478   -3.8601 H   0  0  0  0  0  0  0  0  0  0  0  0
    0.5860   -6.5129   -4.0588 H   0  0  0  0  0  0  0  0  0  0  0  0
   -5.7358   -4.3615   -0.0260 H   0  0  0  0  0  0  0  0  0  0  0  0
   -5.6994   -5.5199   -1.2424 H   0  0  0  0  0  0  0  0  0  0  0  0
    0.4974   -0.9594    2.3950 H   0  0  0  0  0  0  0  0  0  0  0  0
  1  2  1  0  0  0  0
  1 31  1  0  0  0  0
  1 32  1  0  0  0  0
  1 33  1  0  0  0  0
  2  3  1  6  0  0  0
  2  9  1  0  0  0  0
  2  4  1  0  0  0  0
  4  5  1  0  0  0  0
  4 34  1  0  0  0  0
  4 35  1  0  0  0  0
  5  6  1  0  0  0  0
  5 11  1  0  0  0  0
  6  7  1  0  0  0  0
  6 36  1  0  0  0  0
  6 37  1  0  0  0  0
  7  8  1  6  0  0  0
  7  9  1  0  0  0  0
  7 10  1  0  0  0  0
  9 38  1  0  0  0  0
  9 50  1  0  0  0  0
 10 39  1  0  0  0  0
 10 40  1  0  0  0  0
 10 41  1  0  0  0  0
 11 16  2  0  0  0  0
 11 12  1  0  0  0  0
 12 13  2  0  0  0  0
 12 30  1  0  0  0  0
 13 14  1  0  0  0  0
 13 29  1  0  0  0  0
 14 21  1  0  0  0  0
 14 15  2  0  0  0  0
 15 16  1  0  0  0  0
 15 18  1  0  0  0  0
 16 17  1  0  0  0  0
 18 19  1  0  0  0  0
 18 26  1  0  0  0  0
 19 20  2  0  0  0  0
 19 42  1  0  0  0  0
 20 21  1  0  0  0  0
 20 23  1  0  0  0  0
 21 22  2  0  0  0  0
 23 24  2  0  0  0  0
 23 25  1  0  0  0  0
 26 28  1  0  0  0  0
 26 27  1  0  0  0  0
 26 43  1  0  0  0  0
 27 28  1  0  0  0  0
 27 44  1  0  0  0  0
 27 45  1  0  0  0  0
 28 46  1  0  0  0  0
 28 47  1  0  0  0  0
 29 48  1  0  0  0  0
 29 49  1  0  0  0  0
M  CHG  1   9   1
M  END
$$$$
