ZINC02519740
 OpenBabel08292219463D

 38 38  0  0  0  0  0  0  0  0999 V2000
   -0.0127    1.0858    0.0080 C   0  0  0  0  0  0  0  0  0  0  0  0
   -0.7288    1.5792    1.2668 C   0  0  0  0  0  0  0  0  0  0  0  0
   -0.7496    3.1091    1.2752 C   0  0  0  0  0  0  0  0  0  0  0  0
    0.0000    1.0800    2.4877 C   0  0  0  0  0  0  0  0  0  0  0  0
    1.3217    1.4256    2.6933 C   0  0  0  0  0  0  0  0  0  0  0  0
    1.9894    0.9722    3.8160 C   0  0  0  0  0  0  0  0  0  0  0  0
    1.3397    0.1636    4.7301 C   0  0  0  0  0  0  0  0  0  0  0  0
    0.0197   -0.1895    4.5262 C   0  0  0  0  0  0  0  0  0  0  0  0
   -0.6540    0.2684    3.4032 C   0  0  0  0  0  0  0  0  0  0  0  0
   -1.9526   -0.0772    3.2006 O   0  0  0  0  0  0  0  0  0  0  0  0
   -2.1974   -1.2732    2.4578 C   0  0  0  0  0  0  0  0  0  0  0  0
   -1.9247   -2.4092    3.2807 O   0  0  0  0  0  0  0  0  0  0  0  0
   -2.0938   -3.9254    2.7664 P   0  0  0  0  0  0  0  0  0  0  0  0
   -3.4675   -4.1215    2.2519 O   0  0  0  0  0  0  0  0  0  0  0  0
   -0.6875   -1.0717    5.5225 C   0  0  0  0  0  0  0  0  0  0  0  0
    0.0422   -2.4126    5.6246 C   0  0  0  0  0  0  0  0  0  0  0  0
   -0.6955   -0.3898    6.8921 C   0  0  0  0  0  0  0  0  0  0  0  0
    0.0021   -0.0041    0.0020 H   0  0  0  0  0  0  0  0  0  0  0  0
    1.0099    1.4631    0.0003 H   0  0  0  0  0  0  0  0  0  0  0  0
   -0.5399    1.4469   -0.8751 H   0  0  0  0  0  0  0  0  0  0  0  0
   -1.7514    1.2020    1.2746 H   0  0  0  0  0  0  0  0  0  0  0  0
   -1.2768    3.4701    0.3922 H   0  0  0  0  0  0  0  0  0  0  0  0
   -1.2598    3.4606    2.1720 H   0  0  0  0  0  0  0  0  0  0  0  0
    0.2730    3.4864    1.2675 H   0  0  0  0  0  0  0  0  0  0  0  0
    1.8326    2.0537    1.9786 H   0  0  0  0  0  0  0  0  0  0  0  0
    3.0215    1.2465    3.9768 H   0  0  0  0  0  0  0  0  0  0  0  0
    1.8646   -0.1927    5.6042 H   0  0  0  0  0  0  0  0  0  0  0  0
   -3.2398   -1.2966    2.1400 H   0  0  0  0  0  0  0  0  0  0  0  0
   -1.5497   -1.2955    1.5814 H   0  0  0  0  0  0  0  0  0  0  0  0
   -1.7132   -1.2403    5.1946 H   0  0  0  0  0  0  0  0  0  0  0  0
    1.0680   -2.2439    5.9525 H   0  0  0  0  0  0  0  0  0  0  0  0
   -0.4693   -3.0507    6.3452 H   0  0  0  0  0  0  0  0  0  0  0  0
    0.0479   -2.8984    4.6489 H   0  0  0  0  0  0  0  0  0  0  0  0
   -1.2154    0.5655    6.8193 H   0  0  0  0  0  0  0  0  0  0  0  0
   -1.2071   -1.0279    7.6127 H   0  0  0  0  0  0  0  0  0  0  0  0
    0.3302   -0.2211    7.2200 H   0  0  0  0  0  0  0  0  0  0  0  0
   -1.0336   -4.2143    1.5896 O   0  0  0  0  0  1  0  0  0  0  0  0
   -1.8285   -4.9394    3.9885 O   0  0  0  0  0  1  0  0  0  0  0  0
  1  2  1  0  0  0  0
  1 18  1  0  0  0  0
  1 19  1  0  0  0  0
  1 20  1  0  0  0  0
  2  3  1  0  0  0  0
  2  4  1  0  0  0  0
  2 21  1  0  0  0  0
  3 22  1  0  0  0  0
  3 23  1  0  0  0  0
  3 24  1  0  0  0  0
  4  9  2  0  0  0  0
  4  5  1  0  0  0  0
  5  6  2  0  0  0  0
  5 25  1  0  0  0  0
  6  7  1  0  0  0  0
  6 26  1  0  0  0  0
  7  8  2  0  0  0  0
  7 27  1  0  0  0  0
  8  9  1  0  0  0  0
  8 15  1  0  0  0  0
  9 10  1  0  0  0  0
 10 11  1  0  0  0  0
 11 12  1  0  0  0  0
 11 28  1  0  0  0  0
 11 29  1  0  0  0  0
 12 13  1  0  0  0  0
 13 14  2  0  0  0  0
 13 37  1  0  0  0  0
 13 38  1  0  0  0  0
 15 16  1  0  0  0  0
 15 17  1  0  0  0  0
 15 30  1  0  0  0  0
 16 31  1  0  0  0  0
 16 32  1  0  0  0  0
 16 33  1  0  0  0  0
 17 34  1  0  0  0  0
 17 35  1  0  0  0  0
 17 36  1  0  0  0  0
M  END
$$$$
