ZINC03860453
 OpenBabel08292219463D

 37 41  0  0  0  0  0  0  0  0999 V2000
   -0.0167    1.3826    0.0096 C   0  0  0  0  0  0  0  0  0  0  0  0
    1.1460    2.1277    0.0025 C   0  0  0  0  0  0  0  0  0  0  0  0
    2.4025    1.5286   -0.0131 C   0  0  0  0  0  0  0  0  0  0  0  0
    2.4376    0.1526   -0.0208 C   0  0  0  0  0  0  0  0  0  0  0  0
    1.2579   -0.6161   -0.0133 C   0  0  0  0  0  0  0  0  0  0  0  0
    0.0021   -0.0041    0.0020 C   0  0  0  0  0  0  0  0  0  0  0  0
    1.6446   -2.0263   -0.0248 C   0  0  0  0  0  0  0  0  0  0  0  0
    0.8706   -2.9624   -0.0223 O   0  0  0  0  0  0  0  0  0  0  0  0
    2.9879   -2.1321   -0.0390 O   0  0  0  0  0  0  0  0  0  0  0  0
    3.5729   -0.8214   -0.0372 C   0  0  0  0  0  0  0  0  0  0  0  0
    4.4243   -0.6580    1.1936 C   0  0  0  0  0  0  0  0  0  0  0  0
    3.9553   -1.1288    2.4078 C   0  0  0  0  0  0  0  0  0  0  0  0
    4.7192   -0.9924    3.5499 C   0  0  0  0  0  0  0  0  0  0  0  0
    5.9631   -0.3808    3.4829 C   0  0  0  0  0  0  0  0  0  0  0  0
    6.4348    0.0926    2.2696 C   0  0  0  0  0  0  0  0  0  0  0  0
    5.6648   -0.0451    1.1212 C   0  0  0  0  0  0  0  0  0  0  0  0
    6.1434    0.4267   -0.0548 O   0  0  0  0  0  0  0  0  0  0  0  0
    5.6418   -0.0306   -1.2268 C   0  0  0  0  0  0  0  0  0  0  0  0
    4.4004   -0.6436   -1.2823 C   0  0  0  0  0  0  0  0  0  0  0  0
    3.9082   -1.1008   -2.4925 C   0  0  0  0  0  0  0  0  0  0  0  0
    4.6503   -0.9517   -3.6473 C   0  0  0  0  0  0  0  0  0  0  0  0
    5.8953   -0.3408   -3.5972 C   0  0  0  0  0  0  0  0  0  0  0  0
    6.3899    0.1193   -2.3880 C   0  0  0  0  0  0  0  0  0  0  0  0
    6.6277   -0.1940   -4.7324 O   0  0  0  0  0  0  0  0  0  0  0  0
    6.7172   -0.2470    4.6055 O   0  0  0  0  0  0  0  0  0  0  0  0
   -0.9677    1.8943    0.0261 H   0  0  0  0  0  0  0  0  0  0  0  0
    1.0786    3.2055    0.0089 H   0  0  0  0  0  0  0  0  0  0  0  0
    3.3084    2.1166   -0.0192 H   0  0  0  0  0  0  0  0  0  0  0  0
   -0.9098   -0.5827    0.0080 H   0  0  0  0  0  0  0  0  0  0  0  0
    2.9873   -1.6046    2.4622 H   0  0  0  0  0  0  0  0  0  0  0  0
    4.3487   -1.3612    4.4950 H   0  0  0  0  0  0  0  0  0  0  0  0
    7.4024    0.5693    2.2162 H   0  0  0  0  0  0  0  0  0  0  0  0
    2.9396   -1.5766   -2.5336 H   0  0  0  0  0  0  0  0  0  0  0  0
    4.2621   -1.3107   -4.5891 H   0  0  0  0  0  0  0  0  0  0  0  0
    7.3586    0.5951   -2.3478 H   0  0  0  0  0  0  0  0  0  0  0  0
    6.4603    0.6332   -5.2043 H   0  0  0  0  0  0  0  0  0  0  0  0
    7.3119   -0.9914    4.7708 H   0  0  0  0  0  0  0  0  0  0  0  0
  1  6  2  0  0  0  0
  1  2  1  0  0  0  0
  1 26  1  0  0  0  0
  2  3  2  0  0  0  0
  2 27  1  0  0  0  0
  3  4  1  0  0  0  0
  3 28  1  0  0  0  0
  4 10  1  0  0  0  0
  4  5  2  0  0  0  0
  5  6  1  0  0  0  0
  5  7  1  0  0  0  0
  6 29  1  0  0  0  0
  7  8  2  0  0  0  0
  7  9  1  0  0  0  0
  9 10  1  0  0  0  0
 10 19  1  0  0  0  0
 10 11  1  0  0  0  0
 11 16  2  0  0  0  0
 11 12  1  0  0  0  0
 12 13  2  0  0  0  0
 12 30  1  0  0  0  0
 13 14  1  0  0  0  0
 13 31  1  0  0  0  0
 14 15  2  0  0  0  0
 14 25  1  0  0  0  0
 15 16  1  0  0  0  0
 15 32  1  0  0  0  0
 16 17  1  0  0  0  0
 17 18  1  0  0  0  0
 18 23  2  0  0  0  0
 18 19  1  0  0  0  0
 19 20  2  0  0  0  0
 20 21  1  0  0  0  0
 20 33  1  0  0  0  0
 21 22  2  0  0  0  0
 21 34  1  0  0  0  0
 22 23  1  0  0  0  0
 22 24  1  0  0  0  0
 23 35  1  0  0  0  0
 24 36  1  0  0  0  0
 25 37  1  0  0  0  0
M  END
$$$$
