ZINC14879969
 OpenBabel08292219463D

 59 62  0  0  1  0  0  0  0  0999 V2000
    0.8262    2.1137    0.8346 C   0  0  0  0  0  0  0  0  0  0  0  0
    0.5154    0.6221    0.6952 C   0  0  1  0  0  0  0  0  0  0  0  0
    1.0755    0.1152   -0.6077 C   0  0  0  0  0  0  0  0  0  0  0  0
    1.2859    0.9867   -1.6565 C   0  0  0  0  0  0  0  0  0  0  0  0
    1.7900    0.5205   -2.8606 C   0  0  0  0  0  0  0  0  0  0  0  0
    2.0852   -0.8187   -3.0247 C   0  0  0  0  0  0  0  0  0  0  0  0
    1.8831   -1.7074   -1.9792 C   0  0  0  0  0  0  0  0  0  0  0  0
    1.3806   -1.2381   -0.7594 C   0  0  0  0  0  0  0  0  0  0  0  0
    1.1897   -2.1632    0.3756 C   0  0  0  0  0  0  0  0  0  0  0  0
    1.2215   -3.3686    0.2050 O   0  0  0  0  0  0  0  0  0  0  0  0
    0.9679   -1.6194    1.6758 C   0  0  0  0  0  0  0  0  0  0  0  0
    0.6128   -2.4461    2.6634 C   0  0  0  0  0  0  0  0  0  0  0  0
    0.3668   -2.0077    4.0819 C   0  0  1  0  0  0  0  0  0  0  0  0
    0.9651   -0.6155    4.2873 C   0  0  1  0  0  0  0  0  0  0  0  0
    2.0492   -0.6980    4.2094 H   0  0  0  0  0  0  0  0  0  0  0  0
    0.4788    0.3095    3.1750 C   0  0  0  0  0  0  0  0  0  0  0  0
    1.1371   -0.1360    1.8661 C   0  0  2  0  0  0  0  0  0  0  0  0
    2.2008    0.0969    1.9155 H   0  0  0  0  0  0  0  0  0  0  0  0
    0.6312   -0.0586    5.6573 C   0  0  1  0  0  0  0  0  0  0  0  0
    0.9274    0.9898    5.6946 H   0  0  0  0  0  0  0  0  0  0  0  0
   -0.8311   -0.1623    5.9711 C   0  0  0  0  0  0  0  0  0  0  0  0
   -1.6594   -1.0436    5.3221 C   0  0  0  0  0  0  0  0  0  0  0  0
   -1.1341   -1.9074    4.2789 C   0  0  0  0  0  0  0  0  0  0  0  0
   -1.8945   -2.5251    3.5623 O   0  0  0  0  0  0  0  0  0  0  0  0
   -3.0808   -1.1228    5.6948 C   0  0  0  0  0  0  0  0  0  0  0  0
   -3.5498   -0.3190    6.4781 O   0  0  0  0  0  0  0  0  0  0  0  0
   -3.8629   -2.0859    5.1683 N   0  0  0  0  0  0  0  0  0  0  0  0
   -5.2994   -2.1012    5.4552 C   0  0  0  0  0  0  0  0  0  0  0  0
   -6.0019   -1.4326    4.4057 O   0  0  0  0  0  0  0  0  0  0  0  0
   -1.3478    0.6333    6.9192 O   0  5  0  0  0  0  0  0  0  0  0  0
    1.3885   -0.8035    6.6720 N   0  0  0  0  0  0  0  0  0  0  0  0
    2.8334   -0.7110    6.4237 C   0  0  0  0  0  0  0  0  0  0  0  0
    1.0558   -0.3373    8.0247 C   0  0  0  0  0  0  0  0  0  0  0  0
    0.9305   -2.9461    5.0004 O   0  0  0  0  0  0  0  0  0  0  0  0
    0.4664   -3.7539    2.3714 O   0  0  0  0  0  0  0  0  0  0  0  0
    2.1707   -3.0241   -2.1375 O   0  0  0  0  0  0  0  0  0  0  0  0
    0.9177    2.6727   -1.4676 Cl  0  0  0  0  0  0  0  0  0  0  0  0
   -0.9006    0.4304    0.7053 O   0  0  0  0  0  0  0  0  0  0  0  0
    1.8117    2.3200    0.4170 H   0  0  0  0  0  0  0  0  0  0  0  0
    0.0754    2.6930    0.2973 H   0  0  0  0  0  0  0  0  0  0  0  0
    0.8131    2.3906    1.8887 H   0  0  0  0  0  0  0  0  0  0  0  0
    1.9526    1.2093   -3.6764 H   0  0  0  0  0  0  0  0  0  0  0  0
    2.4734   -1.1742   -3.9677 H   0  0  0  0  0  0  0  0  0  0  0  0
   -0.6052    0.2389    3.0849 H   0  0  0  0  0  0  0  0  0  0  0  0
    0.7642    1.3372    3.3995 H   0  0  0  0  0  0  0  0  0  0  0  0
   -3.4746   -2.7689    4.5994 H   0  0  0  0  0  0  0  0  0  0  0  0
   -5.6452   -3.1326    5.5242 H   0  0  0  0  0  0  0  0  0  0  0  0
   -5.4867   -1.5912    6.4001 H   0  0  0  0  0  0  0  0  0  0  0  0
   -6.9605   -1.4045    4.5297 H   0  0  0  0  0  0  0  0  0  0  0  0
    3.1466    0.3313    6.4851 H   0  0  0  0  0  0  0  0  0  0  0  0
    3.3688   -1.2959    7.1716 H   0  0  0  0  0  0  0  0  0  0  0  0
    3.0570   -1.0996    5.4302 H   0  0  0  0  0  0  0  0  0  0  0  0
    0.0147   -0.5734    8.2446 H   0  0  0  0  0  0  0  0  0  0  0  0
    1.7017   -0.8334    8.7491 H   0  0  0  0  0  0  0  0  0  0  0  0
    1.2043    0.7410    8.0842 H   0  0  0  0  0  0  0  0  0  0  0  0
    0.6236   -3.8542    4.8729 H   0  0  0  0  0  0  0  0  0  0  0  0
    1.0004   -4.3421    2.9226 H   0  0  0  0  0  0  0  0  0  0  0  0
    3.0780   -3.2598   -1.9001 H   0  0  0  0  0  0  0  0  0  0  0  0
   -1.3645    0.8877   -0.0094 H   0  0  0  0  0  0  0  0  0  0  0  0
  1  2  1  0  0  0  0
  1 39  1  0  0  0  0
  1 40  1  0  0  0  0
  1 41  1  0  0  0  0
  2 17  1  0  0  0  0
  2  3  1  0  0  0  0
  2 38  1  1  0  0  0
  3  8  2  0  0  0  0
  3  4  1  0  0  0  0
  4  5  2  0  0  0  0
  4 37  1  0  0  0  0
  5  6  1  0  0  0  0
  5 42  1  0  0  0  0
  6  7  2  0  0  0  0
  6 43  1  0  0  0  0
  7  8  1  0  0  0  0
  7 36  1  0  0  0  0
  8  9  1  0  0  0  0
  9 10  2  0  0  0  0
  9 11  1  0  0  0  0
 11 17  1  0  0  0  0
 11 12  2  0  0  0  0
 12 13  1  0  0  0  0
 12 35  1  0  0  0  0
 13 23  1  0  0  0  0
 13 14  1  0  0  0  0
 13 34  1  1  0  0  0
 14 15  1  6  0  0  0
 14 16  1  0  0  0  0
 14 19  1  0  0  0  0
 16 17  1  0  0  0  0
 16 44  1  0  0  0  0
 16 45  1  0  0  0  0
 17 18  1  1  0  0  0
 19 20  1  1  0  0  0
 19 21  1  0  0  0  0
 19 31  1  0  0  0  0
 21 22  2  0  0  0  0
 21 30  1  0  0  0  0
 22 23  1  0  0  0  0
 22 25  1  0  0  0  0
 23 24  2  0  0  0  0
 25 26  2  0  0  0  0
 25 27  1  0  0  0  0
 27 28  1  0  0  0  0
 27 46  1  0  0  0  0
 28 29  1  0  0  0  0
 28 47  1  0  0  0  0
 28 48  1  0  0  0  0
 29 49  1  0  0  0  0
 31 32  1  0  0  0  0
 31 33  1  0  0  0  0
 32 50  1  0  0  0  0
 32 51  1  0  0  0  0
 32 52  1  0  0  0  0
 33 53  1  0  0  0  0
 33 54  1  0  0  0  0
 33 55  1  0  0  0  0
 34 56  1  0  0  0  0
 35 57  1  0  0  0  0
 36 58  1  0  0  0  0
 38 59  1  0  0  0  0
M  CHG  1  30  -1
M  END
$$$$
