ZINC03813047
 OpenBabel08292219463D

 52 55  0  0  1  0  0  0  0  0999 V2000
    2.8083    5.3274    2.4041 C   0  0  0  0  0  0  0  0  0  0  0  0
    2.1257    6.0037    1.2135 C   0  0  2  0  0  0  0  0  0  0  0  0
    0.6609    5.6143    1.1736 C   0  0  0  0  0  0  0  0  0  0  0  0
    0.5954    4.0778    1.1573 C   0  0  0  0  0  0  0  0  0  0  0  0
    1.3656    3.5016   -0.0260 C   0  0  1  0  0  0  0  0  0  0  0  0
    0.8739    3.8078   -0.9494 H   0  0  0  0  0  0  0  0  0  0  0  0
    2.8192    3.9993   -0.0486 C   0  0  2  0  0  0  0  0  0  0  0  0
    3.3356    3.6687    0.8526 H   0  0  0  0  0  0  0  0  0  0  0  0
    2.7732    5.5145   -0.1103 C   0  0  2  0  0  0  0  0  0  0  0  0
    2.1829    5.8410   -0.9665 H   0  0  0  0  0  0  0  0  0  0  0  0
    4.1289    6.2278   -0.0744 C   0  0  0  0  0  0  0  0  0  0  0  0
    3.7613    7.6469    0.4388 C   0  0  0  0  0  0  0  0  0  0  0  0
    2.4336    7.4974    1.2228 C   0  0  1  0  0  0  0  0  0  0  0  0
    1.3152    8.2735    0.5244 C   0  0  0  0  0  0  0  0  0  0  0  0
    2.5960    7.9611    2.5647 O   0  0  0  0  0  0  0  0  0  0  0  0
    3.5248    3.4377   -1.2835 C   0  0  0  0  0  0  0  0  0  0  0  0
    3.5106    1.9085   -1.2283 C   0  0  0  0  0  0  0  0  0  0  0  0
    2.0639    1.4128   -1.2013 C   0  0  2  0  0  0  0  0  0  0  0  0
    1.5483    1.7415   -2.1036 H   0  0  0  0  0  0  0  0  0  0  0  0
    1.3567    1.9740    0.0369 C   0  0  2  0  0  0  0  0  0  0  0  0
   -0.0898    1.4719    0.0632 C   0  0  0  0  0  0  0  0  0  0  0  0
   -0.0902    0.0166    0.0667 O   0  0  0  0  0  0  0  0  0  0  0  0
    0.6224   -0.5718   -0.9165 C   0  0  0  0  0  0  0  0  0  0  0  0
    0.1346   -1.4360   -1.6058 O   0  0  0  0  0  0  0  0  0  0  0  0
    2.0501   -0.1188   -1.1306 C   0  0  0  0  0  0  0  0  0  0  0  0
    2.0842    1.5047    1.2983 C   0  0  0  0  0  0  0  0  0  0  0  0
    2.6644    4.2488    2.3409 H   0  0  0  0  0  0  0  0  0  0  0  0
    3.8746    5.5532    2.3880 H   0  0  0  0  0  0  0  0  0  0  0  0
    2.3724    5.6983    3.3317 H   0  0  0  0  0  0  0  0  0  0  0  0
    0.1953    6.0148    0.2730 H   0  0  0  0  0  0  0  0  0  0  0  0
    0.1511    5.9978    2.0574 H   0  0  0  0  0  0  0  0  0  0  0  0
   -0.4469    3.7659    1.0905 H   0  0  0  0  0  0  0  0  0  0  0  0
    1.0239    3.6936    2.0830 H   0  0  0  0  0  0  0  0  0  0  0  0
    4.8079    5.7309    0.6186 H   0  0  0  0  0  0  0  0  0  0  0  0
    4.5657    6.2765   -1.0719 H   0  0  0  0  0  0  0  0  0  0  0  0
    4.5448    8.0211    1.0978 H   0  0  0  0  0  0  0  0  0  0  0  0
    3.6252    8.3256   -0.4031 H   0  0  0  0  0  0  0  0  0  0  0  0
    0.3732    8.1008    1.0449 H   0  0  0  0  0  0  0  0  0  0  0  0
    1.5482    9.3382    0.5384 H   0  0  0  0  0  0  0  0  0  0  0  0
    1.2275    7.9344   -0.5078 H   0  0  0  0  0  0  0  0  0  0  0  0
    2.7937    8.9052    2.6333 H   0  0  0  0  0  0  0  0  0  0  0  0
    4.5557    3.7910   -1.3050 H   0  0  0  0  0  0  0  0  0  0  0  0
    3.0070    3.7736   -2.1820 H   0  0  0  0  0  0  0  0  0  0  0  0
    4.0267    1.5726   -0.3290 H   0  0  0  0  0  0  0  0  0  0  0  0
    4.0154    1.5085   -2.1077 H   0  0  0  0  0  0  0  0  0  0  0  0
   -0.6173    1.8342   -0.8192 H   0  0  0  0  0  0  0  0  0  0  0  0
   -0.5863    1.8385    0.9617 H   0  0  0  0  0  0  0  0  0  0  0  0
    2.6704   -0.4538   -0.2994 H   0  0  0  0  0  0  0  0  0  0  0  0
    2.4311   -0.5336   -2.0638 H   0  0  0  0  0  0  0  0  0  0  0  0
    2.0790    0.4154    1.3368 H   0  0  0  0  0  0  0  0  0  0  0  0
    3.1136    1.8627    1.2785 H   0  0  0  0  0  0  0  0  0  0  0  0
    1.5784    1.9018    2.1784 H   0  0  0  0  0  0  0  0  0  0  0  0
  1 27  1  0  0  0  0
  1 28  1  0  0  0  0
  1 29  1  0  0  0  0
  2  1  1  1  0  0  0
  2  9  1  0  0  0  0
  2 13  1  0  0  0  0
  2  3  1  0  0  0  0
  3  4  1  0  0  0  0
  3 30  1  0  0  0  0
  3 31  1  0  0  0  0
  4  5  1  0  0  0  0
  4 32  1  0  0  0  0
  4 33  1  0  0  0  0
  5  6  1  6  0  0  0
  5 20  1  0  0  0  0
  5  7  1  0  0  0  0
  7  8  1  1  0  0  0
  7  9  1  0  0  0  0
  7 16  1  0  0  0  0
  9 10  1  6  0  0  0
  9 11  1  0  0  0  0
 11 12  1  0  0  0  0
 11 34  1  0  0  0  0
 11 35  1  0  0  0  0
 12 13  1  0  0  0  0
 12 36  1  0  0  0  0
 12 37  1  0  0  0  0
 13 14  1  0  0  0  0
 13 15  1  1  0  0  0
 14 38  1  0  0  0  0
 14 39  1  0  0  0  0
 14 40  1  0  0  0  0
 15 41  1  0  0  0  0
 16 17  1  0  0  0  0
 16 42  1  0  0  0  0
 16 43  1  0  0  0  0
 17 18  1  0  0  0  0
 17 44  1  0  0  0  0
 17 45  1  0  0  0  0
 18 19  1  6  0  0  0
 18 25  1  0  0  0  0
 18 20  1  0  0  0  0
 20 21  1  0  0  0  0
 20 26  1  1  0  0  0
 21 22  1  0  0  0  0
 21 46  1  0  0  0  0
 21 47  1  0  0  0  0
 22 23  1  0  0  0  0
 23 24  2  0  0  0  0
 23 25  1  0  0  0  0
 25 48  1  0  0  0  0
 25 49  1  0  0  0  0
 26 50  1  0  0  0  0
 26 51  1  0  0  0  0
 26 52  1  0  0  0  0
M  END
$$$$
