ZINC00968338
 OpenBabel08292219463D

 40 43  0  0  1  0  0  0  0  0999 V2000
   -6.7609    0.5526   -0.2136 C   0  0  0  0  0  0  0  0  0  0  0  0
   -4.5569   -0.1909    0.4617 C   0  0  0  0  0  0  0  0  0  0  0  0
   -3.0834   -0.1603    0.0374 C   0  0  0  0  0  0  0  0  0  0  0  0
   -2.6255    1.2829    0.0366 C   0  0  0  0  0  0  0  0  0  0  0  0
   -3.4719    2.3079    0.0494 C   0  0  0  0  0  0  0  0  0  0  0  0
   -4.9736    2.1666    0.0633 C   0  0  0  0  0  0  0  0  0  0  0  0
   -2.6759    3.5853    0.0461 C   0  0  2  0  0  0  0  0  0  0  0  0
   -2.9053    4.1722   -0.8433 H   0  0  0  0  0  0  0  0  0  0  0  0
   -1.2280    3.1557    0.0301 C   0  0  0  0  0  0  0  0  0  0  0  0
   -1.2316    1.7585    0.0174 C   0  0  0  0  0  0  0  0  0  0  0  0
   -0.0126    1.0758    0.0080 C   0  0  0  0  0  0  0  0  0  0  0  0
    1.1721    1.7822    0.0004 C   0  0  0  0  0  0  0  0  0  0  0  0
    1.1618    3.1654    0.0076 C   0  0  0  0  0  0  0  0  0  0  0  0
   -0.0417    3.8507    0.0224 C   0  0  0  0  0  0  0  0  0  0  0  0
   -2.9690    4.3859    1.2887 C   0  0  0  0  0  0  0  0  0  0  0  0
   -2.7644    3.8261    2.5359 C   0  0  0  0  0  0  0  0  0  0  0  0
   -3.0294    4.5619    3.6758 C   0  0  0  0  0  0  0  0  0  0  0  0
   -3.5073    5.8545    3.5684 C   0  0  0  0  0  0  0  0  0  0  0  0
   -3.7165    6.4127    2.3212 C   0  0  0  0  0  0  0  0  0  0  0  0
   -3.4477    5.6783    1.1814 C   0  0  0  0  0  0  0  0  0  0  0  0
   -7.0492    0.5686    0.8375 H   0  0  0  0  0  0  0  0  0  0  0  0
   -7.3007    1.3328   -0.7503 H   0  0  0  0  0  0  0  0  0  0  0  0
   -7.0053   -0.4191   -0.6426 H   0  0  0  0  0  0  0  0  0  0  0  0
   -4.9634   -1.1878    0.2913 H   0  0  0  0  0  0  0  0  0  0  0  0
   -4.6353    0.0574    1.5202 H   0  0  0  0  0  0  0  0  0  0  0  0
   -2.9795   -0.5802   -0.9631 H   0  0  0  0  0  0  0  0  0  0  0  0
   -2.4842   -0.7364    0.7425 H   0  0  0  0  0  0  0  0  0  0  0  0
   -5.3512    2.3666    1.0661 H   0  0  0  0  0  0  0  0  0  0  0  0
   -5.4143    2.8690   -0.6442 H   0  0  0  0  0  0  0  0  0  0  0  0
    0.0021   -0.0041    0.0020 H   0  0  0  0  0  0  0  0  0  0  0  0
    2.1131    1.2524   -0.0107 H   0  0  0  0  0  0  0  0  0  0  0  0
    2.0934    3.7117    0.0019 H   0  0  0  0  0  0  0  0  0  0  0  0
   -0.0484    4.9307    0.0283 H   0  0  0  0  0  0  0  0  0  0  0  0
   -2.3945    2.8148    2.6198 H   0  0  0  0  0  0  0  0  0  0  0  0
   -2.8664    4.1256    4.6502 H   0  0  0  0  0  0  0  0  0  0  0  0
   -3.7176    6.4282    4.4589 H   0  0  0  0  0  0  0  0  0  0  0  0
   -4.0902    7.4225    2.2373 H   0  0  0  0  0  0  0  0  0  0  0  0
   -3.6114    6.1143    0.2069 H   0  0  0  0  0  0  0  0  0  0  0  0
   -5.3082    0.7854   -0.3571 N   0  3  2  0  0  0  0  0  0  0  0  0
   -5.0468    0.6646   -1.3426 H   0  0  0  0  0  0  0  0  0  0  0  0
  1 21  1  0  0  0  0
  1 22  1  0  0  0  0
  1 23  1  0  0  0  0
  1 39  1  0  0  0  0
  2  3  1  0  0  0  0
  2 24  1  0  0  0  0
  2 25  1  0  0  0  0
  2 39  1  0  0  0  0
  3  4  1  0  0  0  0
  3 26  1  0  0  0  0
  3 27  1  0  0  0  0
  4 10  1  0  0  0  0
  4  5  2  0  0  0  0
  5  6  1  0  0  0  0
  5  7  1  0  0  0  0
  6 28  1  0  0  0  0
  6 29  1  0  0  0  0
  6 39  1  0  0  0  0
  7  8  1  6  0  0  0
  7  9  1  0  0  0  0
  7 15  1  0  0  0  0
  9 14  2  0  0  0  0
  9 10  1  0  0  0  0
 10 11  2  0  0  0  0
 11 12  1  0  0  0  0
 11 30  1  0  0  0  0
 12 13  2  0  0  0  0
 12 31  1  0  0  0  0
 13 14  1  0  0  0  0
 13 32  1  0  0  0  0
 14 33  1  0  0  0  0
 15 20  2  0  0  0  0
 15 16  1  0  0  0  0
 16 17  2  0  0  0  0
 16 34  1  0  0  0  0
 17 18  1  0  0  0  0
 17 35  1  0  0  0  0
 18 19  2  0  0  0  0
 18 36  1  0  0  0  0
 19 20  1  0  0  0  0
 19 37  1  0  0  0  0
 20 38  1  0  0  0  0
 39 40  1  6  0  0  0
M  CHG  1  39   1
M  END
$$$$
