ZINC08101116
 OpenBabel08292219463D

 81 83  0  0  1  0  0  0  0  0999 V2000
   -3.4454    3.3193   -4.6304 C   0  0  0  0  0  0  0  0  0  0  0  0
   -2.1895    2.6870   -4.0273 C   0  0  1  0  0  0  0  0  0  0  0  0
   -1.7485    3.3732   -3.3044 H   0  0  0  0  0  0  0  0  0  0  0  0
   -2.5632    1.3791   -3.3268 C   0  0  1  0  0  0  0  0  0  0  0  0
   -1.6572    0.8765   -2.9880 H   0  0  0  0  0  0  0  0  0  0  0  0
   -3.4592    1.6825   -2.1231 C   0  0  0  0  0  0  0  0  0  0  0  0
   -3.8779    0.3652   -1.4632 C   0  0  0  0  0  0  0  0  0  0  0  0
   -4.5794   -0.5138   -2.5032 C   0  0  1  0  0  0  0  0  0  0  0  0
   -5.4892   -0.0195   -2.8438 H   0  0  0  0  0  0  0  0  0  0  0  0
   -3.6401   -0.7325   -3.6921 C   0  0  1  0  0  0  0  0  0  0  0  0
   -4.1496   -1.3218   -4.4544 H   0  0  0  0  0  0  0  0  0  0  0  0
   -3.2645    0.5328   -4.2400 O   0  0  0  0  0  0  0  0  0  0  0  0
   -2.4711   -1.4281   -3.2543 O   0  0  0  0  0  0  0  0  0  0  0  0
   -1.5562   -1.7459   -4.3050 C   0  0  2  0  0  0  0  0  0  0  0  0
   -1.6470   -1.0074   -5.1016 H   0  0  0  0  0  0  0  0  0  0  0  0
   -1.8780   -3.1354   -4.8586 C   0  0  1  0  0  0  0  0  0  0  0  0
   -1.1801   -3.3778   -5.6600 H   0  0  0  0  0  0  0  0  0  0  0  0
   -1.7505   -4.1719   -3.7404 C   0  0  0  0  0  0  0  0  0  0  0  0
   -0.3216   -4.1591   -3.1936 C   0  0  1  0  0  0  0  0  0  0  0  0
    0.3763   -4.4016   -3.9951 H   0  0  0  0  0  0  0  0  0  0  0  0
    0.0002   -2.7696   -2.6401 C   0  0  1  0  0  0  0  0  0  0  0  0
    1.0182   -2.7605   -2.2505 H   0  0  0  0  0  0  0  0  0  0  0  0
   -0.1273   -1.7331   -3.7582 C   0  0  2  0  0  0  0  0  0  0  0  0
    0.5706   -1.9755   -4.5597 H   0  0  0  0  0  0  0  0  0  0  0  0
    0.1733   -0.4352   -3.2412 O   0  0  0  0  0  0  0  0  0  0  0  0
   -0.9147   -2.4518   -1.5894 O   0  0  0  0  0  0  0  0  0  0  0  0
   -0.2891   -1.9565   -0.4039 C   0  0  2  0  0  0  0  0  0  0  0  0
    0.6293   -2.5133   -0.2177 H   0  0  0  0  0  0  0  0  0  0  0  0
   -1.2393   -2.1270    0.7842 C   0  0  1  0  0  0  0  0  0  0  0  0
   -1.4405   -3.1868    0.9406 H   0  0  0  0  0  0  0  0  0  0  0  0
   -0.5860   -1.5394    2.0389 C   0  0  1  0  0  0  0  0  0  0  0  0
    0.3230   -2.0945    2.2707 H   0  0  0  0  0  0  0  0  0  0  0  0
   -0.2373   -0.0706    1.7795 C   0  0  1  0  0  0  0  0  0  0  0  0
    0.6742    0.0205    0.5529 C   0  0  0  0  0  0  0  0  0  0  0  0
    0.0192   -0.5711   -0.5709 O   0  0  0  0  0  0  0  0  0  0  0  0
   -1.5207    0.7219    1.5228 C   0  0  0  0  0  0  0  0  0  0  0  0
    0.4383    0.4681    2.9176 O   0  0  0  0  0  0  0  0  0  0  0  0
   -1.5201   -1.6324    3.1688 N   0  3  0  0  0  0  0  0  0  0  0  0
   -1.7665   -3.0456    3.4855 C   0  0  0  0  0  0  0  0  0  0  0  0
   -2.4650   -1.4425    0.5175 O   0  0  0  0  0  0  0  0  0  0  0  0
   -0.1992   -5.1543   -2.1201 N   0  3  0  0  0  0  0  0  0  0  0  0
   -3.2499   -3.1477   -5.3835 N   0  3  0  0  0  0  0  0  0  0  0  0
   -4.9207   -1.8095   -1.9009 N   0  3  0  0  0  0  0  0  0  0  0  0
   -1.2193    2.4106   -5.0952 N   0  3  0  0  0  0  0  0  0  0  0  0
   -0.7732    3.6770   -5.6912 C   0  0  0  0  0  0  0  0  0  0  0  0
   -3.1943    4.2906   -5.0567 H   0  0  0  0  0  0  0  0  0  0  0  0
   -3.8393    2.6702   -5.4125 H   0  0  0  0  0  0  0  0  0  0  0  0
   -4.1973    3.4477   -3.8518 H   0  0  0  0  0  0  0  0  0  0  0  0
   -2.9104    2.2915   -1.4048 H   0  0  0  0  0  0  0  0  0  0  0  0
   -4.3464    2.2212   -2.4561 H   0  0  0  0  0  0  0  0  0  0  0  0
   -2.9948   -0.1505   -1.0859 H   0  0  0  0  0  0  0  0  0  0  0  0
   -4.5612    0.5711   -0.6393 H   0  0  0  0  0  0  0  0  0  0  0  0
   -2.4484   -3.9295   -2.9390 H   0  0  0  0  0  0  0  0  0  0  0  0
   -1.9798   -5.1619   -4.1348 H   0  0  0  0  0  0  0  0  0  0  0  0
    1.0910   -0.3285   -2.9554 H   0  0  0  0  0  0  0  0  0  0  0  0
    0.8909    1.0669    0.3380 H   0  0  0  0  0  0  0  0  0  0  0  0
    1.6052   -0.5103    0.7517 H   0  0  0  0  0  0  0  0  0  0  0  0
   -2.2226    0.5511    2.3390 H   0  0  0  0  0  0  0  0  0  0  0  0
   -1.2856    1.7845    1.4621 H   0  0  0  0  0  0  0  0  0  0  0  0
   -1.9682    0.3946    0.5843 H   0  0  0  0  0  0  0  0  0  0  0  0
    0.6895    1.3971    2.8227 H   0  0  0  0  0  0  0  0  0  0  0  0
   -1.1217   -1.1720    3.9734 H   0  0  0  0  0  0  0  0  0  0  0  0
   -2.4596   -3.1146    4.3238 H   0  0  0  0  0  0  0  0  0  0  0  0
   -2.1969   -3.5430    2.6163 H   0  0  0  0  0  0  0  0  0  0  0  0
   -0.8257   -3.5277    3.7512 H   0  0  0  0  0  0  0  0  0  0  0  0
   -2.9819   -1.8279   -0.2032 H   0  0  0  0  0  0  0  0  0  0  0  0
   -0.4114   -6.0707   -2.4851 H   0  0  0  0  0  0  0  0  0  0  0  0
    0.7432   -5.1459   -1.7595 H   0  0  0  0  0  0  0  0  0  0  0  0
   -3.3689   -2.3836   -6.0317 H   0  0  0  0  0  0  0  0  0  0  0  0
   -3.4205   -4.0214   -5.8585 H   0  0  0  0  0  0  0  0  0  0  0  0
   -5.4658   -1.6588   -1.0653 H   0  0  0  0  0  0  0  0  0  0  0  0
   -5.4571   -2.3552   -2.5585 H   0  0  0  0  0  0  0  0  0  0  0  0
   -0.4250    1.9221   -4.7098 H   0  0  0  0  0  0  0  0  0  0  0  0
   -1.6312    4.2048   -6.1075 H   0  0  0  0  0  0  0  0  0  0  0  0
   -0.3040    4.2939   -4.9247 H   0  0  0  0  0  0  0  0  0  0  0  0
   -0.0533    3.4720   -6.4835 H   0  0  0  0  0  0  0  0  0  0  0  0
   -1.6536    1.8396   -5.8046 H   0  0  0  0  0  0  0  0  0  0  0  0
   -0.8452   -4.9299   -1.3782 H   0  0  0  0  0  0  0  0  0  0  0  0
   -4.0736   -2.3044   -1.6651 H   0  0  0  0  0  0  0  0  0  0  0  0
   -2.3910   -1.1861    2.9229 H   0  0  0  0  0  0  0  0  0  0  0  0
   -3.9028   -3.0465   -4.6209 H   0  0  0  0  0  0  0  0  0  0  0  0
  1  2  1  0  0  0  0
  1 46  1  0  0  0  0
  1 47  1  0  0  0  0
  1 48  1  0  0  0  0
  2  3  1  1  0  0  0
  2  4  1  0  0  0  0
  2 44  1  0  0  0  0
  4  5  1  1  0  0  0
  4 12  1  0  0  0  0
  4  6  1  0  0  0  0
  6  7  1  0  0  0  0
  6 49  1  0  0  0  0
  6 50  1  0  0  0  0
  7  8  1  0  0  0  0
  7 51  1  0  0  0  0
  7 52  1  0  0  0  0
  8  9  1  6  0  0  0
  8 10  1  0  0  0  0
  8 43  1  0  0  0  0
 10 11  1  6  0  0  0
 10 12  1  0  0  0  0
 10 13  1  0  0  0  0
 13 14  1  0  0  0  0
 14 15  1  6  0  0  0
 14 23  1  0  0  0  0
 14 16  1  0  0  0  0
 16 17  1  6  0  0  0
 16 18  1  0  0  0  0
 16 42  1  0  0  0  0
 18 19  1  0  0  0  0
 18 53  1  0  0  0  0
 18 54  1  0  0  0  0
 19 20  1  6  0  0  0
 19 21  1  0  0  0  0
 19 41  1  0  0  0  0
 21 22  1  1  0  0  0
 21 23  1  0  0  0  0
 21 26  1  0  0  0  0
 23 24  1  6  0  0  0
 23 25  1  0  0  0  0
 25 55  1  0  0  0  0
 26 27  1  0  0  0  0
 27 28  1  1  0  0  0
 27 35  1  0  0  0  0
 27 29  1  0  0  0  0
 29 30  1  1  0  0  0
 29 31  1  0  0  0  0
 29 40  1  0  0  0  0
 31 32  1  1  0  0  0
 31 33  1  0  0  0  0
 31 38  1  0  0  0  0
 33 34  1  0  0  0  0
 33 36  1  0  0  0  0
 33 37  1  1  0  0  0
 34 35  1  0  0  0  0
 34 56  1  0  0  0  0
 34 57  1  0  0  0  0
 36 58  1  0  0  0  0
 36 59  1  0  0  0  0
 36 60  1  0  0  0  0
 37 61  1  0  0  0  0
 38 39  1  0  0  0  0
 38 62  1  0  0  0  0
 38 80  1  0  0  0  0
 39 63  1  0  0  0  0
 39 64  1  0  0  0  0
 39 65  1  0  0  0  0
 40 66  1  0  0  0  0
 41 67  1  0  0  0  0
 41 68  1  0  0  0  0
 41 78  1  0  0  0  0
 42 69  1  0  0  0  0
 42 70  1  0  0  0  0
 42 81  1  0  0  0  0
 43 71  1  0  0  0  0
 43 72  1  0  0  0  0
 43 79  1  0  0  0  0
 44 45  1  0  0  0  0
 44 73  1  0  0  0  0
 44 77  1  0  0  0  0
 45 74  1  0  0  0  0
 45 75  1  0  0  0  0
 45 76  1  0  0  0  0
M  CHG  5  38   1  41   1  42   1  43   1  44   1
M  END
$$$$
