ZINC64622550
 OpenBabel08292219463D

 58 61  0  0  1  0  0  0  0  0999 V2000
   -0.1722    1.2261    0.7926 C   0  0  0  0  0  0  0  0  0  0  0  0
    0.9810    1.9896    0.8612 C   0  0  0  0  0  0  0  0  0  0  0  0
    2.2143    1.4032    0.6657 C   0  0  0  0  0  0  0  0  0  0  0  0
    2.3100    0.0412    0.3940 C   0  0  0  0  0  0  0  0  0  0  0  0
    1.1480   -0.7307    0.3155 C   0  0  0  0  0  0  0  0  0  0  0  0
   -0.0956   -0.1230    0.5235 C   0  0  0  0  0  0  0  0  0  0  0  0
    1.1865   -2.1699    0.0049 C   0  0  0  0  0  0  0  0  0  0  0  0
    0.0582   -2.7782   -0.3369 C   0  0  0  0  0  0  0  0  0  0  0  0
    0.0268   -4.2771   -0.4903 C   0  0  0  0  0  0  0  0  0  0  0  0
   -1.1084   -4.8529    0.3585 C   0  0  0  0  0  0  0  0  0  0  0  0
   -1.1390   -6.3140    0.2089 N   0  3  0  0  0  0  0  0  0  0  0  0
   -1.4768   -6.6568   -1.1788 C   0  0  0  0  0  0  0  0  0  0  0  0
   -1.4904   -8.1786   -1.3397 C   0  0  0  0  0  0  0  0  0  0  0  0
   -2.4797   -8.7568   -0.4193 N   0  0  0  0  0  0  0  0  0  0  0  0
   -2.1685   -8.4010    0.9723 C   0  0  0  0  0  0  0  0  0  0  0  0
   -2.1493   -6.8775    1.1141 C   0  0  0  0  0  0  0  0  0  0  0  0
   -2.5632  -10.2141   -0.5841 C   0  0  0  0  0  0  0  0  0  0  0  0
   -3.7640  -10.7480    0.1996 C   0  0  0  0  0  0  0  0  0  0  0  0
   -4.9702  -10.2336   -0.3683 O   0  0  0  0  0  0  0  0  0  0  0  0
    2.4466   -2.9723    0.0590 C   0  0  2  0  0  0  0  0  0  0  0  0
    2.2705   -3.9341   -0.4227 H   0  0  0  0  0  0  0  0  0  0  0  0
    2.8961   -3.2152    1.4729 C   0  0  0  0  0  0  0  0  0  0  0  0
    4.1626   -3.5746    1.6887 C   0  0  0  0  0  0  0  0  0  0  0  0
    5.0719   -3.7345    0.5402 C   0  0  0  0  0  0  0  0  0  0  0  0
    4.8110   -3.1128   -0.6067 C   0  0  0  0  0  0  0  0  0  0  0  0
    3.5717   -2.2447   -0.6899 C   0  0  2  0  0  0  0  0  0  0  0  0
    3.2989   -2.0808   -1.7324 H   0  0  0  0  0  0  0  0  0  0  0  0
    3.9027   -0.6730    0.1615 S   0  0  0  0  0  0  0  0  0  0  0  0
    4.6579   -3.8141    3.0916 C   0  0  0  0  0  0  0  0  0  0  0  0
    4.5728   -5.1783    3.3898 F   0  0  0  0  0  0  0  0  0  0  0  0
    5.9893   -3.3967    3.1937 F   0  0  0  0  0  0  0  0  0  0  0  0
    3.8716   -3.0896    3.9938 F   0  0  0  0  0  0  0  0  0  0  0  0
   -1.1345    1.6887    0.9551 H   0  0  0  0  0  0  0  0  0  0  0  0
    0.9147    3.0474    1.0686 H   0  0  0  0  0  0  0  0  0  0  0  0
    3.1100    2.0038    0.7234 H   0  0  0  0  0  0  0  0  0  0  0  0
   -0.9983   -0.7138    0.4731 H   0  0  0  0  0  0  0  0  0  0  0  0
   -0.8378   -2.1993   -0.5052 H   0  0  0  0  0  0  0  0  0  0  0  0
   -0.1372   -4.5317   -1.5374 H   0  0  0  0  0  0  0  0  0  0  0  0
    0.9769   -4.6962   -0.1590 H   0  0  0  0  0  0  0  0  0  0  0  0
   -0.9444   -4.5983    1.4056 H   0  0  0  0  0  0  0  0  0  0  0  0
   -2.0585   -4.4338    0.0271 H   0  0  0  0  0  0  0  0  0  0  0  0
   -2.4611   -6.2570   -1.4226 H   0  0  0  0  0  0  0  0  0  0  0  0
   -0.7336   -6.2271   -1.8504 H   0  0  0  0  0  0  0  0  0  0  0  0
   -1.7556   -8.4335   -2.3657 H   0  0  0  0  0  0  0  0  0  0  0  0
   -0.5025   -8.5775   -1.1092 H   0  0  0  0  0  0  0  0  0  0  0  0
   -2.9284   -8.8183    1.6330 H   0  0  0  0  0  0  0  0  0  0  0  0
   -1.1918   -8.8036    1.2409 H   0  0  0  0  0  0  0  0  0  0  0  0
   -1.9047   -6.6113    2.1424 H   0  0  0  0  0  0  0  0  0  0  0  0
   -3.1301   -6.4765    0.8586 H   0  0  0  0  0  0  0  0  0  0  0  0
   -2.6831  -10.4541   -1.6405 H   0  0  0  0  0  0  0  0  0  0  0  0
   -1.6499  -10.6752   -0.2081 H   0  0  0  0  0  0  0  0  0  0  0  0
   -3.7749  -11.8368    0.1506 H   0  0  0  0  0  0  0  0  0  0  0  0
   -3.6885  -10.4318    1.2400 H   0  0  0  0  0  0  0  0  0  0  0  0
   -5.7739  -10.5313    0.0794 H   0  0  0  0  0  0  0  0  0  0  0  0
    2.2078   -3.1007    2.2972 H   0  0  0  0  0  0  0  0  0  0  0  0
    5.9505   -4.3561    0.6297 H   0  0  0  0  0  0  0  0  0  0  0  0
    5.4758   -3.2178   -1.4514 H   0  0  0  0  0  0  0  0  0  0  0  0
   -0.2330   -6.6944    0.4379 H   0  0  0  0  0  0  0  0  0  0  0  0
  1  6  2  0  0  0  0
  1  2  1  0  0  0  0
  1 33  1  0  0  0  0
  2  3  2  0  0  0  0
  2 34  1  0  0  0  0
  3  4  1  0  0  0  0
  3 35  1  0  0  0  0
  4 28  1  0  0  0  0
  4  5  2  0  0  0  0
  5  6  1  0  0  0  0
  5  7  1  0  0  0  0
  6 36  1  0  0  0  0
  7  8  2  0  0  0  0
  7 20  1  0  0  0  0
  8  9  1  0  0  0  0
  8 37  1  0  0  0  0
  9 10  1  0  0  0  0
  9 38  1  0  0  0  0
  9 39  1  0  0  0  0
 10 11  1  0  0  0  0
 10 40  1  0  0  0  0
 10 41  1  0  0  0  0
 11 16  1  0  0  0  0
 11 12  1  0  0  0  0
 11 58  1  0  0  0  0
 12 13  1  0  0  0  0
 12 42  1  0  0  0  0
 12 43  1  0  0  0  0
 13 14  1  0  0  0  0
 13 44  1  0  0  0  0
 13 45  1  0  0  0  0
 14 15  1  0  0  0  0
 14 17  1  0  0  0  0
 15 16  1  0  0  0  0
 15 46  1  0  0  0  0
 15 47  1  0  0  0  0
 16 48  1  0  0  0  0
 16 49  1  0  0  0  0
 17 18  1  0  0  0  0
 17 50  1  0  0  0  0
 17 51  1  0  0  0  0
 18 19  1  0  0  0  0
 18 52  1  0  0  0  0
 18 53  1  0  0  0  0
 19 54  1  0  0  0  0
 20 21  1  6  0  0  0
 20 26  1  0  0  0  0
 20 22  1  0  0  0  0
 22 23  2  0  0  0  0
 22 55  1  0  0  0  0
 23 24  1  0  0  0  0
 23 29  1  0  0  0  0
 24 25  2  0  0  0  0
 24 56  1  0  0  0  0
 25 26  1  0  0  0  0
 25 57  1  0  0  0  0
 26 27  1  6  0  0  0
 26 28  1  0  0  0  0
 29 30  1  0  0  0  0
 29 31  1  0  0  0  0
 29 32  1  0  0  0  0
M  CHG  1  11   1
M  END
$$$$
