ZINC04215257
 OpenBabel08292219463D

 65 69  0  0  1  0  0  0  0  0999 V2000
   -0.0304    0.1846    0.2522 C   0  0  0  0  0  0  0  0  0  0  0  0
   -0.7483    0.7239    1.4625 C   0  0  0  0  0  0  0  0  0  0  0  0
   -2.1245    0.8183    1.4475 C   0  0  0  0  0  0  0  0  0  0  0  0
   -2.7841    1.3117    2.5695 C   0  0  0  0  0  0  0  0  0  0  0  0
   -2.0095    1.6956    3.6795 C   0  0  0  0  0  0  0  0  0  0  0  0
   -0.6220    1.5708    3.6053 C   0  0  0  0  0  0  0  0  0  0  0  0
   -0.0482    1.1030    2.5165 N   0  0  0  0  0  0  0  0  0  0  0  0
   -2.6526    2.2203    4.8993 C   0  0  0  0  0  0  0  0  0  0  0  0
   -3.8628    2.3243    4.9519 O   0  0  0  0  0  0  0  0  0  0  0  0
   -1.8985    2.5844    5.9554 N   0  0  0  0  0  0  0  0  0  0  0  0
   -2.5370    3.1054    7.1666 C   0  0  2  0  0  0  0  0  0  0  0  0
   -3.4887    2.5976    7.3228 H   0  0  0  0  0  0  0  0  0  0  0  0
   -2.7767    4.5851    7.0113 C   0  0  0  0  0  0  0  0  0  0  0  0
   -1.8184    5.3802    6.4104 C   0  0  0  0  0  0  0  0  0  0  0  0
   -2.0381    6.7359    6.2617 C   0  0  0  0  0  0  0  0  0  0  0  0
   -3.2170    7.3013    6.7258 C   0  0  0  0  0  0  0  0  0  0  0  0
   -4.1745    6.5023    7.3335 C   0  0  0  0  0  0  0  0  0  0  0  0
   -3.9522    5.1462    7.4751 C   0  0  0  0  0  0  0  0  0  0  0  0
   -3.4331    8.6356    6.5858 O   0  0  0  0  0  0  0  0  0  0  0  0
   -1.6383    2.8638    8.3519 C   0  0  0  0  0  0  0  0  0  0  0  0
   -0.5696    2.3109    8.1999 O   0  0  0  0  0  0  0  0  0  0  0  0
   -2.0221    3.2623    9.5809 N   0  0  0  0  0  0  0  0  0  0  0  0
   -1.1485    3.0274   10.7332 C   0  0  1  0  0  0  0  0  0  0  0  0
   -0.0981    2.9473   10.4531 H   0  0  0  0  0  0  0  0  0  0  0  0
   -1.3927    3.9949   11.8797 C   0  0  2  0  0  0  0  0  0  0  0  0
   -0.5055    4.3482   12.4052 H   0  0  0  0  0  0  0  0  0  0  0  0
   -2.1044    2.8120   12.4710 N   0  0  0  0  0  0  0  0  0  0  0  0
   -1.6191    1.8957   11.6198 C   0  0  0  0  0  0  0  0  0  0  0  0
   -1.5764    0.6843   11.5787 O   0  0  0  0  0  0  0  0  0  0  0  0
   -3.0413    2.8511   13.5221 C   0  0  0  0  0  0  0  0  0  0  0  0
   -3.6624    3.9777   13.8296 C   0  0  0  0  0  0  0  0  0  0  0  0
   -3.4838    5.3324   13.2250 C   0  0  0  0  0  0  0  0  0  0  0  0
   -2.6907    5.2442   11.5896 S   0  0  0  0  0  0  0  0  0  0  0  0
   -4.6837    3.8824   14.9336 C   0  0  0  0  0  0  0  0  0  0  0  0
   -3.9766    4.5330   16.4674 S   0  0  0  0  0  0  0  0  0  0  0  0
   -5.3441    4.3061   17.5551 C   0  0  0  0  0  0  0  0  0  0  0  0
   -6.5171    3.8005   17.2409 N   0  0  0  0  0  0  0  0  0  0  0  0
   -7.2852    3.7732   18.2698 N   0  0  0  0  0  0  0  0  0  0  0  0
   -6.6760    4.2587   19.2968 N   0  0  0  0  0  0  0  0  0  0  0  0
   -5.3874    4.6247   18.8703 N   0  0  0  0  0  0  0  0  0  0  0  0
   -4.3199    5.2221   19.6765 C   0  0  0  0  0  0  0  0  0  0  0  0
   -3.3320    1.6250   14.2870 C   0  0  0  0  0  0  0  0  0  0  0  0
   -2.6499    1.3331   15.2492 O   0  0  0  0  0  0  0  0  0  0  0  0
   -4.1351    1.4143    2.5941 O   0  0  0  0  0  0  0  0  0  0  0  0
    0.0775   -0.8960    0.3452 H   0  0  0  0  0  0  0  0  0  0  0  0
    0.9557    0.6434    0.1802 H   0  0  0  0  0  0  0  0  0  0  0  0
   -0.6053    0.4164   -0.6445 H   0  0  0  0  0  0  0  0  0  0  0  0
   -2.6835    0.5130    0.5754 H   0  0  0  0  0  0  0  0  0  0  0  0
   -0.0129    1.8607    4.4487 H   0  0  0  0  0  0  0  0  0  0  0  0
   -0.9330    2.5014    5.9135 H   0  0  0  0  0  0  0  0  0  0  0  0
   -0.8989    4.9403    6.0532 H   0  0  0  0  0  0  0  0  0  0  0  0
   -1.2913    7.3558    5.7880 H   0  0  0  0  0  0  0  0  0  0  0  0
   -5.0932    6.9400    7.6952 H   0  0  0  0  0  0  0  0  0  0  0  0
   -4.6973    4.5238    7.9481 H   0  0  0  0  0  0  0  0  0  0  0  0
   -3.1173    9.1656    7.3305 H   0  0  0  0  0  0  0  0  0  0  0  0
   -2.8769    3.7044    9.7025 H   0  0  0  0  0  0  0  0  0  0  0  0
   -4.4599    5.8062   13.1211 H   0  0  0  0  0  0  0  0  0  0  0  0
   -2.8654    5.9381   13.8873 H   0  0  0  0  0  0  0  0  0  0  0  0
   -5.5651    4.4645   14.6643 H   0  0  0  0  0  0  0  0  0  0  0  0
   -4.9668    2.8397   15.0776 H   0  0  0  0  0  0  0  0  0  0  0  0
   -4.3999    6.3084   19.6378 H   0  0  0  0  0  0  0  0  0  0  0  0
   -4.4141    4.8874   20.7096 H   0  0  0  0  0  0  0  0  0  0  0  0
   -3.3513    4.9148   19.2819 H   0  0  0  0  0  0  0  0  0  0  0  0
    0.9489    1.0324    2.4866 H   0  0  0  0  0  0  0  0  0  0  0  0
   -4.3544    0.8277   13.9190 O   0  0  0  0  0  1  0  0  0  0  0  0
  1  2  1  0  0  0  0
  1 45  1  0  0  0  0
  1 46  1  0  0  0  0
  1 47  1  0  0  0  0
  2  7  1  0  0  0  0
  2  3  2  0  0  0  0
  3 48  1  0  0  0  0
  3  4  1  0  0  0  0
  4 44  2  0  0  0  0
  4  5  1  0  0  0  0
  5  8  1  0  0  0  0
  5  6  2  0  0  0  0
  6 49  1  0  0  0  0
  6  7  1  0  0  0  0
  7 64  1  0  0  0  0
  8  9  2  0  0  0  0
  8 10  1  0  0  0  0
 10 11  1  0  0  0  0
 10 50  1  0  0  0  0
 11 12  1  1  0  0  0
 11 13  1  0  0  0  0
 11 20  1  0  0  0  0
 13 18  2  0  0  0  0
 13 14  1  0  0  0  0
 14 15  2  0  0  0  0
 14 51  1  0  0  0  0
 15 16  1  0  0  0  0
 15 52  1  0  0  0  0
 16 17  2  0  0  0  0
 16 19  1  0  0  0  0
 17 18  1  0  0  0  0
 17 53  1  0  0  0  0
 18 54  1  0  0  0  0
 19 55  1  0  0  0  0
 20 21  2  0  0  0  0
 20 22  1  0  0  0  0
 22 23  1  0  0  0  0
 22 56  1  0  0  0  0
 23 24  1  6  0  0  0
 23 28  1  0  0  0  0
 23 25  1  0  0  0  0
 25 26  1  1  0  0  0
 25 33  1  0  0  0  0
 25 27  1  0  0  0  0
 27 28  1  0  0  0  0
 27 30  1  0  0  0  0
 28 29  2  0  0  0  0
 30 31  2  0  0  0  0
 30 42  1  0  0  0  0
 31 32  1  0  0  0  0
 31 34  1  0  0  0  0
 32 33  1  0  0  0  0
 32 57  1  0  0  0  0
 32 58  1  0  0  0  0
 34 35  1  0  0  0  0
 34 59  1  0  0  0  0
 34 60  1  0  0  0  0
 35 36  1  0  0  0  0
 36 40  1  0  0  0  0
 36 37  2  0  0  0  0
 37 38  1  0  0  0  0
 38 39  2  0  0  0  0
 39 40  1  0  0  0  0
 40 41  1  0  0  0  0
 41 61  1  0  0  0  0
 41 62  1  0  0  0  0
 41 63  1  0  0  0  0
 42 43  2  0  0  0  0
 42 65  1  0  0  0  0
M  END
$$$$
