ZINC03919580
 OpenBabel08292219463D

 48 51  0  0  1  0  0  0  0  0999 V2000
   -0.0087    1.5258    0.0167 C   0  0  0  0  0  0  0  0  0  0  0  0
    0.0131   -0.0040    0.0089 C   0  0  2  0  0  0  0  0  0  0  0  0
   -1.4230   -0.4593   -0.0764 C   0  0  0  0  0  0  0  0  0  0  0  0
   -1.6456   -1.8122    0.5985 C   0  0  0  0  0  0  0  0  0  0  0  0
   -1.1516   -1.6984    2.0283 C   0  0  0  0  0  0  0  0  0  0  0  0
   -1.8435   -2.0129    2.9738 O   0  0  0  0  0  0  0  0  0  0  0  0
    0.2187   -1.1836    2.2012 C   0  0  0  0  0  0  0  0  0  0  0  0
    0.7515   -0.4297    1.2394 C   0  0  0  0  0  0  0  0  0  0  0  0
    2.1986    0.0132    1.3752 C   0  0  0  0  0  0  0  0  0  0  0  0
    2.9358   -0.4085    0.0990 C   0  0  0  0  0  0  0  0  0  0  0  0
    2.2242    0.1636   -1.1272 C   0  0  2  0  0  0  0  0  0  0  0  0
    2.1677    1.2490   -1.0451 H   0  0  0  0  0  0  0  0  0  0  0  0
    0.8058   -0.4222   -1.2304 C   0  0  2  0  0  0  0  0  0  0  0  0
    0.8679   -1.5098   -1.2670 H   0  0  0  0  0  0  0  0  0  0  0  0
    0.0875    0.0667   -2.4846 C   0  0  0  0  0  0  0  0  0  0  0  0
    0.9090   -0.2126   -3.7533 C   0  0  0  0  0  0  0  0  0  0  0  0
    2.2527    0.4666   -3.5776 C   0  0  1  0  0  0  0  0  0  0  0  0
    2.9798   -0.2147   -2.3885 C   0  0  1  0  0  0  0  0  0  0  0  0
    2.9829   -1.2965   -2.5216 H   0  0  0  0  0  0  0  0  0  0  0  0
    4.3934    0.3675   -2.5145 C   0  0  0  0  0  0  0  0  0  0  0  0
    4.6260    0.3572   -4.0500 C   0  0  0  0  0  0  0  0  0  0  0  0
    3.2316    0.3351   -4.7066 C   0  0  0  0  0  0  0  0  0  0  0  0
    2.9773    0.2598   -5.8847 O   0  0  0  0  0  0  0  0  0  0  0  0
    2.0429    1.9457   -3.2472 C   0  0  0  0  0  0  0  0  0  0  0  0
    0.9339   -1.4865    3.3177 O   0  0  0  0  0  0  0  0  0  0  0  0
    1.0137    1.9037    0.0058 H   0  0  0  0  0  0  0  0  0  0  0  0
   -0.5387    1.8861   -0.8649 H   0  0  0  0  0  0  0  0  0  0  0  0
   -0.5164    1.8773    0.9149 H   0  0  0  0  0  0  0  0  0  0  0  0
   -2.0583    0.2842    0.4050 H   0  0  0  0  0  0  0  0  0  0  0  0
   -1.7069   -0.5373   -1.1259 H   0  0  0  0  0  0  0  0  0  0  0  0
   -2.7075   -2.0582    0.5926 H   0  0  0  0  0  0  0  0  0  0  0  0
   -1.0835   -2.5844    0.0733 H   0  0  0  0  0  0  0  0  0  0  0  0
    2.2445    1.0964    1.4878 H   0  0  0  0  0  0  0  0  0  0  0  0
    2.6529   -0.4688    2.2409 H   0  0  0  0  0  0  0  0  0  0  0  0
    3.9589   -0.0338    0.1314 H   0  0  0  0  0  0  0  0  0  0  0  0
    2.9522   -1.4964    0.0332 H   0  0  0  0  0  0  0  0  0  0  0  0
   -0.8740   -0.4407   -2.5644 H   0  0  0  0  0  0  0  0  0  0  0  0
   -0.0840    1.1398   -2.4009 H   0  0  0  0  0  0  0  0  0  0  0  0
    1.0493   -1.2866   -3.8754 H   0  0  0  0  0  0  0  0  0  0  0  0
    0.3973    0.1970   -4.6242 H   0  0  0  0  0  0  0  0  0  0  0  0
    4.4292    1.3847   -2.1244 H   0  0  0  0  0  0  0  0  0  0  0  0
    5.1203   -0.2680   -2.0086 H   0  0  0  0  0  0  0  0  0  0  0  0
    5.1853    1.2438   -4.3488 H   0  0  0  0  0  0  0  0  0  0  0  0
    5.1693   -0.5424   -4.3392 H   0  0  0  0  0  0  0  0  0  0  0  0
    1.3931    2.0349   -2.3767 H   0  0  0  0  0  0  0  0  0  0  0  0
    3.0052    2.4098   -3.0314 H   0  0  0  0  0  0  0  0  0  0  0  0
    1.5809    2.4461   -4.0983 H   0  0  0  0  0  0  0  0  0  0  0  0
    0.4612   -2.0480    3.9473 H   0  0  0  0  0  0  0  0  0  0  0  0
  1 26  1  0  0  0  0
  1 27  1  0  0  0  0
  1 28  1  0  0  0  0
  2  1  1  1  0  0  0
  2  8  1  0  0  0  0
  2 13  1  0  0  0  0
  2  3  1  0  0  0  0
  3  4  1  0  0  0  0
  3 29  1  0  0  0  0
  3 30  1  0  0  0  0
  4  5  1  0  0  0  0
  4 31  1  0  0  0  0
  4 32  1  0  0  0  0
  5  6  2  0  0  0  0
  5  7  1  0  0  0  0
  7  8  2  0  0  0  0
  7 25  1  0  0  0  0
  8  9  1  0  0  0  0
  9 10  1  0  0  0  0
  9 33  1  0  0  0  0
  9 34  1  0  0  0  0
 10 11  1  0  0  0  0
 10 35  1  0  0  0  0
 10 36  1  0  0  0  0
 11 12  1  1  0  0  0
 11 18  1  0  0  0  0
 11 13  1  0  0  0  0
 13 14  1  6  0  0  0
 13 15  1  0  0  0  0
 15 16  1  0  0  0  0
 15 37  1  0  0  0  0
 15 38  1  0  0  0  0
 16 17  1  0  0  0  0
 16 39  1  0  0  0  0
 16 40  1  0  0  0  0
 17 22  1  0  0  0  0
 17 18  1  0  0  0  0
 17 24  1  1  0  0  0
 18 19  1  6  0  0  0
 18 20  1  0  0  0  0
 20 21  1  0  0  0  0
 20 41  1  0  0  0  0
 20 42  1  0  0  0  0
 21 22  1  0  0  0  0
 21 43  1  0  0  0  0
 21 44  1  0  0  0  0
 22 23  2  0  0  0  0
 24 45  1  0  0  0  0
 24 46  1  0  0  0  0
 24 47  1  0  0  0  0
 25 48  1  0  0  0  0
M  END
$$$$
