ZINC38945666
 OpenBabel08292219463D

 77 79  0  0  0  0  0  0  0  0999 V2000
   -0.0167    1.3781    0.0096 C   0  0  0  0  0  0  0  0  0  0  0  0
    1.1709    2.0855    0.0021 C   0  0  0  0  0  0  0  0  0  0  0  0
    2.3773    1.4107   -0.0130 C   0  0  0  0  0  0  0  0  0  0  0  0
    2.3960    0.0285   -0.0201 C   0  0  0  0  0  0  0  0  0  0  0  0
    1.2084   -0.6789   -0.0117 C   0  0  0  0  0  0  0  0  0  0  0  0
    0.0021   -0.0041    0.0020 C   0  0  0  0  0  0  0  0  0  0  0  0
    3.7112   -0.7071   -0.0376 C   0  0  0  0  0  0  0  0  0  0  0  0
    4.1714   -0.9633    1.3989 C   0  0  0  0  0  0  0  0  0  0  0  0
    5.5066   -1.7102    1.3812 C   0  0  0  0  0  0  0  0  0  0  0  0
    5.9598   -1.9625    2.7961 C   0  0  0  0  0  0  0  0  0  0  0  0
    5.2843   -1.5838    3.7235 O   0  0  0  0  0  0  0  0  0  0  0  0
    7.1141   -2.6079    3.0261 O   0  0  0  0  0  0  0  0  0  0  0  0
    7.4820   -2.8125    4.3916 C   0  0  0  0  0  0  0  0  0  0  0  0
    8.8162   -3.5588    4.4540 C   0  0  0  0  0  0  0  0  0  0  0  0
    9.2717   -3.6683    5.9105 C   0  0  0  0  0  0  0  0  0  0  0  0
   10.5711   -4.2608    5.9600 O   0  0  0  0  0  0  0  0  0  0  0  0
   11.1184   -4.4290    7.1740 C   0  0  0  0  0  0  0  0  0  0  0  0
   10.5143   -4.0844    8.1620 O   0  0  0  0  0  0  0  0  0  0  0  0
   12.4864   -5.0475    7.3048 C   0  0  0  0  0  0  0  0  0  0  0  0
   12.8725   -5.1236    8.7833 C   0  0  0  0  0  0  0  0  0  0  0  0
   14.2614   -5.7515    8.9160 C   0  0  0  0  0  0  0  0  0  0  0  0
   14.6417   -5.8265   10.3723 C   0  0  0  0  0  0  0  0  0  0  0  0
   15.3093   -4.7725   10.9675 C   0  0  0  0  0  0  0  0  0  0  0  0
   15.6581   -4.8413   12.3033 C   0  0  0  0  0  0  0  0  0  0  0  0
   15.3390   -5.9639   13.0441 C   0  0  0  0  0  0  0  0  0  0  0  0
   14.6706   -7.0176   12.4491 C   0  0  0  0  0  0  0  0  0  0  0  0
   14.3180   -6.9470   11.1144 C   0  0  0  0  0  0  0  0  0  0  0  0
    8.6556   -4.8685    3.9054 O   0  0  0  0  0  0  0  0  0  0  0  0
    9.7287   -5.4178    3.3152 C   0  0  0  0  0  0  0  0  0  0  0  0
   10.7699   -4.8069    3.2659 O   0  0  0  0  0  0  0  0  0  0  0  0
    9.6348   -6.7965    2.7139 C   0  0  0  0  0  0  0  0  0  0  0  0
   10.9865   -7.1828    2.1103 C   0  0  0  0  0  0  0  0  0  0  0  0
   10.8912   -8.5825    1.4999 C   0  0  0  0  0  0  0  0  0  0  0  0
   12.2226   -8.9630    0.9052 C   0  0  0  0  0  0  0  0  0  0  0  0
   12.5050   -8.6537   -0.4121 C   0  0  0  0  0  0  0  0  0  0  0  0
   13.7262   -9.0027   -0.9576 C   0  0  0  0  0  0  0  0  0  0  0  0
   14.6654   -9.6606   -0.1855 C   0  0  0  0  0  0  0  0  0  0  0  0
   14.3834   -9.9691    1.1322 C   0  0  0  0  0  0  0  0  0  0  0  0
   13.1637   -9.6163    1.6788 C   0  0  0  0  0  0  0  0  0  0  0  0
   -0.9591    1.9053    0.0259 H   0  0  0  0  0  0  0  0  0  0  0  0
    1.1563    3.1654    0.0076 H   0  0  0  0  0  0  0  0  0  0  0  0
    3.3051    1.9634   -0.0196 H   0  0  0  0  0  0  0  0  0  0  0  0
    1.2231   -1.7588   -0.0179 H   0  0  0  0  0  0  0  0  0  0  0  0
   -0.9258   -0.5567    0.0082 H   0  0  0  0  0  0  0  0  0  0  0  0
    3.5884   -1.6586   -0.5549 H   0  0  0  0  0  0  0  0  0  0  0  0
    4.4573   -0.1052   -0.5563 H   0  0  0  0  0  0  0  0  0  0  0  0
    4.2941   -0.0118    1.9163 H   0  0  0  0  0  0  0  0  0  0  0  0
    3.4252   -1.5652    1.9176 H   0  0  0  0  0  0  0  0  0  0  0  0
    5.3838   -2.6617    0.8639 H   0  0  0  0  0  0  0  0  0  0  0  0
    6.2527   -1.1082    0.8625 H   0  0  0  0  0  0  0  0  0  0  0  0
    7.5816   -1.8480    4.8896 H   0  0  0  0  0  0  0  0  0  0  0  0
    6.7126   -3.4015    4.8909 H   0  0  0  0  0  0  0  0  0  0  0  0
    9.5648   -3.0134    3.8792 H   0  0  0  0  0  0  0  0  0  0  0  0
    9.3087   -2.6739    6.3554 H   0  0  0  0  0  0  0  0  0  0  0  0
    8.5681   -4.2887    6.4656 H   0  0  0  0  0  0  0  0  0  0  0  0
   12.4733   -6.0514    6.8805 H   0  0  0  0  0  0  0  0  0  0  0  0
   13.2140   -4.4366    6.7703 H   0  0  0  0  0  0  0  0  0  0  0  0
   12.8857   -4.1197    9.2075 H   0  0  0  0  0  0  0  0  0  0  0  0
   12.1450   -5.7345    9.3178 H   0  0  0  0  0  0  0  0  0  0  0  0
   14.2483   -6.7555    8.4918 H   0  0  0  0  0  0  0  0  0  0  0  0
   14.9889   -5.1407    8.3815 H   0  0  0  0  0  0  0  0  0  0  0  0
   15.5586   -3.8954   10.3888 H   0  0  0  0  0  0  0  0  0  0  0  0
   16.1803   -4.0181   12.7682 H   0  0  0  0  0  0  0  0  0  0  0  0
   15.6121   -6.0179   14.0876 H   0  0  0  0  0  0  0  0  0  0  0  0
   14.4217   -7.8948   13.0278 H   0  0  0  0  0  0  0  0  0  0  0  0
   13.7925   -7.7686   10.6505 H   0  0  0  0  0  0  0  0  0  0  0  0
    9.3650   -7.5134    3.4894 H   0  0  0  0  0  0  0  0  0  0  0  0
    8.8736   -6.8015    1.9337 H   0  0  0  0  0  0  0  0  0  0  0  0
   11.2563   -6.4658    1.3348 H   0  0  0  0  0  0  0  0  0  0  0  0
   11.7477   -7.1777    2.8905 H   0  0  0  0  0  0  0  0  0  0  0  0
   10.6214   -9.2994    2.2753 H   0  0  0  0  0  0  0  0  0  0  0  0
   10.1300   -8.5875    0.7196 H   0  0  0  0  0  0  0  0  0  0  0  0
   11.7712   -8.1397   -1.0153 H   0  0  0  0  0  0  0  0  0  0  0  0
   13.9466   -8.7617   -1.9870 H   0  0  0  0  0  0  0  0  0  0  0  0
   15.6193   -9.9339   -0.6118 H   0  0  0  0  0  0  0  0  0  0  0  0
   15.1170  -10.4834    1.7353 H   0  0  0  0  0  0  0  0  0  0  0  0
   12.9448   -9.8540    2.7094 H   0  0  0  0  0  0  0  0  0  0  0  0
  1  6  2  0  0  0  0
  1  2  1  0  0  0  0
  1 40  1  0  0  0  0
  2  3  2  0  0  0  0
  2 41  1  0  0  0  0
  3  4  1  0  0  0  0
  3 42  1  0  0  0  0
  4  5  2  0  0  0  0
  4  7  1  0  0  0  0
  5  6  1  0  0  0  0
  5 43  1  0  0  0  0
  6 44  1  0  0  0  0
  7  8  1  0  0  0  0
  7 45  1  0  0  0  0
  7 46  1  0  0  0  0
  8  9  1  0  0  0  0
  8 47  1  0  0  0  0
  8 48  1  0  0  0  0
  9 10  1  0  0  0  0
  9 49  1  0  0  0  0
  9 50  1  0  0  0  0
 10 11  2  0  0  0  0
 10 12  1  0  0  0  0
 12 13  1  0  0  0  0
 13 14  1  0  0  0  0
 13 51  1  0  0  0  0
 13 52  1  0  0  0  0
 14 15  1  0  0  0  0
 14 28  1  0  0  0  0
 14 53  1  0  0  0  0
 15 16  1  0  0  0  0
 15 54  1  0  0  0  0
 15 55  1  0  0  0  0
 16 17  1  0  0  0  0
 17 18  2  0  0  0  0
 17 19  1  0  0  0  0
 19 20  1  0  0  0  0
 19 56  1  0  0  0  0
 19 57  1  0  0  0  0
 20 21  1  0  0  0  0
 20 58  1  0  0  0  0
 20 59  1  0  0  0  0
 21 22  1  0  0  0  0
 21 60  1  0  0  0  0
 21 61  1  0  0  0  0
 22 27  2  0  0  0  0
 22 23  1  0  0  0  0
 23 24  2  0  0  0  0
 23 62  1  0  0  0  0
 24 25  1  0  0  0  0
 24 63  1  0  0  0  0
 25 26  2  0  0  0  0
 25 64  1  0  0  0  0
 26 27  1  0  0  0  0
 26 65  1  0  0  0  0
 27 66  1  0  0  0  0
 28 29  1  0  0  0  0
 29 30  2  0  0  0  0
 29 31  1  0  0  0  0
 31 32  1  0  0  0  0
 31 67  1  0  0  0  0
 31 68  1  0  0  0  0
 32 33  1  0  0  0  0
 32 69  1  0  0  0  0
 32 70  1  0  0  0  0
 33 34  1  0  0  0  0
 33 71  1  0  0  0  0
 33 72  1  0  0  0  0
 34 39  2  0  0  0  0
 34 35  1  0  0  0  0
 35 36  2  0  0  0  0
 35 73  1  0  0  0  0
 36 37  1  0  0  0  0
 36 74  1  0  0  0  0
 37 38  2  0  0  0  0
 37 75  1  0  0  0  0
 38 39  1  0  0  0  0
 38 76  1  0  0  0  0
 39 77  1  0  0  0  0
M  END
$$$$
