ZINC00000655
 OpenBabel08292219463D

 47 50  0  0  1  0  0  0  0  0999 V2000
    0.2041    2.9961   -0.8971 C   0  0  0  0  0  0  0  0  0  0  0  0
    1.5310    3.1617   -0.5459 C   0  0  0  0  0  0  0  0  0  0  0  0
    2.3450    2.0562   -0.4059 C   0  0  0  0  0  0  0  0  0  0  0  0
    1.8423    0.7810   -0.6198 C   0  0  0  0  0  0  0  0  0  0  0  0
    0.5224    0.6143   -0.9816 C   0  0  0  0  0  0  0  0  0  0  0  0
   -0.2963    1.7290   -1.1125 C   0  0  0  0  0  0  0  0  0  0  0  0
   -0.0795   -0.7370   -1.2620 C   0  0  0  0  0  0  0  0  0  0  0  0
    0.7552   -1.8537   -0.6371 C   0  0  0  0  0  0  0  0  0  0  0  0
    2.1714   -1.6001   -0.9788 N   0  0  0  0  0  0  0  0  0  0  0  0
    2.7665   -0.3917   -0.4372 C   0  0  1  0  0  0  0  0  0  0  0  0
    2.8651   -0.5456    0.6374 H   0  0  0  0  0  0  0  0  0  0  0  0
    4.1581   -0.0843   -0.9492 C   0  0  0  0  0  0  0  0  0  0  0  0
    4.4046   -0.7530   -2.2319 N   0  0  0  0  0  0  0  0  0  0  0  0
    4.1994   -2.2122   -2.2756 C   0  0  0  0  0  0  0  0  0  0  0  0
    2.8076   -2.4817   -1.7625 C   0  0  0  0  0  0  0  0  0  0  0  0
    2.2528   -3.5169   -2.0648 O   0  0  0  0  0  0  0  0  0  0  0  0
    4.8003   -0.0644   -3.3208 C   0  0  0  0  0  0  0  0  0  0  0  0
    4.8810    1.1449   -3.2773 O   0  0  0  0  0  0  0  0  0  0  0  0
    5.1423   -0.7971   -4.5925 C   0  0  0  0  0  0  0  0  0  0  0  0
    6.5835   -1.3051   -4.5166 C   0  0  0  0  0  0  0  0  0  0  0  0
    6.9307   -2.0490   -5.8077 C   0  0  0  0  0  0  0  0  0  0  0  0
    6.7870   -1.0987   -6.9982 C   0  0  0  0  0  0  0  0  0  0  0  0
    5.3458   -0.5907   -7.0741 C   0  0  0  0  0  0  0  0  0  0  0  0
    4.9986    0.1532   -5.7830 C   0  0  0  0  0  0  0  0  0  0  0  0
   -0.4404    3.8568   -0.9981 H   0  0  0  0  0  0  0  0  0  0  0  0
    1.9290    4.1523   -0.3820 H   0  0  0  0  0  0  0  0  0  0  0  0
    3.3808    2.1846   -0.1284 H   0  0  0  0  0  0  0  0  0  0  0  0
   -1.3335    1.6023   -1.3854 H   0  0  0  0  0  0  0  0  0  0  0  0
   -1.0880   -0.7714   -0.8500 H   0  0  0  0  0  0  0  0  0  0  0  0
   -0.1296   -0.8890   -2.3402 H   0  0  0  0  0  0  0  0  0  0  0  0
    0.6295   -1.8475    0.4457 H   0  0  0  0  0  0  0  0  0  0  0  0
    0.4445   -2.8174   -1.0405 H   0  0  0  0  0  0  0  0  0  0  0  0
    4.2614    0.9928   -1.0811 H   0  0  0  0  0  0  0  0  0  0  0  0
    4.8920   -0.4270   -0.2197 H   0  0  0  0  0  0  0  0  0  0  0  0
    4.2927   -2.5698   -3.3010 H   0  0  0  0  0  0  0  0  0  0  0  0
    4.9321   -2.7094   -1.6400 H   0  0  0  0  0  0  0  0  0  0  0  0
    4.4653   -1.6421   -4.7183 H   0  0  0  0  0  0  0  0  0  0  0  0
    7.2604   -0.4601   -4.3908 H   0  0  0  0  0  0  0  0  0  0  0  0
    6.6858   -1.9821   -3.6685 H   0  0  0  0  0  0  0  0  0  0  0  0
    7.9575   -2.4109   -5.7536 H   0  0  0  0  0  0  0  0  0  0  0  0
    6.2538   -2.8940   -5.9335 H   0  0  0  0  0  0  0  0  0  0  0  0
    7.4640   -0.2537   -6.8724 H   0  0  0  0  0  0  0  0  0  0  0  0
    7.0344   -1.6287   -7.9180 H   0  0  0  0  0  0  0  0  0  0  0  0
    5.2435    0.0863   -7.9223 H   0  0  0  0  0  0  0  0  0  0  0  0
    4.6689   -1.4357   -7.2000 H   0  0  0  0  0  0  0  0  0  0  0  0
    3.9719    0.5151   -5.8371 H   0  0  0  0  0  0  0  0  0  0  0  0
    5.6756    0.9982   -5.6572 H   0  0  0  0  0  0  0  0  0  0  0  0
  1  6  2  0  0  0  0
  1  2  1  0  0  0  0
  1 25  1  0  0  0  0
  2  3  2  0  0  0  0
  2 26  1  0  0  0  0
  3  4  1  0  0  0  0
  3 27  1  0  0  0  0
  4 10  1  0  0  0  0
  4  5  2  0  0  0  0
  5  6  1  0  0  0  0
  5  7  1  0  0  0  0
  6 28  1  0  0  0  0
  7  8  1  0  0  0  0
  7 29  1  0  0  0  0
  7 30  1  0  0  0  0
  8  9  1  0  0  0  0
  8 31  1  0  0  0  0
  8 32  1  0  0  0  0
  9 15  1  0  0  0  0
  9 10  1  0  0  0  0
 10 11  1  1  0  0  0
 10 12  1  0  0  0  0
 12 13  1  0  0  0  0
 12 33  1  0  0  0  0
 12 34  1  0  0  0  0
 13 14  1  0  0  0  0
 13 17  1  0  0  0  0
 14 15  1  0  0  0  0
 14 35  1  0  0  0  0
 14 36  1  0  0  0  0
 15 16  2  0  0  0  0
 17 18  2  0  0  0  0
 17 19  1  0  0  0  0
 19 24  1  0  0  0  0
 19 20  1  0  0  0  0
 19 37  1  0  0  0  0
 20 21  1  0  0  0  0
 20 38  1  0  0  0  0
 20 39  1  0  0  0  0
 21 22  1  0  0  0  0
 21 40  1  0  0  0  0
 21 41  1  0  0  0  0
 22 23  1  0  0  0  0
 22 42  1  0  0  0  0
 22 43  1  0  0  0  0
 23 24  1  0  0  0  0
 23 44  1  0  0  0  0
 23 45  1  0  0  0  0
 24 46  1  0  0  0  0
 24 47  1  0  0  0  0
M  END
$$$$
