ZINC14879985
 OpenBabel08292219463D

 53 56  0  0  1  0  0  0  0  0999 V2000
    0.8673    0.7661    0.1693 C   0  0  0  0  0  0  0  0  0  0  0  0
    0.6153   -0.6758    0.2928 N   0  0  0  0  0  0  0  0  0  0  0  0
    1.2531   -1.2203    1.4990 C   0  0  0  0  0  0  0  0  0  0  0  0
   -0.8257   -0.9610    0.2849 C   0  0  1  0  0  0  0  0  0  0  0  0
   -1.3008   -0.4158   -0.5306 H   0  0  0  0  0  0  0  0  0  0  0  0
   -1.0491   -2.4618    0.0953 C   0  0  2  0  0  0  0  0  0  0  0  0
   -0.5750   -3.0049    0.9129 H   0  0  0  0  0  0  0  0  0  0  0  0
   -0.4637   -2.9283   -1.2277 C   0  0  2  0  0  0  0  0  0  0  0  0
    0.5441   -2.5245   -1.3241 H   0  0  0  0  0  0  0  0  0  0  0  0
   -1.2702   -2.5056   -2.4329 C   0  0  2  0  0  0  0  0  0  0  0  0
   -1.5797   -3.4194   -2.9402 H   0  0  0  0  0  0  0  0  0  0  0  0
   -0.4055   -1.7428   -3.4090 C   0  0  0  0  0  0  0  0  0  0  0  0
    0.9076   -1.6525   -3.2361 C   0  0  0  0  0  0  0  0  0  0  0  0
   -1.0694   -1.0996   -4.5630 C   0  0  0  0  0  0  0  0  0  0  0  0
   -0.4108   -0.9093   -5.7693 C   0  0  0  0  0  0  0  0  0  0  0  0
   -1.0742   -0.3103   -6.8255 C   0  0  0  0  0  0  0  0  0  0  0  0
   -2.3880    0.1001   -6.6895 C   0  0  0  0  0  0  0  0  0  0  0  0
   -3.0638   -0.0773   -5.4906 C   0  0  0  0  0  0  0  0  0  0  0  0
   -2.4077   -0.6783   -4.4120 C   0  0  0  0  0  0  0  0  0  0  0  0
   -3.0829   -0.8745   -3.1192 C   0  0  0  0  0  0  0  0  0  0  0  0
   -2.5139   -1.7327   -2.1416 C   0  0  0  0  0  0  0  0  0  0  0  0
   -3.1516   -1.8217   -0.9545 C   0  0  0  0  0  0  0  0  0  0  0  0
   -4.2887   -1.1342   -0.7266 O   0  5  0  0  0  0  0  0  0  0  0  0
   -2.5617   -2.7424    0.1041 C   0  0  2  0  0  0  0  0  0  0  0  0
   -3.1155   -2.3166    1.4428 C   0  0  0  0  0  0  0  0  0  0  0  0
   -4.0584   -2.9101    1.9260 O   0  0  0  0  0  0  0  0  0  0  0  0
   -2.5378   -1.2298    2.1330 C   0  0  0  0  0  0  0  0  0  0  0  0
   -3.0712   -0.8336    3.3690 C   0  0  0  0  0  0  0  0  0  0  0  0
   -4.0386   -1.5726    3.9555 N   0  0  0  0  0  0  0  0  0  0  0  0
   -2.6198    0.2813    3.9696 O   0  0  0  0  0  0  0  0  0  0  0  0
   -1.4317   -0.5337    1.5980 C   0  0  0  0  0  0  0  0  0  0  0  0
   -0.9645    0.4127    2.1987 O   0  0  0  0  0  0  0  0  0  0  0  0
   -2.8315   -4.1192   -0.1675 O   0  0  0  0  0  0  0  0  0  0  0  0
   -4.1255   -0.2896   -2.8843 O   0  0  0  0  0  0  0  0  0  0  0  0
   -4.3521    0.3294   -5.3659 O   0  0  0  0  0  0  0  0  0  0  0  0
   -0.3830   -4.3549   -1.2133 O   0  0  0  0  0  0  0  0  0  0  0  0
    1.9379    0.9400    0.0618 H   0  0  0  0  0  0  0  0  0  0  0  0
    0.3467    1.1522   -0.7071 H   0  0  0  0  0  0  0  0  0  0  0  0
    0.5042    1.2761    1.0616 H   0  0  0  0  0  0  0  0  0  0  0  0
    0.8523   -0.7187    2.3798 H   0  0  0  0  0  0  0  0  0  0  0  0
    1.0508   -2.2892    1.5659 H   0  0  0  0  0  0  0  0  0  0  0  0
    2.3295   -1.0568    1.4461 H   0  0  0  0  0  0  0  0  0  0  0  0
    1.3782   -2.1530   -2.4027 H   0  0  0  0  0  0  0  0  0  0  0  0
    1.5053   -1.0785   -3.9287 H   0  0  0  0  0  0  0  0  0  0  0  0
    0.6151   -1.2270   -5.8832 H   0  0  0  0  0  0  0  0  0  0  0  0
   -0.5615   -0.1615   -7.7643 H   0  0  0  0  0  0  0  0  0  0  0  0
   -2.8927    0.5636   -7.5243 H   0  0  0  0  0  0  0  0  0  0  0  0
   -4.0454   -2.5366    3.8472 H   0  0  0  0  0  0  0  0  0  0  0  0
   -4.7263   -1.1392    4.4848 H   0  0  0  0  0  0  0  0  0  0  0  0
   -3.0467    0.4725    4.8159 H   0  0  0  0  0  0  0  0  0  0  0  0
   -3.7724   -4.3421   -0.1720 H   0  0  0  0  0  0  0  0  0  0  0  0
   -5.0024   -0.3457   -5.6033 H   0  0  0  0  0  0  0  0  0  0  0  0
   -0.0186   -4.7365   -2.0237 H   0  0  0  0  0  0  0  0  0  0  0  0
  1  2  1  0  0  0  0
  1 37  1  0  0  0  0
  1 38  1  0  0  0  0
  1 39  1  0  0  0  0
  2  3  1  0  0  0  0
  2  4  1  0  0  0  0
  3 40  1  0  0  0  0
  3 41  1  0  0  0  0
  3 42  1  0  0  0  0
  4  5  1  6  0  0  0
  4 31  1  0  0  0  0
  4  6  1  0  0  0  0
  6  7  1  1  0  0  0
  6 24  1  0  0  0  0
  6  8  1  0  0  0  0
  8  9  1  6  0  0  0
  8 10  1  0  0  0  0
  8 36  1  0  0  0  0
 10 11  1  6  0  0  0
 10 21  1  0  0  0  0
 10 12  1  0  0  0  0
 12 13  2  0  0  0  0
 12 14  1  0  0  0  0
 13 43  1  0  0  0  0
 13 44  1  0  0  0  0
 14 19  2  0  0  0  0
 14 15  1  0  0  0  0
 15 16  2  0  0  0  0
 15 45  1  0  0  0  0
 16 17  1  0  0  0  0
 16 46  1  0  0  0  0
 17 18  2  0  0  0  0
 17 47  1  0  0  0  0
 18 19  1  0  0  0  0
 18 35  1  0  0  0  0
 19 20  1  0  0  0  0
 20 21  1  0  0  0  0
 20 34  2  0  0  0  0
 21 22  2  0  0  0  0
 22 23  1  0  0  0  0
 22 24  1  0  0  0  0
 24 25  1  0  0  0  0
 24 33  1  6  0  0  0
 25 26  2  0  0  0  0
 25 27  1  0  0  0  0
 27 28  2  0  0  0  0
 27 31  1  0  0  0  0
 28 29  1  0  0  0  0
 28 30  1  0  0  0  0
 29 48  1  0  0  0  0
 29 49  1  0  0  0  0
 30 50  1  0  0  0  0
 31 32  2  0  0  0  0
 33 51  1  0  0  0  0
 35 52  1  0  0  0  0
 36 53  1  0  0  0  0
M  CHG  1  23  -1
M  END
$$$$
