ZINC03831430
 OpenBabel08292219463D

 35 37  0  0  1  0  0  0  0  0999 V2000
   -0.0187    1.5258    0.0104 C   0  0  0  0  0  0  0  0  0  0  0  0
    0.0021   -0.0041    0.0020 C   0  0  2  0  0  0  0  0  0  0  0  0
   -1.0205   -0.3814    0.0098 H   0  0  0  0  0  0  0  0  0  0  0  0
    0.7421   -0.5109    1.2415 C   0  0  1  0  0  0  0  0  0  0  0  0
    0.0259   -0.0175    2.5003 C   0  0  0  0  0  0  0  0  0  0  0  0
    0.7659   -0.5243    3.7399 C   0  0  1  0  0  0  0  0  0  0  0  0
    0.7867   -2.0542    3.7315 C   0  0  0  0  0  0  0  0  0  0  0  0
    1.5028   -2.5476    2.4727 C   0  0  1  0  0  0  0  0  0  0  0  0
    0.7628   -2.0407    1.2331 C   0  0  0  0  0  0  0  0  0  0  0  0
    2.9382   -2.0180    2.4618 C   0  0  0  0  0  0  0  0  0  0  0  0
    2.9174   -0.4882    2.4702 C   0  0  2  0  0  0  0  0  0  0  0  0
    2.2013    0.0053    3.7290 C   0  0  0  0  0  0  0  0  0  0  0  0
    2.1775    0.0187    1.2307 C   0  0  0  0  0  0  0  0  0  0  0  0
    0.6897   -0.4778   -1.2066 N   0  3  0  0  0  0  0  0  0  0  0  0
    1.0039    1.9031    0.0027 H   0  0  0  0  0  0  0  0  0  0  0  0
   -0.5459    1.8868   -0.8726 H   0  0  0  0  0  0  0  0  0  0  0  0
   -0.5289    1.8773    0.9072 H   0  0  0  0  0  0  0  0  0  0  0  0
    0.0111    1.0724    2.5063 H   0  0  0  0  0  0  0  0  0  0  0  0
   -0.9967   -0.3948    2.5081 H   0  0  0  0  0  0  0  0  0  0  0  0
    0.2557   -0.1728    4.6367 H   0  0  0  0  0  0  0  0  0  0  0  0
    1.3139   -2.4152    4.6145 H   0  0  0  0  0  0  0  0  0  0  0  0
   -0.2359   -2.4314    3.7392 H   0  0  0  0  0  0  0  0  0  0  0  0
    1.5176   -3.6375    2.4667 H   0  0  0  0  0  0  0  0  0  0  0  0
   -0.2598   -2.4180    1.2409 H   0  0  0  0  0  0  0  0  0  0  0  0
    1.2730   -2.3923    0.3363 H   0  0  0  0  0  0  0  0  0  0  0  0
    3.4654   -2.3791    3.3449 H   0  0  0  0  0  0  0  0  0  0  0  0
    3.4484   -2.3695    1.5650 H   0  0  0  0  0  0  0  0  0  0  0  0
    3.9400   -0.1109    2.4625 H   0  0  0  0  0  0  0  0  0  0  0  0
    2.1865    1.0951    3.7350 H   0  0  0  0  0  0  0  0  0  0  0  0
    2.7285   -0.3558    4.6121 H   0  0  0  0  0  0  0  0  0  0  0  0
    2.6876   -0.3328    0.3339 H   0  0  0  0  0  0  0  0  0  0  0  0
    2.1627    1.1086    1.2367 H   0  0  0  0  0  0  0  0  0  0  0  0
    1.6363   -0.1286   -1.2138 H   0  0  0  0  0  0  0  0  0  0  0  0
    0.7033   -1.4867   -1.2121 H   0  0  0  0  0  0  0  0  0  0  0  0
    0.2017   -0.1436   -2.0240 H   0  0  0  0  0  0  0  0  0  0  0  0
  1  2  1  0  0  0  0
  1 15  1  0  0  0  0
  1 16  1  0  0  0  0
  1 17  1  0  0  0  0
  2  3  1  1  0  0  0
  2 14  1  0  0  0  0
  4  2  1  6  0  0  0
  4  9  1  0  0  0  0
  4 13  1  0  0  0  0
  4  5  1  0  0  0  0
  5  6  1  0  0  0  0
  5 18  1  0  0  0  0
  5 19  1  0  0  0  0
  6 12  1  0  0  0  0
  6  7  1  0  0  0  0
  6 20  1  1  0  0  0
  7  8  1  0  0  0  0
  7 21  1  0  0  0  0
  7 22  1  0  0  0  0
  8  9  1  0  0  0  0
  8 10  1  0  0  0  0
  8 23  1  6  0  0  0
  9 24  1  0  0  0  0
  9 25  1  0  0  0  0
 10 11  1  0  0  0  0
 10 26  1  0  0  0  0
 10 27  1  0  0  0  0
 11 12  1  0  0  0  0
 11 13  1  0  0  0  0
 11 28  1  6  0  0  0
 12 29  1  0  0  0  0
 12 30  1  0  0  0  0
 13 31  1  0  0  0  0
 13 32  1  0  0  0  0
 14 33  1  0  0  0  0
 14 34  1  0  0  0  0
 14 35  1  0  0  0  0
M  CHG  1  14   1
M  END
$$$$
