ZINC03871541
 OpenBabel08292219463D

 23 25  0  0  0  0  0  0  0  0999 V2000
   -0.0167    1.3818    0.0096 C   0  0  0  0  0  0  0  0  0  0  0  0
    1.1730    2.0855    0.0021 C   0  0  0  0  0  0  0  0  0  0  0  0
    2.3795    1.4087   -0.0118 C   0  0  0  0  0  0  0  0  0  0  0  0
    2.4012    0.0230   -0.0121 C   0  0  0  0  0  0  0  0  0  0  0  0
    1.2161   -0.6839   -0.0024 C   0  0  0  0  0  0  0  0  0  0  0  0
    0.0021   -0.0041    0.0020 C   0  0  0  0  0  0  0  0  0  0  0  0
   -1.2057   -0.7291   -0.0161 N   0  0  0  0  0  0  0  0  0  0  0  0
   -1.1533   -1.9438   -0.6660 C   0  0  0  0  0  0  0  0  0  0  0  0
   -2.0998   -2.5666   -1.3211 N   0  0  0  0  0  0  0  0  0  0  0  0
   -1.6897   -3.7244   -1.8394 C   0  0  0  0  0  0  0  0  0  0  0  0
   -2.3508   -4.5075   -2.4929 O   0  0  0  0  0  0  0  0  0  0  0  0
   -0.2284   -3.8667   -1.4477 C   0  0  0  0  0  0  0  0  0  0  0  0
    0.0226   -2.6562   -0.6731 N   0  0  0  0  0  0  0  0  0  0  0  0
    1.2336   -2.1979    0.0095 C   0  0  0  0  0  0  0  0  0  0  0  0
    3.9174   -0.8224   -0.0251 Cl  0  0  0  0  0  0  0  0  0  0  0  0
    3.8705    2.2977   -0.0285 Cl  0  0  0  0  0  0  0  0  0  0  0  0
   -0.9584    1.9104    0.0260 H   0  0  0  0  0  0  0  0  0  0  0  0
    1.1607    3.1654    0.0066 H   0  0  0  0  0  0  0  0  0  0  0  0
   -2.0170   -0.3970    0.3991 H   0  0  0  0  0  0  0  0  0  0  0  0
   -0.0785   -4.7550   -0.8341 H   0  0  0  0  0  0  0  0  0  0  0  0
    0.4069   -3.8967   -2.3329 H   0  0  0  0  0  0  0  0  0  0  0  0
    2.1154   -2.5622   -0.5175 H   0  0  0  0  0  0  0  0  0  0  0  0
    1.2396   -2.5600    1.0376 H   0  0  0  0  0  0  0  0  0  0  0  0
  1  6  2  0  0  0  0
  1  2  1  0  0  0  0
  1 17  1  0  0  0  0
  2  3  2  0  0  0  0
  2 18  1  0  0  0  0
  3  4  1  0  0  0  0
  3 16  1  0  0  0  0
  4  5  2  0  0  0  0
  4 15  1  0  0  0  0
  5 14  1  0  0  0  0
  5  6  1  0  0  0  0
  6  7  1  0  0  0  0
  7  8  1  0  0  0  0
  7 19  1  0  0  0  0
  8 13  1  0  0  0  0
  8  9  2  0  0  0  0
  9 10  1  0  0  0  0
 10 11  2  0  0  0  0
 10 12  1  0  0  0  0
 12 13  1  0  0  0  0
 12 20  1  0  0  0  0
 12 21  1  0  0  0  0
 13 14  1  0  0  0  0
 14 22  1  0  0  0  0
 14 23  1  0  0  0  0
M  END
$$$$
