ZINC03830431
 OpenBabel08292219463D

 70 74  0  0  1  0  0  0  0  0999 V2000
   -3.8776   -2.3649   -4.3033 C   0  0  0  0  0  0  0  0  0  0  0  0
   -3.9128   -2.7075   -2.8126 C   0  0  0  0  0  0  0  0  0  0  0  0
   -2.5434   -2.8043   -2.3013 N   0  0  0  0  0  0  0  0  0  0  0  0
   -1.8448   -4.0898   -2.3247 C   0  0  0  0  0  0  0  0  0  0  0  0
   -0.3678   -3.8907   -2.6524 C   0  0  0  0  0  0  0  0  0  0  0  0
    0.2223   -2.8828   -1.7711 N   0  0  0  0  0  0  0  0  0  0  0  0
   -0.4920   -1.7988   -1.4078 C   0  0  0  0  0  0  0  0  0  0  0  0
    0.0254   -0.9075   -0.7679 O   0  0  0  0  0  0  0  0  0  0  0  0
   -1.9320   -1.7101   -1.8053 C   0  0  0  0  0  0  0  0  0  0  0  0
   -2.5407   -0.6674   -1.6832 O   0  0  0  0  0  0  0  0  0  0  0  0
    1.4831   -3.0387   -1.3210 C   0  0  0  0  0  0  0  0  0  0  0  0
    2.0025   -2.1657   -0.6537 O   0  0  0  0  0  0  0  0  0  0  0  0
    2.1679   -4.1628   -1.6108 N   0  0  0  0  0  0  0  0  0  0  0  0
    3.4901   -4.3875   -1.0212 C   0  0  1  0  0  0  0  0  0  0  0  0
    4.0136   -3.4359   -0.9296 H   0  0  0  0  0  0  0  0  0  0  0  0
    3.3328   -5.0077    0.3432 C   0  0  0  0  0  0  0  0  0  0  0  0
    2.3664   -5.9736    0.5551 C   0  0  0  0  0  0  0  0  0  0  0  0
    2.2240   -6.5477    1.8035 C   0  0  0  0  0  0  0  0  0  0  0  0
    3.0441   -6.1462    2.8479 C   0  0  0  0  0  0  0  0  0  0  0  0
    4.0092   -5.1728    2.6342 C   0  0  0  0  0  0  0  0  0  0  0  0
    4.1514   -4.6058    1.3825 C   0  0  0  0  0  0  0  0  0  0  0  0
    2.9026   -6.7058    4.0783 O   0  0  0  0  0  0  0  0  0  0  0  0
    4.2836   -5.3143   -1.9058 C   0  0  0  0  0  0  0  0  0  0  0  0
    3.7930   -5.7447   -2.9281 O   0  0  0  0  0  0  0  0  0  0  0  0
    5.5384   -5.6649   -1.5609 N   0  0  0  0  0  0  0  0  0  0  0  0
    6.3098   -6.5658   -2.4209 C   0  0  1  0  0  0  0  0  0  0  0  0
    5.9859   -6.5308   -3.4610 H   0  0  0  0  0  0  0  0  0  0  0  0
    7.8126   -6.4168   -2.2512 C   0  0  2  0  0  0  0  0  0  0  0  0
    8.4017   -6.4423   -3.1680 H   0  0  0  0  0  0  0  0  0  0  0  0
    7.6737   -7.7040   -1.5065 N   0  0  0  0  0  0  0  0  0  0  0  0
    6.4110   -7.9723   -1.8740 C   0  0  0  0  0  0  0  0  0  0  0  0
    5.6702   -8.9299   -1.7996 O   0  0  0  0  0  0  0  0  0  0  0  0
    8.6119   -8.2463   -0.6042 C   0  0  0  0  0  0  0  0  0  0  0  0
    9.5314   -7.4746   -0.0487 C   0  0  0  0  0  0  0  0  0  0  0  0
    9.7855   -6.0197   -0.2746 C   0  0  0  0  0  0  0  0  0  0  0  0
    8.3455   -5.1872   -1.0127 S   0  0  0  0  0  0  0  0  0  0  0  0
   10.4425   -8.1518    0.9425 C   0  0  0  0  0  0  0  0  0  0  0  0
   11.8425   -8.8928    0.0667 S   0  0  0  0  0  0  0  0  0  0  0  0
   12.7173   -9.5940    1.4260 C   0  0  0  0  0  0  0  0  0  0  0  0
   12.3667   -9.5399    2.6926 N   0  0  0  0  0  0  0  0  0  0  0  0
   13.2261  -10.1531    3.4238 N   0  0  0  0  0  0  0  0  0  0  0  0
   14.1723  -10.6359    2.6936 N   0  0  0  0  0  0  0  0  0  0  0  0
   13.8739  -10.2950    1.3627 N   0  0  0  0  0  0  0  0  0  0  0  0
   14.6495  -10.6252    0.1646 C   0  0  0  0  0  0  0  0  0  0  0  0
    8.5677   -9.6831   -0.2779 C   0  0  0  0  0  0  0  0  0  0  0  0
    7.5564  -10.3230   -0.4879 O   0  0  0  0  0  0  0  0  0  0  0  0
   -3.3686   -1.4115   -4.4451 H   0  0  0  0  0  0  0  0  0  0  0  0
   -3.3425   -3.1462   -4.8432 H   0  0  0  0  0  0  0  0  0  0  0  0
   -4.8965   -2.2929   -4.6838 H   0  0  0  0  0  0  0  0  0  0  0  0
   -4.4218   -3.6609   -2.6709 H   0  0  0  0  0  0  0  0  0  0  0  0
   -4.4478   -1.9262   -2.2728 H   0  0  0  0  0  0  0  0  0  0  0  0
   -1.9355   -4.5661   -1.3484 H   0  0  0  0  0  0  0  0  0  0  0  0
   -2.2976   -4.7314   -3.0806 H   0  0  0  0  0  0  0  0  0  0  0  0
   -0.2701   -3.5645   -3.6879 H   0  0  0  0  0  0  0  0  0  0  0  0
    0.1596   -4.8357   -2.5218 H   0  0  0  0  0  0  0  0  0  0  0  0
    1.7854   -4.8229   -2.2098 H   0  0  0  0  0  0  0  0  0  0  0  0
    1.7253   -6.2827   -0.2573 H   0  0  0  0  0  0  0  0  0  0  0  0
    1.4719   -7.3053    1.9674 H   0  0  0  0  0  0  0  0  0  0  0  0
    4.6491   -4.8588    3.4456 H   0  0  0  0  0  0  0  0  0  0  0  0
    4.9028   -3.8483    1.2155 H   0  0  0  0  0  0  0  0  0  0  0  0
    2.2780   -6.2413    4.6521 H   0  0  0  0  0  0  0  0  0  0  0  0
    5.9308   -5.3207   -0.7433 H   0  0  0  0  0  0  0  0  0  0  0  0
   10.6404   -5.9081   -0.9415 H   0  0  0  0  0  0  0  0  0  0  0  0
   10.0169   -5.5484    0.6806 H   0  0  0  0  0  0  0  0  0  0  0  0
   10.8098   -7.4173    1.6592 H   0  0  0  0  0  0  0  0  0  0  0  0
    9.8910   -8.9300    1.4701 H   0  0  0  0  0  0  0  0  0  0  0  0
   15.3760   -9.8355   -0.0270 H   0  0  0  0  0  0  0  0  0  0  0  0
   15.1716  -11.5696    0.3186 H   0  0  0  0  0  0  0  0  0  0  0  0
   13.9781  -10.7163   -0.6892 H   0  0  0  0  0  0  0  0  0  0  0  0
    9.6491  -10.2870    0.2535 O   0  0  0  0  0  1  0  0  0  0  0  0
  1  2  1  0  0  0  0
  1 47  1  0  0  0  0
  1 48  1  0  0  0  0
  1 49  1  0  0  0  0
  2  3  1  0  0  0  0
  2 50  1  0  0  0  0
  2 51  1  0  0  0  0
  3  9  1  0  0  0  0
  3  4  1  0  0  0  0
  4  5  1  0  0  0  0
  4 52  1  0  0  0  0
  4 53  1  0  0  0  0
  5  6  1  0  0  0  0
  5 54  1  0  0  0  0
  5 55  1  0  0  0  0
  6  7  1  0  0  0  0
  6 11  1  0  0  0  0
  7  8  2  0  0  0  0
  7  9  1  0  0  0  0
  9 10  2  0  0  0  0
 11 12  2  0  0  0  0
 11 13  1  0  0  0  0
 13 14  1  0  0  0  0
 13 56  1  0  0  0  0
 14 15  1  1  0  0  0
 14 16  1  0  0  0  0
 14 23  1  0  0  0  0
 16 21  2  0  0  0  0
 16 17  1  0  0  0  0
 17 18  2  0  0  0  0
 17 57  1  0  0  0  0
 18 19  1  0  0  0  0
 18 58  1  0  0  0  0
 19 20  2  0  0  0  0
 19 22  1  0  0  0  0
 20 21  1  0  0  0  0
 20 59  1  0  0  0  0
 21 60  1  0  0  0  0
 22 61  1  0  0  0  0
 23 24  2  0  0  0  0
 23 25  1  0  0  0  0
 25 26  1  0  0  0  0
 25 62  1  0  0  0  0
 26 27  1  6  0  0  0
 26 31  1  0  0  0  0
 26 28  1  0  0  0  0
 28 29  1  6  0  0  0
 28 36  1  0  0  0  0
 28 30  1  0  0  0  0
 30 31  1  0  0  0  0
 30 33  1  0  0  0  0
 31 32  2  0  0  0  0
 33 34  2  0  0  0  0
 33 45  1  0  0  0  0
 34 35  1  0  0  0  0
 34 37  1  0  0  0  0
 35 36  1  0  0  0  0
 35 63  1  0  0  0  0
 35 64  1  0  0  0  0
 37 38  1  0  0  0  0
 37 65  1  0  0  0  0
 37 66  1  0  0  0  0
 38 39  1  0  0  0  0
 39 43  1  0  0  0  0
 39 40  2  0  0  0  0
 40 41  1  0  0  0  0
 41 42  2  0  0  0  0
 42 43  1  0  0  0  0
 43 44  1  0  0  0  0
 44 67  1  0  0  0  0
 44 68  1  0  0  0  0
 44 69  1  0  0  0  0
 45 46  2  0  0  0  0
 45 70  1  0  0  0  0
M  END
$$$$
