ZINC00895103
 OpenBabel08292219463D

 17 16  0  0  1  0  0  0  0  0999 V2000
   -0.0187    1.5258    0.0104 C   0  0  0  0  0  0  0  0  0  0  0  0
    0.0021   -0.0041    0.0020 C   0  0  2  0  0  0  0  0  0  0  0  0
    0.5123   -0.3556   -0.8948 H   0  0  0  0  0  0  0  0  0  0  0  0
   -1.4333   -0.5336    0.0129 C   0  0  1  0  0  0  0  0  0  0  0  0
   -1.9334   -0.2470   -0.9122 H   0  0  0  0  0  0  0  0  0  0  0  0
   -1.4136   -2.0361    0.1285 C   0  0  0  0  0  0  0  0  0  0  0  0
   -1.4274   -2.5632    1.2278 O   0  0  0  0  0  0  0  0  0  0  0  0
   -1.3838   -2.7245   -0.8773 O   0  0  0  0  0  1  0  0  0  0  0  0
   -2.1568    0.0360    1.1574 N   0  3  0  0  0  0  0  0  0  0  0  0
    0.6932   -0.4774    1.1597 O   0  0  0  0  0  0  0  0  0  0  0  0
    1.0039    1.9031    0.0027 H   0  0  0  0  0  0  0  0  0  0  0  0
   -0.5459    1.8868   -0.8726 H   0  0  0  0  0  0  0  0  0  0  0  0
   -0.5289    1.8773    0.9072 H   0  0  0  0  0  0  0  0  0  0  0  0
   -3.1034   -0.3132    1.1646 H   0  0  0  0  0  0  0  0  0  0  0  0
   -1.6939   -0.2293    2.0138 H   0  0  0  0  0  0  0  0  0  0  0  0
    1.6114   -0.1800    1.2187 H   0  0  0  0  0  0  0  0  0  0  0  0
   -2.1700    1.0420    1.0800 H   0  0  0  0  0  0  0  0  0  0  0  0
  1  2  1  0  0  0  0
  1 11  1  0  0  0  0
  1 12  1  0  0  0  0
  1 13  1  0  0  0  0
  2  3  1  6  0  0  0
  2  4  1  0  0  0  0
  2 10  1  0  0  0  0
  4  5  1  6  0  0  0
  4  6  1  0  0  0  0
  4  9  1  0  0  0  0
  6  7  2  0  0  0  0
  6  8  1  0  0  0  0
  9 14  1  0  0  0  0
  9 15  1  0  0  0  0
  9 17  1  0  0  0  0
 10 16  1  0  0  0  0
M  CHG  1   9   1
M  END
$$$$
