ZINC03978006
 OpenBabel08292219463D

 46 49  0  0  1  0  0  0  0  0999 V2000
   -0.1577    1.4826    0.2365 C   0  0  0  0  0  0  0  0  0  0  0  0
   -0.0582   -0.0155    0.1072 C   0  0  0  0  0  0  0  0  0  0  0  0
   -1.0932   -0.8972    0.2148 C   0  0  0  0  0  0  0  0  0  0  0  0
   -0.5280   -2.2409    0.0188 C   0  0  0  0  0  0  0  0  0  0  0  0
    0.7559   -2.0874   -0.1854 N   0  0  0  0  0  0  0  0  0  0  0  0
    1.0576   -0.7071   -0.1382 O   0  0  0  0  0  0  0  0  0  0  0  0
   -1.2705   -3.5240    0.0471 C   0  0  0  0  0  0  0  0  0  0  0  0
   -2.3058   -3.7542   -0.8588 C   0  0  0  0  0  0  0  0  0  0  0  0
   -2.9934   -4.9519   -0.8276 C   0  0  0  0  0  0  0  0  0  0  0  0
   -2.6574   -5.9216    0.0996 C   0  0  0  0  0  0  0  0  0  0  0  0
   -1.6321   -5.6993    1.0009 C   0  0  0  0  0  0  0  0  0  0  0  0
   -0.9327   -4.5083    0.9760 C   0  0  0  0  0  0  0  0  0  0  0  0
    0.3586   -4.2340    2.1034 Cl  0  0  0  0  0  0  0  0  0  0  0  0
   -2.7298   -2.5379   -2.0227 Cl  0  0  0  0  0  0  0  0  0  0  0  0
   -2.5044   -0.5675    0.4771 C   0  0  0  0  0  0  0  0  0  0  0  0
   -3.2339   -0.2435   -0.4405 O   0  0  0  0  0  0  0  0  0  0  0  0
   -2.9874   -0.6248    1.7341 N   0  0  0  0  0  0  0  0  0  0  0  0
   -4.3912   -0.2968    1.9950 C   0  0  1  0  0  0  0  0  0  0  0  0
   -5.0279   -0.4530    1.1242 H   0  0  0  0  0  0  0  0  0  0  0  0
   -4.9362   -0.9391    3.2658 C   0  0  2  0  0  0  0  0  0  0  0  0
   -5.9294   -1.3833    3.2009 H   0  0  0  0  0  0  0  0  0  0  0  0
   -4.8344    0.4259    3.8238 N   0  0  0  0  0  0  0  0  0  0  0  0
   -4.5802    1.0539    2.6401 C   0  0  0  0  0  0  0  0  0  0  0  0
   -4.5282    2.2062    2.2654 O   0  0  0  0  0  0  0  0  0  0  0  0
   -3.8353    0.6109    4.8819 C   0  0  2  0  0  0  0  0  0  0  0  0
   -2.9053    0.9627    4.4351 H   0  0  0  0  0  0  0  0  0  0  0  0
   -3.5598   -0.7109    5.6508 C   0  0  0  0  0  0  0  0  0  0  0  0
   -3.6970   -1.9053    4.2197 S   0  0  0  0  0  0  0  0  0  0  0  0
   -4.6330   -0.9812    6.7073 C   0  0  0  0  0  0  0  0  0  0  0  0
   -2.1578   -0.7236    6.2634 C   0  0  0  0  0  0  0  0  0  0  0  0
   -4.3356    1.6475    5.8545 C   0  0  0  0  0  0  0  0  0  0  0  0
   -5.4787    2.0627    5.7686 O   0  0  0  0  0  0  0  0  0  0  0  0
   -3.5972    2.0711    6.7274 O   0  0  0  0  0  1  0  0  0  0  0  0
    0.8287    1.9255    0.0989 H   0  0  0  0  0  0  0  0  0  0  0  0
   -0.8383    1.8684   -0.5225 H   0  0  0  0  0  0  0  0  0  0  0  0
   -0.5355    1.7375    1.2267 H   0  0  0  0  0  0  0  0  0  0  0  0
   -3.7952   -5.1314   -1.5285 H   0  0  0  0  0  0  0  0  0  0  0  0
   -3.1982   -6.8562    0.1202 H   0  0  0  0  0  0  0  0  0  0  0  0
   -1.3748   -6.4603    1.7227 H   0  0  0  0  0  0  0  0  0  0  0  0
   -2.4056   -0.8832    2.4659 H   0  0  0  0  0  0  0  0  0  0  0  0
   -5.6068   -1.0607    6.2239 H   0  0  0  0  0  0  0  0  0  0  0  0
   -4.4070   -1.9137    7.2245 H   0  0  0  0  0  0  0  0  0  0  0  0
   -4.6499   -0.1619    7.4260 H   0  0  0  0  0  0  0  0  0  0  0  0
   -2.0587    0.1077    6.9614 H   0  0  0  0  0  0  0  0  0  0  0  0
   -2.0013   -1.6633    6.7931 H   0  0  0  0  0  0  0  0  0  0  0  0
   -1.4147   -0.6244    5.4722 H   0  0  0  0  0  0  0  0  0  0  0  0
  1  2  1  0  0  0  0
  1 34  1  0  0  0  0
  1 35  1  0  0  0  0
  1 36  1  0  0  0  0
  2  6  1  0  0  0  0
  2  3  2  0  0  0  0
  3  4  1  0  0  0  0
  3 15  1  0  0  0  0
  4  5  2  0  0  0  0
  4  7  1  0  0  0  0
  5  6  1  0  0  0  0
  7 12  2  0  0  0  0
  7  8  1  0  0  0  0
  8  9  2  0  0  0  0
  8 14  1  0  0  0  0
  9 10  1  0  0  0  0
  9 37  1  0  0  0  0
 10 11  2  0  0  0  0
 10 38  1  0  0  0  0
 11 12  1  0  0  0  0
 11 39  1  0  0  0  0
 12 13  1  0  0  0  0
 15 16  2  0  0  0  0
 15 17  1  0  0  0  0
 17 18  1  0  0  0  0
 17 40  1  0  0  0  0
 18 19  1  6  0  0  0
 18 23  1  0  0  0  0
 18 20  1  0  0  0  0
 20 21  1  6  0  0  0
 20 28  1  0  0  0  0
 20 22  1  0  0  0  0
 22 23  1  0  0  0  0
 22 25  1  0  0  0  0
 23 24  2  0  0  0  0
 25 26  1  6  0  0  0
 25 27  1  0  0  0  0
 25 31  1  0  0  0  0
 27 28  1  0  0  0  0
 27 29  1  0  0  0  0
 27 30  1  0  0  0  0
 29 41  1  0  0  0  0
 29 42  1  0  0  0  0
 29 43  1  0  0  0  0
 30 44  1  0  0  0  0
 30 45  1  0  0  0  0
 30 46  1  0  0  0  0
 31 32  2  0  0  0  0
 31 33  1  0  0  0  0
M  END
$$$$
