ZINC00391812
 OpenBabel08292219463D

 27 28  0  0  1  0  0  0  0  0999 V2000
    0.3944    1.5372   -0.0882 C   0  0  0  0  0  0  0  0  0  0  0  0
    0.2218    0.0783   -0.0924 N   0  3  1  0  0  0  0  0  0  0  0  0
    0.9063   -0.4989   -1.2638 C   0  0  0  0  0  0  0  0  0  0  0  0
    1.9925   -1.4575   -0.7321 C   0  0  0  0  0  0  0  0  0  0  0  0
    2.2411   -0.9393    0.7089 C   0  0  0  0  0  0  0  0  0  0  0  0
    0.8181   -0.4968    1.1321 C   0  0  1  0  0  0  0  0  0  0  0  0
    0.2382   -1.3559    1.4692 H   0  0  0  0  0  0  0  0  0  0  0  0
    0.8940    0.5453    2.2181 C   0  0  0  0  0  0  0  0  0  0  0  0
    1.8431    1.5545    2.1577 C   0  0  0  0  0  0  0  0  0  0  0  0
    1.8760    2.4913    3.1790 C   0  0  0  0  0  0  0  0  0  0  0  0
    0.9680    2.3891    4.2162 C   0  0  0  0  0  0  0  0  0  0  0  0
    0.0793    1.4154    4.2410 N   0  0  0  0  0  0  0  0  0  0  0  0
    0.0150    0.5105    3.2837 C   0  0  0  0  0  0  0  0  0  0  0  0
    1.4576    1.7772   -0.0812 H   0  0  0  0  0  0  0  0  0  0  0  0
   -0.0678    1.9603   -0.9800 H   0  0  0  0  0  0  0  0  0  0  0  0
   -0.0786    1.9564    0.7999 H   0  0  0  0  0  0  0  0  0  0  0  0
    0.1926   -1.0502   -1.8760 H   0  0  0  0  0  0  0  0  0  0  0  0
    1.3676    0.2945   -1.8519 H   0  0  0  0  0  0  0  0  0  0  0  0
    1.6257   -2.4838   -0.7146 H   0  0  0  0  0  0  0  0  0  0  0  0
    2.9001   -1.3816   -1.3309 H   0  0  0  0  0  0  0  0  0  0  0  0
    2.6094   -1.7378    1.3529 H   0  0  0  0  0  0  0  0  0  0  0  0
    2.9285   -0.0933    0.7065 H   0  0  0  0  0  0  0  0  0  0  0  0
    2.5404    1.6091    1.3347 H   0  0  0  0  0  0  0  0  0  0  0  0
    2.6020    3.2907    3.1646 H   0  0  0  0  0  0  0  0  0  0  0  0
    0.9870    3.1149    5.0157 H   0  0  0  0  0  0  0  0  0  0  0  0
   -0.7302   -0.2695    3.3356 H   0  0  0  0  0  0  0  0  0  0  0  0
   -0.7608   -0.1480   -0.1301 H   0  0  0  0  0  0  0  0  0  0  0  0
  1  2  1  0  0  0  0
  1 14  1  0  0  0  0
  1 15  1  0  0  0  0
  1 16  1  0  0  0  0
  2  6  1  0  0  0  0
  2  3  1  0  0  0  0
  2 27  1  6  0  0  0
  3  4  1  0  0  0  0
  3 17  1  0  0  0  0
  3 18  1  0  0  0  0
  4  5  1  0  0  0  0
  4 19  1  0  0  0  0
  4 20  1  0  0  0  0
  5  6  1  0  0  0  0
  5 21  1  0  0  0  0
  5 22  1  0  0  0  0
  6  7  1  1  0  0  0
  6  8  1  0  0  0  0
  8 13  2  0  0  0  0
  8  9  1  0  0  0  0
  9 10  2  0  0  0  0
  9 23  1  0  0  0  0
 10 11  1  0  0  0  0
 10 24  1  0  0  0  0
 11 12  2  0  0  0  0
 11 25  1  0  0  0  0
 12 13  1  0  0  0  0
 13 26  1  0  0  0  0
M  CHG  1   2   1
M  END
$$$$
