ZINC49938464
 OpenBabel08292219463D

 43 43  0  0  0  0  0  0  0  0999 V2000
   -0.0127    1.0858    0.0080 C   0  0  0  0  0  0  0  0  0  0  0  0
   -0.7213    1.5711   -1.1789 N   0  0  0  0  0  4  0  0  0  0  0  0
   -1.9570    1.2430   -1.3735 C   0  0  0  0  0  0  0  0  0  0  0  0
   -2.6680    0.3614   -0.3794 C   0  0  0  0  0  0  0  0  0  0  0  0
   -2.4911   -1.0428   -0.7578 N   0  0  0  0  0  4  0  0  0  0  0  0
   -1.4008   -1.4468   -1.0889 O   0  0  0  0  0  0  0  0  0  0  0  0
   -3.4353   -1.7976   -0.7390 O   0  5  0  0  0  0  0  0  0  0  0  0
   -2.6196    1.6968   -2.4834 N   0  0  0  0  0  0  0  0  0  0  0  0
   -1.9283    2.5538   -3.4498 C   0  0  0  0  0  0  0  0  0  0  0  0
   -2.8862    2.9168   -4.5863 C   0  0  0  0  0  0  0  0  0  0  0  0
   -2.0303    3.9780   -5.7829 S   0  0  0  0  0  0  0  0  0  0  0  0
   -3.2857    4.3135   -7.0486 C   0  0  0  0  0  0  0  0  0  0  0  0
   -2.6973    5.1975   -8.1178 C   0  0  0  0  0  0  0  0  0  0  0  0
   -2.7569    6.5511   -8.0320 C   0  0  0  0  0  0  0  0  0  0  0  0
   -1.9195    7.0136   -9.5398 S   0  0  0  0  0  0  0  0  0  0  0  0
   -1.5902    5.4632  -10.1060 C   0  0  0  0  0  0  0  0  0  0  0  0
   -2.0964    4.6919   -9.1765 N   0  0  0  0  0  0  0  0  0  0  0  0
   -0.8800    5.0603  -11.3727 C   0  0  0  0  0  0  0  0  0  0  0  0
   -1.8586    4.9196  -12.4592 N   0  0  0  0  0  0  0  0  0  0  0  0
   -1.1865    4.7614  -13.7558 C   0  0  0  0  0  0  0  0  0  0  0  0
   -2.7746    3.8005  -12.2010 C   0  0  0  0  0  0  0  0  0  0  0  0
    0.0021   -0.0041    0.0020 H   0  0  0  0  0  0  0  0  0  0  0  0
    1.0099    1.4631    0.0003 H   0  0  0  0  0  0  0  0  0  0  0  0
   -0.5229    1.4373    0.9048 H   0  0  0  0  0  0  0  0  0  0  0  0
   -3.5464    1.4507   -2.6294 H   0  0  0  0  0  0  0  0  0  0  0  0
   -1.5924    3.4641   -2.9531 H   0  0  0  0  0  0  0  0  0  0  0  0
   -1.0675    2.0227   -3.8559 H   0  0  0  0  0  0  0  0  0  0  0  0
   -3.2221    2.0065   -5.0830 H   0  0  0  0  0  0  0  0  0  0  0  0
   -3.7471    3.4479   -4.1802 H   0  0  0  0  0  0  0  0  0  0  0  0
   -3.6132    3.3739   -7.4935 H   0  0  0  0  0  0  0  0  0  0  0  0
   -4.1382    4.8153   -6.5907 H   0  0  0  0  0  0  0  0  0  0  0  0
   -3.1904    7.1751   -7.2645 H   0  0  0  0  0  0  0  0  0  0  0  0
   -0.1495    5.8244  -11.6384 H   0  0  0  0  0  0  0  0  0  0  0  0
   -0.3708    4.1093  -11.2169 H   0  0  0  0  0  0  0  0  0  0  0  0
   -0.5587    3.8707  -13.7333 H   0  0  0  0  0  0  0  0  0  0  0  0
   -1.9340    4.6593  -14.5425 H   0  0  0  0  0  0  0  0  0  0  0  0
   -0.5681    5.6369  -13.9537 H   0  0  0  0  0  0  0  0  0  0  0  0
   -3.3106    3.9775  -11.2686 H   0  0  0  0  0  0  0  0  0  0  0  0
   -3.4884    3.7188  -13.0207 H   0  0  0  0  0  0  0  0  0  0  0  0
   -2.2043    2.8750  -12.1222 H   0  0  0  0  0  0  0  0  0  0  0  0
   -2.2515    0.5251    0.6145 H   0  0  0  0  0  0  0  0  0  0  0  0
   -3.7305    0.6048   -0.3727 H   0  0  0  0  0  0  0  0  0  0  0  0
   -0.2636    2.1386   -1.8187 H   0  0  0  0  0  0  0  0  0  0  0  0
  1 22  1  0  0  0  0
  1 23  1  0  0  0  0
  1 24  1  0  0  0  0
  1  2  1  0  0  0  0
  2  3  2  0  0  0  0
  2 43  1  0  0  0  0
  3  8  1  0  0  0  0
  3  4  1  0  0  0  0
  4  5  1  0  0  0  0
  4 41  1  0  0  0  0
  4 42  1  0  0  0  0
  5  6  2  0  0  0  0
  5  7  1  0  0  0  0
  8  9  1  0  0  0  0
  8 25  1  0  0  0  0
  9 10  1  0  0  0  0
  9 26  1  0  0  0  0
  9 27  1  0  0  0  0
 10 11  1  0  0  0  0
 10 28  1  0  0  0  0
 10 29  1  0  0  0  0
 11 12  1  0  0  0  0
 12 13  1  0  0  0  0
 12 30  1  0  0  0  0
 12 31  1  0  0  0  0
 13 17  1  0  0  0  0
 13 14  2  0  0  0  0
 14 15  1  0  0  0  0
 14 32  1  0  0  0  0
 15 16  1  0  0  0  0
 16 17  2  0  0  0  0
 16 18  1  0  0  0  0
 18 19  1  0  0  0  0
 18 33  1  0  0  0  0
 18 34  1  0  0  0  0
 19 20  1  0  0  0  0
 19 21  1  0  0  0  0
 20 35  1  0  0  0  0
 20 36  1  0  0  0  0
 20 37  1  0  0  0  0
 21 38  1  0  0  0  0
 21 39  1  0  0  0  0
 21 40  1  0  0  0  0
M  CHG  1   7  -1
M  END
$$$$
