ZINC06036847
 OpenBabel08292219463D

 24 24  0  0  1  0  0  0  0  0999 V2000
   -4.3194    0.0384    1.4672 C   0  0  0  0  0  0  0  0  0  0  0  0
   -2.9450    0.7107    1.4624 C   0  0  2  0  0  0  0  0  0  0  0  0
   -2.9998    1.6534    2.0069 H   0  0  0  0  0  0  0  0  0  0  0  0
   -2.5137    0.9795    0.0193 C   0  0  0  0  0  0  0  0  0  0  0  0
   -1.2190    1.7506    0.0173 C   0  0  0  0  0  0  0  0  0  0  0  0
   -0.0126    1.0758    0.0080 C   0  0  0  0  0  0  0  0  0  0  0  0
    1.1750    1.7832    0.0004 C   0  0  0  0  0  0  0  0  0  0  0  0
    1.1563    3.1654    0.0076 C   0  0  0  0  0  0  0  0  0  0  0  0
   -0.0501    3.8402    0.0223 C   0  0  0  0  0  0  0  0  0  0  0  0
   -1.2377    3.1328    0.0299 C   0  0  0  0  0  0  0  0  0  0  0  0
   -4.2646   -0.9043    0.9227 H   0  0  0  0  0  0  0  0  0  0  0  0
   -4.6267   -0.1531    2.4953 H   0  0  0  0  0  0  0  0  0  0  0  0
   -5.0461    0.6937    0.9868 H   0  0  0  0  0  0  0  0  0  0  0  0
   -3.2837    1.5610   -0.4877 H   0  0  0  0  0  0  0  0  0  0  0  0
   -2.3729    0.0317   -0.5003 H   0  0  0  0  0  0  0  0  0  0  0  0
    0.0021   -0.0041    0.0020 H   0  0  0  0  0  0  0  0  0  0  0  0
    2.1175    1.2560   -0.0115 H   0  0  0  0  0  0  0  0  0  0  0  0
    2.0841    3.7181    0.0014 H   0  0  0  0  0  0  0  0  0  0  0  0
   -0.0647    4.9201    0.0276 H   0  0  0  0  0  0  0  0  0  0  0  0
   -2.1802    3.6600    0.0410 H   0  0  0  0  0  0  0  0  0  0  0  0
   -2.2284   -0.3651    3.0648 H   0  0  0  0  0  0  0  0  0  0  0  0
   -1.8491   -1.0276    1.5872 H   0  0  0  0  0  0  0  0  0  0  0  0
   -1.9451   -0.1577    2.1085 N   0  3  0  0  0  0  0  0  0  0  0  0
   -1.0390    0.3249    2.1247 H   0  0  0  0  0  0  0  0  0  0  0  0
  1  2  1  0  0  0  0
  1 11  1  0  0  0  0
  1 12  1  0  0  0  0
  1 13  1  0  0  0  0
  2  3  1  1  0  0  0
  2  4  1  0  0  0  0
  2 23  1  0  0  0  0
  4  5  1  0  0  0  0
  4 14  1  0  0  0  0
  4 15  1  0  0  0  0
  5 10  2  0  0  0  0
  5  6  1  0  0  0  0
  6  7  2  0  0  0  0
  6 16  1  0  0  0  0
  7  8  1  0  0  0  0
  7 17  1  0  0  0  0
  8  9  2  0  0  0  0
  8 18  1  0  0  0  0
  9 10  1  0  0  0  0
  9 19  1  0  0  0  0
 10 20  1  0  0  0  0
 21 23  1  0  0  0  0
 22 23  1  0  0  0  0
 23 24  1  0  0  0  0
M  CHG  1  23   1
M  END
$$$$
