ZINC01812122
 OpenBabel08292219463D

 59 60  0  0  1  0  0  0  0  0999 V2000
    0.3555    0.0133   -3.5221 C   0  0  0  0  0  0  0  0  0  0  0  0
   -0.2160    0.3391   -2.1408 C   0  0  0  0  0  0  0  0  0  0  0  0
    0.5890   -0.3271   -1.1082 N   0  3  0  0  0  0  0  0  0  0  0  0
    0.0403   -0.0143    0.2181 C   0  0  0  0  0  0  0  0  0  0  0  0
    0.5545   -1.7801   -1.3222 C   0  0  0  0  0  0  0  0  0  0  0  0
   -0.8996   -2.2514   -1.3882 C   0  0  0  0  0  0  0  0  0  0  0  0
    1.9772    0.1467   -1.1881 C   0  0  0  0  0  0  0  0  0  0  0  0
    2.7812   -0.4312   -0.0217 C   0  0  0  0  0  0  0  0  0  0  0  0
    2.9233   -1.8426   -0.1942 O   0  0  0  0  0  0  0  0  0  0  0  0
    3.6085   -2.5060    0.7503 C   0  0  0  0  0  0  0  0  0  0  0  0
    4.0723   -1.9082    1.6924 O   0  0  0  0  0  0  0  0  0  0  0  0
    3.7994   -3.9965    0.6358 C   0  0  1  0  0  0  0  0  0  0  0  0
    4.9979   -4.2843   -0.2312 C   0  0  0  0  0  0  0  0  0  0  0  0
    6.2509   -4.4061    0.3398 C   0  0  0  0  0  0  0  0  0  0  0  0
    7.3503   -4.6701   -0.4555 C   0  0  0  0  0  0  0  0  0  0  0  0
    7.1966   -4.8127   -1.8219 C   0  0  0  0  0  0  0  0  0  0  0  0
    5.9435   -4.6918   -2.3928 C   0  0  0  0  0  0  0  0  0  0  0  0
    4.8435   -4.4321   -1.5970 C   0  0  0  0  0  0  0  0  0  0  0  0
    4.0227   -4.5905    2.0280 C   0  0  0  0  0  0  0  0  0  0  0  0
    4.2164   -6.1037    1.9117 C   0  0  0  0  0  0  0  0  0  0  0  0
    4.4397   -6.6978    3.3039 C   0  0  0  0  0  0  0  0  0  0  0  0
    3.2229   -6.4056    4.1842 C   0  0  0  0  0  0  0  0  0  0  0  0
    3.0291   -4.8924    4.3005 C   0  0  0  0  0  0  0  0  0  0  0  0
    2.8059   -4.2983    2.9083 C   0  0  0  0  0  0  0  0  0  0  0  0
    2.6354   -4.5821    0.0491 O   0  0  0  0  0  0  0  0  0  0  0  0
    1.3855    0.3649   -3.5814 H   0  0  0  0  0  0  0  0  0  0  0  0
    0.3299   -1.0648   -3.6809 H   0  0  0  0  0  0  0  0  0  0  0  0
   -0.2418    0.5077   -4.2882 H   0  0  0  0  0  0  0  0  0  0  0  0
   -0.1904    1.4172   -1.9820 H   0  0  0  0  0  0  0  0  0  0  0  0
   -1.2460   -0.0125   -2.0815 H   0  0  0  0  0  0  0  0  0  0  0  0
   -1.0304   -0.2183    0.2256 H   0  0  0  0  0  0  0  0  0  0  0  0
    0.5330   -0.6310    0.9698 H   0  0  0  0  0  0  0  0  0  0  0  0
    0.2112    1.0385    0.4429 H   0  0  0  0  0  0  0  0  0  0  0  0
    1.0575   -2.0215   -2.2585 H   0  0  0  0  0  0  0  0  0  0  0  0
    1.0617   -2.2809   -0.4976 H   0  0  0  0  0  0  0  0  0  0  0  0
   -1.4069   -1.7506   -2.2128 H   0  0  0  0  0  0  0  0  0  0  0  0
   -0.9252   -3.3295   -1.5469 H   0  0  0  0  0  0  0  0  0  0  0  0
   -1.4027   -2.0100   -0.4518 H   0  0  0  0  0  0  0  0  0  0  0  0
    2.4185   -0.1786   -2.1301 H   0  0  0  0  0  0  0  0  0  0  0  0
    1.9930    1.2354   -1.1362 H   0  0  0  0  0  0  0  0  0  0  0  0
    3.7672    0.0327    0.0050 H   0  0  0  0  0  0  0  0  0  0  0  0
    2.2596   -0.2302    0.9141 H   0  0  0  0  0  0  0  0  0  0  0  0
    6.3709   -4.2947    1.4073 H   0  0  0  0  0  0  0  0  0  0  0  0
    8.3293   -4.7646   -0.0094 H   0  0  0  0  0  0  0  0  0  0  0  0
    8.0556   -5.0183   -2.4433 H   0  0  0  0  0  0  0  0  0  0  0  0
    5.8235   -4.8029   -3.4604 H   0  0  0  0  0  0  0  0  0  0  0  0
    3.8639   -4.3413   -2.0426 H   0  0  0  0  0  0  0  0  0  0  0  0
    4.9105   -4.1438    2.4755 H   0  0  0  0  0  0  0  0  0  0  0  0
    3.3286   -6.5504    1.4642 H   0  0  0  0  0  0  0  0  0  0  0  0
    5.0833   -6.3119    1.2846 H   0  0  0  0  0  0  0  0  0  0  0  0
    4.5777   -7.7758    3.2211 H   0  0  0  0  0  0  0  0  0  0  0  0
    5.3276   -6.2511    3.7514 H   0  0  0  0  0  0  0  0  0  0  0  0
    2.3350   -6.8522    3.7367 H   0  0  0  0  0  0  0  0  0  0  0  0
    3.3819   -6.8288    5.1760 H   0  0  0  0  0  0  0  0  0  0  0  0
    2.1622   -4.6842    4.9276 H   0  0  0  0  0  0  0  0  0  0  0  0
    3.9170   -4.4457    4.7480 H   0  0  0  0  0  0  0  0  0  0  0  0
    2.6678   -3.2203    2.9911 H   0  0  0  0  0  0  0  0  0  0  0  0
    1.9180   -4.7450    2.4608 H   0  0  0  0  0  0  0  0  0  0  0  0
    1.8242   -4.4363    0.5550 H   0  0  0  0  0  0  0  0  0  0  0  0
  1  2  1  0  0  0  0
  1 26  1  0  0  0  0
  1 27  1  0  0  0  0
  1 28  1  0  0  0  0
  2  3  1  0  0  0  0
  2 29  1  0  0  0  0
  2 30  1  0  0  0  0
  3  4  1  0  0  0  0
  3  5  1  0  0  0  0
  3  7  1  0  0  0  0
  4 31  1  0  0  0  0
  4 32  1  0  0  0  0
  4 33  1  0  0  0  0
  5  6  1  0  0  0  0
  5 34  1  0  0  0  0
  5 35  1  0  0  0  0
  6 36  1  0  0  0  0
  6 37  1  0  0  0  0
  6 38  1  0  0  0  0
  7  8  1  0  0  0  0
  7 39  1  0  0  0  0
  7 40  1  0  0  0  0
  8  9  1  0  0  0  0
  8 41  1  0  0  0  0
  8 42  1  0  0  0  0
  9 10  1  0  0  0  0
 10 11  2  0  0  0  0
 12 10  1  1  0  0  0
 12 13  1  0  0  0  0
 12 19  1  0  0  0  0
 12 25  1  0  0  0  0
 13 18  2  0  0  0  0
 13 14  1  0  0  0  0
 14 15  2  0  0  0  0
 14 43  1  0  0  0  0
 15 16  1  0  0  0  0
 15 44  1  0  0  0  0
 16 17  2  0  0  0  0
 16 45  1  0  0  0  0
 17 18  1  0  0  0  0
 17 46  1  0  0  0  0
 18 47  1  0  0  0  0
 19 24  1  0  0  0  0
 19 20  1  0  0  0  0
 19 48  1  0  0  0  0
 20 21  1  0  0  0  0
 20 49  1  0  0  0  0
 20 50  1  0  0  0  0
 21 22  1  0  0  0  0
 21 51  1  0  0  0  0
 21 52  1  0  0  0  0
 22 23  1  0  0  0  0
 22 53  1  0  0  0  0
 22 54  1  0  0  0  0
 23 24  1  0  0  0  0
 23 55  1  0  0  0  0
 23 56  1  0  0  0  0
 24 57  1  0  0  0  0
 24 58  1  0  0  0  0
 25 59  1  0  0  0  0
M  CHG  1   3   1
M  END
$$$$
