ZINC18217584
 OpenBabel08292219463D

 18 18  0  0  0  0  0  0  0  0999 V2000
   -0.0165    1.3646    0.0095 C   0  0  0  0  0  0  0  0  0  0  0  0
    1.2671    1.7717   -0.0005 C   0  0  0  0  0  0  0  0  0  0  0  0
    2.0482    0.6814   -0.0138 N   0  0  0  0  0  0  0  0  0  0  0  0
    1.2973   -0.3859   -0.0124 C   0  0  0  0  0  0  0  0  0  0  0  0
    0.0021   -0.0041    0.0020 N   0  0  0  0  0  0  0  0  0  0  0  0
   -0.7708   -0.5902    0.0065 H   0  0  0  0  0  0  0  0  0  0  0  0
    1.7427    3.2017    0.0026 C   0  0  0  0  0  0  0  0  0  0  0  0
    2.7000    3.4183    1.1763 C   0  0  0  0  0  0  0  0  0  0  0  0
    3.1635    4.8122    1.1794 N   0  3  0  0  0  0  0  0  0  0  0  0
   -0.8922    1.9965    0.0253 H   0  0  0  0  0  0  0  0  0  0  0  0
    1.6529   -1.4057   -0.0218 H   0  0  0  0  0  0  0  0  0  0  0  0
    2.2605    3.4145   -0.9326 H   0  0  0  0  0  0  0  0  0  0  0  0
    0.8868    3.8690    0.1039 H   0  0  0  0  0  0  0  0  0  0  0  0
    2.1821    3.2055    2.1116 H   0  0  0  0  0  0  0  0  0  0  0  0
    3.5559    2.7510    1.0750 H   0  0  0  0  0  0  0  0  0  0  0  0
    3.7948    4.9550    1.9534 H   0  0  0  0  0  0  0  0  0  0  0  0
    3.6429    5.0092    0.3137 H   0  0  0  0  0  0  0  0  0  0  0  0
    2.3712    5.4299    1.2732 H   0  0  0  0  0  0  0  0  0  0  0  0
  1  5  1  0  0  0  0
  1  2  2  0  0  0  0
  1 10  1  0  0  0  0
  2  3  1  0  0  0  0
  2  7  1  0  0  0  0
  3  4  2  0  0  0  0
  4  5  1  0  0  0  0
  4 11  1  0  0  0  0
  5  6  1  0  0  0  0
  7  8  1  0  0  0  0
  7 12  1  0  0  0  0
  7 13  1  0  0  0  0
  8  9  1  0  0  0  0
  8 14  1  0  0  0  0
  8 15  1  0  0  0  0
  9 16  1  0  0  0  0
  9 17  1  0  0  0  0
  9 18  1  0  0  0  0
M  CHG  1   9   1
M  END
$$$$
