ZINC87496092
 OpenBabel08292219463D

 87 90  0  0  1  0  0  0  0  0999 V2000
    1.8456    2.5081   -0.3836 C   0  0  0  0  0  0  0  0  0  0  0  0
    1.4182    1.0508   -0.1974 C   0  0  2  0  0  0  0  0  0  0  0  0
    1.5566    0.5091   -1.1331 H   0  0  0  0  0  0  0  0  0  0  0  0
   -0.0569    0.9993    0.2089 C   0  0  2  0  0  0  0  0  0  0  0  0
   -0.2033    1.5751    1.1228 H   0  0  0  0  0  0  0  0  0  0  0  0
   -0.4610   -0.4581    0.4518 C   0  0  1  0  0  0  0  0  0  0  0  0
   -0.3618   -1.0232   -0.4750 H   0  0  0  0  0  0  0  0  0  0  0  0
    0.4576   -1.0599    1.5197 C   0  0  2  0  0  0  0  0  0  0  0  0
    0.3216   -0.5258    2.4601 H   0  0  0  0  0  0  0  0  0  0  0  0
    1.9128   -0.9288    1.0627 C   0  0  2  0  0  0  0  0  0  0  0  0
    2.5736   -1.3168    1.8379 H   0  0  0  0  0  0  0  0  0  0  0  0
    2.2141    0.4476    0.8247 O   0  0  0  0  0  0  0  0  0  0  0  0
    2.1029   -1.6735   -0.1420 O   0  0  0  0  0  0  0  0  0  0  0  0
    3.4735   -1.8522   -0.5047 C   0  0  2  0  0  0  0  0  0  0  0  0
    4.0435   -0.9673   -0.2216 H   0  0  0  0  0  0  0  0  0  0  0  0
    3.5787   -2.0664   -2.0170 C   0  0  2  0  0  0  0  0  0  0  0  0
    2.9748   -2.9268   -2.3051 H   0  0  0  0  0  0  0  0  0  0  0  0
    4.9433   -2.3023   -2.3694 O   0  0  0  0  0  0  0  0  0  0  0  0
    5.5106   -3.4642   -1.7609 C   0  0  1  0  0  0  0  0  0  0  0  0
    6.5412   -3.5833   -2.0953 H   0  0  0  0  0  0  0  0  0  0  0  0
    5.4830   -3.3062   -0.2384 C   0  0  1  0  0  0  0  0  0  0  0  0
    6.0945   -2.4513    0.0502 H   0  0  0  0  0  0  0  0  0  0  0  0
    4.0387   -3.0783    0.2186 C   0  0  1  0  0  0  0  0  0  0  0  0
    3.4377   -3.9545   -0.0247 H   0  0  0  0  0  0  0  0  0  0  0  0
    4.0122   -2.8552    1.6299 O   0  0  0  0  0  0  0  0  0  0  0  0
    5.9978   -4.4902    0.3740 O   0  0  0  0  0  0  0  0  0  0  0  0
    4.7522   -4.6163   -2.1345 O   0  0  0  0  0  0  0  0  0  0  0  0
    4.9245   -5.0086   -3.4978 C   0  0  2  0  0  0  0  0  0  0  0  0
    5.0465   -4.1216   -4.1194 H   0  0  0  0  0  0  0  0  0  0  0  0
    3.6959   -5.7945   -3.9632 C   0  0  2  0  0  0  0  0  0  0  0  0
    3.5504   -6.6588   -3.3152 H   0  0  0  0  0  0  0  0  0  0  0  0
    3.8953   -6.2352   -5.3078 O   0  0  0  0  0  0  0  0  0  0  0  0
    5.0148   -7.1073   -5.4761 C   0  0  2  0  0  0  0  0  0  0  0  0
    4.8865   -7.9888   -4.8479 H   0  0  0  0  0  0  0  0  0  0  0  0
    6.2964   -6.3741   -5.0715 C   0  0  1  0  0  0  0  0  0  0  0  0
    6.4467   -5.5153   -5.7256 H   0  0  0  0  0  0  0  0  0  0  0  0
    6.1672   -5.8955   -3.6220 C   0  0  1  0  0  0  0  0  0  0  0  0
    6.0676   -6.7572   -2.9619 H   0  0  0  0  0  0  0  0  0  0  0  0
    7.3282   -5.1453   -3.2597 O   0  0  0  0  0  0  0  0  0  0  0  0
    7.4105   -7.2617   -5.1851 O   0  0  0  0  0  0  0  0  0  0  0  0
    5.1061   -7.5069   -6.8450 O   0  0  0  0  0  0  0  0  0  0  0  0
    2.4602   -4.8947   -3.8988 C   0  0  0  0  0  0  0  0  0  0  0  0
    1.2992   -5.6548   -4.2401 O   0  0  0  0  0  0  0  0  0  0  0  0
    3.0715   -0.8201   -2.7453 C   0  0  0  0  0  0  0  0  0  0  0  0
    3.0829   -1.0545   -4.1549 O   0  0  0  0  0  0  0  0  0  0  0  0
    0.1359   -2.4400    1.7036 O   0  0  0  0  0  0  0  0  0  0  0  0
   -1.8167   -0.5099    0.9005 O   0  0  0  0  0  0  0  0  0  0  0  0
   -0.8823    1.5663   -0.8659 N   0  0  0  0  0  0  0  0  0  0  0  0
   -2.0948    2.1936   -0.3234 C   0  0  1  0  0  0  0  0  0  0  0  0
   -2.4054    1.6617    0.5758 H   0  0  0  0  0  0  0  0  0  0  0  0
   -1.8028    3.6248    0.0211 C   0  0  0  0  0  0  0  0  0  0  0  0
   -2.6011    4.6104   -0.2376 C   0  0  0  0  0  0  0  0  0  0  0  0
   -3.9258    4.4609   -0.9267 C   0  0  1  0  0  0  0  0  0  0  0  0
   -3.8322    4.7840   -1.9635 H   0  0  0  0  0  0  0  0  0  0  0  0
   -4.3772    2.9992   -0.8897 C   0  0  1  0  0  0  0  0  0  0  0  0
   -5.2330    2.8632   -1.5509 H   0  0  0  0  0  0  0  0  0  0  0  0
   -3.2124    2.1229   -1.3662 C   0  0  1  0  0  0  0  0  0  0  0  0
   -3.5513    1.0922   -1.4708 H   0  0  0  0  0  0  0  0  0  0  0  0
   -2.7288    2.6036   -2.6221 O   0  0  0  0  0  0  0  0  0  0  0  0
   -4.7402    2.6422    0.4455 O   0  0  0  0  0  0  0  0  0  0  0  0
   -4.8986    5.2712   -0.2640 O   0  0  0  0  0  0  0  0  0  0  0  0
   -2.1739    5.9940    0.1798 C   0  0  0  0  0  0  0  0  0  0  0  0
   -0.8954    5.9265    0.8145 O   0  0  0  0  0  0  0  0  0  0  0  0
    2.9183    2.5509   -0.5722 H   0  0  0  0  0  0  0  0  0  0  0  0
    1.3104    2.9384   -1.2300 H   0  0  0  0  0  0  0  0  0  0  0  0
    1.6125    3.0732    0.5189 H   0  0  0  0  0  0  0  0  0  0  0  0
    4.3566   -3.5931    2.1513 H   0  0  0  0  0  0  0  0  0  0  0  0
    6.9092   -4.6971    0.1256 H   0  0  0  0  0  0  0  0  0  0  0  0
    8.1534   -5.6462   -3.3155 H   0  0  0  0  0  0  0  0  0  0  0  0
    7.5493   -7.6065   -6.0778 H   0  0  0  0  0  0  0  0  0  0  0  0
    4.3265   -7.9776   -7.1702 H   0  0  0  0  0  0  0  0  0  0  0  0
    2.3513   -4.4987   -2.8891 H   0  0  0  0  0  0  0  0  0  0  0  0
    2.5742   -4.0700   -4.6023 H   0  0  0  0  0  0  0  0  0  0  0  0
    0.4766   -5.1469   -4.2200 H   0  0  0  0  0  0  0  0  0  0  0  0
    2.0543   -0.5991   -2.4220 H   0  0  0  0  0  0  0  0  0  0  0  0
    3.7187    0.0255   -2.5124 H   0  0  0  0  0  0  0  0  0  0  0  0
    2.7730   -0.3046   -4.6809 H   0  0  0  0  0  0  0  0  0  0  0  0
    0.6799   -2.8856    2.3673 H   0  0  0  0  0  0  0  0  0  0  0  0
   -2.1396   -1.4047    1.0742 H   0  0  0  0  0  0  0  0  0  0  0  0
   -0.3530    2.2223   -1.4206 H   0  0  0  0  0  0  0  0  0  0  0  0
   -0.8688    3.8461    0.5159 H   0  0  0  0  0  0  0  0  0  0  0  0
   -3.3875    2.5865   -3.3298 H   0  0  0  0  0  0  0  0  0  0  0  0
   -5.4619    3.1714    0.8117 H   0  0  0  0  0  0  0  0  0  0  0  0
   -4.6850    6.2142   -0.2555 H   0  0  0  0  0  0  0  0  0  0  0  0
   -2.1097    6.6350   -0.6994 H   0  0  0  0  0  0  0  0  0  0  0  0
   -2.9043    6.4051    0.8766 H   0  0  0  0  0  0  0  0  0  0  0  0
   -0.5572    6.7830    1.1100 H   0  0  0  0  0  0  0  0  0  0  0  0
  1  2  1  0  0  0  0
  1 64  1  0  0  0  0
  1 65  1  0  0  0  0
  1 66  1  0  0  0  0
  2  3  1  6  0  0  0
  2 12  1  0  0  0  0
  2  4  1  0  0  0  0
  4  5  1  1  0  0  0
  4  6  1  0  0  0  0
  4 48  1  0  0  0  0
  6  7  1  6  0  0  0
  6  8  1  0  0  0  0
  6 47  1  0  0  0  0
  8  9  1  1  0  0  0
  8 10  1  0  0  0  0
  8 46  1  0  0  0  0
 10 11  1  1  0  0  0
 10 12  1  0  0  0  0
 10 13  1  0  0  0  0
 13 14  1  0  0  0  0
 14 15  1  1  0  0  0
 14 23  1  0  0  0  0
 14 16  1  0  0  0  0
 16 17  1  6  0  0  0
 16 18  1  0  0  0  0
 16 44  1  0  0  0  0
 18 19  1  0  0  0  0
 19 20  1  6  0  0  0
 19 21  1  0  0  0  0
 19 27  1  0  0  0  0
 21 22  1  1  0  0  0
 21 23  1  0  0  0  0
 21 26  1  0  0  0  0
 23 24  1  6  0  0  0
 23 25  1  0  0  0  0
 25 67  1  0  0  0  0
 26 68  1  0  0  0  0
 27 28  1  0  0  0  0
 28 29  1  6  0  0  0
 28 37  1  0  0  0  0
 28 30  1  0  0  0  0
 30 31  1  1  0  0  0
 30 32  1  0  0  0  0
 30 42  1  0  0  0  0
 32 33  1  0  0  0  0
 33 34  1  1  0  0  0
 33 35  1  0  0  0  0
 33 41  1  0  0  0  0
 35 36  1  6  0  0  0
 35 37  1  0  0  0  0
 35 40  1  0  0  0  0
 37 38  1  1  0  0  0
 37 39  1  0  0  0  0
 39 69  1  0  0  0  0
 40 70  1  0  0  0  0
 41 71  1  0  0  0  0
 42 43  1  0  0  0  0
 42 72  1  0  0  0  0
 42 73  1  0  0  0  0
 43 74  1  0  0  0  0
 44 45  1  0  0  0  0
 44 75  1  0  0  0  0
 44 76  1  0  0  0  0
 45 77  1  0  0  0  0
 46 78  1  0  0  0  0
 47 79  1  0  0  0  0
 48 49  1  0  0  0  0
 48 80  1  0  0  0  0
 49 50  1  1  0  0  0
 49 57  1  0  0  0  0
 49 51  1  0  0  0  0
 51 52  2  0  0  0  0
 51 81  1  0  0  0  0
 52 53  1  0  0  0  0
 52 62  1  0  0  0  0
 53 54  1  6  0  0  0
 53 55  1  0  0  0  0
 53 61  1  0  0  0  0
 55 56  1  6  0  0  0
 55 57  1  0  0  0  0
 55 60  1  0  0  0  0
 57 58  1  6  0  0  0
 57 59  1  0  0  0  0
 59 82  1  0  0  0  0
 60 83  1  0  0  0  0
 61 84  1  0  0  0  0
 62 63  1  0  0  0  0
 62 85  1  0  0  0  0
 62 86  1  0  0  0  0
 63 87  1  0  0  0  0
M  END
$$$$
