ZINC49583080
 OpenBabel08292219463D

 55 56  0  0  1  0  0  0  0  0999 V2000
    0.0283    1.4836    0.0098 C   0  0  0  0  0  0  0  0  0  0  0  0
    0.1115    0.0186   -0.0599 N   0  3  2  0  0  0  0  0  0  0  0  0
   -1.2434   -0.5471   -0.1062 C   0  0  0  0  0  0  0  0  0  0  0  0
   -1.9310   -0.1185   -1.4040 C   0  0  0  0  0  0  0  0  0  0  0  0
   -3.3210   -0.6989   -1.4515 C   0  0  0  0  0  0  0  0  0  0  0  0
   -3.5299   -1.9436   -2.0166 C   0  0  0  0  0  0  0  0  0  0  0  0
   -4.8024   -2.4784   -2.0617 C   0  0  0  0  0  0  0  0  0  0  0  0
   -5.8731   -1.7646   -1.5386 C   0  0  0  0  0  0  0  0  0  0  0  0
   -5.6597   -0.5145   -0.9716 C   0  0  0  0  0  0  0  0  0  0  0  0
   -4.3838    0.0120   -0.9247 C   0  0  0  0  0  0  0  0  0  0  0  0
   -7.1614   -2.3023   -1.5830 N   0  0  0  0  0  2  0  0  0  0  0  0
   -8.4365   -1.4497   -0.9588 S   0  0  0  0  0  0  0  0  0  0  0  0
   -8.1580   -1.3463    0.4308 O   0  0  0  0  0  0  0  0  0  0  0  0
   -8.5251   -0.2853   -1.7685 O   0  0  0  0  0  0  0  0  0  0  0  0
   -9.8832   -2.5101   -1.2289 C   0  0  0  0  0  0  0  0  0  0  0  0
    0.8138   -0.4890    1.1262 C   0  0  0  0  0  0  0  0  0  0  0  0
    1.0423   -1.9945    0.9783 C   0  0  0  0  0  0  0  0  0  0  0  0
    1.9219   -2.2370   -0.1216 O   0  0  0  0  0  0  0  0  0  0  0  0
    2.2301   -3.5339   -0.3913 C   0  0  0  0  0  0  0  0  0  0  0  0
    1.6916   -4.5500    0.3840 C   0  0  0  0  0  0  0  0  0  0  0  0
    2.0041   -5.8673    0.1108 C   0  0  0  0  0  0  0  0  0  0  0  0
    2.8578   -6.1742   -0.9406 C   0  0  0  0  0  0  0  0  0  0  0  0
    3.3965   -5.1562   -1.7163 C   0  0  0  0  0  0  0  0  0  0  0  0
    3.0784   -3.8399   -1.4452 C   0  0  0  0  0  0  0  0  0  0  0  0
    3.1754   -7.5086   -1.2178 N   0  0  0  0  0  2  0  0  0  0  0  0
    4.1934   -7.8740   -2.4718 S   0  0  0  0  0  0  0  0  0  0  0  0
    3.5054   -7.4384   -3.6362 O   0  0  0  0  0  0  0  0  0  0  0  0
    5.4393   -7.2958   -2.1076 O   0  0  0  0  0  0  0  0  0  0  0  0
    4.3172   -9.6838   -2.4595 C   0  0  0  0  0  0  0  0  0  0  0  0
    1.0264    1.8978    0.1524 H   0  0  0  0  0  0  0  0  0  0  0  0
   -0.3955    1.8680   -0.9180 H   0  0  0  0  0  0  0  0  0  0  0  0
   -0.6078    1.7720    0.8467 H   0  0  0  0  0  0  0  0  0  0  0  0
   -1.1845   -1.6349   -0.0683 H   0  0  0  0  0  0  0  0  0  0  0  0
   -1.8179   -0.1845    0.7463 H   0  0  0  0  0  0  0  0  0  0  0  0
   -1.9900    0.9692   -1.4419 H   0  0  0  0  0  0  0  0  0  0  0  0
   -1.3566   -0.4812   -2.2564 H   0  0  0  0  0  0  0  0  0  0  0  0
   -2.6971   -2.4980   -2.4234 H   0  0  0  0  0  0  0  0  0  0  0  0
   -4.9649   -3.4505   -2.5035 H   0  0  0  0  0  0  0  0  0  0  0  0
   -6.4900    0.0433   -0.5644 H   0  0  0  0  0  0  0  0  0  0  0  0
   -4.2165    0.9819   -0.4801 H   0  0  0  0  0  0  0  0  0  0  0  0
   -9.7403   -3.4585   -0.7111 H   0  0  0  0  0  0  0  0  0  0  0  0
  -10.7738   -2.0152   -0.8415 H   0  0  0  0  0  0  0  0  0  0  0  0
  -10.0049   -2.6937   -2.2964 H   0  0  0  0  0  0  0  0  0  0  0  0
    1.7746    0.0165    1.2236 H   0  0  0  0  0  0  0  0  0  0  0  0
    0.2114   -0.2985    2.0144 H   0  0  0  0  0  0  0  0  0  0  0  0
    1.4877   -2.3861    1.8928 H   0  0  0  0  0  0  0  0  0  0  0  0
    0.0888   -2.4907    0.7972 H   0  0  0  0  0  0  0  0  0  0  0  0
    1.0280   -4.3111    1.2019 H   0  0  0  0  0  0  0  0  0  0  0  0
    1.5850   -6.6584    0.7148 H   0  0  0  0  0  0  0  0  0  0  0  0
    4.0605   -5.3941   -2.5342 H   0  0  0  0  0  0  0  0  0  0  0  0
    3.4935   -3.0483   -2.0514 H   0  0  0  0  0  0  0  0  0  0  0  0
    3.3273  -10.1166   -2.6044 H   0  0  0  0  0  0  0  0  0  0  0  0
    4.9770  -10.0083   -3.2640 H   0  0  0  0  0  0  0  0  0  0  0  0
    4.7214  -10.0138   -1.5025 H   0  0  0  0  0  0  0  0  0  0  0  0
    0.6168   -0.2504   -0.8908 H   0  0  0  0  0  0  0  0  0  0  0  0
  1  2  1  0  0  0  0
  1 30  1  0  0  0  0
  1 31  1  0  0  0  0
  1 32  1  0  0  0  0
  2  3  1  0  0  0  0
  2 16  1  0  0  0  0
  2 55  1  6  0  0  0
  3  4  1  0  0  0  0
  3 33  1  0  0  0  0
  3 34  1  0  0  0  0
  4  5  1  0  0  0  0
  4 35  1  0  0  0  0
  4 36  1  0  0  0  0
  5 10  2  0  0  0  0
  5  6  1  0  0  0  0
  6  7  2  0  0  0  0
  6 37  1  0  0  0  0
  7  8  1  0  0  0  0
  7 38  1  0  0  0  0
  8  9  2  0  0  0  0
  8 11  1  0  0  0  0
  9 10  1  0  0  0  0
  9 39  1  0  0  0  0
 10 40  1  0  0  0  0
 11 12  1  0  0  0  0
 12 13  2  0  0  0  0
 12 14  2  0  0  0  0
 12 15  1  0  0  0  0
 15 41  1  0  0  0  0
 15 42  1  0  0  0  0
 15 43  1  0  0  0  0
 16 17  1  0  0  0  0
 16 44  1  0  0  0  0
 16 45  1  0  0  0  0
 17 18  1  0  0  0  0
 17 46  1  0  0  0  0
 17 47  1  0  0  0  0
 18 19  1  0  0  0  0
 19 24  2  0  0  0  0
 19 20  1  0  0  0  0
 20 21  2  0  0  0  0
 20 48  1  0  0  0  0
 21 22  1  0  0  0  0
 21 49  1  0  0  0  0
 22 23  2  0  0  0  0
 22 25  1  0  0  0  0
 23 24  1  0  0  0  0
 23 50  1  0  0  0  0
 24 51  1  0  0  0  0
 25 26  1  0  0  0  0
 26 27  2  0  0  0  0
 26 28  2  0  0  0  0
 26 29  1  0  0  0  0
 29 52  1  0  0  0  0
 29 53  1  0  0  0  0
 29 54  1  0  0  0  0
M  CHG  1   2   1
M  END
$$$$
