ZINC01550477
 OpenBabel08292219463D

 67 71  0  0  0  0  0  0  0  0999 V2000
   -7.2164   11.0372    3.0195 C   0  0  0  0  0  0  0  0  0  0  0  0
   -6.7571   10.7093    1.2955 S   0  0  0  0  0  0  0  0  0  0  0  0
   -5.7431   11.6303    0.9175 O   0  0  0  0  0  0  0  0  0  0  0  0
   -7.9456   10.6335    0.5203 O   0  0  0  0  0  0  0  0  0  0  0  0
   -6.0233    9.0527    1.3844 C   0  0  0  0  0  0  0  0  0  0  0  0
   -5.5746    8.6180   -0.0122 C   0  0  0  0  0  0  0  0  0  0  0  0
   -4.5371    6.8253   -1.2661 C   0  0  0  0  0  0  0  0  0  0  0  0
   -3.9345    5.4487   -1.1526 C   0  0  0  0  0  0  0  0  0  0  0  0
   -4.6045    4.2857   -1.2709 C   0  0  0  0  0  0  0  0  0  0  0  0
   -3.6659    3.2489   -1.0969 C   0  0  0  0  0  0  0  0  0  0  0  0
   -2.4620    3.8428   -0.8796 C   0  0  0  0  0  0  0  0  0  0  0  0
   -2.6414    5.1774   -0.9104 O   0  0  0  0  0  0  0  0  0  0  0  0
   -1.1810    3.1454   -0.6443 C   0  0  0  0  0  0  0  0  0  0  0  0
   -1.1417    1.7409   -0.6382 C   0  0  0  0  0  0  0  0  0  0  0  0
    0.0237    1.0763   -0.4177 C   0  0  0  0  0  0  0  0  0  0  0  0
    1.2099    1.7947   -0.2040 C   0  0  0  0  0  0  0  0  0  0  0  0
    1.1822    3.2116   -0.2139 C   0  0  0  0  0  0  0  0  0  0  0  0
   -0.0232    3.8817   -0.4358 C   0  0  0  0  0  0  0  0  0  0  0  0
    2.3978    3.9066    0.0047 C   0  0  0  0  0  0  0  0  0  0  0  0
    3.4987    3.1947    0.2074 N   0  0  0  0  0  0  0  0  0  0  0  0
    3.4754    1.8717    0.2076 C   0  0  0  0  0  0  0  0  0  0  0  0
    2.3802    1.1762    0.0109 N   0  0  0  0  0  0  0  0  0  0  0  0
    2.4351    5.2852    0.0073 N   0  0  0  0  0  0  0  0  0  0  0  0
    3.6620    5.9520    0.1043 C   0  0  0  0  0  0  0  0  0  0  0  0
    3.7486    7.1497    0.8022 C   0  0  0  0  0  0  0  0  0  0  0  0
    4.9602    7.8046    0.9022 C   0  0  0  0  0  0  0  0  0  0  0  0
    6.0888    7.2728    0.2963 C   0  0  0  0  0  0  0  0  0  0  0  0
    6.0027    6.0786   -0.4059 C   0  0  0  0  0  0  0  0  0  0  0  0
    4.7920    5.4192   -0.5019 C   0  0  0  0  0  0  0  0  0  0  0  0
    7.4158    5.4135   -1.1639 Cl  0  0  0  0  0  0  0  0  0  0  0  0
    7.2805    7.9214    0.3906 O   0  0  0  0  0  0  0  0  0  0  0  0
    7.2964    9.1452    1.1283 C   0  0  0  0  0  0  0  0  0  0  0  0
    8.6911    9.7160    1.1245 C   0  0  0  0  0  0  0  0  0  0  0  0
    9.0796   10.5846    0.1214 C   0  0  0  0  0  0  0  0  0  0  0  0
   10.3585   11.1089    0.1166 C   0  0  0  0  0  0  0  0  0  0  0  0
   11.2506   10.7653    1.1149 C   0  0  0  0  0  0  0  0  0  0  0  0
   10.8628    9.8957    2.1198 C   0  0  0  0  0  0  0  0  0  0  0  0
    9.5794    9.3754    2.1266 C   0  0  0  0  0  0  0  0  0  0  0  0
   11.7337    9.5594    3.0963 F   0  0  0  0  0  0  0  0  0  0  0  0
   -6.3247   11.0049    3.6455 H   0  0  0  0  0  0  0  0  0  0  0  0
   -7.6757   12.0230    3.0919 H   0  0  0  0  0  0  0  0  0  0  0  0
   -7.9248   10.2806    3.3569 H   0  0  0  0  0  0  0  0  0  0  0  0
   -6.7627    8.3477    1.7643 H   0  0  0  0  0  0  0  0  0  0  0  0
   -5.1626    9.0720    2.0529 H   0  0  0  0  0  0  0  0  0  0  0  0
   -4.8352    9.3230   -0.3922 H   0  0  0  0  0  0  0  0  0  0  0  0
   -6.4354    8.5988   -0.6807 H   0  0  0  0  0  0  0  0  0  0  0  0
   -3.7904    7.5178   -1.6547 H   0  0  0  0  0  0  0  0  0  0  0  0
   -5.3906    6.7936   -1.9433 H   0  0  0  0  0  0  0  0  0  0  0  0
   -5.6609    4.1699   -1.4629 H   0  0  0  0  0  0  0  0  0  0  0  0
   -3.8645    2.1878   -1.1292 H   0  0  0  0  0  0  0  0  0  0  0  0
   -2.0502    1.1817   -0.8068 H   0  0  0  0  0  0  0  0  0  0  0  0
    0.0373   -0.0036   -0.4115 H   0  0  0  0  0  0  0  0  0  0  0  0
   -0.0537    4.9612   -0.4455 H   0  0  0  0  0  0  0  0  0  0  0  0
    4.3999    1.3401    0.3779 H   0  0  0  0  0  0  0  0  0  0  0  0
    1.6111    5.7928   -0.0582 H   0  0  0  0  0  0  0  0  0  0  0  0
    2.8691    7.5668    1.2701 H   0  0  0  0  0  0  0  0  0  0  0  0
    5.0280    8.7339    1.4483 H   0  0  0  0  0  0  0  0  0  0  0  0
    4.7246    4.4902   -1.0485 H   0  0  0  0  0  0  0  0  0  0  0  0
    6.6114    9.8566    0.6669 H   0  0  0  0  0  0  0  0  0  0  0  0
    6.9846    8.9545    2.1552 H   0  0  0  0  0  0  0  0  0  0  0  0
    8.3831   10.8540   -0.6588 H   0  0  0  0  0  0  0  0  0  0  0  0
   10.6608   11.7876   -0.6673 H   0  0  0  0  0  0  0  0  0  0  0  0
   12.2497   11.1753    1.1111 H   0  0  0  0  0  0  0  0  0  0  0  0
    9.2743    8.7004    2.9126 H   0  0  0  0  0  0  0  0  0  0  0  0
   -4.9794    7.2708    0.0688 N   0  3  0  0  0  0  0  0  0  0  0  0
   -5.6793    6.6125    0.4308 H   0  0  0  0  0  0  0  0  0  0  0  0
   -4.1720    7.2947    0.7026 H   0  0  0  0  0  0  0  0  0  0  0  0
  1  2  1  0  0  0  0
  1 40  1  0  0  0  0
  1 41  1  0  0  0  0
  1 42  1  0  0  0  0
  2  3  2  0  0  0  0
  2  4  2  0  0  0  0
  2  5  1  0  0  0  0
  5  6  1  0  0  0  0
  5 43  1  0  0  0  0
  5 44  1  0  0  0  0
  6 45  1  0  0  0  0
  6 46  1  0  0  0  0
  6 65  1  0  0  0  0
  7  8  1  0  0  0  0
  7 47  1  0  0  0  0
  7 48  1  0  0  0  0
  7 65  1  0  0  0  0
  8 12  1  0  0  0  0
  8  9  2  0  0  0  0
  9 10  1  0  0  0  0
  9 49  1  0  0  0  0
 10 11  2  0  0  0  0
 10 50  1  0  0  0  0
 11 12  1  0  0  0  0
 11 13  1  0  0  0  0
 13 18  2  0  0  0  0
 13 14  1  0  0  0  0
 14 15  2  0  0  0  0
 14 51  1  0  0  0  0
 15 16  1  0  0  0  0
 15 52  1  0  0  0  0
 16 22  2  0  0  0  0
 16 17  1  0  0  0  0
 17 18  1  0  0  0  0
 17 19  2  0  0  0  0
 18 53  1  0  0  0  0
 19 20  1  0  0  0  0
 19 23  1  0  0  0  0
 20 21  2  0  0  0  0
 21 22  1  0  0  0  0
 21 54  1  0  0  0  0
 23 24  1  0  0  0  0
 23 55  1  0  0  0  0
 24 29  2  0  0  0  0
 24 25  1  0  0  0  0
 25 26  2  0  0  0  0
 25 56  1  0  0  0  0
 26 27  1  0  0  0  0
 26 57  1  0  0  0  0
 27 28  2  0  0  0  0
 27 31  1  0  0  0  0
 28 29  1  0  0  0  0
 28 30  1  0  0  0  0
 29 58  1  0  0  0  0
 31 32  1  0  0  0  0
 32 33  1  0  0  0  0
 32 59  1  0  0  0  0
 32 60  1  0  0  0  0
 33 38  2  0  0  0  0
 33 34  1  0  0  0  0
 34 35  2  0  0  0  0
 34 61  1  0  0  0  0
 35 36  1  0  0  0  0
 35 62  1  0  0  0  0
 36 37  2  0  0  0  0
 36 63  1  0  0  0  0
 37 38  1  0  0  0  0
 37 39  1  0  0  0  0
 38 64  1  0  0  0  0
 65 66  1  0  0  0  0
 65 67  1  0  0  0  0
M  CHG  1  65   1
M  END
$$$$
