ZINC01530701
 OpenBabel08292219463D

 33 32  0  0  0  0  0  0  0  0999 V2000
   -0.0187    1.5258    0.0104 C   0  0  0  0  0  0  0  0  0  0  0  0
    0.0021   -0.0041    0.0020 C   0  0  0  0  0  0  0  0  0  0  0  0
   -1.4333   -0.5336    0.0129 C   0  0  0  0  0  0  0  0  0  0  0  0
   -1.4126   -2.0635    0.0045 C   0  0  0  0  0  0  0  0  0  0  0  0
   -2.8479   -2.5931    0.0153 C   0  0  0  0  0  0  0  0  0  0  0  0
   -0.6964   -2.5569   -1.2543 C   0  0  0  0  0  0  0  0  0  0  0  0
   -1.3876   -2.0835   -2.4120 O   0  0  0  0  0  0  0  0  0  0  0  0
   -0.8825   -2.4319   -3.6105 C   0  0  0  0  0  0  0  0  0  0  0  0
    0.1178   -3.1191   -3.6717 O   0  0  0  0  0  0  0  0  0  0  0  0
   -1.4864   -2.0184   -4.7422 N   0  0  0  0  0  0  0  0  0  0  0  0
   -0.6726   -2.5703    1.2440 C   0  0  0  0  0  0  0  0  0  0  0  0
   -1.3414   -2.1095    2.4197 O   0  0  0  0  0  0  0  0  0  0  0  0
   -0.8136   -2.4706    3.6045 C   0  0  0  0  0  0  0  0  0  0  0  0
    0.1876   -3.1583    3.6392 O   0  0  0  0  0  0  0  0  0  0  0  0
   -1.3957   -2.0694    4.7519 N   0  0  0  0  0  0  0  0  0  0  0  0
    1.0039    1.9031    0.0027 H   0  0  0  0  0  0  0  0  0  0  0  0
   -0.5459    1.8868   -0.8726 H   0  0  0  0  0  0  0  0  0  0  0  0
   -0.5289    1.8773    0.9072 H   0  0  0  0  0  0  0  0  0  0  0  0
    0.5123   -0.3556   -0.8948 H   0  0  0  0  0  0  0  0  0  0  0  0
    0.5293   -0.3651    0.8851 H   0  0  0  0  0  0  0  0  0  0  0  0
   -1.9435   -0.1821    0.9097 H   0  0  0  0  0  0  0  0  0  0  0  0
   -1.9605   -0.1726   -0.8702 H   0  0  0  0  0  0  0  0  0  0  0  0
   -3.3751   -2.2320   -0.8677 H   0  0  0  0  0  0  0  0  0  0  0  0
   -2.8332   -3.6829    0.0093 H   0  0  0  0  0  0  0  0  0  0  0  0
   -3.3581   -2.2415    0.9121 H   0  0  0  0  0  0  0  0  0  0  0  0
    0.3262   -2.1796   -1.2621 H   0  0  0  0  0  0  0  0  0  0  0  0
   -0.6816   -3.6468   -1.2603 H   0  0  0  0  0  0  0  0  0  0  0  0
   -2.2849   -1.4699   -4.6933 H   0  0  0  0  0  0  0  0  0  0  0  0
   -1.1225   -2.2694   -5.6057 H   0  0  0  0  0  0  0  0  0  0  0  0
   -0.6578   -3.6602    1.2380 H   0  0  0  0  0  0  0  0  0  0  0  0
    0.3500   -2.1930    1.2363 H   0  0  0  0  0  0  0  0  0  0  0  0
   -2.1950   -1.5204    4.7242 H   0  0  0  0  0  0  0  0  0  0  0  0
   -1.0155   -2.3296    5.6055 H   0  0  0  0  0  0  0  0  0  0  0  0
  1  2  1  0  0  0  0
  1 16  1  0  0  0  0
  1 17  1  0  0  0  0
  1 18  1  0  0  0  0
  2  3  1  0  0  0  0
  2 19  1  0  0  0  0
  2 20  1  0  0  0  0
  3  4  1  0  0  0  0
  3 21  1  0  0  0  0
  3 22  1  0  0  0  0
  4  5  1  0  0  0  0
  4  6  1  0  0  0  0
  4 11  1  0  0  0  0
  5 23  1  0  0  0  0
  5 24  1  0  0  0  0
  5 25  1  0  0  0  0
  6  7  1  0  0  0  0
  6 26  1  0  0  0  0
  6 27  1  0  0  0  0
  7  8  1  0  0  0  0
  8  9  2  0  0  0  0
  8 10  1  0  0  0  0
 10 28  1  0  0  0  0
 10 29  1  0  0  0  0
 11 12  1  0  0  0  0
 11 30  1  0  0  0  0
 11 31  1  0  0  0  0
 12 13  1  0  0  0  0
 13 14  2  0  0  0  0
 13 15  1  0  0  0  0
 15 32  1  0  0  0  0
 15 33  1  0  0  0  0
M  END
$$$$
