ZINC03985982
 OpenBabel08292219463D

 60 65  0  0  1  0  0  0  0  0999 V2000
   -0.0162    1.5280   -0.0315 C   0  0  0  0  0  0  0  0  0  0  0  0
    0.0034   -0.0019   -0.0364 C   0  0  2  0  0  0  0  0  0  0  0  0
   -1.4227   -0.5073   -0.1507 C   0  0  0  0  0  0  0  0  0  0  0  0
   -2.1533   -0.4208    1.1899 C   0  0  0  0  0  0  0  0  0  0  0  0
   -1.3687   -1.2483    2.1881 C   0  0  0  0  0  0  0  0  0  0  0  0
   -1.9147   -2.0512    2.9157 O   0  0  0  0  0  0  0  0  0  0  0  0
    0.0808   -1.0336    2.2333 C   0  0  0  0  0  0  0  0  0  0  0  0
    0.7173   -0.4793    1.1970 C   0  0  0  0  0  0  0  0  0  0  0  0
    2.2196   -0.2963    1.2924 C   0  0  0  0  0  0  0  0  0  0  0  0
    2.8898   -0.8506    0.0305 C   0  0  2  0  0  0  0  0  0  0  0  0
    3.9624   -0.6613    0.0731 H   0  0  0  0  0  0  0  0  0  0  0  0
    2.2946   -0.1508   -1.1894 C   0  0  2  0  0  0  0  0  0  0  0  0
    2.4227    0.9266   -1.0857 H   0  0  0  0  0  0  0  0  0  0  0  0
    0.7989   -0.4798   -1.2599 C   0  0  2  0  0  0  0  0  0  0  0  0
    0.1132   -0.6297   -2.6024 C   0  0  2  0  0  0  0  0  0  0  0  0
   -0.9323   -0.3289   -2.6706 H   0  0  0  0  0  0  0  0  0  0  0  0
    0.4261   -1.7617   -1.7763 O   0  0  0  0  0  0  0  0  0  0  0  0
    0.9162   -0.5377   -3.9086 C   0  0  0  0  0  0  0  0  0  0  0  0
    2.2294    0.1772   -3.6295 C   0  0  1  0  0  0  0  0  0  0  0  0
    2.9401   -0.6116   -2.4833 C   0  0  1  0  0  0  0  0  0  0  0  0
    2.8443   -1.6900   -2.6098 H   0  0  0  0  0  0  0  0  0  0  0  0
    4.3987   -0.1423   -2.6310 C   0  0  0  0  0  0  0  0  0  0  0  0
    4.6109   -0.0838   -4.1662 C   0  0  0  0  0  0  0  0  0  0  0  0
    3.2253    0.1182   -4.7771 C   0  0  1  0  0  0  0  0  0  0  0  0
    2.9163   -1.0526   -5.7317 C   0  0  0  0  0  0  0  0  0  0  0  0
    3.5552   -0.5256   -7.0441 C   0  0  0  0  0  0  0  0  0  0  0  0
    3.6928    0.9676   -6.8117 C   0  0  0  0  0  0  0  0  0  0  0  0
    4.1999    1.7526   -7.5777 O   0  0  0  0  0  0  0  0  0  0  0  0
    3.1572    1.2783   -5.6124 O   0  0  0  0  0  0  0  0  0  0  0  0
    1.9669    1.6303   -3.2288 C   0  0  0  0  0  0  0  0  0  0  0  0
    2.6419   -2.3341   -0.0633 C   0  0  0  0  0  0  0  0  0  0  0  0
    1.6842   -2.8226    0.4881 O   0  0  0  0  0  0  0  0  0  0  0  0
    3.4850   -3.1128   -0.7594 O   0  0  0  0  0  0  0  0  0  0  0  0
    3.1888   -4.5100   -0.8060 C   0  0  0  0  0  0  0  0  0  0  0  0
    1.0067    1.9045   -0.0270 H   0  0  0  0  0  0  0  0  0  0  0  0
   -0.5319    1.8876   -0.9219 H   0  0  0  0  0  0  0  0  0  0  0  0
   -0.5375    1.8818    0.8580 H   0  0  0  0  0  0  0  0  0  0  0  0
   -1.9563    0.0936   -0.8872 H   0  0  0  0  0  0  0  0  0  0  0  0
   -1.4077   -1.5455   -0.4825 H   0  0  0  0  0  0  0  0  0  0  0  0
   -2.1969    0.6165    1.5217 H   0  0  0  0  0  0  0  0  0  0  0  0
   -3.1621   -0.8210    1.0885 H   0  0  0  0  0  0  0  0  0  0  0  0
    0.6419   -1.3412    3.1032 H   0  0  0  0  0  0  0  0  0  0  0  0
    2.4502    0.7646    1.3891 H   0  0  0  0  0  0  0  0  0  0  0  0
    2.5950   -0.8292    2.1660 H   0  0  0  0  0  0  0  0  0  0  0  0
    1.1191   -1.5407   -4.2838 H   0  0  0  0  0  0  0  0  0  0  0  0
    0.3457    0.0227   -4.6492 H   0  0  0  0  0  0  0  0  0  0  0  0
    4.5305    0.8448   -2.1880 H   0  0  0  0  0  0  0  0  0  0  0  0
    5.0806   -0.8614   -2.1770 H   0  0  0  0  0  0  0  0  0  0  0  0
    5.2426    0.7658   -4.4255 H   0  0  0  0  0  0  0  0  0  0  0  0
    5.0647   -1.0105   -4.5178 H   0  0  0  0  0  0  0  0  0  0  0  0
    3.4003   -1.9707   -5.3988 H   0  0  0  0  0  0  0  0  0  0  0  0
    1.8417   -1.1949   -5.8459 H   0  0  0  0  0  0  0  0  0  0  0  0
    4.5335   -0.9795   -7.2020 H   0  0  0  0  0  0  0  0  0  0  0  0
    2.9004   -0.7214   -7.8933 H   0  0  0  0  0  0  0  0  0  0  0  0
    1.3610    1.6536   -2.3230 H   0  0  0  0  0  0  0  0  0  0  0  0
    2.9161    2.1333   -3.0441 H   0  0  0  0  0  0  0  0  0  0  0  0
    1.4367    2.1390   -4.0339 H   0  0  0  0  0  0  0  0  0  0  0  0
    3.9465   -5.0224   -1.3989 H   0  0  0  0  0  0  0  0  0  0  0  0
    3.1846   -4.9145    0.2061 H   0  0  0  0  0  0  0  0  0  0  0  0
    2.2095   -4.6588   -1.2609 H   0  0  0  0  0  0  0  0  0  0  0  0
  1 35  1  0  0  0  0
  1 36  1  0  0  0  0
  1 37  1  0  0  0  0
  2  1  1  1  0  0  0
  2  8  1  0  0  0  0
  2 14  1  0  0  0  0
  2  3  1  0  0  0  0
  3  4  1  0  0  0  0
  3 38  1  0  0  0  0
  3 39  1  0  0  0  0
  4  5  1  0  0  0  0
  4 40  1  0  0  0  0
  4 41  1  0  0  0  0
  5  6  2  0  0  0  0
  5  7  1  0  0  0  0
  7  8  2  0  0  0  0
  7 42  1  0  0  0  0
  8  9  1  0  0  0  0
  9 10  1  0  0  0  0
  9 43  1  0  0  0  0
  9 44  1  0  0  0  0
 10 11  1  1  0  0  0
 10 12  1  0  0  0  0
 10 31  1  0  0  0  0
 12 13  1  1  0  0  0
 12 20  1  0  0  0  0
 12 14  1  0  0  0  0
 14 17  1  1  0  0  0
 14 15  1  0  0  0  0
 15 16  1  6  0  0  0
 15 17  1  0  0  0  0
 15 18  1  0  0  0  0
 18 19  1  0  0  0  0
 18 45  1  0  0  0  0
 18 46  1  0  0  0  0
 19 24  1  0  0  0  0
 19 20  1  0  0  0  0
 19 30  1  1  0  0  0
 20 21  1  6  0  0  0
 20 22  1  0  0  0  0
 22 23  1  0  0  0  0
 22 47  1  0  0  0  0
 22 48  1  0  0  0  0
 23 24  1  0  0  0  0
 23 49  1  0  0  0  0
 23 50  1  0  0  0  0
 24 29  1  6  0  0  0
 24 25  1  0  0  0  0
 25 26  1  0  0  0  0
 25 51  1  0  0  0  0
 25 52  1  0  0  0  0
 26 27  1  0  0  0  0
 26 53  1  0  0  0  0
 26 54  1  0  0  0  0
 27 28  2  0  0  0  0
 27 29  1  0  0  0  0
 30 55  1  0  0  0  0
 30 56  1  0  0  0  0
 30 57  1  0  0  0  0
 31 32  2  0  0  0  0
 31 33  1  0  0  0  0
 33 34  1  0  0  0  0
 34 58  1  0  0  0  0
 34 59  1  0  0  0  0
 34 60  1  0  0  0  0
M  END
$$$$
