ZINC03830316
 OpenBabel08292219463D

 31 32  0  0  1  0  0  0  0  0999 V2000
   -0.0230    1.8412    0.0122 C   0  0  0  0  0  0  0  0  0  0  0  0
    1.4861    2.1667   -0.0005 C   0  0  1  0  0  0  0  0  0  0  0  0
    1.6783    3.0713    0.5764 H   0  0  0  0  0  0  0  0  0  0  0  0
    2.3668    1.0216    0.5085 C   0  0  1  0  0  0  0  0  0  0  0  0
    2.9840    1.3650    1.3387 H   0  0  0  0  0  0  0  0  0  0  0  0
    1.5716   -0.2347    0.9242 C   0  0  1  0  0  0  0  0  0  0  0  0
    1.3796   -0.2391    1.9971 H   0  0  0  0  0  0  0  0  0  0  0  0
    0.0021   -0.0041    0.0020 S   0  0  0  0  0  0  0  0  0  0  0  0
    2.2970   -1.5112    0.4938 C   0  0  0  0  0  0  0  0  0  0  0  0
    1.5447   -2.7308    1.0302 C   0  0  0  0  0  0  0  0  0  0  0  0
    2.2701   -4.0073    0.5998 C   0  0  0  0  0  0  0  0  0  0  0  0
    1.5179   -5.2269    1.1362 C   0  0  0  0  0  0  0  0  0  0  0  0
    2.2323   -6.4842    0.7123 C   0  0  0  0  0  0  0  0  0  0  0  0
    3.2489   -6.4116    0.0432 O   0  0  0  0  0  0  0  0  0  0  0  0
    1.7938   -7.5740    1.0385 O   0  0  0  0  0  1  0  0  0  0  0  0
    3.2155    0.6837   -0.6450 N   0  0  0  0  0  0  0  0  0  0  0  0
    2.8993    1.4871   -1.6699 C   0  0  0  0  0  0  0  0  0  0  0  0
    3.4470    1.4266   -2.7538 O   0  0  0  0  0  0  0  0  0  0  0  0
    1.9262    2.3530   -1.3922 N   0  0  0  0  0  0  0  0  0  0  0  0
   -0.4977    2.2212    0.9168 H   0  0  0  0  0  0  0  0  0  0  0  0
   -0.5148    2.2308   -0.8791 H   0  0  0  0  0  0  0  0  0  0  0  0
    2.3355   -1.5579   -0.5945 H   0  0  0  0  0  0  0  0  0  0  0  0
    3.3111   -1.5052    0.8933 H   0  0  0  0  0  0  0  0  0  0  0  0
    1.5062   -2.6841    2.1185 H   0  0  0  0  0  0  0  0  0  0  0  0
    0.5306   -2.7368    0.6307 H   0  0  0  0  0  0  0  0  0  0  0  0
    2.3086   -4.0540   -0.4885 H   0  0  0  0  0  0  0  0  0  0  0  0
    3.2842   -4.0012    0.9994 H   0  0  0  0  0  0  0  0  0  0  0  0
    1.4793   -5.1802    2.2246 H   0  0  0  0  0  0  0  0  0  0  0  0
    0.5038   -5.2329    0.7367 H   0  0  0  0  0  0  0  0  0  0  0  0
    3.8947   -0.0087   -0.6610 H   0  0  0  0  0  0  0  0  0  0  0  0
    1.5678    3.0059   -2.0136 H   0  0  0  0  0  0  0  0  0  0  0  0
  1  8  1  0  0  0  0
  1  2  1  0  0  0  0
  1 20  1  0  0  0  0
  1 21  1  0  0  0  0
  2  3  1  1  0  0  0
  2 19  1  0  0  0  0
  2  4  1  0  0  0  0
  4  5  1  1  0  0  0
  4  6  1  0  0  0  0
  4 16  1  0  0  0  0
  6  7  1  1  0  0  0
  6  8  1  0  0  0  0
  6  9  1  0  0  0  0
  9 10  1  0  0  0  0
  9 22  1  0  0  0  0
  9 23  1  0  0  0  0
 10 11  1  0  0  0  0
 10 24  1  0  0  0  0
 10 25  1  0  0  0  0
 11 12  1  0  0  0  0
 11 26  1  0  0  0  0
 11 27  1  0  0  0  0
 12 13  1  0  0  0  0
 12 28  1  0  0  0  0
 12 29  1  0  0  0  0
 13 14  2  0  0  0  0
 13 15  1  0  0  0  0
 16 17  1  0  0  0  0
 16 30  1  0  0  0  0
 17 18  2  0  0  0  0
 17 19  1  0  0  0  0
 19 31  1  0  0  0  0
M  END
$$$$
