ZINC00113418
 OpenBabel08292219463D

 23 24  0  0  0  0  0  0  0  0999 V2000
   -0.0170    1.4721    0.0176 C   0  0  0  0  0  0  0  0  0  0  0  0
    1.2888    1.8629    0.0057 C   0  0  0  0  0  0  0  0  0  0  0  0
    2.0785    0.7103   -0.0125 C   0  0  0  0  0  0  0  0  0  0  0  0
    1.3034   -0.3776   -0.0122 O   0  0  0  0  0  0  0  0  0  0  0  0
    0.0026   -0.0043    0.0057 C   0  0  0  0  0  0  0  0  0  0  0  0
   -1.0943   -0.8422    0.0117 C   0  0  0  0  0  0  0  0  0  0  0  0
   -0.9225   -2.1699   -0.0008 N   0  0  0  0  0  0  0  0  0  0  0  0
   -1.9423   -2.9532    0.1021 N   0  0  0  0  0  0  0  0  0  0  0  0
   -3.3592   -2.5392    0.1254 C   0  0  0  0  0  0  0  0  0  0  0  0
   -4.0948   -3.8775   -0.1223 C   0  0  0  0  0  0  0  0  0  0  0  0
   -3.1254   -4.8415    0.3330 O   0  0  0  0  0  0  0  0  0  0  0  0
   -1.9056   -4.2953    0.2017 C   0  0  0  0  0  0  0  0  0  0  0  0
   -0.8789   -4.9425    0.1790 O   0  0  0  0  0  0  0  0  0  0  0  0
    3.5663    0.6968   -0.0302 N   0  0  0  0  0  4  0  0  0  0  0  0
    4.2352    1.8312   -0.0293 O   0  0  0  0  0  0  0  0  0  0  0  0
    4.2143   -0.4497   -0.0466 O   0  5  0  0  0  0  0  0  0  0  0  0
   -0.8874    2.1112    0.0367 H   0  0  0  0  0  0  0  0  0  0  0  0
    1.6486    2.8812    0.0093 H   0  0  0  0  0  0  0  0  0  0  0  0
   -2.0911   -0.4268    0.0265 H   0  0  0  0  0  0  0  0  0  0  0  0
   -3.6262   -2.1236    1.0971 H   0  0  0  0  0  0  0  0  0  0  0  0
   -3.5688   -1.8275   -0.6732 H   0  0  0  0  0  0  0  0  0  0  0  0
   -5.0084   -3.9349    0.4695 H   0  0  0  0  0  0  0  0  0  0  0  0
   -4.3102   -4.0129   -1.1822 H   0  0  0  0  0  0  0  0  0  0  0  0
  1  5  2  0  0  0  0
  1  2  1  0  0  0  0
  1 17  1  0  0  0  0
  2  3  2  0  0  0  0
  2 18  1  0  0  0  0
  3  4  1  0  0  0  0
  3 14  1  0  0  0  0
  4  5  1  0  0  0  0
  5  6  1  0  0  0  0
  6  7  2  0  0  0  0
  6 19  1  0  0  0  0
  7  8  1  0  0  0  0
  8 12  1  0  0  0  0
  8  9  1  0  0  0  0
  9 10  1  0  0  0  0
  9 20  1  0  0  0  0
  9 21  1  0  0  0  0
 10 11  1  0  0  0  0
 10 22  1  0  0  0  0
 10 23  1  0  0  0  0
 11 12  1  0  0  0  0
 12 13  2  0  0  0  0
 14 15  2  0  0  0  0
 14 16  1  0  0  0  0
M  CHG  1  16  -1
M  END
$$$$
