ZINC01530598
 OpenBabel08292219463D

 48 50  0  0  0  0  0  0  0  0999 V2000
   -0.1485    1.7486   -0.3566 C   0  0  0  0  0  0  0  0  0  0  0  0
   -0.0696    0.3268   -0.2373 O   0  0  0  0  0  0  0  0  0  0  0  0
    0.5479   -0.3435   -1.2451 C   0  0  0  0  0  0  0  0  0  0  0  0
    1.0719    0.3569   -2.3236 C   0  0  0  0  0  0  0  0  0  0  0  0
    1.6991   -0.3195   -3.3480 C   0  0  0  0  0  0  0  0  0  0  0  0
    1.8076   -1.7104   -3.3000 C   0  0  0  0  0  0  0  0  0  0  0  0
    1.2800   -2.4108   -2.2138 C   0  0  0  0  0  0  0  0  0  0  0  0
    0.6585   -1.7267   -1.1910 C   0  0  0  0  0  0  0  0  0  0  0  0
    2.4795   -2.4402   -4.3974 C   0  0  0  0  0  0  0  0  0  0  0  0
    3.8068   -2.2621   -4.6180 C   0  0  0  0  0  0  0  0  0  0  0  0
    4.6042   -1.4482   -3.6879 C   0  0  0  0  0  0  0  0  0  0  0  0
    4.5098   -1.6632   -2.3086 C   0  0  0  0  0  0  0  0  0  0  0  0
    5.2588   -0.8979   -1.4419 C   0  0  0  0  0  0  0  0  0  0  0  0
    6.1068    0.0857   -1.9351 C   0  0  0  0  0  0  0  0  0  0  0  0
    6.2041    0.3036   -3.3037 C   0  0  0  0  0  0  0  0  0  0  0  0
    5.4642   -0.4601   -4.1796 C   0  0  0  0  0  0  0  0  0  0  0  0
    6.8433    0.8375   -1.0760 O   0  0  0  0  0  0  0  0  0  0  0  0
    7.6947    1.8314   -1.6498 C   0  0  0  0  0  0  0  0  0  0  0  0
    4.5634   -2.9951   -5.9979 Cl  0  0  0  0  0  0  0  0  0  0  0  0
    1.7046   -3.3641   -5.2545 C   0  0  0  0  0  0  0  0  0  0  0  0
    0.6955   -2.8699   -6.0828 C   0  0  0  0  0  0  0  0  0  0  0  0
   -0.0239   -3.7340   -6.8804 C   0  0  0  0  0  0  0  0  0  0  0  0
    0.2537   -5.0945   -6.8601 C   0  0  0  0  0  0  0  0  0  0  0  0
    1.2564   -5.5900   -6.0371 C   0  0  0  0  0  0  0  0  0  0  0  0
    1.9845   -4.7316   -5.2413 C   0  0  0  0  0  0  0  0  0  0  0  0
   -0.4580   -5.9431   -7.6473 O   0  0  0  0  0  0  0  0  0  0  0  0
   -0.1205   -7.3299   -7.5774 C   0  0  0  0  0  0  0  0  0  0  0  0
    0.8574    2.1649   -0.4121 H   0  0  0  0  0  0  0  0  0  0  0  0
   -0.6992    2.0073   -1.2610 H   0  0  0  0  0  0  0  0  0  0  0  0
   -0.6638    2.1581    0.5122 H   0  0  0  0  0  0  0  0  0  0  0  0
    0.9875    1.4330   -2.3601 H   0  0  0  0  0  0  0  0  0  0  0  0
    2.1057    0.2259   -4.1869 H   0  0  0  0  0  0  0  0  0  0  0  0
    1.3617   -3.4870   -2.1732 H   0  0  0  0  0  0  0  0  0  0  0  0
    0.2537   -2.2675   -0.3484 H   0  0  0  0  0  0  0  0  0  0  0  0
    3.8506   -2.4274   -1.9241 H   0  0  0  0  0  0  0  0  0  0  0  0
    5.1864   -1.0628   -0.3770 H   0  0  0  0  0  0  0  0  0  0  0  0
    6.8646    1.0698   -3.6819 H   0  0  0  0  0  0  0  0  0  0  0  0
    5.5441   -0.2932   -5.2436 H   0  0  0  0  0  0  0  0  0  0  0  0
    8.2245    2.3582   -0.8561 H   0  0  0  0  0  0  0  0  0  0  0  0
    8.4159    1.3533   -2.3128 H   0  0  0  0  0  0  0  0  0  0  0  0
    7.0933    2.5409   -2.2182 H   0  0  0  0  0  0  0  0  0  0  0  0
    0.4786   -1.8120   -6.0986 H   0  0  0  0  0  0  0  0  0  0  0  0
   -0.8048   -3.3524   -7.5215 H   0  0  0  0  0  0  0  0  0  0  0  0
    1.4688   -6.6488   -6.0236 H   0  0  0  0  0  0  0  0  0  0  0  0
    2.7674   -5.1172   -4.6051 H   0  0  0  0  0  0  0  0  0  0  0  0
    0.9214   -7.4653   -7.8677 H   0  0  0  0  0  0  0  0  0  0  0  0
   -0.2629   -7.6875   -6.5576 H   0  0  0  0  0  0  0  0  0  0  0  0
   -0.7624   -7.8946   -8.2534 H   0  0  0  0  0  0  0  0  0  0  0  0
  1  2  1  0  0  0  0
  1 28  1  0  0  0  0
  1 29  1  0  0  0  0
  1 30  1  0  0  0  0
  2  3  1  0  0  0  0
  3  8  2  0  0  0  0
  3  4  1  0  0  0  0
  4  5  2  0  0  0  0
  4 31  1  0  0  0  0
  5  6  1  0  0  0  0
  5 32  1  0  0  0  0
  6  7  2  0  0  0  0
  6  9  1  0  0  0  0
  7  8  1  0  0  0  0
  7 33  1  0  0  0  0
  8 34  1  0  0  0  0
  9 10  2  0  0  0  0
  9 20  1  0  0  0  0
 10 11  1  0  0  0  0
 10 19  1  0  0  0  0
 11 16  2  0  0  0  0
 11 12  1  0  0  0  0
 12 13  2  0  0  0  0
 12 35  1  0  0  0  0
 13 14  1  0  0  0  0
 13 36  1  0  0  0  0
 14 15  2  0  0  0  0
 14 17  1  0  0  0  0
 15 16  1  0  0  0  0
 15 37  1  0  0  0  0
 16 38  1  0  0  0  0
 17 18  1  0  0  0  0
 18 39  1  0  0  0  0
 18 40  1  0  0  0  0
 18 41  1  0  0  0  0
 20 25  2  0  0  0  0
 20 21  1  0  0  0  0
 21 22  2  0  0  0  0
 21 42  1  0  0  0  0
 22 23  1  0  0  0  0
 22 43  1  0  0  0  0
 23 24  2  0  0  0  0
 23 26  1  0  0  0  0
 24 25  1  0  0  0  0
 24 44  1  0  0  0  0
 25 45  1  0  0  0  0
 26 27  1  0  0  0  0
 27 46  1  0  0  0  0
 27 47  1  0  0  0  0
 27 48  1  0  0  0  0
M  END
$$$$
