ZINC00968266
 OpenBabel08292219463D

 51 53  0  0  0  0  0  0  0  0999 V2000
   -0.0167    1.3781    0.0096 C   0  0  0  0  0  0  0  0  0  0  0  0
    1.1709    2.0855    0.0021 C   0  0  0  0  0  0  0  0  0  0  0  0
    2.3773    1.4107   -0.0130 C   0  0  0  0  0  0  0  0  0  0  0  0
    2.3960    0.0285   -0.0201 C   0  0  0  0  0  0  0  0  0  0  0  0
    1.2084   -0.6789   -0.0117 C   0  0  0  0  0  0  0  0  0  0  0  0
    0.0021   -0.0041    0.0020 C   0  0  0  0  0  0  0  0  0  0  0  0
    3.7112   -0.7071   -0.0376 C   0  0  0  0  0  0  0  0  0  0  0  0
    3.5540   -2.0499    0.6787 C   0  0  0  0  0  0  0  0  0  0  0  0
    4.8892   -2.7968    0.6609 C   0  0  0  0  0  0  0  0  0  0  0  0
    4.7319   -4.1396    1.3772 C   0  0  0  0  0  0  0  0  0  0  0  0
    6.0139   -4.8567    1.3602 N   0  3  0  0  0  0  0  0  0  0  0  0
    6.3706   -5.1855   -0.0252 C   0  0  0  0  0  0  0  0  0  0  0  0
    7.7435   -5.8606   -0.0559 C   0  0  0  0  0  0  0  0  0  0  0  0
    7.6940   -7.1439    0.7783 C   0  0  0  0  0  0  0  0  0  0  0  0
    7.2488   -6.7984    2.2023 C   0  0  0  0  0  0  0  0  0  0  0  0
    5.8943   -6.0885    2.1494 C   0  0  0  0  0  0  0  0  0  0  0  0
    4.1347   -0.9452   -1.4641 C   0  0  0  0  0  0  0  0  0  0  0  0
    3.7398   -2.0966   -2.1193 C   0  0  0  0  0  0  0  0  0  0  0  0
    4.1282   -2.3151   -3.4278 C   0  0  0  0  0  0  0  0  0  0  0  0
    4.9112   -1.3819   -4.0813 C   0  0  0  0  0  0  0  0  0  0  0  0
    5.3053   -0.2301   -3.4264 C   0  0  0  0  0  0  0  0  0  0  0  0
    4.9133   -0.0097   -2.1193 C   0  0  0  0  0  0  0  0  0  0  0  0
    4.7035    0.0753    0.6296 O   0  0  0  0  0  0  0  0  0  0  0  0
   -0.9591    1.9053    0.0259 H   0  0  0  0  0  0  0  0  0  0  0  0
    1.1563    3.1654    0.0076 H   0  0  0  0  0  0  0  0  0  0  0  0
    3.3051    1.9634   -0.0196 H   0  0  0  0  0  0  0  0  0  0  0  0
    1.2231   -1.7588   -0.0179 H   0  0  0  0  0  0  0  0  0  0  0  0
   -0.9258   -0.5567    0.0082 H   0  0  0  0  0  0  0  0  0  0  0  0
    3.2476   -1.8777    1.7105 H   0  0  0  0  0  0  0  0  0  0  0  0
    2.7970   -2.6467    0.1698 H   0  0  0  0  0  0  0  0  0  0  0  0
    5.1955   -2.9691   -0.3709 H   0  0  0  0  0  0  0  0  0  0  0  0
    5.6461   -2.2000    1.1699 H   0  0  0  0  0  0  0  0  0  0  0  0
    4.4256   -3.9674    2.4090 H   0  0  0  0  0  0  0  0  0  0  0  0
    3.9750   -4.7364    0.8683 H   0  0  0  0  0  0  0  0  0  0  0  0
    5.6241   -5.8620   -0.4414 H   0  0  0  0  0  0  0  0  0  0  0  0
    6.4023   -4.2716   -0.6184 H   0  0  0  0  0  0  0  0  0  0  0  0
    8.0057   -6.1055   -1.0852 H   0  0  0  0  0  0  0  0  0  0  0  0
    8.4908   -5.1848    0.3598 H   0  0  0  0  0  0  0  0  0  0  0  0
    6.9837   -7.8407    0.3334 H   0  0  0  0  0  0  0  0  0  0  0  0
    8.6840   -7.5989    0.8062 H   0  0  0  0  0  0  0  0  0  0  0  0
    7.1575   -7.7137    2.7872 H   0  0  0  0  0  0  0  0  0  0  0  0
    7.9859   -6.1421    2.6649 H   0  0  0  0  0  0  0  0  0  0  0  0
    5.5743   -5.8414    3.1616 H   0  0  0  0  0  0  0  0  0  0  0  0
    5.1580   -6.7458    1.6869 H   0  0  0  0  0  0  0  0  0  0  0  0
    3.1280   -2.8257   -1.6087 H   0  0  0  0  0  0  0  0  0  0  0  0
    3.8203   -3.2149   -3.9395 H   0  0  0  0  0  0  0  0  0  0  0  0
    5.2153   -1.5529   -5.1034 H   0  0  0  0  0  0  0  0  0  0  0  0
    5.9174    0.4988   -3.9369 H   0  0  0  0  0  0  0  0  0  0  0  0
    5.2182    0.8920   -1.6088 H   0  0  0  0  0  0  0  0  0  0  0  0
    4.4965    0.2677    1.5544 H   0  0  0  0  0  0  0  0  0  0  0  0
    6.7313   -4.2706    1.7600 H   0  0  0  0  0  0  0  0  0  0  0  0
  1  6  2  0  0  0  0
  1  2  1  0  0  0  0
  1 24  1  0  0  0  0
  2  3  2  0  0  0  0
  2 25  1  0  0  0  0
  3  4  1  0  0  0  0
  3 26  1  0  0  0  0
  4  5  2  0  0  0  0
  4  7  1  0  0  0  0
  5  6  1  0  0  0  0
  5 27  1  0  0  0  0
  6 28  1  0  0  0  0
  7  8  1  0  0  0  0
  7 17  1  0  0  0  0
  7 23  1  0  0  0  0
  8  9  1  0  0  0  0
  8 29  1  0  0  0  0
  8 30  1  0  0  0  0
  9 10  1  0  0  0  0
  9 31  1  0  0  0  0
  9 32  1  0  0  0  0
 10 11  1  0  0  0  0
 10 33  1  0  0  0  0
 10 34  1  0  0  0  0
 11 16  1  0  0  0  0
 11 12  1  0  0  0  0
 11 51  1  0  0  0  0
 12 13  1  0  0  0  0
 12 35  1  0  0  0  0
 12 36  1  0  0  0  0
 13 14  1  0  0  0  0
 13 37  1  0  0  0  0
 13 38  1  0  0  0  0
 14 15  1  0  0  0  0
 14 39  1  0  0  0  0
 14 40  1  0  0  0  0
 15 16  1  0  0  0  0
 15 41  1  0  0  0  0
 15 42  1  0  0  0  0
 16 43  1  0  0  0  0
 16 44  1  0  0  0  0
 17 22  2  0  0  0  0
 17 18  1  0  0  0  0
 18 19  2  0  0  0  0
 18 45  1  0  0  0  0
 19 20  1  0  0  0  0
 19 46  1  0  0  0  0
 20 21  2  0  0  0  0
 20 47  1  0  0  0  0
 21 22  1  0  0  0  0
 21 48  1  0  0  0  0
 22 49  1  0  0  0  0
 23 50  1  0  0  0  0
M  CHG  1  11   1
M  END
$$$$
