ZINC03812908
 OpenBabel08292219463D

 54 55  0  0  0  0  0  0  0  0999 V2000
   -0.0184    1.5028    0.0103 C   0  0  0  0  0  0  0  0  0  0  0  0
    0.0021   -0.0041    0.0020 C   0  0  0  0  0  0  0  0  0  0  0  0
    0.0203   -0.6138    1.0450 O   0  0  0  0  0  0  0  0  0  0  0  0
    0.0001   -0.6689   -1.1641 O   0  0  0  0  0  0  0  0  0  0  0  0
    0.0201   -2.0962   -1.0971 C   0  0  0  0  0  0  0  0  0  0  0  0
    0.0147   -2.6647   -2.4928 C   0  0  0  0  0  0  0  0  0  0  0  0
   -0.0045   -1.9208   -3.4505 O   0  0  0  0  0  0  0  0  0  0  0  0
    0.0311   -3.9997   -2.6767 N   0  0  0  0  0  0  0  0  0  0  0  0
    0.0258   -4.5523   -4.0335 C   0  0  0  0  0  0  0  0  0  0  0  0
    0.0472   -6.0805   -3.9618 C   0  0  0  0  0  0  0  0  0  0  0  0
    0.0417   -6.6576   -5.3788 C   0  0  0  0  0  0  0  0  0  0  0  0
    0.0617   -8.0849   -5.3118 O   0  0  0  0  0  0  0  0  0  0  0  0
    0.0597   -8.7580   -6.4924 C   0  0  0  0  0  0  0  0  0  0  0  0
    0.0446   -8.0590   -7.6909 C   0  0  0  0  0  0  0  0  0  0  0  0
    0.0431   -8.7454   -8.8895 C   0  0  0  0  0  0  0  0  0  0  0  0
    0.0566  -10.1282   -8.8957 C   0  0  0  0  0  0  0  0  0  0  0  0
    0.0711  -10.8270   -7.7030 C   0  0  0  0  0  0  0  0  0  0  0  0
    0.0785  -10.1450   -6.5014 C   0  0  0  0  0  0  0  0  0  0  0  0
    0.0853  -12.3339   -7.7134 C   0  0  0  0  0  0  0  0  0  0  0  0
    1.4748  -12.8105   -7.7261 N   0  3  0  0  0  0  0  0  0  0  0  0
    2.1202  -12.3991   -8.9785 C   0  0  0  0  0  0  0  0  0  0  0  0
    3.5905  -12.8225   -8.9621 C   0  0  0  0  0  0  0  0  0  0  0  0
    3.6762  -14.3447   -8.8180 C   0  0  0  0  0  0  0  0  0  0  0  0
    2.9356  -14.7697   -7.5467 C   0  0  0  0  0  0  0  0  0  0  0  0
    1.4895  -14.2741   -7.6156 C   0  0  0  0  0  0  0  0  0  0  0  0
    1.0042    1.8801    0.0026 H   0  0  0  0  0  0  0  0  0  0  0  0
   -0.5455    1.8639   -0.8728 H   0  0  0  0  0  0  0  0  0  0  0  0
   -0.5286    1.8543    0.9071 H   0  0  0  0  0  0  0  0  0  0  0  0
    0.9196   -2.4228   -0.5753 H   0  0  0  0  0  0  0  0  0  0  0  0
   -0.8601   -2.4471   -0.5584 H   0  0  0  0  0  0  0  0  0  0  0  0
    0.0464   -4.5947   -1.9108 H   0  0  0  0  0  0  0  0  0  0  0  0
   -0.8737   -4.2257   -4.5553 H   0  0  0  0  0  0  0  0  0  0  0  0
    0.9060   -4.2014   -4.5722 H   0  0  0  0  0  0  0  0  0  0  0  0
    0.9467   -6.4071   -3.4400 H   0  0  0  0  0  0  0  0  0  0  0  0
   -0.8330   -6.4314   -3.4231 H   0  0  0  0  0  0  0  0  0  0  0  0
   -0.8578   -6.3310   -5.9006 H   0  0  0  0  0  0  0  0  0  0  0  0
    0.9219   -6.3068   -5.9175 H   0  0  0  0  0  0  0  0  0  0  0  0
    0.0338   -6.9791   -7.6866 H   0  0  0  0  0  0  0  0  0  0  0  0
    0.0310   -8.2018   -9.8226 H   0  0  0  0  0  0  0  0  0  0  0  0
    0.0553  -10.6631   -9.8339 H   0  0  0  0  0  0  0  0  0  0  0  0
    0.0944  -10.6913   -5.5699 H   0  0  0  0  0  0  0  0  0  0  0  0
   -0.4191  -12.7082   -6.8226 H   0  0  0  0  0  0  0  0  0  0  0  0
   -0.4311  -12.6960   -8.6024 H   0  0  0  0  0  0  0  0  0  0  0  0
    1.6153  -12.8736   -9.8199 H   0  0  0  0  0  0  0  0  0  0  0  0
    2.0556  -11.3158   -9.0812 H   0  0  0  0  0  0  0  0  0  0  0  0
    4.0675  -12.5177   -9.8936 H   0  0  0  0  0  0  0  0  0  0  0  0
    4.0965  -12.3482   -8.1212 H   0  0  0  0  0  0  0  0  0  0  0  0
    3.2152  -14.8193   -9.6842 H   0  0  0  0  0  0  0  0  0  0  0  0
    4.7214  -14.6460   -8.7489 H   0  0  0  0  0  0  0  0  0  0  0  0
    2.9444  -15.8567   -7.4665 H   0  0  0  0  0  0  0  0  0  0  0  0
    3.4280  -14.3358   -6.6764 H   0  0  0  0  0  0  0  0  0  0  0  0
    0.9593  -14.5751   -6.7120 H   0  0  0  0  0  0  0  0  0  0  0  0
    0.9980  -14.7087   -8.4860 H   0  0  0  0  0  0  0  0  0  0  0  0
    1.9737  -12.4103   -6.9457 H   0  0  0  0  0  0  0  0  0  0  0  0
  1  2  1  0  0  0  0
  1 26  1  0  0  0  0
  1 27  1  0  0  0  0
  1 28  1  0  0  0  0
  2  3  2  0  0  0  0
  2  4  1  0  0  0  0
  4  5  1  0  0  0  0
  5  6  1  0  0  0  0
  5 29  1  0  0  0  0
  5 30  1  0  0  0  0
  6  7  2  0  0  0  0
  6  8  1  0  0  0  0
  8  9  1  0  0  0  0
  8 31  1  0  0  0  0
  9 10  1  0  0  0  0
  9 32  1  0  0  0  0
  9 33  1  0  0  0  0
 10 11  1  0  0  0  0
 10 34  1  0  0  0  0
 10 35  1  0  0  0  0
 11 12  1  0  0  0  0
 11 36  1  0  0  0  0
 11 37  1  0  0  0  0
 12 13  1  0  0  0  0
 13 18  2  0  0  0  0
 13 14  1  0  0  0  0
 14 15  2  0  0  0  0
 14 38  1  0  0  0  0
 15 16  1  0  0  0  0
 15 39  1  0  0  0  0
 16 17  2  0  0  0  0
 16 40  1  0  0  0  0
 17 18  1  0  0  0  0
 17 19  1  0  0  0  0
 18 41  1  0  0  0  0
 19 20  1  0  0  0  0
 19 42  1  0  0  0  0
 19 43  1  0  0  0  0
 20 25  1  0  0  0  0
 20 21  1  0  0  0  0
 20 54  1  0  0  0  0
 21 22  1  0  0  0  0
 21 44  1  0  0  0  0
 21 45  1  0  0  0  0
 22 23  1  0  0  0  0
 22 46  1  0  0  0  0
 22 47  1  0  0  0  0
 23 24  1  0  0  0  0
 23 48  1  0  0  0  0
 23 49  1  0  0  0  0
 24 25  1  0  0  0  0
 24 50  1  0  0  0  0
 24 51  1  0  0  0  0
 25 52  1  0  0  0  0
 25 53  1  0  0  0  0
M  CHG  1  20   1
M  END
$$$$
