ZINC00000931
 OpenBabel08292219463D

 39 42  0  0  0  0  0  0  0  0999 V2000
    0.0201    1.3826   -0.0725 C   0  0  0  0  0  0  0  0  0  0  0  0
    1.2084    2.0885   -0.0465 C   0  0  0  0  0  0  0  0  0  0  0  0
    2.4164    1.4141   -0.0074 C   0  0  0  0  0  0  0  0  0  0  0  0
    2.4435    0.0295   -0.0014 C   0  0  0  0  0  0  0  0  0  0  0  0
    1.2475   -0.6897   -0.0511 C   0  0  0  0  0  0  0  0  0  0  0  0
    0.0325    0.0025   -0.0730 C   0  0  0  0  0  0  0  0  0  0  0  0
    1.2308   -2.0505   -0.1194 N   0  0  0  0  0  0  0  0  0  0  0  0
    1.9962   -2.8673    0.5177 C   0  0  0  0  0  0  0  0  0  0  0  0
    3.0721   -2.4786    1.4430 C   0  0  0  0  0  0  0  0  0  0  0  0
    3.2906   -3.2185    2.6071 C   0  0  0  0  0  0  0  0  0  0  0  0
    4.3147   -2.8688    3.4647 C   0  0  0  0  0  0  0  0  0  0  0  0
    5.1287   -1.7870    3.1741 C   0  0  0  0  0  0  0  0  0  0  0  0
    4.9157   -1.0427    2.0283 C   0  0  0  0  0  0  0  0  0  0  0  0
    3.8842   -1.3748    1.1654 C   0  0  0  0  0  0  0  0  0  0  0  0
    3.6415   -0.6057    0.0749 O   0  0  0  0  0  0  0  0  0  0  0  0
    4.5823   -3.7883    4.9126 Cl  0  0  0  0  0  0  0  0  0  0  0  0
    1.7907   -4.2134    0.3169 N   0  0  0  0  0  0  0  0  0  0  0  0
    0.6491   -4.6941   -0.4768 C   0  0  0  0  0  0  0  0  0  0  0  0
    1.1686   -5.6843   -1.5245 C   0  0  0  0  0  0  0  0  0  0  0  0
    1.9325   -6.7458   -0.8569 N   0  3  0  0  0  0  0  0  0  0  0  0
    3.1289   -6.1778   -0.2228 C   0  0  0  0  0  0  0  0  0  0  0  0
    2.7098   -5.2119    0.8846 C   0  0  0  0  0  0  0  0  0  0  0  0
   -0.9208    1.9126   -0.0879 H   0  0  0  0  0  0  0  0  0  0  0  0
    1.1942    3.1683   -0.0570 H   0  0  0  0  0  0  0  0  0  0  0  0
    3.3419    1.9700    0.0182 H   0  0  0  0  0  0  0  0  0  0  0  0
   -0.8986   -0.5444   -0.0901 H   0  0  0  0  0  0  0  0  0  0  0  0
    2.6585   -4.0636    2.8366 H   0  0  0  0  0  0  0  0  0  0  0  0
    5.9333   -1.5238    3.8447 H   0  0  0  0  0  0  0  0  0  0  0  0
    5.5542   -0.2004    1.8062 H   0  0  0  0  0  0  0  0  0  0  0  0
   -0.0665   -5.1937    0.1762 H   0  0  0  0  0  0  0  0  0  0  0  0
    0.1689   -3.8520   -0.9751 H   0  0  0  0  0  0  0  0  0  0  0  0
    0.3260   -6.1237   -2.0585 H   0  0  0  0  0  0  0  0  0  0  0  0
    1.8136   -5.1613   -2.2305 H   0  0  0  0  0  0  0  0  0  0  0  0
    1.3556   -7.1822   -0.1535 H   0  0  0  0  0  0  0  0  0  0  0  0
    3.7309   -6.9809    0.2023 H   0  0  0  0  0  0  0  0  0  0  0  0
    3.7147   -5.6398   -0.9682 H   0  0  0  0  0  0  0  0  0  0  0  0
    3.5912   -4.7119    1.2860 H   0  0  0  0  0  0  0  0  0  0  0  0
    2.2058   -5.7646    1.6775 H   0  0  0  0  0  0  0  0  0  0  0  0
    2.2101   -7.4373   -1.5372 H   0  0  0  0  0  0  0  0  0  0  0  0
  1  6  2  0  0  0  0
  1  2  1  0  0  0  0
  1 23  1  0  0  0  0
  2  3  2  0  0  0  0
  2 24  1  0  0  0  0
  3  4  1  0  0  0  0
  3 25  1  0  0  0  0
  4 15  1  0  0  0  0
  4  5  2  0  0  0  0
  5  6  1  0  0  0  0
  5  7  1  0  0  0  0
  6 26  1  0  0  0  0
  7  8  2  0  0  0  0
  8  9  1  0  0  0  0
  8 17  1  0  0  0  0
  9 14  2  0  0  0  0
  9 10  1  0  0  0  0
 10 11  2  0  0  0  0
 10 27  1  0  0  0  0
 11 12  1  0  0  0  0
 11 16  1  0  0  0  0
 12 13  2  0  0  0  0
 12 28  1  0  0  0  0
 13 14  1  0  0  0  0
 13 29  1  0  0  0  0
 14 15  1  0  0  0  0
 17 22  1  0  0  0  0
 17 18  1  0  0  0  0
 18 19  1  0  0  0  0
 18 30  1  0  0  0  0
 18 31  1  0  0  0  0
 19 20  1  0  0  0  0
 19 32  1  0  0  0  0
 19 33  1  0  0  0  0
 20 21  1  0  0  0  0
 20 34  1  0  0  0  0
 20 39  1  0  0  0  0
 21 22  1  0  0  0  0
 21 35  1  0  0  0  0
 21 36  1  0  0  0  0
 22 37  1  0  0  0  0
 22 38  1  0  0  0  0
M  CHG  1  20   1
M  END
$$$$
