ZINC20330769
 OpenBabel08292219463D

 25 25  0  0  1  0  0  0  0  0999 V2000
   -0.0167    1.3776    0.0096 C   0  0  0  0  0  0  0  0  0  0  0  0
    1.1849    2.0698    0.0019 C   0  0  0  0  0  0  0  0  0  0  0  0
    2.3651    1.3426   -0.0133 C   0  0  0  0  0  0  0  0  0  0  0  0
    2.3054   -0.0383   -0.0202 C   0  0  0  0  0  0  0  0  0  0  0  0
    1.1443   -0.6632   -0.0129 N   0  0  0  0  0  0  0  0  0  0  0  0
    0.0021   -0.0041    0.0020 C   0  0  0  0  0  0  0  0  0  0  0  0
    3.6964    2.0488   -0.0227 C   0  0  0  0  0  0  0  0  0  0  0  0
    4.1610    2.2805    1.4165 C   0  0  1  0  0  0  0  0  0  0  0  0
    3.2001    3.0846    2.1036 O   0  0  0  0  0  0  0  0  0  0  0  0
    4.3300    0.6765    2.2662 P   0  0  0  0  0  0  0  0  0  0  0  0
    2.9224   -0.0003    2.3889 O   0  0  0  0  0  0  0  0  0  0  0  0
    5.2860   -0.2523    1.4430 O   0  0  0  0  0  1  0  0  0  0  0  0
    4.9267    0.9037    3.6968 O   0  0  0  0  0  1  0  0  0  0  0  0
    5.7714    3.1348    1.4051 P   0  0  1  0  0  0  0  0  0  0  0  0
    6.8103    2.2654    0.6622 O   0  0  0  0  0  0  0  0  0  0  0  0
    5.6282    4.4942    0.6850 O   0  0  0  0  0  1  0  0  0  0  0  0
    6.2603    3.3787    2.9196 O   0  0  0  0  0  0  0  0  0  0  0  0
   -0.9552    1.9117    0.0259 H   0  0  0  0  0  0  0  0  0  0  0  0
    1.2009    3.1496    0.0072 H   0  0  0  0  0  0  0  0  0  0  0  0
    3.2203   -0.6121   -0.0320 H   0  0  0  0  0  0  0  0  0  0  0  0
   -0.9294   -0.5505    0.0083 H   0  0  0  0  0  0  0  0  0  0  0  0
    4.4293    1.4355   -0.5468 H   0  0  0  0  0  0  0  0  0  0  0  0
    3.5953    3.0079   -0.5308 H   0  0  0  0  0  0  0  0  0  0  0  0
    3.0587    3.9546    1.7058 H   0  0  0  0  0  0  0  0  0  0  0  0
    7.1126    3.8300    2.9899 H   0  0  0  0  0  0  0  0  0  0  0  0
  1  6  2  0  0  0  0
  1  2  1  0  0  0  0
  1 18  1  0  0  0  0
  2  3  2  0  0  0  0
  2 19  1  0  0  0  0
  3  4  1  0  0  0  0
  3  7  1  0  0  0  0
  4  5  2  0  0  0  0
  4 20  1  0  0  0  0
  5  6  1  0  0  0  0
  6 21  1  0  0  0  0
  7  8  1  0  0  0  0
  7 22  1  0  0  0  0
  7 23  1  0  0  0  0
  8  9  1  1  0  0  0
  8 10  1  0  0  0  0
  8 14  1  0  0  0  0
  9 24  1  0  0  0  0
 10 11  2  0  0  0  0
 10 12  1  0  0  0  0
 10 13  1  0  0  0  0
 14 15  2  6  0  0  0
 14 16  1  0  0  0  0
 14 17  1  0  0  0  0
 17 25  1  0  0  0  0
M  END
$$$$
