ZINC00597556
 OpenBabel08292219463D

 56 56  0  0  1  0  0  0  0  0999 V2000
    0.3183    2.1197    0.3767 C   0  0  0  0  0  0  0  0  0  0  0  0
    0.2893    0.6060    0.5973 C   0  0  0  0  0  0  0  0  0  0  0  0
    1.1347    0.2528    1.8226 C   0  0  0  0  0  0  0  0  0  0  0  0
   -1.1538    0.1514    0.8251 C   0  0  0  0  0  0  0  0  0  0  0  0
    0.8351   -0.0719   -0.5861 N   0  3  0  0  0  0  0  0  0  0  0  0
    2.2206    0.3645   -0.8049 C   0  0  0  0  0  0  0  0  0  0  0  0
    2.7891   -0.3415   -2.0375 C   0  0  1  0  0  0  0  0  0  0  0  0
    2.1868   -0.0899   -2.9104 H   0  0  0  0  0  0  0  0  0  0  0  0
    4.2104    0.1062   -2.2619 C   0  0  0  0  0  0  0  0  0  0  0  0
    5.2449   -0.5218   -1.5951 C   0  0  0  0  0  0  0  0  0  0  0  0
    6.5545   -0.1114   -1.8000 C   0  0  0  0  0  0  0  0  0  0  0  0
    6.8246    0.9293   -2.6751 C   0  0  0  0  0  0  0  0  0  0  0  0
    5.7850    1.5576   -3.3433 C   0  0  0  0  0  0  0  0  0  0  0  0
    4.4776    1.1403   -3.1386 C   0  0  0  0  0  0  0  0  0  0  0  0
    6.0467    2.5787   -4.2016 O   0  0  0  0  0  0  0  0  0  0  0  0
    6.5341    2.2721   -5.4191 C   0  0  0  0  0  0  0  0  0  0  0  0
    6.6245    1.1100   -5.7624 O   0  0  0  0  0  0  0  0  0  0  0  0
    6.9216    3.2543   -6.2567 N   0  0  0  0  0  0  0  0  0  0  0  0
    7.4518    2.9208   -7.5811 C   0  0  0  0  0  0  0  0  0  0  0  0
    6.8127    4.6554   -5.8428 C   0  0  0  0  0  0  0  0  0  0  0  0
    7.5716   -0.7291   -1.1430 O   0  0  0  0  0  0  0  0  0  0  0  0
    7.9506   -1.9493   -1.5687 C   0  0  0  0  0  0  0  0  0  0  0  0
    7.3385   -2.4978   -2.4637 O   0  0  0  0  0  0  0  0  0  0  0  0
    9.0088   -2.5622   -1.0019 N   0  0  0  0  0  0  0  0  0  0  0  0
    9.4210   -3.8895   -1.4650 C   0  0  0  0  0  0  0  0  0  0  0  0
    9.7467   -1.9010    0.0771 C   0  0  0  0  0  0  0  0  0  0  0  0
    2.7619   -1.7553   -1.8315 O   0  0  0  0  0  0  0  0  0  0  0  0
    1.3464    2.4435    0.2143 H   0  0  0  0  0  0  0  0  0  0  0  0
   -0.2840    2.3713   -0.4963 H   0  0  0  0  0  0  0  0  0  0  0  0
   -0.0867    2.6227    1.2548 H   0  0  0  0  0  0  0  0  0  0  0  0
    0.7297    0.7558    2.7007 H   0  0  0  0  0  0  0  0  0  0  0  0
    1.1140   -0.8256    1.9798 H   0  0  0  0  0  0  0  0  0  0  0  0
    2.1628    0.5767    1.6603 H   0  0  0  0  0  0  0  0  0  0  0  0
   -1.7561    0.4030   -0.0478 H   0  0  0  0  0  0  0  0  0  0  0  0
   -1.1745   -0.9270    0.9823 H   0  0  0  0  0  0  0  0  0  0  0  0
   -1.5588    0.6544    1.7033 H   0  0  0  0  0  0  0  0  0  0  0  0
    0.8159   -1.0702   -0.4407 H   0  0  0  0  0  0  0  0  0  0  0  0
    2.2413    1.4429   -0.9621 H   0  0  0  0  0  0  0  0  0  0  0  0
    2.8229    0.1129    0.0680 H   0  0  0  0  0  0  0  0  0  0  0  0
    5.0340   -1.3326   -0.9135 H   0  0  0  0  0  0  0  0  0  0  0  0
    7.8431    1.2504   -2.8356 H   0  0  0  0  0  0  0  0  0  0  0  0
    3.6678    1.6267   -3.6621 H   0  0  0  0  0  0  0  0  0  0  0  0
    6.6976    2.3742   -8.1473 H   0  0  0  0  0  0  0  0  0  0  0  0
    7.7098    3.8380   -8.1107 H   0  0  0  0  0  0  0  0  0  0  0  0
    8.3424    2.3022   -7.4707 H   0  0  0  0  0  0  0  0  0  0  0  0
    7.7353    4.9613   -5.3496 H   0  0  0  0  0  0  0  0  0  0  0  0
    6.6446    5.2812   -6.7193 H   0  0  0  0  0  0  0  0  0  0  0  0
    5.9772    4.7662   -5.1516 H   0  0  0  0  0  0  0  0  0  0  0  0
   10.1459   -3.7838   -2.2721 H   0  0  0  0  0  0  0  0  0  0  0  0
    9.8741   -4.4379   -0.6391 H   0  0  0  0  0  0  0  0  0  0  0  0
    8.5496   -4.4344   -1.8282 H   0  0  0  0  0  0  0  0  0  0  0  0
    9.2970   -0.9296    0.2828 H   0  0  0  0  0  0  0  0  0  0  0  0
    9.7069   -2.5173    0.9753 H   0  0  0  0  0  0  0  0  0  0  0  0
   10.7854   -1.7640   -0.2238 H   0  0  0  0  0  0  0  0  0  0  0  0
    3.2782   -2.0517   -1.0694 H   0  0  0  0  0  0  0  0  0  0  0  0
    0.2775    0.1610   -1.3942 H   0  0  0  0  0  0  0  0  0  0  0  0
  1  2  1  0  0  0  0
  1 28  1  0  0  0  0
  1 29  1  0  0  0  0
  1 30  1  0  0  0  0
  2  3  1  0  0  0  0
  2  4  1  0  0  0  0
  2  5  1  0  0  0  0
  3 31  1  0  0  0  0
  3 32  1  0  0  0  0
  3 33  1  0  0  0  0
  4 34  1  0  0  0  0
  4 35  1  0  0  0  0
  4 36  1  0  0  0  0
  5  6  1  0  0  0  0
  5 37  1  0  0  0  0
  5 56  1  0  0  0  0
  6  7  1  0  0  0  0
  6 38  1  0  0  0  0
  6 39  1  0  0  0  0
  7  8  1  6  0  0  0
  7  9  1  0  0  0  0
  7 27  1  0  0  0  0
  9 14  2  0  0  0  0
  9 10  1  0  0  0  0
 10 11  2  0  0  0  0
 10 40  1  0  0  0  0
 11 12  1  0  0  0  0
 11 21  1  0  0  0  0
 12 13  2  0  0  0  0
 12 41  1  0  0  0  0
 13 14  1  0  0  0  0
 13 15  1  0  0  0  0
 14 42  1  0  0  0  0
 15 16  1  0  0  0  0
 16 17  2  0  0  0  0
 16 18  1  0  0  0  0
 18 19  1  0  0  0  0
 18 20  1  0  0  0  0
 19 43  1  0  0  0  0
 19 44  1  0  0  0  0
 19 45  1  0  0  0  0
 20 46  1  0  0  0  0
 20 47  1  0  0  0  0
 20 48  1  0  0  0  0
 21 22  1  0  0  0  0
 22 23  2  0  0  0  0
 22 24  1  0  0  0  0
 24 25  1  0  0  0  0
 24 26  1  0  0  0  0
 25 49  1  0  0  0  0
 25 50  1  0  0  0  0
 25 51  1  0  0  0  0
 26 52  1  0  0  0  0
 26 53  1  0  0  0  0
 26 54  1  0  0  0  0
 27 55  1  0  0  0  0
M  CHG  1   5   1
M  END
$$$$
