ZINC00402981
 OpenBabel08292219463D

 39 39  0  0  1  0  0  0  0  0999 V2000
   -0.6670    0.5967   -2.0890 C   0  0  0  0  0  0  0  0  0  0  0  0
    0.8247    0.4084   -1.8060 C   0  0  0  0  0  0  0  0  0  0  0  0
    1.2196   -1.0413   -2.0951 C   0  0  2  0  0  0  0  0  0  0  0  0
    0.8696   -1.3220   -3.0884 H   0  0  0  0  0  0  0  0  0  0  0  0
    0.5831   -1.9611   -1.0512 C   0  0  2  0  0  0  0  0  0  0  0  0
    1.0894   -2.9263   -1.0605 H   0  0  0  0  0  0  0  0  0  0  0  0
   -0.8756   -2.1558   -1.3759 C   0  0  0  0  0  0  0  0  0  0  0  0
   -1.8395   -1.8389   -0.4369 C   0  0  0  0  0  0  0  0  0  0  0  0
   -3.1789   -2.0157   -0.7300 C   0  0  0  0  0  0  0  0  0  0  0  0
   -3.5578   -2.5111   -1.9673 C   0  0  0  0  0  0  0  0  0  0  0  0
   -2.5876   -2.8295   -2.9127 C   0  0  0  0  0  0  0  0  0  0  0  0
   -1.2471   -2.6454   -2.6142 C   0  0  0  0  0  0  0  0  0  0  0  0
   -2.9545   -3.3160   -4.1285 O   0  0  0  0  0  0  0  0  0  0  0  0
   -4.8750   -2.6860   -2.2571 O   0  0  0  0  0  0  0  0  0  0  0  0
    0.7080   -1.3701    0.2439 O   0  0  0  0  0  0  0  0  0  0  0  0
    2.6816   -1.1716   -2.0361 N   0  3  0  0  0  0  0  0  0  0  0  0
    3.2871   -0.3913   -3.1235 C   0  0  0  0  0  0  0  0  0  0  0  0
    4.8116   -0.4652   -3.0168 C   0  0  0  0  0  0  0  0  0  0  0  0
    2.8418   -0.9634   -4.4709 C   0  0  0  0  0  0  0  0  0  0  0  0
   -0.9080    0.1741   -3.0645 H   0  0  0  0  0  0  0  0  0  0  0  0
   -1.2496    0.0900   -1.3196 H   0  0  0  0  0  0  0  0  0  0  0  0
   -0.9063    1.6601   -2.0846 H   0  0  0  0  0  0  0  0  0  0  0  0
    1.4028    1.0766   -2.4443 H   0  0  0  0  0  0  0  0  0  0  0  0
    1.0281    0.6387   -0.7602 H   0  0  0  0  0  0  0  0  0  0  0  0
   -1.5455   -1.4528    0.5279 H   0  0  0  0  0  0  0  0  0  0  0  0
   -3.9299   -1.7681    0.0056 H   0  0  0  0  0  0  0  0  0  0  0  0
   -0.4922   -2.8882   -3.3475 H   0  0  0  0  0  0  0  0  0  0  0  0
   -3.0998   -2.6332   -4.7977 H   0  0  0  0  0  0  0  0  0  0  0  0
   -5.2954   -1.9132   -2.6584 H   0  0  0  0  0  0  0  0  0  0  0  0
    0.2799   -0.5069    0.3252 H   0  0  0  0  0  0  0  0  0  0  0  0
    3.0146   -0.8260   -1.1484 H   0  0  0  0  0  0  0  0  0  0  0  0
    2.9675    0.6479   -3.0466 H   0  0  0  0  0  0  0  0  0  0  0  0
    5.1312   -1.5045   -3.0937 H   0  0  0  0  0  0  0  0  0  0  0  0
    5.2608    0.1137   -3.8237 H   0  0  0  0  0  0  0  0  0  0  0  0
    5.1288   -0.0577   -2.0569 H   0  0  0  0  0  0  0  0  0  0  0  0
    1.7558   -0.9107   -4.5469 H   0  0  0  0  0  0  0  0  0  0  0  0
    3.2911   -0.3845   -5.2778 H   0  0  0  0  0  0  0  0  0  0  0  0
    3.1615   -2.0027   -4.5478 H   0  0  0  0  0  0  0  0  0  0  0  0
    2.9371   -2.1426   -2.1362 H   0  0  0  0  0  0  0  0  0  0  0  0
  1  2  1  0  0  0  0
  1 20  1  0  0  0  0
  1 21  1  0  0  0  0
  1 22  1  0  0  0  0
  2  3  1  0  0  0  0
  2 23  1  0  0  0  0
  2 24  1  0  0  0  0
  3  4  1  6  0  0  0
  3  5  1  0  0  0  0
  3 16  1  0  0  0  0
  5  6  1  6  0  0  0
  5  7  1  0  0  0  0
  5 15  1  0  0  0  0
  7 12  2  0  0  0  0
  7  8  1  0  0  0  0
  8  9  2  0  0  0  0
  8 25  1  0  0  0  0
  9 10  1  0  0  0  0
  9 26  1  0  0  0  0
 10 11  2  0  0  0  0
 10 14  1  0  0  0  0
 11 12  1  0  0  0  0
 11 13  1  0  0  0  0
 12 27  1  0  0  0  0
 13 28  1  0  0  0  0
 14 29  1  0  0  0  0
 15 30  1  0  0  0  0
 16 17  1  0  0  0  0
 16 31  1  0  0  0  0
 16 39  1  0  0  0  0
 17 18  1  0  0  0  0
 17 19  1  0  0  0  0
 17 32  1  0  0  0  0
 18 33  1  0  0  0  0
 18 34  1  0  0  0  0
 18 35  1  0  0  0  0
 19 36  1  0  0  0  0
 19 37  1  0  0  0  0
 19 38  1  0  0  0  0
M  CHG  1  16   1
M  END
$$$$
