ZINC00057249
 OpenBabel08292219463D

 42 43  0  0  0  0  0  0  0  0999 V2000
   -0.0178    1.4648    0.0101 C   0  0  0  0  0  0  0  0  0  0  0  0
    0.0021   -0.0041    0.0020 N   0  3  0  0  0  0  0  0  0  0  0  0
    0.7126   -0.4907    1.1921 C   0  0  0  0  0  0  0  0  0  0  0  0
   -1.3761   -0.5125    0.0124 C   0  0  0  0  0  0  0  0  0  0  0  0
   -2.0780   -0.1101   -1.2861 C   0  0  0  0  0  0  0  0  0  0  0  0
   -3.4524   -0.6172   -1.2757 N   0  0  0  0  0  0  0  0  0  0  0  0
   -4.5324    0.2051   -0.7248 C   0  0  0  0  0  0  0  0  0  0  0  0
   -5.1228    1.0574   -1.8185 C   0  0  0  0  0  0  0  0  0  0  0  0
   -4.6024    2.3124   -2.0735 C   0  0  0  0  0  0  0  0  0  0  0  0
   -5.1435    3.0945   -3.0764 C   0  0  0  0  0  0  0  0  0  0  0  0
   -6.2062    2.6211   -3.8252 C   0  0  0  0  0  0  0  0  0  0  0  0
   -6.7266    1.3649   -3.5695 C   0  0  0  0  0  0  0  0  0  0  0  0
   -6.1810    0.5815   -2.5701 C   0  0  0  0  0  0  0  0  0  0  0  0
   -6.8867    3.6030   -5.0847 Cl  0  0  0  0  0  0  0  0  0  0  0  0
   -3.7317   -1.8786   -1.7886 C   0  0  0  0  0  3  0  0  0  0  0  0
   -2.7004   -2.6567   -2.3052 C   0  0  0  0  0  0  0  0  0  0  0  0
   -2.9925   -3.9098   -2.8122 C   0  0  0  0  0  0  0  0  0  0  0  0
   -4.3113   -4.3446   -2.7857 C   0  0  0  0  0  0  0  0  0  0  0  0
   -5.2845   -3.5202   -2.2583 C   0  0  0  0  0  0  0  0  0  0  0  0
   -4.9759   -2.3311   -1.7763 N   0  0  0  0  0  0  0  0  0  0  0  0
    1.0047    1.8421    0.0024 H   0  0  0  0  0  0  0  0  0  0  0  0
   -0.5450    1.8259   -0.8730 H   0  0  0  0  0  0  0  0  0  0  0  0
   -0.5280    1.8163    0.9069 H   0  0  0  0  0  0  0  0  0  0  0  0
    0.2024   -0.1392    2.0889 H   0  0  0  0  0  0  0  0  0  0  0  0
    0.7273   -1.5806    1.1861 H   0  0  0  0  0  0  0  0  0  0  0  0
    1.7352   -0.1134    1.1844 H   0  0  0  0  0  0  0  0  0  0  0  0
   -1.3618   -1.5992    0.0961 H   0  0  0  0  0  0  0  0  0  0  0  0
   -1.9129   -0.0898    0.8617 H   0  0  0  0  0  0  0  0  0  0  0  0
   -2.0923    0.9766   -1.3697 H   0  0  0  0  0  0  0  0  0  0  0  0
   -1.5412   -0.5328   -2.1354 H   0  0  0  0  0  0  0  0  0  0  0  0
   -5.3060   -0.4413   -0.3102 H   0  0  0  0  0  0  0  0  0  0  0  0
   -4.1354    0.8470    0.0617 H   0  0  0  0  0  0  0  0  0  0  0  0
   -3.7731    2.6820   -1.4886 H   0  0  0  0  0  0  0  0  0  0  0  0
   -4.7371    4.0751   -3.2753 H   0  0  0  0  0  0  0  0  0  0  0  0
   -7.5563    0.9949   -4.1535 H   0  0  0  0  0  0  0  0  0  0  0  0
   -6.5841   -0.4010   -2.3735 H   0  0  0  0  0  0  0  0  0  0  0  0
   -1.6857   -2.2870   -2.3104 H   0  0  0  0  0  0  0  0  0  0  0  0
   -2.2128   -4.5359   -3.2200 H   0  0  0  0  0  0  0  0  0  0  0  0
   -4.5726   -5.3179   -3.1742 H   0  0  0  0  0  0  0  0  0  0  0  0
   -6.3113   -3.8543   -2.2360 H   0  0  0  0  0  0  0  0  0  0  0  0
   -5.6786   -1.7731   -1.4076 H   0  0  0  0  0  0  0  0  0  0  0  0
    0.4743   -0.3295   -0.8281 H   0  0  0  0  0  0  0  0  0  0  0  0
  1  2  1  0  0  0  0
  1 21  1  0  0  0  0
  1 22  1  0  0  0  0
  1 23  1  0  0  0  0
  2  3  1  0  0  0  0
  2  4  1  0  0  0  0
  2 42  1  0  0  0  0
  3 24  1  0  0  0  0
  3 25  1  0  0  0  0
  3 26  1  0  0  0  0
  4  5  1  0  0  0  0
  4 27  1  0  0  0  0
  4 28  1  0  0  0  0
  5  6  1  0  0  0  0
  5 29  1  0  0  0  0
  5 30  1  0  0  0  0
  6  7  1  0  0  0  0
  6 15  1  0  0  0  0
  7  8  1  0  0  0  0
  7 31  1  0  0  0  0
  7 32  1  0  0  0  0
  8 13  2  0  0  0  0
  8  9  1  0  0  0  0
  9 10  2  0  0  0  0
  9 33  1  0  0  0  0
 10 11  1  0  0  0  0
 10 34  1  0  0  0  0
 11 12  2  0  0  0  0
 11 14  1  0  0  0  0
 12 13  1  0  0  0  0
 12 35  1  0  0  0  0
 13 36  1  0  0  0  0
 15 20  1  0  0  0  0
 15 16  1  0  0  0  0
 16 17  2  0  0  0  0
 16 37  1  0  0  0  0
 17 18  1  0  0  0  0
 17 38  1  0  0  0  0
 18 19  2  0  0  0  0
 18 39  1  0  0  0  0
 19 20  1  0  0  0  0
 19 40  1  0  0  0  0
 20 41  1  0  0  0  0
M  CHG  1   2   1
M  END
$$$$
