ZINC00010163
 OpenBabel08292219463D

 31 33  0  0  1  0  0  0  0  0999 V2000
   -0.0187    1.5258    0.0104 C   0  0  0  0  0  0  0  0  0  0  0  0
    0.0021   -0.0041    0.0020 C   0  0  2  0  0  0  0  0  0  0  0  0
    0.5177   -0.3871   -0.8786 H   0  0  0  0  0  0  0  0  0  0  0  0
   -1.3376   -0.5534    0.1131 O   0  0  0  0  0  0  0  0  0  0  0  0
   -1.3744   -1.9002    0.5813 C   0  0  1  0  0  0  0  0  0  0  0  0
   -2.7279   -2.1665    1.2515 C   0  0  0  0  0  0  0  0  0  0  0  0
   -3.4319   -3.2419    0.5501 N   0  3  2  0  0  0  0  0  0  0  0  0
   -2.6600   -4.4855    0.6010 C   0  0  0  0  0  0  0  0  0  0  0  0
   -1.3122   -4.2943   -0.0980 C   0  0  0  0  0  0  0  0  0  0  0  0
   -1.2229   -2.8530   -0.6155 C   0  0  1  0  0  0  0  0  0  0  0  0
   -2.3908   -2.6092   -1.5792 C   0  0  0  0  0  0  0  0  0  0  0  0
   -3.7055   -2.8596   -0.8372 C   0  0  0  0  0  0  0  0  0  0  0  0
   -0.2571   -2.2350    1.6029 C   0  0  0  0  0  0  0  0  0  0  0  0
    0.7344   -0.6781    1.5599 S   0  0  0  0  0  0  0  0  0  0  0  0
    1.0039    1.9031    0.0027 H   0  0  0  0  0  0  0  0  0  0  0  0
   -0.5459    1.8868   -0.8726 H   0  0  0  0  0  0  0  0  0  0  0  0
   -0.5289    1.8773    0.9072 H   0  0  0  0  0  0  0  0  0  0  0  0
   -2.5665   -2.4568    2.2896 H   0  0  0  0  0  0  0  0  0  0  0  0
   -3.3313   -1.2593    1.2211 H   0  0  0  0  0  0  0  0  0  0  0  0
   -2.4916   -4.7643    1.6412 H   0  0  0  0  0  0  0  0  0  0  0  0
   -3.2174   -5.2778    0.1015 H   0  0  0  0  0  0  0  0  0  0  0  0
   -0.5042   -4.4790    0.6098 H   0  0  0  0  0  0  0  0  0  0  0  0
   -1.2331   -4.9884   -0.9348 H   0  0  0  0  0  0  0  0  0  0  0  0
   -0.2658   -2.6882   -1.1104 H   0  0  0  0  0  0  0  0  0  0  0  0
   -2.3624   -1.5790   -1.9341 H   0  0  0  0  0  0  0  0  0  0  0  0
   -2.3139   -3.2912   -2.4260 H   0  0  0  0  0  0  0  0  0  0  0  0
   -4.2533   -3.6616   -1.3322 H   0  0  0  0  0  0  0  0  0  0  0  0
   -4.3071   -1.9508   -0.8503 H   0  0  0  0  0  0  0  0  0  0  0  0
   -0.6719   -2.4101    2.5956 H   0  0  0  0  0  0  0  0  0  0  0  0
    0.3362   -3.0870    1.2711 H   0  0  0  0  0  0  0  0  0  0  0  0
   -4.3124   -3.4029    1.0158 H   0  0  0  0  0  0  0  0  0  0  0  0
  1  2  1  0  0  0  0
  1 15  1  0  0  0  0
  1 16  1  0  0  0  0
  1 17  1  0  0  0  0
  2  3  1  6  0  0  0
  2 14  1  0  0  0  0
  2  4  1  0  0  0  0
  5  4  1  6  0  0  0
  5 10  1  0  0  0  0
  5  6  1  0  0  0  0
  5 13  1  0  0  0  0
  6  7  1  0  0  0  0
  6 18  1  0  0  0  0
  6 19  1  0  0  0  0
  7 12  1  0  0  0  0
  7  8  1  0  0  0  0
  7 31  1  1  0  0  0
  8  9  1  0  0  0  0
  8 20  1  0  0  0  0
  8 21  1  0  0  0  0
  9 10  1  0  0  0  0
  9 22  1  0  0  0  0
  9 23  1  0  0  0  0
 10 11  1  0  0  0  0
 10 24  1  6  0  0  0
 11 12  1  0  0  0  0
 11 25  1  0  0  0  0
 11 26  1  0  0  0  0
 12 27  1  0  0  0  0
 12 28  1  0  0  0  0
 13 14  1  0  0  0  0
 13 29  1  0  0  0  0
 13 30  1  0  0  0  0
M  CHG  1   7   1
M  END
$$$$
