ZINC00896595
 OpenBabel08292219463D

 31 33  0  0  1  0  0  0  0  0999 V2000
    4.4700   -3.9046   -1.1144 C   0  0  0  0  0  0  0  0  0  0  0  0
    4.3341   -3.8661   -2.4911 C   0  0  0  0  0  0  0  0  0  0  0  0
    3.2289   -3.2665   -3.0664 C   0  0  0  0  0  0  0  0  0  0  0  0
    2.2496   -2.7072   -2.2683 C   0  0  0  0  0  0  0  0  0  0  0  0
    2.3839   -2.7389   -0.8793 C   0  0  0  0  0  0  0  0  0  0  0  0
    3.5020   -3.3452   -0.3064 C   0  0  0  0  0  0  0  0  0  0  0  0
    1.3408   -2.1368   -0.0174 C   0  0  0  0  0  0  0  0  0  0  0  0
    0.6621   -2.9279    0.7361 N   0  0  0  0  0  0  0  0  0  0  0  0
   -0.3950   -2.4358    1.6185 C   0  0  1  0  0  0  0  0  0  0  0  0
    0.0103   -1.6735    2.2840 H   0  0  0  0  0  0  0  0  0  0  0  0
   -1.4922   -1.8400    0.7792 C   0  0  0  0  0  0  0  0  0  0  0  0
   -2.5945   -2.3452    0.8028 O   0  0  0  0  0  0  0  0  0  0  0  0
   -1.2844   -0.7731    0.0109 N   0  0  0  0  0  0  0  0  0  0  0  0
   -0.0933   -0.0675   -0.0690 C   0  0  0  0  0  0  0  0  0  0  0  0
    1.1587   -0.6793   -0.0873 C   0  0  0  0  0  0  0  0  0  0  0  0
    2.3110    0.1162   -0.1751 C   0  0  0  0  0  0  0  0  0  0  0  0
    2.2105    1.4879   -0.2409 C   0  0  0  0  0  0  0  0  0  0  0  0
    0.9641    2.0932   -0.2204 C   0  0  0  0  0  0  0  0  0  0  0  0
   -0.1760    1.3245   -0.1359 C   0  0  0  0  0  0  0  0  0  0  0  0
    3.6454    2.4591   -0.3489 Cl  0  0  0  0  0  0  0  0  0  0  0  0
   -0.9174   -3.5192    2.3901 O   0  0  0  0  0  0  0  0  0  0  0  0
    0.8586   -1.9614   -2.9913 Cl  0  0  0  0  0  0  0  0  0  0  0  0
    5.3358   -4.3742   -0.6715 H   0  0  0  0  0  0  0  0  0  0  0  0
    5.0948   -4.3060   -3.1190 H   0  0  0  0  0  0  0  0  0  0  0  0
    3.1286   -3.2397   -4.1414 H   0  0  0  0  0  0  0  0  0  0  0  0
    3.6098   -3.3762    0.7677 H   0  0  0  0  0  0  0  0  0  0  0  0
   -2.0240   -0.4651   -0.5360 H   0  0  0  0  0  0  0  0  0  0  0  0
    3.2846   -0.3510   -0.1910 H   0  0  0  0  0  0  0  0  0  0  0  0
    0.8864    3.1692   -0.2712 H   0  0  0  0  0  0  0  0  0  0  0  0
   -1.1440    1.8034   -0.1257 H   0  0  0  0  0  0  0  0  0  0  0  0
   -0.2627   -3.9506    2.9560 H   0  0  0  0  0  0  0  0  0  0  0  0
  1  6  2  0  0  0  0
  1  2  1  0  0  0  0
  1 23  1  0  0  0  0
  2  3  2  0  0  0  0
  2 24  1  0  0  0  0
  3  4  1  0  0  0  0
  3 25  1  0  0  0  0
  4  5  2  0  0  0  0
  4 22  1  0  0  0  0
  5  6  1  0  0  0  0
  5  7  1  0  0  0  0
  6 26  1  0  0  0  0
  7 15  1  0  0  0  0
  7  8  2  0  0  0  0
  8  9  1  0  0  0  0
  9 10  1  1  0  0  0
  9 11  1  0  0  0  0
  9 21  1  0  0  0  0
 11 12  2  0  0  0  0
 11 13  1  0  0  0  0
 13 14  1  0  0  0  0
 13 27  1  0  0  0  0
 14 19  2  0  0  0  0
 14 15  1  0  0  0  0
 15 16  2  0  0  0  0
 16 17  1  0  0  0  0
 16 28  1  0  0  0  0
 17 18  2  0  0  0  0
 17 20  1  0  0  0  0
 18 19  1  0  0  0  0
 18 29  1  0  0  0  0
 19 30  1  0  0  0  0
 21 31  1  0  0  0  0
M  END
$$$$
