ZINC00000922
 OpenBabel08292219463D

 17 17  0  0  0  0  0  0  0  0999 V2000
   -0.0168    1.3901    0.0097 C   0  0  0  0  0  0  0  0  0  0  0  0
    1.1505    2.0957    0.0023 C   0  0  0  0  0  0  0  0  0  0  0  0
    2.3784    1.4219   -0.0130 C   0  0  0  0  0  0  0  0  0  0  0  0
    2.4022    0.0160   -0.0208 C   0  0  0  0  0  0  0  0  0  0  0  0
    1.2119   -0.6882   -0.0133 C   0  0  0  0  0  0  0  0  0  0  0  0
    0.0021   -0.0041    0.0020 C   0  0  0  0  0  0  0  0  0  0  0  0
   -1.1932   -0.7123    0.0101 N   0  0  0  0  0  0  0  0  0  0  0  0
    3.5859   -0.6457   -0.0362 O   0  0  0  0  0  0  0  0  0  0  0  0
    3.6351    2.1803   -0.0214 C   0  0  0  0  0  0  0  0  0  0  0  0
    3.6114    3.4040   -0.0150 O   0  0  0  0  0  0  0  0  0  0  0  0
    4.7066    1.5889   -0.0349 O   0  0  0  0  0  1  0  0  0  0  0  0
   -0.9610    1.9143    0.0260 H   0  0  0  0  0  0  0  0  0  0  0  0
    1.1280    3.1755    0.0080 H   0  0  0  0  0  0  0  0  0  0  0  0
    1.2224   -1.7682   -0.0195 H   0  0  0  0  0  0  0  0  0  0  0  0
   -2.0386   -0.2368    0.0211 H   0  0  0  0  0  0  0  0  0  0  0  0
   -1.1823   -1.6822    0.0048 H   0  0  0  0  0  0  0  0  0  0  0  0
    3.9379   -0.8424    0.8427 H   0  0  0  0  0  0  0  0  0  0  0  0
  1  6  2  0  0  0  0
  1  2  1  0  0  0  0
  1 12  1  0  0  0  0
  2  3  2  0  0  0  0
  2 13  1  0  0  0  0
  3  4  1  0  0  0  0
  3  9  1  0  0  0  0
  4  5  2  0  0  0  0
  4  8  1  0  0  0  0
  5  6  1  0  0  0  0
  5 14  1  0  0  0  0
  6  7  1  0  0  0  0
  7 15  1  0  0  0  0
  7 16  1  0  0  0  0
  8 17  1  0  0  0  0
  9 10  2  0  0  0  0
  9 11  1  0  0  0  0
M  END
$$$$
