ZINC01544807
 OpenBabel08292219463D

 25 25  0  0  1  0  0  0  0  0999 V2000
   -0.0186    1.5216    0.0104 C   0  0  0  0  0  0  0  0  0  0  0  0
    1.2815    2.3325    0.0023 C   0  0  0  0  0  0  0  0  0  0  0  0
    2.5388    1.2528    0.8324 S   0  0  0  0  0  0  0  0  0  0  0  0
    1.7599   -0.5564    0.1294 S   0  0  0  0  0  0  0  0  0  0  0  0
    0.0021   -0.0041    0.0020 C   0  0  2  0  0  0  0  0  0  0  0  0
   -0.5658   -0.3846    0.8510 H   0  0  0  0  0  0  0  0  0  0  0  0
   -0.6091   -0.5219   -1.3015 C   0  0  0  0  0  0  0  0  0  0  0  0
   -0.6997   -2.0484   -1.2512 C   0  0  0  0  0  0  0  0  0  0  0  0
   -1.3109   -2.5663   -2.5547 C   0  0  0  0  0  0  0  0  0  0  0  0
   -1.4015   -4.0928   -2.5044 C   0  0  0  0  0  0  0  0  0  0  0  0
   -2.0035   -4.6029   -3.7883 C   0  0  0  0  0  0  0  0  0  0  0  0
   -2.3298   -3.8182   -4.6625 O   0  0  0  0  0  0  0  0  0  0  0  0
   -2.1642   -5.8002   -3.9528 O   0  0  0  0  0  1  0  0  0  0  0  0
   -0.5824    1.8293    0.8911 H   0  0  0  0  0  0  0  0  0  0  0  0
   -0.5991    1.8387   -0.8560 H   0  0  0  0  0  0  0  0  0  0  0  0
    1.5859    2.5478   -1.0219 H   0  0  0  0  0  0  0  0  0  0  0  0
    1.1519    3.2593    0.5612 H   0  0  0  0  0  0  0  0  0  0  0  0
   -1.6074   -0.1026   -1.4265 H   0  0  0  0  0  0  0  0  0  0  0  0
    0.0184   -0.2227   -2.1410 H   0  0  0  0  0  0  0  0  0  0  0  0
    0.2986   -2.4677   -1.1262 H   0  0  0  0  0  0  0  0  0  0  0  0
   -1.3272   -2.3477   -0.4116 H   0  0  0  0  0  0  0  0  0  0  0  0
   -2.3092   -2.1470   -2.6796 H   0  0  0  0  0  0  0  0  0  0  0  0
   -0.6834   -2.2671   -3.3942 H   0  0  0  0  0  0  0  0  0  0  0  0
   -0.4031   -4.5121   -2.3794 H   0  0  0  0  0  0  0  0  0  0  0  0
   -2.0289   -4.3920   -1.6648 H   0  0  0  0  0  0  0  0  0  0  0  0
  1  5  1  0  0  0  0
  1  2  1  0  0  0  0
  1 14  1  0  0  0  0
  1 15  1  0  0  0  0
  2  3  1  0  0  0  0
  2 16  1  0  0  0  0
  2 17  1  0  0  0  0
  3  4  1  0  0  0  0
  4  5  1  0  0  0  0
  5  6  1  1  0  0  0
  5  7  1  0  0  0  0
  7  8  1  0  0  0  0
  7 18  1  0  0  0  0
  7 19  1  0  0  0  0
  8  9  1  0  0  0  0
  8 20  1  0  0  0  0
  8 21  1  0  0  0  0
  9 10  1  0  0  0  0
  9 22  1  0  0  0  0
  9 23  1  0  0  0  0
 10 11  1  0  0  0  0
 10 24  1  0  0  0  0
 10 25  1  0  0  0  0
 11 12  2  0  0  0  0
 11 13  1  0  0  0  0
M  END
$$$$
