ZINC03831051
 OpenBabel08292219463D

 29 28  0  0  1  0  0  0  0  0999 V2000
   -0.0441    1.7102   -0.8814 C   0  0  0  0  0  0  0  0  0  0  0  0
   -0.0857    0.2133   -0.5678 C   0  0  2  0  0  0  0  0  0  0  0  0
    0.3181    0.0397    0.4297 H   0  0  0  0  0  0  0  0  0  0  0  0
    0.7533   -0.5469   -1.5970 C   0  0  0  0  0  0  0  0  0  0  0  0
    0.8440   -1.9602   -1.2070 N   0  3  0  0  0  0  0  0  0  0  0  0
   -0.4922   -2.5686   -1.2564 C   0  0  0  0  0  0  0  0  0  0  0  0
    1.7385   -2.6673   -2.1332 C   0  0  0  0  0  0  0  0  0  0  0  0
    1.3765   -2.0582    0.1586 C   0  0  0  0  0  0  0  0  0  0  0  0
   -1.4374   -0.2472   -0.6214 O   0  0  0  0  0  0  0  0  0  0  0  0
   -2.1441   -0.1964    0.5187 C   0  0  0  0  0  0  0  0  0  0  0  0
   -1.6320    0.2252    1.5286 O   0  0  0  0  0  0  0  0  0  0  0  0
   -3.5762   -0.6650    0.5390 C   0  0  0  0  0  0  0  0  0  0  0  0
    0.9870    2.0615   -0.8405 H   0  0  0  0  0  0  0  0  0  0  0  0
   -0.4478    1.8839   -1.8789 H   0  0  0  0  0  0  0  0  0  0  0  0
   -0.6418    2.2518   -0.1482 H   0  0  0  0  0  0  0  0  0  0  0  0
    0.2830   -0.4699   -2.5773 H   0  0  0  0  0  0  0  0  0  0  0  0
    1.7539   -0.1166   -1.6393 H   0  0  0  0  0  0  0  0  0  0  0  0
   -0.9549   -2.3516   -2.2191 H   0  0  0  0  0  0  0  0  0  0  0  0
   -0.4049   -3.6478   -1.1302 H   0  0  0  0  0  0  0  0  0  0  0  0
   -1.1082   -2.1579   -0.4564 H   0  0  0  0  0  0  0  0  0  0  0  0
    2.7300   -2.2159   -2.0966 H   0  0  0  0  0  0  0  0  0  0  0  0
    1.8059   -3.7160   -1.8439 H   0  0  0  0  0  0  0  0  0  0  0  0
    1.3434   -2.5946   -3.1465 H   0  0  0  0  0  0  0  0  0  0  0  0
    0.7128   -1.5335    0.8459 H   0  0  0  0  0  0  0  0  0  0  0  0
    1.4439   -3.1069    0.4480 H   0  0  0  0  0  0  0  0  0  0  0  0
    2.3680   -1.6068    0.1952 H   0  0  0  0  0  0  0  0  0  0  0  0
   -3.8606   -1.0075   -0.4560 H   0  0  0  0  0  0  0  0  0  0  0  0
   -3.6800   -1.4855    1.2490 H   0  0  0  0  0  0  0  0  0  0  0  0
   -4.2240    0.1589    0.8385 H   0  0  0  0  0  0  0  0  0  0  0  0
  1  2  1  0  0  0  0
  1 13  1  0  0  0  0
  1 14  1  0  0  0  0
  1 15  1  0  0  0  0
  2  3  1  1  0  0  0
  2  4  1  0  0  0  0
  2  9  1  0  0  0  0
  4  5  1  0  0  0  0
  4 16  1  0  0  0  0
  4 17  1  0  0  0  0
  5  6  1  0  0  0  0
  5  7  1  0  0  0  0
  5  8  1  0  0  0  0
  6 18  1  0  0  0  0
  6 19  1  0  0  0  0
  6 20  1  0  0  0  0
  7 21  1  0  0  0  0
  7 22  1  0  0  0  0
  7 23  1  0  0  0  0
  8 24  1  0  0  0  0
  8 25  1  0  0  0  0
  8 26  1  0  0  0  0
  9 10  1  0  0  0  0
 10 11  2  0  0  0  0
 10 12  1  0  0  0  0
 12 27  1  0  0  0  0
 12 28  1  0  0  0  0
 12 29  1  0  0  0  0
M  CHG  1   5   1
M  END
$$$$
