ZINC08220548
 OpenBabel08292219463D

 50 55  0  0  1  0  0  0  0  0999 V2000
   -0.0127    1.0858    0.0080 C   0  0  0  0  0  0  0  0  0  0  0  0
   -0.7288    1.5792    1.2668 C   0  0  0  0  0  0  0  0  0  0  0  0
    0.0097    1.0734    2.5039 C   0  0  1  0  0  0  0  0  0  0  0  0
    1.0556    1.4305    2.4328 H   0  0  0  0  0  0  0  0  0  0  0  0
   -0.6043    1.6490    3.8011 C   0  0  2  0  0  0  0  0  0  0  0  0
   -0.5590    2.7406    3.9182 H   0  0  0  0  0  0  0  0  0  0  0  0
    0.1276    0.7839    4.9132 C   0  0  0  0  0  0  0  0  0  0  0  0
   -0.4641   -0.6522    4.8961 C   0  0  1  0  0  0  0  0  0  0  0  0
    0.3100   -1.3342    5.1915 H   0  0  0  0  0  0  0  0  0  0  0  0
   -1.5770   -0.7014    5.9521 C   0  0  1  0  0  0  0  0  0  0  0  0
   -1.2746   -0.1023    6.8082 H   0  0  0  0  0  0  0  0  0  0  0  0
   -3.0014   -0.2641    5.4735 C   0  0  2  0  0  0  0  0  0  0  0  0
   -3.2662   -1.0008    4.1360 C   0  0  0  0  0  0  0  0  0  0  0  0
   -2.2025   -0.2632    3.2693 C   0  0  1  0  0  0  0  0  0  0  0  0
   -2.4862   -0.1639    2.1998 H   0  0  0  0  0  0  0  0  0  0  0  0
   -1.9509    1.0265    4.0578 C   0  0  2  0  0  0  0  0  0  0  0  0
   -1.4989    0.7264    4.9325 H   0  0  0  0  0  0  0  0  0  0  0  0
   -3.0563    1.2313    5.0739 C   0  0  1  0  0  0  0  0  0  0  0  0
   -2.7545    1.9103    5.8767 H   0  0  0  0  0  0  0  0  0  0  0  0
   -4.2901    1.6252    4.4675 O   0  0  0  0  0  0  0  0  0  0  0  0
   -0.9183   -0.9799    3.5361 N   0  0  1  0  0  0  0  0  0  0  0  0
    0.0462   -0.4530    2.5447 C   0  0  2  0  0  0  0  0  0  0  0  0
   -0.2174   -0.8404    1.5511 H   0  0  0  0  0  0  0  0  0  0  0  0
    1.3674   -0.8991    2.8629 O   0  0  0  0  0  0  0  0  0  0  0  0
   -3.8420   -0.7792    6.5651 C   0  0  0  0  0  0  0  0  0  0  0  0
   -5.0551   -0.3880    7.0892 C   0  0  0  0  0  0  0  0  0  0  0  0
   -5.5738   -1.1375    8.1370 C   0  0  0  0  0  0  0  0  0  0  0  0
   -4.9045   -2.2337    8.6401 C   0  0  0  0  0  0  0  0  0  0  0  0
   -3.6818   -2.6413    8.1261 C   0  0  0  0  0  0  0  0  0  0  0  0
   -3.1441   -1.8989    7.0828 C   0  0  0  0  0  0  0  0  0  0  0  0
   -1.9328   -2.0811    6.3903 N   0  0  0  0  0  0  0  0  0  0  0  0
   -0.9028   -2.6395    7.2769 C   0  0  0  0  0  0  0  0  0  0  0  0
    0.0021   -0.0041    0.0020 H   0  0  0  0  0  0  0  0  0  0  0  0
    1.0099    1.4631    0.0003 H   0  0  0  0  0  0  0  0  0  0  0  0
   -0.5399    1.4469   -0.8751 H   0  0  0  0  0  0  0  0  0  0  0  0
   -0.7436    2.6691    1.2728 H   0  0  0  0  0  0  0  0  0  0  0  0
   -1.7514    1.2020    1.2746 H   0  0  0  0  0  0  0  0  0  0  0  0
    1.2010    0.7420    4.7042 H   0  0  0  0  0  0  0  0  0  0  0  0
   -0.0219    1.2357    5.8980 H   0  0  0  0  0  0  0  0  0  0  0  0
   -3.0558   -2.0659    4.2182 H   0  0  0  0  0  0  0  0  0  0  0  0
   -4.2785   -0.8211    3.7765 H   0  0  0  0  0  0  0  0  0  0  0  0
   -4.2437    2.4654    3.9911 H   0  0  0  0  0  0  0  0  0  0  0  0
    2.0409   -0.6180    2.2285 H   0  0  0  0  0  0  0  0  0  0  0  0
   -5.5873    0.4667    6.6976 H   0  0  0  0  0  0  0  0  0  0  0  0
   -6.5240   -0.8552    8.5660 H   0  0  0  0  0  0  0  0  0  0  0  0
   -5.3430   -2.7889    9.4566 H   0  0  0  0  0  0  0  0  0  0  0  0
   -3.1815   -3.5106    8.5280 H   0  0  0  0  0  0  0  0  0  0  0  0
   -0.8032   -2.0090    8.1605 H   0  0  0  0  0  0  0  0  0  0  0  0
   -1.1908   -3.6463    7.5795 H   0  0  0  0  0  0  0  0  0  0  0  0
    0.0498   -2.6775    6.7485 H   0  0  0  0  0  0  0  0  0  0  0  0
  1  2  1  0  0  0  0
  1 33  1  0  0  0  0
  1 34  1  0  0  0  0
  1 35  1  0  0  0  0
  2  3  1  0  0  0  0
  2 36  1  0  0  0  0
  2 37  1  0  0  0  0
  3  4  1  6  0  0  0
  3 22  1  0  0  0  0
  3  5  1  0  0  0  0
  5  6  1  1  0  0  0
  5 16  1  0  0  0  0
  5  7  1  0  0  0  0
  7  8  1  0  0  0  0
  7 38  1  0  0  0  0
  7 39  1  0  0  0  0
  8  9  1  1  0  0  0
  8 21  1  0  0  0  0
  8 10  1  0  0  0  0
 10 11  1  1  0  0  0
 10 31  1  0  0  0  0
 10 12  1  0  0  0  0
 12 18  1  0  0  0  0
 12 13  1  0  0  0  0
 12 25  1  1  0  0  0
 13 14  1  0  0  0  0
 13 40  1  0  0  0  0
 13 41  1  0  0  0  0
 14 15  1  6  0  0  0
 14 16  1  0  0  0  0
 14 21  1  0  0  0  0
 16 17  1  1  0  0  0
 16 18  1  0  0  0  0
 18 19  1  1  0  0  0
 18 20  1  0  0  0  0
 20 42  1  0  0  0  0
 21 22  1  0  0  0  0
 22 23  1  0  0  0  0
 22 24  1  0  0  0  0
 24 43  1  0  0  0  0
 25 30  2  0  0  0  0
 25 26  1  0  0  0  0
 26 27  2  0  0  0  0
 26 44  1  0  0  0  0
 27 28  1  0  0  0  0
 27 45  1  0  0  0  0
 28 29  2  0  0  0  0
 28 46  1  0  0  0  0
 29 30  1  0  0  0  0
 29 47  1  0  0  0  0
 30 31  1  0  0  0  0
 31 32  1  0  0  0  0
 32 48  1  0  0  0  0
 32 49  1  0  0  0  0
 32 50  1  0  0  0  0
M  END
$$$$
