ZINC05316843
 OpenBabel08292219463D

 60 62  0  0  1  0  0  0  0  0999 V2000
    5.6270    4.5660   -2.9797 C   0  0  0  0  0  0  0  0  0  0  0  0
    4.3368    5.2975   -2.6041 C   0  0  0  0  0  0  0  0  0  0  0  0
    3.4345    4.3819   -1.9800 O   0  0  0  0  0  0  0  0  0  0  0  0
    2.2343    4.8740   -1.5830 C   0  0  0  0  0  0  0  0  0  0  0  0
    1.9273    6.2078   -1.7878 C   0  0  0  0  0  0  0  0  0  0  0  0
    0.6962    6.7055   -1.3793 C   0  0  0  0  0  0  0  0  0  0  0  0
   -0.2308    5.8662   -0.7638 C   0  0  0  0  0  0  0  0  0  0  0  0
    0.0596    4.5480   -0.5622 C   0  0  0  0  0  0  0  0  0  0  0  0
    1.2971    4.0330   -0.9627 C   0  0  0  0  0  0  0  0  0  0  0  0
    1.6131    2.6124   -0.7397 C   0  0  0  0  0  0  0  0  0  0  0  0
    2.6878    2.1657   -1.0932 O   0  0  0  0  0  0  0  0  0  0  0  0
    0.7116    1.8070   -0.1439 N   0  0  0  0  0  0  0  0  0  0  0  0
    1.0260    0.3935    0.0780 C   0  0  2  0  0  0  0  0  0  0  0  0
    0.6878   -0.4097   -1.1810 C   0  0  0  0  0  0  0  0  0  0  0  0
    0.9594   -1.8934   -0.9219 C   0  0  0  0  0  0  0  0  0  0  0  0
    0.4852   -1.6282    1.4397 C   0  0  0  0  0  0  0  0  0  0  0  0
    0.1979   -0.1369    1.2517 C   0  0  0  0  0  0  0  0  0  0  0  0
    0.2752   -3.8036    0.3985 C   0  0  0  0  0  0  0  0  0  0  0  0
   -0.9169   -4.3232    1.2047 C   0  0  2  0  0  0  0  0  0  0  0  0
   -0.9791   -3.7887    2.1526 H   0  0  0  0  0  0  0  0  0  0  0  0
   -0.7453   -5.8243    1.4695 C   0  0  0  0  0  0  0  0  0  0  0  0
   -1.8531   -6.2773    2.4231 C   0  0  0  0  0  0  0  0  0  0  0  0
   -3.1868   -5.7952    1.9322 C   0  0  0  0  0  0  0  0  0  0  0  0
   -3.3406   -4.8525    1.0586 C   0  0  0  0  0  0  0  0  0  0  0  0
   -2.2071   -4.1119    0.4094 C   0  0  0  0  0  0  0  0  0  0  0  0
   -1.5398    6.4060   -0.3321 N   0  0  0  0  0  4  0  0  0  0  0  0
   -1.6102    7.5254    0.1430 O   0  0  0  0  0  0  0  0  0  0  0  0
   -2.5464    5.7309   -0.4519 O   0  5  0  0  0  0  0  0  0  0  0  0
    0.3880    8.0459   -1.5847 N   0  0  0  0  0  0  0  0  0  0  0  0
    6.3153    5.2644   -3.4557 H   0  0  0  0  0  0  0  0  0  0  0  0
    6.0881    4.1575   -2.0804 H   0  0  0  0  0  0  0  0  0  0  0  0
    5.3969    3.7549   -3.6705 H   0  0  0  0  0  0  0  0  0  0  0  0
    3.8757    5.7059   -3.5034 H   0  0  0  0  0  0  0  0  0  0  0  0
    4.5669    6.1086   -1.9133 H   0  0  0  0  0  0  0  0  0  0  0  0
    2.6436    6.8608   -2.2641 H   0  0  0  0  0  0  0  0  0  0  0  0
   -0.6654    3.9024   -0.0890 H   0  0  0  0  0  0  0  0  0  0  0  0
   -0.1470    2.1623    0.1344 H   0  0  0  0  0  0  0  0  0  0  0  0
    2.0871    0.2874    0.3036 H   0  0  0  0  0  0  0  0  0  0  0  0
   -0.3645   -0.2713   -1.4291 H   0  0  0  0  0  0  0  0  0  0  0  0
    1.3061   -0.0649   -2.0097 H   0  0  0  0  0  0  0  0  0  0  0  0
    2.0149   -2.0330   -0.6884 H   0  0  0  0  0  0  0  0  0  0  0  0
    0.7049   -2.4698   -1.8113 H   0  0  0  0  0  0  0  0  0  0  0  0
    1.5429   -1.7691    1.6621 H   0  0  0  0  0  0  0  0  0  0  0  0
   -0.1138   -2.0122    2.2655 H   0  0  0  0  0  0  0  0  0  0  0  0
    0.4664    0.4028    2.1598 H   0  0  0  0  0  0  0  0  0  0  0  0
   -0.8624    0.0060    1.0429 H   0  0  0  0  0  0  0  0  0  0  0  0
    0.2989   -4.2963   -0.5735 H   0  0  0  0  0  0  0  0  0  0  0  0
    1.1986   -4.0172    0.9368 H   0  0  0  0  0  0  0  0  0  0  0  0
   -0.8227   -6.3732    0.5309 H   0  0  0  0  0  0  0  0  0  0  0  0
    0.2294   -6.0075    1.9218 H   0  0  0  0  0  0  0  0  0  0  0  0
   -1.8601   -7.3659    2.4777 H   0  0  0  0  0  0  0  0  0  0  0  0
   -1.6644   -5.8690    3.4160 H   0  0  0  0  0  0  0  0  0  0  0  0
   -4.0734   -6.2638    2.3330 H   0  0  0  0  0  0  0  0  0  0  0  0
   -4.3477   -4.5782    0.7816 H   0  0  0  0  0  0  0  0  0  0  0  0
   -2.4394   -3.0475    0.3739 H   0  0  0  0  0  0  0  0  0  0  0  0
   -2.0705   -4.4838   -0.6061 H   0  0  0  0  0  0  0  0  0  0  0  0
    1.0715    8.6580   -1.8998 H   0  0  0  0  0  0  0  0  0  0  0  0
   -0.5104    8.3689   -1.4130 H   0  0  0  0  0  0  0  0  0  0  0  0
    0.1143   -2.3480    0.2026 N   0  3  2  0  0  0  0  0  0  0  0  0
   -0.8684   -2.1478   -0.0172 H   0  0  0  0  0  0  0  0  0  0  0  0
  1  2  1  0  0  0  0
  1 30  1  0  0  0  0
  1 31  1  0  0  0  0
  1 32  1  0  0  0  0
  2  3  1  0  0  0  0
  2 33  1  0  0  0  0
  2 34  1  0  0  0  0
  3  4  1  0  0  0  0
  4  9  2  0  0  0  0
  4  5  1  0  0  0  0
  5  6  2  0  0  0  0
  5 35  1  0  0  0  0
  6  7  1  0  0  0  0
  6 29  1  0  0  0  0
  7  8  2  0  0  0  0
  7 26  1  0  0  0  0
  8  9  1  0  0  0  0
  8 36  1  0  0  0  0
  9 10  1  0  0  0  0
 10 11  2  0  0  0  0
 10 12  1  0  0  0  0
 12 13  1  0  0  0  0
 12 37  1  0  0  0  0
 13 17  1  0  0  0  0
 13 14  1  0  0  0  0
 13 38  1  1  0  0  0
 14 15  1  0  0  0  0
 14 39  1  0  0  0  0
 14 40  1  0  0  0  0
 15 41  1  0  0  0  0
 15 42  1  0  0  0  0
 15 59  1  0  0  0  0
 16 17  1  0  0  0  0
 16 43  1  0  0  0  0
 16 44  1  0  0  0  0
 16 59  1  0  0  0  0
 17 45  1  0  0  0  0
 17 46  1  0  0  0  0
 18 19  1  0  0  0  0
 18 47  1  0  0  0  0
 18 48  1  0  0  0  0
 18 59  1  0  0  0  0
 19 20  1  1  0  0  0
 19 25  1  0  0  0  0
 19 21  1  0  0  0  0
 21 22  1  0  0  0  0
 21 49  1  0  0  0  0
 21 50  1  0  0  0  0
 22 23  1  0  0  0  0
 22 51  1  0  0  0  0
 22 52  1  0  0  0  0
 23 24  2  0  0  0  0
 23 53  1  0  0  0  0
 24 25  1  0  0  0  0
 24 54  1  0  0  0  0
 25 55  1  0  0  0  0
 25 56  1  0  0  0  0
 26 27  2  0  0  0  0
 26 28  1  0  0  0  0
 29 57  1  0  0  0  0
 29 58  1  0  0  0  0
 59 60  1  6  0  0  0
M  CHG  2  28  -1  59   1
M  END
$$$$
