ZINC01493878
 OpenBabel08292219463D

 48 50  0  0  0  0  0  0  0  0999 V2000
   -1.0955   -5.0083   -6.9234 C   0  0  0  0  0  0  0  0  0  0  0  0
   -1.5520   -4.3038   -5.7228 N   0  0  0  0  0  0  0  0  0  0  0  0
   -1.8827   -5.0004   -4.6175 C   0  0  0  0  0  0  0  0  0  0  0  0
   -1.8023   -6.2129   -4.6168 O   0  0  0  0  0  0  0  0  0  0  0  0
   -2.3445   -4.2878   -3.4031 C   0  0  0  0  0  0  0  0  0  0  0  0
   -2.6788   -5.0128   -2.2640 C   0  0  0  0  0  0  0  0  0  0  0  0
   -3.1110   -4.3279   -1.1310 C   0  0  0  0  0  0  0  0  0  0  0  0
   -3.1903   -2.9389   -1.1877 C   0  0  0  0  0  0  0  0  0  0  0  0
   -2.8404   -2.2885   -2.3571 C   0  0  0  0  0  0  0  0  0  0  0  0
   -2.4302   -2.9626   -3.4105 N   0  0  0  0  0  0  0  0  0  0  0  0
   -3.4471   -4.9979    0.0005 O   0  0  0  0  0  0  0  0  0  0  0  0
   -3.4462   -6.3570   -0.0383 C   0  0  0  0  0  0  0  0  0  0  0  0
   -2.2447   -7.0505   -0.0178 C   0  0  0  0  0  0  0  0  0  0  0  0
   -2.2431   -8.4307   -0.0577 C   0  0  0  0  0  0  0  0  0  0  0  0
   -3.4442   -9.1246   -0.1179 C   0  0  0  0  0  0  0  0  0  0  0  0
   -4.6464   -8.4301   -0.1379 C   0  0  0  0  0  0  0  0  0  0  0  0
   -4.6469   -7.0500   -0.0928 C   0  0  0  0  0  0  0  0  0  0  0  0
   -3.4432  -10.5252   -0.1588 N   0  0  0  0  0  0  0  0  0  0  0  0
   -2.5108  -11.2187    0.5239 C   0  0  0  0  0  0  0  0  0  0  0  0
   -1.6217  -10.6297    1.1080 O   0  0  0  0  0  0  0  0  0  0  0  0
   -2.5639  -12.5649    0.5593 N   0  0  0  0  0  0  0  0  0  0  0  0
   -1.6655  -13.2800    1.3600 C   0  0  0  0  0  0  0  0  0  0  0  0
   -1.2529  -12.7583    2.5792 C   0  0  0  0  0  0  0  0  0  0  0  0
   -0.3670  -13.4659    3.3674 C   0  0  0  0  0  0  0  0  0  0  0  0
    0.1097  -14.6941    2.9434 C   0  0  0  0  0  0  0  0  0  0  0  0
   -0.2993  -15.2159    1.7290 C   0  0  0  0  0  0  0  0  0  0  0  0
   -1.1898  -14.5147    0.9394 C   0  0  0  0  0  0  0  0  0  0  0  0
    0.2222  -16.5533    1.2702 C   0  0  0  0  0  0  0  0  0  0  0  0
   -0.3299  -16.8663    0.0234 F   0  0  0  0  0  0  0  0  0  0  0  0
    1.6160  -16.4983    1.1626 F   0  0  0  0  0  0  0  0  0  0  0  0
   -0.1354  -17.5367    2.1987 F   0  0  0  0  0  0  0  0  0  0  0  0
    1.2234  -15.5812    3.9366 Cl  0  0  0  0  0  0  0  0  0  0  0  0
   -0.8760   -4.2843   -7.7081 H   0  0  0  0  0  0  0  0  0  0  0  0
   -0.1948   -5.5764   -6.6909 H   0  0  0  0  0  0  0  0  0  0  0  0
   -1.8761   -5.6883   -7.2645 H   0  0  0  0  0  0  0  0  0  0  0  0
   -1.6162   -3.3359   -5.7233 H   0  0  0  0  0  0  0  0  0  0  0  0
   -2.6047   -6.0902   -2.2584 H   0  0  0  0  0  0  0  0  0  0  0  0
   -3.5217   -2.3755   -0.3280 H   0  0  0  0  0  0  0  0  0  0  0  0
   -2.9005   -1.2112   -2.4052 H   0  0  0  0  0  0  0  0  0  0  0  0
   -1.3104   -6.5106    0.0290 H   0  0  0  0  0  0  0  0  0  0  0  0
   -1.3078   -8.9704   -0.0424 H   0  0  0  0  0  0  0  0  0  0  0  0
   -5.5809   -8.9693   -0.1851 H   0  0  0  0  0  0  0  0  0  0  0  0
   -5.5820   -6.5098   -0.1039 H   0  0  0  0  0  0  0  0  0  0  0  0
   -4.1137  -10.9957   -0.6785 H   0  0  0  0  0  0  0  0  0  0  0  0
   -3.2246  -13.0383    0.0299 H   0  0  0  0  0  0  0  0  0  0  0  0
   -1.6244  -11.7997    2.9103 H   0  0  0  0  0  0  0  0  0  0  0  0
   -0.0456  -13.0604    4.3154 H   0  0  0  0  0  0  0  0  0  0  0  0
   -1.5123  -14.9245   -0.0064 H   0  0  0  0  0  0  0  0  0  0  0  0
  1  2  1  0  0  0  0
  1 33  1  0  0  0  0
  1 34  1  0  0  0  0
  1 35  1  0  0  0  0
  2  3  1  0  0  0  0
  2 36  1  0  0  0  0
  3  4  2  0  0  0  0
  3  5  1  0  0  0  0
  5 10  2  0  0  0  0
  5  6  1  0  0  0  0
  6  7  2  0  0  0  0
  6 37  1  0  0  0  0
  7  8  1  0  0  0  0
  7 11  1  0  0  0  0
  8  9  2  0  0  0  0
  8 38  1  0  0  0  0
  9 10  1  0  0  0  0
  9 39  1  0  0  0  0
 11 12  1  0  0  0  0
 12 17  2  0  0  0  0
 12 13  1  0  0  0  0
 13 14  2  0  0  0  0
 13 40  1  0  0  0  0
 14 15  1  0  0  0  0
 14 41  1  0  0  0  0
 15 16  2  0  0  0  0
 15 18  1  0  0  0  0
 16 17  1  0  0  0  0
 16 42  1  0  0  0  0
 17 43  1  0  0  0  0
 18 19  1  0  0  0  0
 18 44  1  0  0  0  0
 19 20  2  0  0  0  0
 19 21  1  0  0  0  0
 21 22  1  0  0  0  0
 21 45  1  0  0  0  0
 22 27  2  0  0  0  0
 22 23  1  0  0  0  0
 23 24  2  0  0  0  0
 23 46  1  0  0  0  0
 24 25  1  0  0  0  0
 24 47  1  0  0  0  0
 25 26  2  0  0  0  0
 25 32  1  0  0  0  0
 26 27  1  0  0  0  0
 26 28  1  0  0  0  0
 27 48  1  0  0  0  0
 28 29  1  0  0  0  0
 28 30  1  0  0  0  0
 28 31  1  0  0  0  0
M  END
$$$$
