ZINC00403609
 OpenBabel08292219463D

 46 47  0  0  1  0  0  0  0  0999 V2000
    0.0986    0.9358    0.4218 C   0  0  0  0  0  0  0  0  0  0  0  0
    0.2106   -0.5888    0.3591 C   0  0  0  0  0  0  0  0  0  0  0  0
    1.0406   -1.0884    1.5433 C   0  0  0  0  0  0  0  0  0  0  0  0
   -1.1882   -1.2059    0.4203 C   0  0  0  0  0  0  0  0  0  0  0  0
    0.8640   -0.9806   -0.8969 N   0  3  0  0  0  0  0  0  0  0  0  0
    2.2070   -0.3882   -0.9557 C   0  0  0  0  0  0  0  0  0  0  0  0
    2.8876   -0.7963   -2.2638 C   0  0  2  0  0  0  0  0  0  0  0  0
    2.8878   -1.8829   -2.3497 H   0  0  0  0  0  0  0  0  0  0  0  0
    4.3293   -0.2840   -2.2700 C   0  0  0  0  0  0  0  0  0  0  0  0
    5.0000   -0.7632   -3.4373 O   0  0  0  0  0  0  0  0  0  0  0  0
    6.3001   -0.3962   -3.5969 C   0  0  0  0  0  0  0  0  0  0  0  0
    7.0412   -0.8009   -4.6950 C   0  0  0  0  0  0  0  0  0  0  0  0
    8.2896   -0.3868   -4.7471 N   0  0  0  0  0  0  0  0  0  0  0  0
    8.4571    0.5233   -3.3525 S   0  0  0  0  0  0  0  0  0  0  0  0
    6.9158    0.3655   -2.7196 N   0  0  0  0  0  0  0  0  0  0  0  0
    6.4909   -1.6094   -5.6976 N   0  0  0  0  0  0  0  0  0  0  0  0
    5.8278   -1.0165   -6.8699 C   0  0  0  0  0  0  0  0  0  0  0  0
    6.4169   -1.6549   -8.1329 C   0  0  0  0  0  0  0  0  0  0  0  0
    6.3481   -3.0782   -8.0169 O   0  0  0  0  0  0  0  0  0  0  0  0
    7.1127   -3.6148   -6.9346 C   0  0  0  0  0  0  0  0  0  0  0  0
    6.5642   -3.0767   -5.6129 C   0  0  0  0  0  0  0  0  0  0  0  0
    2.1766   -0.2313   -3.3671 O   0  0  0  0  0  0  0  0  0  0  0  0
    1.0951    1.3753    0.3781 H   0  0  0  0  0  0  0  0  0  0  0  0
   -0.4927    1.2917   -0.4219 H   0  0  0  0  0  0  0  0  0  0  0  0
   -0.3862    1.2265    1.3537 H   0  0  0  0  0  0  0  0  0  0  0  0
    0.5558   -0.7977    2.4752 H   0  0  0  0  0  0  0  0  0  0  0  0
    1.1204   -2.1745    1.4987 H   0  0  0  0  0  0  0  0  0  0  0  0
    2.0371   -0.6488    1.4997 H   0  0  0  0  0  0  0  0  0  0  0  0
   -1.7795   -0.8500   -0.4233 H   0  0  0  0  0  0  0  0  0  0  0  0
   -1.1084   -2.2920    0.3757 H   0  0  0  0  0  0  0  0  0  0  0  0
   -1.6730   -0.9151    1.3523 H   0  0  0  0  0  0  0  0  0  0  0  0
    0.9379   -1.9861   -0.9382 H   0  0  0  0  0  0  0  0  0  0  0  0
    2.1273    0.6979   -0.9110 H   0  0  0  0  0  0  0  0  0  0  0  0
    2.7984   -0.7441   -0.1120 H   0  0  0  0  0  0  0  0  0  0  0  0
    4.3275    0.8060   -2.2737 H   0  0  0  0  0  0  0  0  0  0  0  0
    4.8465   -0.6435   -1.3804 H   0  0  0  0  0  0  0  0  0  0  0  0
    4.7567   -1.2134   -6.8244 H   0  0  0  0  0  0  0  0  0  0  0  0
    6.0034    0.0591   -6.8860 H   0  0  0  0  0  0  0  0  0  0  0  0
    5.8461   -1.3327   -9.0039 H   0  0  0  0  0  0  0  0  0  0  0  0
    7.4569   -1.3486   -8.2445 H   0  0  0  0  0  0  0  0  0  0  0  0
    7.0426   -4.7025   -6.9434 H   0  0  0  0  0  0  0  0  0  0  0  0
    8.1553   -3.3155   -7.0419 H   0  0  0  0  0  0  0  0  0  0  0  0
    7.2273   -3.3646   -4.7972 H   0  0  0  0  0  0  0  0  0  0  0  0
    5.5685   -3.4845   -5.4387 H   0  0  0  0  0  0  0  0  0  0  0  0
    2.1361    0.7347   -3.3558 H   0  0  0  0  0  0  0  0  0  0  0  0
    0.3166   -0.6512   -1.6778 H   0  0  0  0  0  0  0  0  0  0  0  0
  1  2  1  0  0  0  0
  1 23  1  0  0  0  0
  1 24  1  0  0  0  0
  1 25  1  0  0  0  0
  2  3  1  0  0  0  0
  2  4  1  0  0  0  0
  2  5  1  0  0  0  0
  3 26  1  0  0  0  0
  3 27  1  0  0  0  0
  3 28  1  0  0  0  0
  4 29  1  0  0  0  0
  4 30  1  0  0  0  0
  4 31  1  0  0  0  0
  5  6  1  0  0  0  0
  5 32  1  0  0  0  0
  5 46  1  0  0  0  0
  6  7  1  0  0  0  0
  6 33  1  0  0  0  0
  6 34  1  0  0  0  0
  7  8  1  6  0  0  0
  7  9  1  0  0  0  0
  7 22  1  0  0  0  0
  9 10  1  0  0  0  0
  9 35  1  0  0  0  0
  9 36  1  0  0  0  0
 10 11  1  0  0  0  0
 11 15  2  0  0  0  0
 11 12  1  0  0  0  0
 12 13  2  0  0  0  0
 12 16  1  0  0  0  0
 13 14  1  0  0  0  0
 14 15  1  0  0  0  0
 16 21  1  0  0  0  0
 16 17  1  0  0  0  0
 17 18  1  0  0  0  0
 17 37  1  0  0  0  0
 17 38  1  0  0  0  0
 18 19  1  0  0  0  0
 18 39  1  0  0  0  0
 18 40  1  0  0  0  0
 19 20  1  0  0  0  0
 20 21  1  0  0  0  0
 20 41  1  0  0  0  0
 20 42  1  0  0  0  0
 21 43  1  0  0  0  0
 21 44  1  0  0  0  0
 22 45  1  0  0  0  0
M  CHG  1   5   1
M  END
$$$$
