ZINC03806721
 OpenBabel08292219463D

 44 48  0  0  1  0  0  0  0  0999 V2000
   -0.8103    1.9703    1.1371 C   0  0  0  0  0  0  0  0  0  0  0  0
    0.0021   -0.0041    0.0020 C   0  0  0  0  0  0  0  0  0  0  0  0
    0.7830   -0.5498    1.2073 C   0  0  0  0  0  0  0  0  0  0  0  0
    2.1880    0.0553    1.1444 C   0  0  2  0  0  0  0  0  0  0  0  0
    2.7934   -0.2869   -0.1938 C   0  0  0  0  0  0  0  0  0  0  0  0
    2.7205    0.4513   -1.3504 C   0  0  0  0  0  0  0  0  0  0  0  0
    3.3525   -0.0962   -2.4523 C   0  0  0  0  0  0  0  0  0  0  0  0
    4.0417   -1.2931   -2.3362 C   0  0  0  0  0  0  0  0  0  0  0  0
    4.1591   -1.9981   -1.1400 C   0  0  0  0  0  0  0  0  0  0  0  0
    3.5186   -1.4592   -0.0199 C   0  0  0  0  0  0  0  0  0  0  0  0
    3.4796   -1.8367    1.2788 O   0  0  0  0  0  0  0  0  0  0  0  0
    3.1798   -0.6327    2.0762 C   0  0  1  0  0  0  0  0  0  0  0  0
    2.7725   -0.8462    3.0644 H   0  0  0  0  0  0  0  0  0  0  0  0
    4.5186    0.1135    2.0967 C   0  0  2  0  0  0  0  0  0  0  0  0
    4.9949   -0.0609    3.0615 H   0  0  0  0  0  0  0  0  0  0  0  0
    4.4208    1.5795    1.8805 C   0  0  0  0  0  0  0  0  0  0  0  0
    3.3759    2.2287    1.4750 C   0  0  0  0  0  0  0  0  0  0  0  0
    2.0744    1.5590    1.2318 C   0  0  1  0  0  0  0  0  0  0  0  0
    1.4367    1.7792    2.0879 H   0  0  0  0  0  0  0  0  0  0  0  0
    1.3294    2.0558    0.0004 C   0  0  1  0  0  0  0  0  0  0  0  0
    1.2195    3.1369    0.0858 H   0  0  0  0  0  0  0  0  0  0  0  0
    2.0183    1.7703   -1.3238 C   0  0  0  0  0  0  0  0  0  0  0  0
    5.3577   -0.4374    1.0796 O   0  0  0  0  0  0  0  0  0  0  0  0
    4.8646   -3.1583   -1.0654 O   0  0  0  0  0  0  0  0  0  0  0  0
    5.4800   -3.6219   -2.2689 C   0  0  0  0  0  0  0  0  0  0  0  0
   -0.3364    1.6805    2.0750 H   0  0  0  0  0  0  0  0  0  0  0  0
   -0.8670    3.0573    1.0794 H   0  0  0  0  0  0  0  0  0  0  0  0
   -1.8155    1.5512    1.0933 H   0  0  0  0  0  0  0  0  0  0  0  0
   -1.0217   -0.3763    0.0403 H   0  0  0  0  0  0  0  0  0  0  0  0
    0.4741   -0.3508   -0.9173 H   0  0  0  0  0  0  0  0  0  0  0  0
    0.2916   -0.2527    2.1338 H   0  0  0  0  0  0  0  0  0  0  0  0
    0.8436   -1.6366    1.1497 H   0  0  0  0  0  0  0  0  0  0  0  0
    3.3091    0.4103   -3.4052 H   0  0  0  0  0  0  0  0  0  0  0  0
    4.5127   -1.7003   -3.2186 H   0  0  0  0  0  0  0  0  0  0  0  0
    5.3081    2.1616    2.0814 H   0  0  0  0  0  0  0  0  0  0  0  0
    3.4547    3.2928    1.3080 H   0  0  0  0  0  0  0  0  0  0  0  0
    2.7462    2.5584   -1.5167 H   0  0  0  0  0  0  0  0  0  0  0  0
    1.2713    1.7853   -2.1174 H   0  0  0  0  0  0  0  0  0  0  0  0
    6.2292   -0.0226    1.0213 H   0  0  0  0  0  0  0  0  0  0  0  0
    6.0093   -4.5539   -2.0706 H   0  0  0  0  0  0  0  0  0  0  0  0
    4.7146   -3.7927   -3.0259 H   0  0  0  0  0  0  0  0  0  0  0  0
    6.1856   -2.8727   -2.6281 H   0  0  0  0  0  0  0  0  0  0  0  0
   -0.0435    1.4784   -0.0201 N   0  3  2  0  0  0  0  0  0  0  0  0
   -0.5132    1.7795   -0.8821 H   0  0  0  0  0  0  0  0  0  0  0  0
  1 26  1  0  0  0  0
  1 27  1  0  0  0  0
  1 28  1  0  0  0  0
  1 43  1  0  0  0  0
  2  3  1  0  0  0  0
  2 29  1  0  0  0  0
  2 30  1  0  0  0  0
  2 43  1  0  0  0  0
  3  4  1  0  0  0  0
  3 31  1  0  0  0  0
  3 32  1  0  0  0  0
  4 12  1  0  0  0  0
  4 18  1  0  0  0  0
  4  5  1  6  0  0  0
  5 10  2  0  0  0  0
  5  6  1  0  0  0  0
  6 22  1  0  0  0  0
  6  7  2  0  0  0  0
  7  8  1  0  0  0  0
  7 33  1  0  0  0  0
  8  9  2  0  0  0  0
  8 34  1  0  0  0  0
  9 10  1  0  0  0  0
  9 24  1  0  0  0  0
 10 11  1  0  0  0  0
 11 12  1  0  0  0  0
 12 13  1  1  0  0  0
 12 14  1  0  0  0  0
 14 15  1  1  0  0  0
 14 16  1  0  0  0  0
 14 23  1  0  0  0  0
 16 17  2  0  0  0  0
 16 35  1  0  0  0  0
 17 18  1  0  0  0  0
 17 36  1  0  0  0  0
 18 19  1  1  0  0  0
 18 20  1  0  0  0  0
 20 21  1  1  0  0  0
 20 22  1  0  0  0  0
 20 43  1  0  0  0  0
 22 37  1  0  0  0  0
 22 38  1  0  0  0  0
 23 39  1  0  0  0  0
 24 25  1  0  0  0  0
 25 40  1  0  0  0  0
 25 41  1  0  0  0  0
 25 42  1  0  0  0  0
 43 44  1  6  0  0  0
M  CHG  1  43   1
M  END
$$$$
