ZINC03830511
 OpenBabel08292219463D

 44 46  0  0  1  0  0  0  0  0999 V2000
   -0.3002   -3.9150    2.1847 C   0  0  0  0  0  0  0  0  0  0  0  0
   -0.1644   -2.8390    1.1384 C   0  0  0  0  0  0  0  0  0  0  0  0
   -0.0803   -1.6803    1.4707 O   0  0  0  0  0  0  0  0  0  0  0  0
   -0.1368   -3.1676   -0.1627 O   0  0  0  0  0  0  0  0  0  0  0  0
   -0.0061   -2.0967   -1.0998 C   0  0  0  0  0  0  0  0  0  0  0  0
    0.1259   -2.6601   -2.4913 C   0  0  0  0  0  0  0  0  0  0  0  0
    0.2390   -1.7721   -3.4681 C   0  0  0  0  0  0  0  0  0  0  0  0
    0.4152   -2.1880   -4.7991 N   0  0  0  0  0  0  0  0  0  0  0  0
    0.1644   -3.5436   -5.3537 C   0  0  1  0  0  0  0  0  0  0  0  0
   -0.8653   -3.7515   -5.6445 H   0  0  0  0  0  0  0  0  0  0  0  0
    1.0856   -3.1430   -6.4860 C   0  0  1  0  0  0  0  0  0  0  0  0
    0.6671   -3.3080   -7.4789 H   0  0  0  0  0  0  0  0  0  0  0  0
    0.8821   -1.7488   -5.9588 C   0  0  0  0  0  0  0  0  0  0  0  0
    1.0729   -0.6433   -6.4199 O   0  0  0  0  0  0  0  0  0  0  0  0
    2.4553   -3.6438   -6.3472 N   0  0  0  0  0  0  0  0  0  0  0  0
    3.2243   -3.8150   -7.4408 C   0  0  0  0  0  0  0  0  0  0  0  0
    2.7823   -3.5545   -8.5397 O   0  0  0  0  0  0  0  0  0  0  0  0
    4.6333   -4.3302   -7.2980 C   0  0  0  0  0  0  0  0  0  0  0  0
    5.4021   -4.4503   -8.9366 S   0  0  0  0  0  0  0  0  0  0  0  0
    7.0221   -5.0583   -8.6038 C   0  0  0  0  0  0  0  0  0  0  0  0
    7.4297   -5.3323   -7.2976 C   0  0  0  0  0  0  0  0  0  0  0  0
    8.7055   -5.8073   -7.0800 C   0  0  0  0  0  0  0  0  0  0  0  0
    9.5362   -6.0026   -8.0874 N   0  0  0  0  0  0  0  0  0  0  0  0
    9.1886   -5.7556   -9.3367 C   0  0  0  0  0  0  0  0  0  0  0  0
    7.9290   -5.2841   -9.6401 C   0  0  0  0  0  0  0  0  0  0  0  0
    0.8544   -4.7238   -4.1440 S   0  0  0  0  0  0  0  0  0  0  0  0
    0.1188   -4.1509   -2.5968 C   0  0  0  0  0  0  0  0  0  0  0  0
    0.1788   -0.3349   -3.1562 C   0  0  0  0  0  0  0  0  0  0  0  0
    0.1289    0.0368   -1.9916 O   0  0  0  0  0  0  0  0  0  0  0  0
    0.1788    0.4881   -4.0615 O   0  0  0  0  0  1  0  0  0  0  0  0
   -1.3560   -4.0877    2.3934 H   0  0  0  0  0  0  0  0  0  0  0  0
    0.1534   -4.8363    1.8194 H   0  0  0  0  0  0  0  0  0  0  0  0
    0.2038   -3.5992    3.0982 H   0  0  0  0  0  0  0  0  0  0  0  0
   -0.8886   -1.4590   -1.0482 H   0  0  0  0  0  0  0  0  0  0  0  0
    0.8806   -1.5100   -0.8597 H   0  0  0  0  0  0  0  0  0  0  0  0
    2.8088   -3.8521   -5.4683 H   0  0  0  0  0  0  0  0  0  0  0  0
    5.2092   -3.6452   -6.6757 H   0  0  0  0  0  0  0  0  0  0  0  0
    4.6144   -5.3155   -6.8324 H   0  0  0  0  0  0  0  0  0  0  0  0
    6.7555   -5.1741   -6.4689 H   0  0  0  0  0  0  0  0  0  0  0  0
    9.0297   -6.0221   -6.0725 H   0  0  0  0  0  0  0  0  0  0  0  0
    9.8987   -5.9287  -10.1318 H   0  0  0  0  0  0  0  0  0  0  0  0
    7.6497   -5.0881  -10.6648 H   0  0  0  0  0  0  0  0  0  0  0  0
    0.6749   -4.5691   -1.7578 H   0  0  0  0  0  0  0  0  0  0  0  0
   -0.9109   -4.5054   -2.5507 H   0  0  0  0  0  0  0  0  0  0  0  0
  1  2  1  0  0  0  0
  1 31  1  0  0  0  0
  1 32  1  0  0  0  0
  1 33  1  0  0  0  0
  2  3  2  0  0  0  0
  2  4  1  0  0  0  0
  4  5  1  0  0  0  0
  5  6  1  0  0  0  0
  5 34  1  0  0  0  0
  5 35  1  0  0  0  0
  6 27  1  0  0  0  0
  6  7  2  0  0  0  0
  7  8  1  0  0  0  0
  7 28  1  0  0  0  0
  8 13  1  0  0  0  0
  8  9  1  0  0  0  0
  9 10  1  6  0  0  0
  9 11  1  0  0  0  0
  9 26  1  0  0  0  0
 11 12  1  6  0  0  0
 11 13  1  0  0  0  0
 11 15  1  0  0  0  0
 13 14  2  0  0  0  0
 15 16  1  0  0  0  0
 15 36  1  0  0  0  0
 16 17  2  0  0  0  0
 16 18  1  0  0  0  0
 18 19  1  0  0  0  0
 18 37  1  0  0  0  0
 18 38  1  0  0  0  0
 19 20  1  0  0  0  0
 20 25  2  0  0  0  0
 20 21  1  0  0  0  0
 21 22  2  0  0  0  0
 21 39  1  0  0  0  0
 22 23  1  0  0  0  0
 22 40  1  0  0  0  0
 23 24  2  0  0  0  0
 24 25  1  0  0  0  0
 24 41  1  0  0  0  0
 25 42  1  0  0  0  0
 26 27  1  0  0  0  0
 27 43  1  0  0  0  0
 27 44  1  0  0  0  0
 28 29  2  0  0  0  0
 28 30  1  0  0  0  0
M  END
$$$$
