ZINC02599970
 OpenBabel08292219463D

 50 51  0  0  1  0  0  0  0  0999 V2000
   -0.0239    1.4905   -0.0463 C   0  0  0  0  0  0  0  0  0  0  0  0
    0.0028   -0.0393   -0.0466 C   0  0  2  0  0  0  0  0  0  0  0  0
    0.5192   -0.3935   -0.9388 H   0  0  0  0  0  0  0  0  0  0  0  0
   -1.4306   -0.5744   -0.0408 C   0  0  0  0  0  0  0  0  0  0  0  0
   -1.4068   -2.0761   -0.1649 C   0  0  0  0  0  0  0  0  0  0  0  0
   -1.4316   -2.6657   -1.4153 C   0  0  0  0  0  0  0  0  0  0  0  0
   -1.4103   -4.0420   -1.5318 C   0  0  0  0  0  0  0  0  0  0  0  0
   -1.3634   -4.8327   -0.3929 C   0  0  0  0  0  0  0  0  0  0  0  0
   -1.3381   -4.2387    0.8606 C   0  0  0  0  0  0  0  0  0  0  0  0
   -1.3544   -2.8618    0.9716 C   0  0  0  0  0  0  0  0  0  0  0  0
   -1.3428   -6.1870   -0.5048 O   0  0  0  0  0  0  0  0  0  0  0  0
   -1.2945   -6.9377    0.7101 C   0  0  0  0  0  0  0  0  0  0  0  0
    0.7087   -0.5170    1.1498 N   0  3  0  0  0  0  0  0  0  0  0  0
    2.1168   -0.1038    1.0852 C   0  0  0  0  0  0  0  0  0  0  0  0
    2.8520   -0.6013    2.3313 C   0  0  1  0  0  0  0  0  0  0  0  0
    2.7943   -1.6888    2.3773 H   0  0  0  0  0  0  0  0  0  0  0  0
    4.2967   -0.1774    2.2651 C   0  0  0  0  0  0  0  0  0  0  0  0
    4.6688    1.0764    2.7141 C   0  0  0  0  0  0  0  0  0  0  0  0
    5.9924    1.4711    2.6554 C   0  0  0  0  0  0  0  0  0  0  0  0
    6.9505    0.6097    2.1457 C   0  0  0  0  0  0  0  0  0  0  0  0
    6.5764   -0.6537    1.6937 C   0  0  0  0  0  0  0  0  0  0  0  0
    5.2471   -1.0448    1.7609 C   0  0  0  0  0  0  0  0  0  0  0  0
    7.5410   -1.5291    1.1772 N   0  0  0  0  0  0  0  0  0  0  0  0
    7.4272   -2.8558    1.3854 C   0  0  0  0  0  0  0  0  0  0  0  0
    6.4494   -3.2996    1.9494 O   0  0  0  0  0  0  0  0  0  0  0  0
    8.2526    0.9968    2.0865 O   0  0  0  0  0  0  0  0  0  0  0  0
    2.2446   -0.0423    3.4978 O   0  0  0  0  0  0  0  0  0  0  0  0
    0.9973    1.8716   -0.0504 H   0  0  0  0  0  0  0  0  0  0  0  0
   -0.5477    1.8449   -0.9340 H   0  0  0  0  0  0  0  0  0  0  0  0
   -0.5403    1.8446    0.8459 H   0  0  0  0  0  0  0  0  0  0  0  0
   -1.9190   -0.2947    0.8927 H   0  0  0  0  0  0  0  0  0  0  0  0
   -1.9806   -0.1491   -0.8802 H   0  0  0  0  0  0  0  0  0  0  0  0
   -1.4681   -2.0497   -2.3017 H   0  0  0  0  0  0  0  0  0  0  0  0
   -1.4304   -4.5021   -2.5087 H   0  0  0  0  0  0  0  0  0  0  0  0
   -1.3017   -4.8521    1.7487 H   0  0  0  0  0  0  0  0  0  0  0  0
   -1.3302   -2.3988    1.9470 H   0  0  0  0  0  0  0  0  0  0  0  0
   -1.2824   -8.0028    0.4788 H   0  0  0  0  0  0  0  0  0  0  0  0
   -0.3926   -6.6758    1.2634 H   0  0  0  0  0  0  0  0  0  0  0  0
   -2.1715   -6.7071    1.3148 H   0  0  0  0  0  0  0  0  0  0  0  0
    0.2798   -0.1223    1.9734 H   0  0  0  0  0  0  0  0  0  0  0  0
    2.5802   -0.5302    0.1955 H   0  0  0  0  0  0  0  0  0  0  0  0
    2.1746    0.9837    1.0392 H   0  0  0  0  0  0  0  0  0  0  0  0
    3.9233    1.7493    3.1113 H   0  0  0  0  0  0  0  0  0  0  0  0
    6.2796    2.4511    3.0066 H   0  0  0  0  0  0  0  0  0  0  0  0
    4.9544   -2.0252    1.4154 H   0  0  0  0  0  0  0  0  0  0  0  0
    8.2905   -1.1802    0.6699 H   0  0  0  0  0  0  0  0  0  0  0  0
    8.2068   -3.5238    1.0501 H   0  0  0  0  0  0  0  0  0  0  0  0
    8.7638    0.7798    2.8782 H   0  0  0  0  0  0  0  0  0  0  0  0
    2.2599    0.9242    3.5244 H   0  0  0  0  0  0  0  0  0  0  0  0
    0.6552   -1.5237    1.1924 H   0  0  0  0  0  0  0  0  0  0  0  0
  1  2  1  0  0  0  0
  1 28  1  0  0  0  0
  1 29  1  0  0  0  0
  1 30  1  0  0  0  0
  2  3  1  6  0  0  0
  2  4  1  0  0  0  0
  2 13  1  0  0  0  0
  4  5  1  0  0  0  0
  4 31  1  0  0  0  0
  4 32  1  0  0  0  0
  5 10  2  0  0  0  0
  5  6  1  0  0  0  0
  6  7  2  0  0  0  0
  6 33  1  0  0  0  0
  7  8  1  0  0  0  0
  7 34  1  0  0  0  0
  8  9  2  0  0  0  0
  8 11  1  0  0  0  0
  9 10  1  0  0  0  0
  9 35  1  0  0  0  0
 10 36  1  0  0  0  0
 11 12  1  0  0  0  0
 12 37  1  0  0  0  0
 12 38  1  0  0  0  0
 12 39  1  0  0  0  0
 13 14  1  0  0  0  0
 13 40  1  0  0  0  0
 13 50  1  0  0  0  0
 14 15  1  0  0  0  0
 14 41  1  0  0  0  0
 14 42  1  0  0  0  0
 15 16  1  1  0  0  0
 15 17  1  0  0  0  0
 15 27  1  0  0  0  0
 17 22  2  0  0  0  0
 17 18  1  0  0  0  0
 18 19  2  0  0  0  0
 18 43  1  0  0  0  0
 19 20  1  0  0  0  0
 19 44  1  0  0  0  0
 20 21  2  0  0  0  0
 20 26  1  0  0  0  0
 21 22  1  0  0  0  0
 21 23  1  0  0  0  0
 22 45  1  0  0  0  0
 23 24  1  0  0  0  0
 23 46  1  0  0  0  0
 24 25  2  0  0  0  0
 24 47  1  0  0  0  0
 26 48  1  0  0  0  0
 27 49  1  0  0  0  0
M  CHG  1  13   1
M  END
$$$$
