ZINC00020228
 OpenBabel08292219463D

 35 35  0  0  1  0  0  0  0  0999 V2000
    0.5518    1.3750   -1.0674 C   0  0  0  0  0  0  0  0  0  0  0  0
    0.1005    0.0353   -0.4822 C   0  0  1  0  0  0  0  0  0  0  0  0
    0.4535   -0.0497    0.5455 H   0  0  0  0  0  0  0  0  0  0  0  0
   -1.4044   -0.0412   -0.5044 C   0  0  0  0  0  0  0  0  0  0  0  0
   -1.9715   -0.5550   -1.4450 O   0  0  0  0  0  0  0  0  0  0  0  0
   -2.1856    0.5077    0.6155 C   0  0  0  0  0  0  0  0  0  0  0  0
   -1.5352    1.1062    1.6995 C   0  0  0  0  0  0  0  0  0  0  0  0
   -2.2735    1.6187    2.7450 C   0  0  0  0  0  0  0  0  0  0  0  0
   -3.6553    1.5420    2.7247 C   0  0  0  0  0  0  0  0  0  0  0  0
   -4.3073    0.9506    1.6555 C   0  0  0  0  0  0  0  0  0  0  0  0
   -3.5820    0.4386    0.5985 C   0  0  0  0  0  0  0  0  0  0  0  0
   -6.0408    0.8595    1.6411 Cl  0  0  0  0  0  0  0  0  0  0  0  0
    0.6585   -1.0620   -1.2839 N   0  3  0  0  0  0  0  0  0  0  0  0
    0.5520   -2.3202   -0.5331 C   0  0  0  0  0  0  0  0  0  0  0  0
   -0.9226   -2.6390   -0.2784 C   0  0  0  0  0  0  0  0  0  0  0  0
    1.1861   -3.4527   -1.3431 C   0  0  0  0  0  0  0  0  0  0  0  0
    1.2817   -2.1793    0.8043 C   0  0  0  0  0  0  0  0  0  0  0  0
    1.6336    1.4676   -0.9710 H   0  0  0  0  0  0  0  0  0  0  0  0
    0.2754    1.4229   -2.1207 H   0  0  0  0  0  0  0  0  0  0  0  0
    0.0679    2.1888   -0.5274 H   0  0  0  0  0  0  0  0  0  0  0  0
   -0.4570    1.1665    1.7177 H   0  0  0  0  0  0  0  0  0  0  0  0
   -1.7722    2.0811    3.5825 H   0  0  0  0  0  0  0  0  0  0  0  0
   -4.2279    1.9450    3.5469 H   0  0  0  0  0  0  0  0  0  0  0  0
   -4.0915   -0.0181   -0.2371 H   0  0  0  0  0  0  0  0  0  0  0  0
    0.1446   -1.1419   -2.1485 H   0  0  0  0  0  0  0  0  0  0  0  0
   -1.4734   -2.5850   -1.2175 H   0  0  0  0  0  0  0  0  0  0  0  0
   -1.0108   -3.6427    0.1374 H   0  0  0  0  0  0  0  0  0  0  0  0
   -1.3341   -1.9163    0.4262 H   0  0  0  0  0  0  0  0  0  0  0  0
    2.2367   -3.2256   -1.5245 H   0  0  0  0  0  0  0  0  0  0  0  0
    1.1072   -4.3863   -0.7860 H   0  0  0  0  0  0  0  0  0  0  0  0
    0.6663   -3.5531   -2.2959 H   0  0  0  0  0  0  0  0  0  0  0  0
    0.7467   -1.4712    1.4372 H   0  0  0  0  0  0  0  0  0  0  0  0
    1.3235   -3.1495    1.2994 H   0  0  0  0  0  0  0  0  0  0  0  0
    2.2946   -1.8168    0.6292 H   0  0  0  0  0  0  0  0  0  0  0  0
    1.6286   -0.8717   -1.4855 H   0  0  0  0  0  0  0  0  0  0  0  0
  1  2  1  0  0  0  0
  1 18  1  0  0  0  0
  1 19  1  0  0  0  0
  1 20  1  0  0  0  0
  2  3  1  1  0  0  0
  2  4  1  0  0  0  0
  2 13  1  0  0  0  0
  4  5  2  0  0  0  0
  4  6  1  0  0  0  0
  6 11  2  0  0  0  0
  6  7  1  0  0  0  0
  7  8  2  0  0  0  0
  7 21  1  0  0  0  0
  8  9  1  0  0  0  0
  8 22  1  0  0  0  0
  9 10  2  0  0  0  0
  9 23  1  0  0  0  0
 10 11  1  0  0  0  0
 10 12  1  0  0  0  0
 11 24  1  0  0  0  0
 13 14  1  0  0  0  0
 13 25  1  0  0  0  0
 13 35  1  0  0  0  0
 14 15  1  0  0  0  0
 14 16  1  0  0  0  0
 14 17  1  0  0  0  0
 15 26  1  0  0  0  0
 15 27  1  0  0  0  0
 15 28  1  0  0  0  0
 16 29  1  0  0  0  0
 16 30  1  0  0  0  0
 16 31  1  0  0  0  0
 17 32  1  0  0  0  0
 17 33  1  0  0  0  0
 17 34  1  0  0  0  0
M  CHG  1  13   1
M  END
$$$$
