ZINC03830945
 OpenBabel08292219463D

 60 60  0  0  1  0  0  0  0  0999 V2000
    1.4238    7.1293   -1.4222 C   0  0  0  0  0  0  0  0  0  0  0  0
    1.8752    5.6922   -1.3776 C   0  0  0  0  0  0  0  0  0  0  0  0
    1.7819    4.9962   -2.3665 O   0  0  0  0  0  0  0  0  0  0  0  0
    2.3824    5.1802   -0.2387 N   0  0  0  0  0  0  0  0  0  0  0  0
    2.8212    3.7831   -0.1953 C   0  0  0  0  0  0  0  0  0  0  0  0
    1.6957    2.9123    0.3667 C   0  0  1  0  0  0  0  0  0  0  0  0
    0.7814    3.0902   -0.1996 H   0  0  0  0  0  0  0  0  0  0  0  0
    2.0869    1.4375    0.2534 C   0  0  0  0  0  0  0  0  0  0  0  0
    0.9908    0.6206    0.6697 O   0  0  0  0  0  0  0  0  0  0  0  0
    1.4776    3.2432    1.7396 O   0  0  0  0  0  0  0  0  0  0  0  0
    2.4901    5.9838    0.9033 C   0  0  0  0  0  0  0  0  0  0  0  0
    1.3793    6.1966    1.7070 C   0  0  0  0  0  0  0  0  0  0  0  0
    1.4842    6.9929    2.8498 C   0  0  0  0  0  0  0  0  0  0  0  0
    2.7045    7.5834    3.1764 C   0  0  0  0  0  0  0  0  0  0  0  0
    3.8169    7.3719    2.3634 C   0  0  0  0  0  0  0  0  0  0  0  0
    3.7057    6.5696    1.2249 C   0  0  0  0  0  0  0  0  0  0  0  0
    5.3766    6.2514    0.0018 I   0  0  0  0  0  0  0  0  0  0  0  0
    5.1122    7.9959    2.7049 C   0  0  0  0  0  0  0  0  0  0  0  0
    5.3879    9.0987    2.2742 O   0  0  0  0  0  0  0  0  0  0  0  0
    5.9878    7.3423    3.4940 N   0  0  0  0  0  0  0  0  0  0  0  0
    7.2718    7.9609    3.8326 C   0  0  0  0  0  0  0  0  0  0  0  0
    8.0710    7.0169    4.7332 C   0  0  1  0  0  0  0  0  0  0  0  0
    8.2473    6.0774    4.2092 H   0  0  0  0  0  0  0  0  0  0  0  0
    9.4121    7.6630    5.0868 C   0  0  0  0  0  0  0  0  0  0  0  0
   10.2060    6.7361    5.8303 O   0  0  0  0  0  0  0  0  0  0  0  0
    7.3339    6.7634    5.9308 O   0  0  0  0  0  0  0  0  0  0  0  0
    2.8658    8.7849    4.8850 I   0  0  0  0  0  0  0  0  0  0  0  0
    0.3020    7.2145    3.7082 C   0  0  0  0  0  0  0  0  0  0  0  0
   -0.4407    8.1517    3.4896 O   0  0  0  0  0  0  0  0  0  0  0  0
    0.0472    6.3775    4.7334 N   0  0  0  0  0  0  0  0  0  0  0  0
   -1.1249    6.5972    5.5844 C   0  0  0  0  0  0  0  0  0  0  0  0
   -1.1815    5.5144    6.6639 C   0  0  2  0  0  0  0  0  0  0  0  0
   -1.1640    4.5312    6.1936 H   0  0  0  0  0  0  0  0  0  0  0  0
   -2.4700    5.6692    7.4744 C   0  0  0  0  0  0  0  0  0  0  0  0
   -2.5798    4.5904    8.4050 O   0  0  0  0  0  0  0  0  0  0  0  0
   -0.0540    5.6475    7.5316 O   0  0  0  0  0  0  0  0  0  0  0  0
   -0.4555    5.3157    1.2105 I   0  0  0  0  0  0  0  0  0  0  0  0
    2.2579    7.7629   -1.7239 H   0  0  0  0  0  0  0  0  0  0  0  0
    0.6107    7.2326   -2.1407 H   0  0  0  0  0  0  0  0  0  0  0  0
    1.0765    7.4319   -0.4343 H   0  0  0  0  0  0  0  0  0  0  0  0
    3.7001    3.6980    0.4438 H   0  0  0  0  0  0  0  0  0  0  0  0
    3.0706    3.4492   -1.2024 H   0  0  0  0  0  0  0  0  0  0  0  0
    2.9493    1.2405    0.8903 H   0  0  0  0  0  0  0  0  0  0  0  0
    2.3393    1.2070   -0.7816 H   0  0  0  0  0  0  0  0  0  0  0  0
    1.1683   -0.3288    0.6240 H   0  0  0  0  0  0  0  0  0  0  0  0
    2.2511    3.1091    2.3042 H   0  0  0  0  0  0  0  0  0  0  0  0
    5.7677    6.4623    3.8377 H   0  0  0  0  0  0  0  0  0  0  0  0
    7.8341    8.1543    2.9191 H   0  0  0  0  0  0  0  0  0  0  0  0
    7.0956    8.9004    4.3565 H   0  0  0  0  0  0  0  0  0  0  0  0
    9.9359    7.9373    4.1711 H   0  0  0  0  0  0  0  0  0  0  0  0
    9.2381    8.5558    5.6873 H   0  0  0  0  0  0  0  0  0  0  0  0
   11.0722    7.0793    6.0890 H   0  0  0  0  0  0  0  0  0  0  0  0
    7.1406    7.5565    6.4491 H   0  0  0  0  0  0  0  0  0  0  0  0
    0.6399    5.6297    4.9078 H   0  0  0  0  0  0  0  0  0  0  0  0
   -1.0528    7.5772    6.0562 H   0  0  0  0  0  0  0  0  0  0  0  0
   -2.0287    6.5521    4.9767 H   0  0  0  0  0  0  0  0  0  0  0  0
   -2.4473    6.6150    8.0156 H   0  0  0  0  0  0  0  0  0  0  0  0
   -3.3267    5.6565    6.8007 H   0  0  0  0  0  0  0  0  0  0  0  0
   -3.3750    4.6240    8.9541 H   0  0  0  0  0  0  0  0  0  0  0  0
   -0.0052    6.5002    7.9851 H   0  0  0  0  0  0  0  0  0  0  0  0
  1  2  1  0  0  0  0
  1 38  1  0  0  0  0
  1 39  1  0  0  0  0
  1 40  1  0  0  0  0
  2  3  2  0  0  0  0
  2  4  1  0  0  0  0
  4  5  1  0  0  0  0
  4 11  1  0  0  0  0
  5  6  1  0  0  0  0
  5 41  1  0  0  0  0
  5 42  1  0  0  0  0
  6  7  1  6  0  0  0
  6  8  1  0  0  0  0
  6 10  1  0  0  0  0
  8  9  1  0  0  0  0
  8 43  1  0  0  0  0
  8 44  1  0  0  0  0
  9 45  1  0  0  0  0
 10 46  1  0  0  0  0
 11 16  2  0  0  0  0
 11 12  1  0  0  0  0
 12 13  2  0  0  0  0
 12 37  1  0  0  0  0
 13 14  1  0  0  0  0
 13 28  1  0  0  0  0
 14 15  2  0  0  0  0
 14 27  1  0  0  0  0
 15 16  1  0  0  0  0
 15 18  1  0  0  0  0
 16 17  1  0  0  0  0
 18 19  2  0  0  0  0
 18 20  1  0  0  0  0
 20 21  1  0  0  0  0
 20 47  1  0  0  0  0
 21 22  1  0  0  0  0
 21 48  1  0  0  0  0
 21 49  1  0  0  0  0
 22 23  1  6  0  0  0
 22 24  1  0  0  0  0
 22 26  1  0  0  0  0
 24 25  1  0  0  0  0
 24 50  1  0  0  0  0
 24 51  1  0  0  0  0
 25 52  1  0  0  0  0
 26 53  1  0  0  0  0
 28 29  2  0  0  0  0
 28 30  1  0  0  0  0
 30 31  1  0  0  0  0
 30 54  1  0  0  0  0
 31 32  1  0  0  0  0
 31 55  1  0  0  0  0
 31 56  1  0  0  0  0
 32 33  1  6  0  0  0
 32 34  1  0  0  0  0
 32 36  1  0  0  0  0
 34 35  1  0  0  0  0
 34 57  1  0  0  0  0
 34 58  1  0  0  0  0
 35 59  1  0  0  0  0
 36 60  1  0  0  0  0
M  END
$$$$
