ZINC53683151
 OpenBabel08292219463D

 83 89  0  0  1  0  0  0  0  0999 V2000
   -0.9604   -2.3128    0.2514 C   0  0  0  0  0  0  0  0  0  0  0  0
    0.5064   -1.8892    0.3513 C   0  0  0  0  0  0  0  0  0  0  0  0
    1.2341   -2.2622   -0.9419 C   0  0  0  0  0  0  0  0  0  0  0  0
    0.5870   -0.3762    0.5637 C   0  0  0  0  0  0  0  0  0  0  0  0
   -0.0320   -0.0173    1.9161 C   0  0  1  0  0  0  0  0  0  0  0  0
   -1.0342   -0.4403    1.9853 H   0  0  0  0  0  0  0  0  0  0  0  0
    0.8295   -0.5630    3.0317 C   0  0  0  0  0  0  0  0  0  0  0  0
    0.8476   -1.7563    3.2475 O   0  0  0  0  0  0  0  0  0  0  0  0
    1.5736    0.2584    3.7840 N   0  0  0  0  0  0  0  0  0  0  0  0
    2.7007   -0.1227    4.6620 C   0  0  0  0  0  0  0  0  0  0  0  0
    3.7480    0.9855    4.3693 C   0  0  0  0  0  0  0  0  0  0  0  0
    2.8693    2.2537    4.2358 C   0  0  0  0  0  0  0  0  0  0  0  0
    1.4703    1.7260    3.8747 C   0  0  1  0  0  0  0  0  0  0  0  0
    0.7511    2.0069    4.6441 H   0  0  0  0  0  0  0  0  0  0  0  0
    1.0392    2.2663    2.5065 C   0  0  1  0  0  0  0  0  0  0  0  0
   -0.0999    1.4440    2.0579 N   0  0  0  0  0  0  0  0  0  0  0  0
   -1.1550    2.2360    1.8227 C   0  0  0  0  0  0  0  0  0  0  0  0
   -2.2292    1.8784    1.3876 O   0  0  0  0  0  0  0  0  0  0  0  0
   -0.7768    3.6491    2.1925 C   0  0  2  0  0  0  0  0  0  0  0  0
    0.5890    3.6154    2.6297 O   0  0  0  0  0  0  0  0  0  0  0  0
   -1.6753    4.1511    3.3245 C   0  0  0  0  0  0  0  0  0  0  0  0
   -1.4531    3.2922    4.5710 C   0  0  0  0  0  0  0  0  0  0  0  0
   -1.3309    5.6079    3.6410 C   0  0  0  0  0  0  0  0  0  0  0  0
   -0.9073    4.5237    1.0245 N   0  0  0  0  0  0  0  0  0  0  0  0
   -2.1136    4.7088    0.4526 C   0  0  0  0  0  0  0  0  0  0  0  0
   -3.1053    4.2295    0.9602 O   0  0  0  0  0  0  0  0  0  0  0  0
   -2.2302    5.5113   -0.8176 C   0  0  1  0  0  0  0  0  0  0  0  0
   -1.6380    5.0427   -1.6036 H   0  0  0  0  0  0  0  0  0  0  0  0
   -3.6990    5.5823   -1.2505 C   0  0  0  0  0  0  0  0  0  0  0  0
   -3.7936    6.4488   -2.4292 N   0  0  0  0  0  0  0  0  0  0  0  0
   -3.4322    7.8324   -2.1489 C   0  0  2  0  0  0  0  0  0  0  0  0
   -4.2947    8.2947   -1.6688 H   0  0  0  0  0  0  0  0  0  0  0  0
   -3.1994    8.5819   -3.4680 C   0  0  0  0  0  0  0  0  0  0  0  0
   -2.7108    9.9755   -3.1711 C   0  0  0  0  0  0  0  0  0  0  0  0
   -2.0194   10.2479   -1.9167 C   0  0  0  0  0  0  0  0  0  0  0  0
   -1.7658    9.3056   -0.8975 C   0  0  0  0  0  0  0  0  0  0  0  0
   -1.0880    9.7843    0.2001 C   0  0  0  0  0  0  0  0  0  0  0  0
   -0.7111   11.1251    0.2487 C   0  0  0  0  0  0  0  0  0  0  0  0
   -0.9744   12.0494   -0.7555 C   0  0  0  0  0  0  0  0  0  0  0  0
   -1.6569   11.5972   -1.8842 C   0  0  0  0  0  0  0  0  0  0  0  0
   -2.1153   12.1208   -3.0559 N   0  0  0  0  0  0  0  0  0  0  0  0
   -2.0178   13.0480   -3.3234 H   0  0  0  0  0  0  0  0  0  0  0  0
   -2.7412   11.1411   -3.8114 C   0  0  0  0  0  0  0  0  0  0  0  0
   -3.5251   11.4216   -5.5092 Br  0  0  0  0  0  0  0  0  0  0  0  0
   -2.2765    7.9536   -1.1913 C   0  0  0  0  0  0  0  0  0  0  0  0
   -1.7368    6.9130   -0.5787 C   0  0  0  0  0  0  0  0  0  0  0  0
   -5.1282    6.3662   -3.0375 C   0  0  0  0  0  0  0  0  0  0  0  0
    2.1226    2.1876    1.5780 O   0  0  0  0  0  0  0  0  0  0  0  0
   -1.4538   -1.7327   -0.5285 H   0  0  0  0  0  0  0  0  0  0  0  0
   -1.0165   -3.3733    0.0059 H   0  0  0  0  0  0  0  0  0  0  0  0
   -1.4560   -2.1340    1.2056 H   0  0  0  0  0  0  0  0  0  0  0  0
    0.9755   -2.3997    1.1924 H   0  0  0  0  0  0  0  0  0  0  0  0
    0.7650   -1.7517   -1.7830 H   0  0  0  0  0  0  0  0  0  0  0  0
    2.2791   -1.9605   -0.8707 H   0  0  0  0  0  0  0  0  0  0  0  0
    1.1766   -3.3401   -1.0932 H   0  0  0  0  0  0  0  0  0  0  0  0
    1.6306   -0.0620    0.5469 H   0  0  0  0  0  0  0  0  0  0  0  0
    0.0418    0.1319   -0.2317 H   0  0  0  0  0  0  0  0  0  0  0  0
    2.3990   -0.1028    5.7092 H   0  0  0  0  0  0  0  0  0  0  0  0
    3.0892   -1.1038    4.3888 H   0  0  0  0  0  0  0  0  0  0  0  0
    4.4477    1.0854    5.1991 H   0  0  0  0  0  0  0  0  0  0  0  0
    4.2770    0.7817    3.4383 H   0  0  0  0  0  0  0  0  0  0  0  0
    2.8382    2.7951    5.1813 H   0  0  0  0  0  0  0  0  0  0  0  0
    3.2490    2.8965    3.4416 H   0  0  0  0  0  0  0  0  0  0  0  0
   -2.7189    4.0829    3.0175 H   0  0  0  0  0  0  0  0  0  0  0  0
   -2.0932    3.6499    5.3775 H   0  0  0  0  0  0  0  0  0  0  0  0
   -1.6984    2.2544    4.3456 H   0  0  0  0  0  0  0  0  0  0  0  0
   -0.4095    3.3604    4.8780 H   0  0  0  0  0  0  0  0  0  0  0  0
   -1.5725    6.2333    2.7816 H   0  0  0  0  0  0  0  0  0  0  0  0
   -1.9082    5.9384    4.5045 H   0  0  0  0  0  0  0  0  0  0  0  0
   -0.2668    5.6899    3.8624 H   0  0  0  0  0  0  0  0  0  0  0  0
   -0.1255    4.9696    0.6627 H   0  0  0  0  0  0  0  0  0  0  0  0
   -4.0560    4.5833   -1.5005 H   0  0  0  0  0  0  0  0  0  0  0  0
   -4.2998    5.9976   -0.4413 H   0  0  0  0  0  0  0  0  0  0  0  0
   -2.4523    8.0530   -4.0597 H   0  0  0  0  0  0  0  0  0  0  0  0
   -4.1343    8.6354   -4.0258 H   0  0  0  0  0  0  0  0  0  0  0  0
   -0.8495    9.1239    1.0207 H   0  0  0  0  0  0  0  0  0  0  0  0
   -0.1798   11.4685    1.1240 H   0  0  0  0  0  0  0  0  0  0  0  0
   -0.6625   13.0793   -0.6647 H   0  0  0  0  0  0  0  0  0  0  0  0
   -0.9142    7.0722    0.1028 H   0  0  0  0  0  0  0  0  0  0  0  0
   -5.8712    6.7463   -2.3364 H   0  0  0  0  0  0  0  0  0  0  0  0
   -5.1496    6.9635   -3.9490 H   0  0  0  0  0  0  0  0  0  0  0  0
   -5.3540    5.3274   -3.2785 H   0  0  0  0  0  0  0  0  0  0  0  0
    1.9078    2.5159    0.6942 H   0  0  0  0  0  0  0  0  0  0  0  0
  1  2  1  0  0  0  0
  1 49  1  0  0  0  0
  1 50  1  0  0  0  0
  1 51  1  0  0  0  0
  2  3  1  0  0  0  0
  2  4  1  0  0  0  0
  2 52  1  0  0  0  0
  3 53  1  0  0  0  0
  3 54  1  0  0  0  0
  3 55  1  0  0  0  0
  4  5  1  0  0  0  0
  4 56  1  0  0  0  0
  4 57  1  0  0  0  0
  5  6  1  1  0  0  0
  5 16  1  0  0  0  0
  5  7  1  0  0  0  0
  7  8  2  0  0  0  0
  7  9  1  0  0  0  0
  9 13  1  0  0  0  0
  9 10  1  0  0  0  0
 10 11  1  0  0  0  0
 10 58  1  0  0  0  0
 10 59  1  0  0  0  0
 11 12  1  0  0  0  0
 11 60  1  0  0  0  0
 11 61  1  0  0  0  0
 12 13  1  0  0  0  0
 12 62  1  0  0  0  0
 12 63  1  0  0  0  0
 13 14  1  1  0  0  0
 13 15  1  0  0  0  0
 15 20  1  0  0  0  0
 15 16  1  0  0  0  0
 15 48  1  6  0  0  0
 16 17  1  0  0  0  0
 17 18  2  0  0  0  0
 17 19  1  0  0  0  0
 19 20  1  0  0  0  0
 19 21  1  1  0  0  0
 19 24  1  0  0  0  0
 21 22  1  0  0  0  0
 21 23  1  0  0  0  0
 21 64  1  0  0  0  0
 22 65  1  0  0  0  0
 22 66  1  0  0  0  0
 22 67  1  0  0  0  0
 23 68  1  0  0  0  0
 23 69  1  0  0  0  0
 23 70  1  0  0  0  0
 24 25  1  0  0  0  0
 24 71  1  0  0  0  0
 25 26  2  0  0  0  0
 25 27  1  0  0  0  0
 27 28  1  6  0  0  0
 27 46  1  0  0  0  0
 27 29  1  0  0  0  0
 29 30  1  0  0  0  0
 29 72  1  0  0  0  0
 29 73  1  0  0  0  0
 30 31  1  0  0  0  0
 30 47  1  0  0  0  0
 31 32  1  1  0  0  0
 31 45  1  0  0  0  0
 31 33  1  0  0  0  0
 33 34  1  0  0  0  0
 33 74  1  0  0  0  0
 33 75  1  0  0  0  0
 34 43  2  0  0  0  0
 34 35  1  0  0  0  0
 35 40  2  0  0  0  0
 35 36  1  0  0  0  0
 36 37  2  0  0  0  0
 36 45  1  0  0  0  0
 37 38  1  0  0  0  0
 37 76  1  0  0  0  0
 38 39  2  0  0  0  0
 38 77  1  0  0  0  0
 39 40  1  0  0  0  0
 39 78  1  0  0  0  0
 40 41  1  0  0  0  0
 41 42  1  0  0  0  0
 41 43  1  0  0  0  0
 43 44  1  0  0  0  0
 45 46  2  0  0  0  0
 46 79  1  0  0  0  0
 47 80  1  0  0  0  0
 47 81  1  0  0  0  0
 47 82  1  0  0  0  0
 48 83  1  0  0  0  0
M  END
$$$$
