ZINC00001677
 OpenBabel08292219463D

 21 22  0  0  0  0  0  0  0  0999 V2000
   -0.0184    1.5028    0.0103 C   0  0  0  0  0  0  0  0  0  0  0  0
    0.0021   -0.0041    0.0020 C   0  0  0  0  0  0  0  0  0  0  0  0
    0.0054   -0.6583   -1.1671 C   0  0  0  0  0  0  0  0  0  0  0  0
    0.0253   -2.1327   -1.2104 C   0  0  0  0  0  0  0  0  0  0  0  0
    0.0284   -2.7113   -2.2787 O   0  0  0  0  0  0  0  0  0  0  0  0
    0.0418   -2.9039    0.0513 C   0  0  0  0  0  0  0  0  0  0  0  0
    0.0612   -4.2934    0.0381 C   0  0  0  0  0  0  0  0  0  0  0  0
    0.0768   -4.9930    1.2348 C   0  0  0  0  0  0  0  0  0  0  0  0
    0.0733   -4.3183    2.4405 C   0  0  0  0  0  0  0  0  0  0  0  0
    0.0541   -2.9325    2.4700 C   0  0  0  0  0  0  0  0  0  0  0  0
    0.0382   -2.2171    1.2786 C   0  0  0  0  0  0  0  0  0  0  0  0
    0.0242   -0.7383    1.2813 C   0  0  0  0  0  0  0  0  0  0  0  0
    0.0258   -0.1305    2.3332 O   0  0  0  0  0  0  0  0  0  0  0  0
    1.0042    1.8801    0.0026 H   0  0  0  0  0  0  0  0  0  0  0  0
   -0.5455    1.8639   -0.8728 H   0  0  0  0  0  0  0  0  0  0  0  0
   -0.5286    1.8543    0.9071 H   0  0  0  0  0  0  0  0  0  0  0  0
   -0.0070   -0.0985   -2.0906 H   0  0  0  0  0  0  0  0  0  0  0  0
    0.0637   -4.8263   -0.9013 H   0  0  0  0  0  0  0  0  0  0  0  0
    0.0915   -6.0729    1.2246 H   0  0  0  0  0  0  0  0  0  0  0  0
    0.0852   -4.8744    3.3663 H   0  0  0  0  0  0  0  0  0  0  0  0
    0.0510   -2.4106    3.4155 H   0  0  0  0  0  0  0  0  0  0  0  0
  1  2  1  0  0  0  0
  1 14  1  0  0  0  0
  1 15  1  0  0  0  0
  1 16  1  0  0  0  0
  2 12  1  0  0  0  0
  2  3  2  0  0  0  0
  3  4  1  0  0  0  0
  3 17  1  0  0  0  0
  4  5  2  0  0  0  0
  4  6  1  0  0  0  0
  6 11  2  0  0  0  0
  6  7  1  0  0  0  0
  7  8  2  0  0  0  0
  7 18  1  0  0  0  0
  8  9  1  0  0  0  0
  8 19  1  0  0  0  0
  9 10  2  0  0  0  0
  9 20  1  0  0  0  0
 10 11  1  0  0  0  0
 10 21  1  0  0  0  0
 11 12  1  0  0  0  0
 12 13  2  0  0  0  0
M  END
$$$$
