ZINC00001131
 OpenBabel08292219463D

 18 19  0  0  0  0  0  0  0  0999 V2000
   -0.0168    1.3885    0.0097 C   0  0  0  0  0  0  0  0  0  0  0  0
    1.1577    2.0864    0.0022 C   0  0  0  0  0  0  0  0  0  0  0  0
    2.3623    1.3593   -0.0132 C   0  0  0  0  0  0  0  0  0  0  0  0
    3.6079    2.0102   -0.0210 C   0  0  0  0  0  0  0  0  0  0  0  0
    4.7560    1.2770   -0.0355 C   0  0  0  0  0  0  0  0  0  0  0  0
    4.7161   -0.1159   -0.0432 C   0  0  0  0  0  0  0  0  0  0  0  0
    3.5148   -0.7876   -0.0359 C   0  0  0  0  0  0  0  0  0  0  0  0
    2.3091   -0.0565   -0.0203 C   0  0  0  0  0  0  0  0  0  0  0  0
    1.1266   -0.6782   -0.0118 N   0  0  0  0  0  0  0  0  0  0  0  0
    0.0021   -0.0041    0.0020 C   0  0  0  0  0  0  0  0  0  0  0  0
    3.4907   -2.1465   -0.0440 O   0  0  0  0  0  0  0  0  0  0  0  0
    6.2006   -1.0155   -0.0629 Cl  0  0  0  0  0  0  0  0  0  0  0  0
    3.6833    3.7445   -0.0128 Cl  0  0  0  0  0  0  0  0  0  0  0  0
   -0.9590    1.9162    0.0260 H   0  0  0  0  0  0  0  0  0  0  0  0
    1.1614    3.1664    0.0076 H   0  0  0  0  0  0  0  0  0  0  0  0
    5.7105    1.7824   -0.0415 H   0  0  0  0  0  0  0  0  0  0  0  0
   -0.9340   -0.5427    0.0081 H   0  0  0  0  0  0  0  0  0  0  0  0
    3.4922   -2.5452    0.8370 H   0  0  0  0  0  0  0  0  0  0  0  0
  1 10  2  0  0  0  0
  1  2  1  0  0  0  0
  1 14  1  0  0  0  0
  2  3  2  0  0  0  0
  2 15  1  0  0  0  0
  3  8  1  0  0  0  0
  3  4  1  0  0  0  0
  4  5  2  0  0  0  0
  4 13  1  0  0  0  0
  5  6  1  0  0  0  0
  5 16  1  0  0  0  0
  6  7  2  0  0  0  0
  6 12  1  0  0  0  0
  7  8  1  0  0  0  0
  7 11  1  0  0  0  0
  8  9  2  0  0  0  0
  9 10  1  0  0  0  0
 10 17  1  0  0  0  0
 11 18  1  0  0  0  0
M  END
$$$$
