ZINC00000480
 OpenBabel08292219463D

 42 45  0  0  1  0  0  0  0  0999 V2000
   -0.0178    1.4648    0.0101 C   0  0  0  0  0  0  0  0  0  0  0  0
    0.0021   -0.0041    0.0020 N   0  3  1  0  0  0  0  0  0  0  0  0
    0.7697   -0.4994   -1.1691 C   0  0  0  0  0  0  0  0  0  0  0  0
    1.1749   -1.9339   -0.7464 C   0  0  0  0  0  0  0  0  0  0  0  0
    1.4755   -1.7779    0.7620 C   0  0  1  0  0  0  0  0  0  0  0  0
    2.5459   -1.6498    0.9232 H   0  0  0  0  0  0  0  0  0  0  0  0
    0.7145   -0.5110    1.1949 C   0  0  0  0  0  0  0  0  0  0  0  0
    0.9652   -2.9963    1.5340 C   0  0  0  0  0  0  0  0  0  0  0  0
    1.7376   -4.1790    1.1458 N   0  0  0  0  0  0  0  0  0  0  0  0
    1.2969   -4.9549    0.0683 C   0  0  0  0  0  0  0  0  0  0  0  0
   -0.0579   -5.1685   -0.1320 C   0  0  0  0  0  0  0  0  0  0  0  0
   -0.4861   -5.9387   -1.1992 C   0  0  0  0  0  0  0  0  0  0  0  0
    0.4287   -6.4990   -2.0700 C   0  0  0  0  0  0  0  0  0  0  0  0
    1.7853   -6.2919   -1.8794 C   0  0  0  0  0  0  0  0  0  0  0  0
    2.2178   -5.5235   -0.8156 C   0  0  0  0  0  0  0  0  0  0  0  0
    3.9400   -5.2419   -0.5460 S   0  0  0  0  0  0  0  0  0  0  0  0
    4.0152   -5.0124    1.2033 C   0  0  0  0  0  0  0  0  0  0  0  0
    2.8980   -4.4974    1.8595 C   0  0  0  0  0  0  0  0  0  0  0  0
    2.9491   -4.3087    3.2318 C   0  0  0  0  0  0  0  0  0  0  0  0
    4.0998   -4.6280    3.9313 C   0  0  0  0  0  0  0  0  0  0  0  0
    5.2026   -5.1352    3.2710 C   0  0  0  0  0  0  0  0  0  0  0  0
    5.1587   -5.3326    1.9096 C   0  0  0  0  0  0  0  0  0  0  0  0
    1.0047    1.8421    0.0024 H   0  0  0  0  0  0  0  0  0  0  0  0
   -0.5450    1.8259   -0.8730 H   0  0  0  0  0  0  0  0  0  0  0  0
   -0.5280    1.8163    0.9069 H   0  0  0  0  0  0  0  0  0  0  0  0
    0.1408   -0.5238   -2.0590 H   0  0  0  0  0  0  0  0  0  0  0  0
    1.6534    0.1159   -1.3380 H   0  0  0  0  0  0  0  0  0  0  0  0
    0.3514   -2.6300   -0.9055 H   0  0  0  0  0  0  0  0  0  0  0  0
    2.0650   -2.2580   -1.2856 H   0  0  0  0  0  0  0  0  0  0  0  0
    1.4179    0.2401    1.5544 H   0  0  0  0  0  0  0  0  0  0  0  0
   -0.0020   -0.7577    1.9784 H   0  0  0  0  0  0  0  0  0  0  0  0
    1.0798   -2.8226    2.6040 H   0  0  0  0  0  0  0  0  0  0  0  0
   -0.0877   -3.1579    1.3030 H   0  0  0  0  0  0  0  0  0  0  0  0
   -0.7791   -4.7344    0.5446 H   0  0  0  0  0  0  0  0  0  0  0  0
   -1.5425   -6.1032   -1.3522 H   0  0  0  0  0  0  0  0  0  0  0  0
    0.0860   -7.0992   -2.8999 H   0  0  0  0  0  0  0  0  0  0  0  0
    2.5015   -6.7294   -2.5591 H   0  0  0  0  0  0  0  0  0  0  0  0
    2.0914   -3.9124    3.7549 H   0  0  0  0  0  0  0  0  0  0  0  0
    4.1363   -4.4795    5.0004 H   0  0  0  0  0  0  0  0  0  0  0  0
    6.0964   -5.3820    3.8246 H   0  0  0  0  0  0  0  0  0  0  0  0
    6.0213   -5.7288    1.3945 H   0  0  0  0  0  0  0  0  0  0  0  0
   -0.9399   -0.3651   -0.0202 H   0  0  0  0  0  0  0  0  0  0  0  0
  1  2  1  0  0  0  0
  1 23  1  0  0  0  0
  1 24  1  0  0  0  0
  1 25  1  0  0  0  0
  2  7  1  0  0  0  0
  2  3  1  0  0  0  0
  2 42  1  6  0  0  0
  3  4  1  0  0  0  0
  3 26  1  0  0  0  0
  3 27  1  0  0  0  0
  4  5  1  0  0  0  0
  4 28  1  0  0  0  0
  4 29  1  0  0  0  0
  5  6  1  1  0  0  0
  5  7  1  0  0  0  0
  5  8  1  0  0  0  0
  7 30  1  0  0  0  0
  7 31  1  0  0  0  0
  8  9  1  0  0  0  0
  8 32  1  0  0  0  0
  8 33  1  0  0  0  0
  9 18  1  0  0  0  0
  9 10  1  0  0  0  0
 10 15  2  0  0  0  0
 10 11  1  0  0  0  0
 11 12  2  0  0  0  0
 11 34  1  0  0  0  0
 12 13  1  0  0  0  0
 12 35  1  0  0  0  0
 13 14  2  0  0  0  0
 13 36  1  0  0  0  0
 14 15  1  0  0  0  0
 14 37  1  0  0  0  0
 15 16  1  0  0  0  0
 16 17  1  0  0  0  0
 17 22  2  0  0  0  0
 17 18  1  0  0  0  0
 18 19  2  0  0  0  0
 19 20  1  0  0  0  0
 19 38  1  0  0  0  0
 20 21  2  0  0  0  0
 20 39  1  0  0  0  0
 21 22  1  0  0  0  0
 21 40  1  0  0  0  0
 22 41  1  0  0  0  0
M  CHG  1   2   1
M  END
$$$$
