ZINC01532339
 OpenBabel08292219463D

 56 55  0  0  0  0  0  0  0  0999 V2000
   -0.0178    1.4648    0.0101 C   0  0  0  0  0  0  0  0  0  0  0  0
    0.0021   -0.0041    0.0020 N   0  3  0  0  0  0  0  0  0  0  0  0
    0.7126   -0.4907    1.1921 C   0  0  0  0  0  0  0  0  0  0  0  0
   -1.3761   -0.5125    0.0124 C   0  0  0  0  0  0  0  0  0  0  0  0
    0.6897   -0.4778   -1.2066 C   0  0  0  0  0  0  0  0  0  0  0  0
    2.1250    0.0518   -1.2175 C   0  0  0  0  0  0  0  0  0  0  0  0
    2.8412   -0.4417   -2.4763 C   0  0  0  0  0  0  0  0  0  0  0  0
    4.2766    0.0879   -2.4871 C   0  0  0  0  0  0  0  0  0  0  0  0
    4.9927   -0.4055   -3.7459 C   0  0  0  0  0  0  0  0  0  0  0  0
    6.4281    0.1241   -3.7568 C   0  0  0  0  0  0  0  0  0  0  0  0
    7.1442   -0.3693   -5.0156 C   0  0  0  0  0  0  0  0  0  0  0  0
    8.5796    0.1603   -5.0265 C   0  0  0  0  0  0  0  0  0  0  0  0
    9.2957   -0.3332   -6.2853 C   0  0  0  0  0  0  0  0  0  0  0  0
   10.7311    0.1964   -6.2961 C   0  0  0  0  0  0  0  0  0  0  0  0
   11.4187   -0.2773   -7.5048 N   0  3  0  0  0  0  0  0  0  0  0  0
   10.7082    0.2093   -8.6949 C   0  0  0  0  0  0  0  0  0  0  0  0
   12.7969    0.2311   -7.5152 C   0  0  0  0  0  0  0  0  0  0  0  0
   11.4386   -1.7462   -7.5128 C   0  0  0  0  0  0  0  0  0  0  0  0
    1.0047    1.8421    0.0024 H   0  0  0  0  0  0  0  0  0  0  0  0
   -0.5450    1.8259   -0.8730 H   0  0  0  0  0  0  0  0  0  0  0  0
   -0.5280    1.8163    0.9069 H   0  0  0  0  0  0  0  0  0  0  0  0
    0.2024   -0.1392    2.0889 H   0  0  0  0  0  0  0  0  0  0  0  0
    0.7273   -1.5806    1.1861 H   0  0  0  0  0  0  0  0  0  0  0  0
    1.7352   -0.1134    1.1844 H   0  0  0  0  0  0  0  0  0  0  0  0
   -1.9033   -0.1515   -0.8706 H   0  0  0  0  0  0  0  0  0  0  0  0
   -1.3613   -1.6024    0.0065 H   0  0  0  0  0  0  0  0  0  0  0  0
   -1.8863   -0.1610    0.9092 H   0  0  0  0  0  0  0  0  0  0  0  0
    0.7044   -1.5677   -1.2126 H   0  0  0  0  0  0  0  0  0  0  0  0
    0.1625   -0.1167   -2.0897 H   0  0  0  0  0  0  0  0  0  0  0  0
    2.1103    1.1417   -1.2115 H   0  0  0  0  0  0  0  0  0  0  0  0
    2.6522   -0.3093   -0.3344 H   0  0  0  0  0  0  0  0  0  0  0  0
    2.8560   -1.5315   -2.4823 H   0  0  0  0  0  0  0  0  0  0  0  0
    2.3140   -0.0806   -3.3593 H   0  0  0  0  0  0  0  0  0  0  0  0
    4.2618    1.1778   -2.4811 H   0  0  0  0  0  0  0  0  0  0  0  0
    4.8037   -0.2731   -1.6041 H   0  0  0  0  0  0  0  0  0  0  0  0
    5.0075   -1.4954   -3.7519 H   0  0  0  0  0  0  0  0  0  0  0  0
    4.4655   -0.0444   -4.6290 H   0  0  0  0  0  0  0  0  0  0  0  0
    6.4133    1.2140   -3.7508 H   0  0  0  0  0  0  0  0  0  0  0  0
    6.9553   -0.2370   -2.8737 H   0  0  0  0  0  0  0  0  0  0  0  0
    7.1590   -1.4592   -5.0216 H   0  0  0  0  0  0  0  0  0  0  0  0
    6.6170   -0.0082   -5.8987 H   0  0  0  0  0  0  0  0  0  0  0  0
    8.5648    1.2501   -5.0205 H   0  0  0  0  0  0  0  0  0  0  0  0
    9.1068   -0.2008   -4.1434 H   0  0  0  0  0  0  0  0  0  0  0  0
    9.3105   -1.4230   -6.2913 H   0  0  0  0  0  0  0  0  0  0  0  0
    8.7685    0.0279   -7.1683 H   0  0  0  0  0  0  0  0  0  0  0  0
   10.7163    1.2863   -6.2901 H   0  0  0  0  0  0  0  0  0  0  0  0
   11.2583   -0.1647   -5.4131 H   0  0  0  0  0  0  0  0  0  0  0  0
   10.6934    1.2992   -8.6889 H   0  0  0  0  0  0  0  0  0  0  0  0
   11.2184   -0.1422   -9.5917 H   0  0  0  0  0  0  0  0  0  0  0  0
    9.6856   -0.1680   -8.6871 H   0  0  0  0  0  0  0  0  0  0  0  0
   13.3240   -0.1299   -6.6321 H   0  0  0  0  0  0  0  0  0  0  0  0
   13.3070   -0.1204   -8.4120 H   0  0  0  0  0  0  0  0  0  0  0  0
   12.7821    1.3210   -7.5092 H   0  0  0  0  0  0  0  0  0  0  0  0
   10.4160   -2.1235   -7.5051 H   0  0  0  0  0  0  0  0  0  0  0  0
   11.9488   -2.0977   -8.4096 H   0  0  0  0  0  0  0  0  0  0  0  0
   11.9658   -2.1073   -6.6298 H   0  0  0  0  0  0  0  0  0  0  0  0
  1  2  1  0  0  0  0
  1 19  1  0  0  0  0
  1 20  1  0  0  0  0
  1 21  1  0  0  0  0
  2  3  1  0  0  0  0
  2  4  1  0  0  0  0
  2  5  1  0  0  0  0
  3 22  1  0  0  0  0
  3 23  1  0  0  0  0
  3 24  1  0  0  0  0
  4 25  1  0  0  0  0
  4 26  1  0  0  0  0
  4 27  1  0  0  0  0
  5  6  1  0  0  0  0
  5 28  1  0  0  0  0
  5 29  1  0  0  0  0
  6  7  1  0  0  0  0
  6 30  1  0  0  0  0
  6 31  1  0  0  0  0
  7  8  1  0  0  0  0
  7 32  1  0  0  0  0
  7 33  1  0  0  0  0
  8  9  1  0  0  0  0
  8 34  1  0  0  0  0
  8 35  1  0  0  0  0
  9 10  1  0  0  0  0
  9 36  1  0  0  0  0
  9 37  1  0  0  0  0
 10 11  1  0  0  0  0
 10 38  1  0  0  0  0
 10 39  1  0  0  0  0
 11 12  1  0  0  0  0
 11 40  1  0  0  0  0
 11 41  1  0  0  0  0
 12 13  1  0  0  0  0
 12 42  1  0  0  0  0
 12 43  1  0  0  0  0
 13 14  1  0  0  0  0
 13 44  1  0  0  0  0
 13 45  1  0  0  0  0
 14 15  1  0  0  0  0
 14 46  1  0  0  0  0
 14 47  1  0  0  0  0
 15 16  1  0  0  0  0
 15 17  1  0  0  0  0
 15 18  1  0  0  0  0
 16 48  1  0  0  0  0
 16 49  1  0  0  0  0
 16 50  1  0  0  0  0
 17 51  1  0  0  0  0
 17 52  1  0  0  0  0
 17 53  1  0  0  0  0
 18 54  1  0  0  0  0
 18 55  1  0  0  0  0
 18 56  1  0  0  0  0
M  CHG  2   2   1  15   1
M  END
$$$$
