ZINC04521470
 OpenBabel08292219463D

 55 54  0  0  0  0  0  0  0  0999 V2000
   -0.4451    2.1287    0.0861 C   0  0  0  0  0  0  0  0  0  0  0  0
   -0.4043    0.6196   -0.1629 C   0  0  0  0  0  0  0  0  0  0  0  0
   -1.7788    0.0165    0.1335 C   0  0  0  0  0  0  0  0  0  0  0  0
   -1.7380   -1.4926   -0.1154 C   0  0  0  0  0  0  0  0  0  0  0  0
   -3.1125   -2.0957    0.1810 C   0  0  0  0  0  0  0  0  0  0  0  0
   -3.0723   -3.5821   -0.0643 C   0  0  0  0  0  0  0  0  0  0  0  0
   -3.4782   -4.4106    0.8657 C   0  0  0  0  0  0  0  0  0  0  0  0
   -4.1352   -3.8794    2.1136 C   0  0  0  0  0  0  0  0  0  0  0  0
   -5.4655   -4.5598    2.3095 C   0  0  0  0  0  0  0  0  0  0  0  0
   -5.7479   -5.1285    3.4552 C   0  0  0  0  0  0  0  0  0  0  0  0
   -4.8158   -4.9643    4.6280 C   0  0  0  0  0  0  0  0  0  0  0  0
   -5.5882   -4.4497    5.8153 C   0  0  0  0  0  0  0  0  0  0  0  0
   -5.5275   -5.0828    6.9605 C   0  0  0  0  0  0  0  0  0  0  0  0
   -4.5540   -6.2186    7.1430 C   0  0  0  0  0  0  0  0  0  0  0  0
   -3.7006   -5.9640    8.3871 C   0  0  0  0  0  0  0  0  0  0  0  0
   -2.7123   -7.1171    8.5724 C   0  0  0  0  0  0  0  0  0  0  0  0
   -1.8589   -6.8625    9.8165 C   0  0  0  0  0  0  0  0  0  0  0  0
   -0.8706   -8.0156   10.0018 C   0  0  0  0  0  0  0  0  0  0  0  0
   -0.0172   -7.7610   11.2459 C   0  0  0  0  0  0  0  0  0  0  0  0
    0.9563   -8.8968   11.4284 C   0  0  0  0  0  0  0  0  0  0  0  0
    0.9666   -9.8240   10.6367 O   0  0  0  0  0  0  0  0  0  0  0  0
    1.7336   -8.8886   12.3677 O   0  0  0  0  0  1  0  0  0  0  0  0
    0.5341    2.5584   -0.1250 H   0  0  0  0  0  0  0  0  0  0  0  0
   -1.1902    2.5845   -0.5659 H   0  0  0  0  0  0  0  0  0  0  0  0
   -0.7083    2.3183    1.1267 H   0  0  0  0  0  0  0  0  0  0  0  0
   -0.1410    0.4301   -1.2035 H   0  0  0  0  0  0  0  0  0  0  0  0
    0.3408    0.1638    0.4892 H   0  0  0  0  0  0  0  0  0  0  0  0
   -2.0420    0.2061    1.1742 H   0  0  0  0  0  0  0  0  0  0  0  0
   -2.5238    0.4723   -0.5185 H   0  0  0  0  0  0  0  0  0  0  0  0
   -1.4747   -1.6821   -1.1560 H   0  0  0  0  0  0  0  0  0  0  0  0
   -0.9929   -1.9484    0.5366 H   0  0  0  0  0  0  0  0  0  0  0  0
   -3.3757   -1.9061    1.2216 H   0  0  0  0  0  0  0  0  0  0  0  0
   -3.8575   -1.6399   -0.4711 H   0  0  0  0  0  0  0  0  0  0  0  0
   -2.7089   -3.9642   -1.0068 H   0  0  0  0  0  0  0  0  0  0  0  0
   -3.3419   -5.4743    0.7382 H   0  0  0  0  0  0  0  0  0  0  0  0
   -3.4955   -4.0777    2.9736 H   0  0  0  0  0  0  0  0  0  0  0  0
   -4.2878   -2.8047    2.0145 H   0  0  0  0  0  0  0  0  0  0  0  0
   -6.1861   -4.5784    1.5052 H   0  0  0  0  0  0  0  0  0  0  0  0
   -6.6487   -5.7151    3.5594 H   0  0  0  0  0  0  0  0  0  0  0  0
   -4.3693   -5.9275    4.8748 H   0  0  0  0  0  0  0  0  0  0  0  0
   -4.0296   -4.2546    4.3706 H   0  0  0  0  0  0  0  0  0  0  0  0
   -6.1917   -3.5589    5.7220 H   0  0  0  0  0  0  0  0  0  0  0  0
   -6.1751   -4.7907    7.7740 H   0  0  0  0  0  0  0  0  0  0  0  0
   -5.1034   -7.1521    7.2641 H   0  0  0  0  0  0  0  0  0  0  0  0
   -3.9083   -6.2879    6.2675 H   0  0  0  0  0  0  0  0  0  0  0  0
   -3.1512   -5.0304    8.2661 H   0  0  0  0  0  0  0  0  0  0  0  0
   -4.3463   -5.8946    9.2626 H   0  0  0  0  0  0  0  0  0  0  0  0
   -3.2617   -8.0507    8.6935 H   0  0  0  0  0  0  0  0  0  0  0  0
   -2.0666   -7.1864    7.6969 H   0  0  0  0  0  0  0  0  0  0  0  0
   -1.3095   -5.9289    9.6954 H   0  0  0  0  0  0  0  0  0  0  0  0
   -2.5046   -6.7932   10.6920 H   0  0  0  0  0  0  0  0  0  0  0  0
   -1.4200   -8.9492   10.1229 H   0  0  0  0  0  0  0  0  0  0  0  0
   -0.2249   -8.0849    9.1263 H   0  0  0  0  0  0  0  0  0  0  0  0
    0.5322   -6.8275   11.1248 H   0  0  0  0  0  0  0  0  0  0  0  0
   -0.6629   -7.6917   12.1214 H   0  0  0  0  0  0  0  0  0  0  0  0
  1  2  1  0  0  0  0
  1 23  1  0  0  0  0
  1 24  1  0  0  0  0
  1 25  1  0  0  0  0
  2  3  1  0  0  0  0
  2 26  1  0  0  0  0
  2 27  1  0  0  0  0
  3  4  1  0  0  0  0
  3 28  1  0  0  0  0
  3 29  1  0  0  0  0
  4  5  1  0  0  0  0
  4 30  1  0  0  0  0
  4 31  1  0  0  0  0
  5  6  1  0  0  0  0
  5 32  1  0  0  0  0
  5 33  1  0  0  0  0
  6  7  2  0  0  0  0
  6 34  1  0  0  0  0
  7  8  1  0  0  0  0
  7 35  1  0  0  0  0
  8  9  1  0  0  0  0
  8 36  1  0  0  0  0
  8 37  1  0  0  0  0
  9 10  2  0  0  0  0
  9 38  1  0  0  0  0
 10 11  1  0  0  0  0
 10 39  1  0  0  0  0
 11 12  1  0  0  0  0
 11 40  1  0  0  0  0
 11 41  1  0  0  0  0
 12 13  2  0  0  0  0
 12 42  1  0  0  0  0
 13 14  1  0  0  0  0
 13 43  1  0  0  0  0
 14 15  1  0  0  0  0
 14 44  1  0  0  0  0
 14 45  1  0  0  0  0
 15 16  1  0  0  0  0
 15 46  1  0  0  0  0
 15 47  1  0  0  0  0
 16 17  1  0  0  0  0
 16 48  1  0  0  0  0
 16 49  1  0  0  0  0
 17 18  1  0  0  0  0
 17 50  1  0  0  0  0
 17 51  1  0  0  0  0
 18 19  1  0  0  0  0
 18 52  1  0  0  0  0
 18 53  1  0  0  0  0
 19 20  1  0  0  0  0
 19 54  1  0  0  0  0
 19 55  1  0  0  0  0
 20 21  2  0  0  0  0
 20 22  1  0  0  0  0
M  END
$$$$
