ZINC00001115
 OpenBabel08292219463D

 37 37  0  0  0  0  0  0  0  0999 V2000
    0.0021   -0.0041    0.0020 C   0  0  0  0  0  0  0  0  0  0  0  0
   -0.0167    1.3768    0.0096 C   0  0  0  0  0  0  0  0  0  0  0  0
    1.1777    2.0861    0.0020 C   0  0  0  0  0  0  0  0  0  0  0  0
    2.3873    1.4033   -0.0123 C   0  0  0  0  0  0  0  0  0  0  0  0
    2.3988    0.0223   -0.0203 C   0  0  0  0  0  0  0  0  0  0  0  0
    1.2080   -0.6807   -0.0131 C   0  0  0  0  0  0  0  0  0  0  0  0
    1.2245   -2.1876   -0.0214 C   0  0  0  0  0  0  0  0  0  0  0  0
    1.2163   -2.6898   -1.4666 C   0  0  0  0  0  0  0  0  0  0  0  0
    1.2331   -4.2197   -1.4750 C   0  0  0  0  0  0  0  0  0  0  0  0
    1.2250   -4.7143   -2.8984 C   0  0  0  0  0  0  0  0  0  0  0  0
    1.2076   -3.9243   -3.8125 O   0  0  0  0  0  0  0  0  0  0  0  0
    1.1624    3.4827    0.0092 N   0  0  0  0  0  0  0  0  0  0  0  0
    2.4230    4.2291    0.0012 C   0  0  0  0  0  0  0  0  0  0  0  0
    2.8483    4.4963   -1.4440 C   0  0  0  0  0  0  0  0  0  0  0  0
    4.3997    5.4149   -1.4539 Cl  0  0  0  0  0  0  0  0  0  0  0  0
   -0.1142    4.2012    0.0248 C   0  0  0  0  0  0  0  0  0  0  0  0
   -0.5451    4.4441    1.4726 C   0  0  0  0  0  0  0  0  0  0  0  0
   -2.1163    5.3283    1.4917 Cl  0  0  0  0  0  0  0  0  0  0  0  0
   -0.9261   -0.5561    0.0083 H   0  0  0  0  0  0  0  0  0  0  0  0
   -0.9588    1.9047    0.0170 H   0  0  0  0  0  0  0  0  0  0  0  0
    3.3177    1.9517   -0.0179 H   0  0  0  0  0  0  0  0  0  0  0  0
    3.3389   -0.5092   -0.0317 H   0  0  0  0  0  0  0  0  0  0  0  0
    2.1233   -2.5439    0.4820 H   0  0  0  0  0  0  0  0  0  0  0  0
    0.3435   -2.5634    0.4989 H   0  0  0  0  0  0  0  0  0  0  0  0
    0.3175   -2.3335   -1.9700 H   0  0  0  0  0  0  0  0  0  0  0  0
    2.0973   -2.3139   -1.9868 H   0  0  0  0  0  0  0  0  0  0  0  0
    2.1318   -4.5760   -0.9716 H   0  0  0  0  0  0  0  0  0  0  0  0
    0.3521   -4.5955   -0.9547 H   0  0  0  0  0  0  0  0  0  0  0  0
    2.2870    5.1775    0.5211 H   0  0  0  0  0  0  0  0  0  0  0  0
    3.1938    3.6459    0.5049 H   0  0  0  0  0  0  0  0  0  0  0  0
    2.9843    3.5479   -1.9639 H   0  0  0  0  0  0  0  0  0  0  0  0
    2.0775    5.0795   -1.9477 H   0  0  0  0  0  0  0  0  0  0  0  0
    0.0009    5.1576   -0.4854 H   0  0  0  0  0  0  0  0  0  0  0  0
   -0.8721    3.6064   -0.4850 H   0  0  0  0  0  0  0  0  0  0  0  0
   -0.6602    3.4877    1.9827 H   0  0  0  0  0  0  0  0  0  0  0  0
    0.2128    5.0389    1.9824 H   0  0  0  0  0  0  0  0  0  0  0  0
    1.2371   -6.0326   -3.1509 O   0  0  0  0  0  1  0  0  0  0  0  0
  1  6  2  0  0  0  0
  1  2  1  0  0  0  0
  1 19  1  0  0  0  0
  2  3  2  0  0  0  0
  2 20  1  0  0  0  0
  3  4  1  0  0  0  0
  3 12  1  0  0  0  0
  4  5  2  0  0  0  0
  4 21  1  0  0  0  0
  5  6  1  0  0  0  0
  5 22  1  0  0  0  0
  6  7  1  0  0  0  0
  7  8  1  0  0  0  0
  7 23  1  0  0  0  0
  7 24  1  0  0  0  0
  8  9  1  0  0  0  0
  8 25  1  0  0  0  0
  8 26  1  0  0  0  0
  9 10  1  0  0  0  0
  9 27  1  0  0  0  0
  9 28  1  0  0  0  0
 10 11  2  0  0  0  0
 10 37  1  0  0  0  0
 12 13  1  0  0  0  0
 12 16  1  0  0  0  0
 13 14  1  0  0  0  0
 13 29  1  0  0  0  0
 13 30  1  0  0  0  0
 14 15  1  0  0  0  0
 14 31  1  0  0  0  0
 14 32  1  0  0  0  0
 16 17  1  0  0  0  0
 16 33  1  0  0  0  0
 16 34  1  0  0  0  0
 17 18  1  0  0  0  0
 17 35  1  0  0  0  0
 17 36  1  0  0  0  0
M  END
$$$$
