ZINC00020221
 OpenBabel08292219463D

 33 34  0  0  0  0  0  0  0  0999 V2000
   -0.0184    1.5028    0.0103 C   0  0  0  0  0  0  0  0  0  0  0  0
    0.0021   -0.0041    0.0020 C   0  0  0  0  0  0  0  0  0  0  0  0
    1.0559   -0.5936   -0.0112 O   0  0  0  0  0  0  0  0  0  0  0  0
   -1.2926   -0.7753    0.0102 C   0  0  0  0  0  0  0  0  0  0  0  0
   -0.9927   -2.2755   -0.0007 C   0  0  0  0  0  0  0  0  0  0  0  0
   -2.2874   -3.0467    0.0075 C   0  0  0  0  0  0  0  0  0  0  0  0
   -2.8684   -3.3995    1.2243 C   0  0  0  0  0  0  0  0  0  0  0  0
   -4.0370   -4.0957    1.2668 C   0  0  0  0  0  0  0  0  0  0  0  0
   -4.6703   -4.4657    0.0676 C   0  0  0  0  0  0  0  0  0  0  0  0
   -5.8773   -5.1839    0.0728 C   0  0  0  0  0  0  0  0  0  0  0  0
   -6.4644   -5.5260   -1.1119 C   0  0  0  0  0  0  0  0  0  0  0  0
   -5.8792   -5.1710   -2.3315 C   0  0  0  0  0  0  0  0  0  0  0  0
   -4.7110   -4.4761   -2.3703 C   0  0  0  0  0  0  0  0  0  0  0  0
   -4.0794   -4.1065   -1.1698 C   0  0  0  0  0  0  0  0  0  0  0  0
   -2.8745   -3.3834   -1.1733 C   0  0  0  0  0  0  0  0  0  0  0  0
   -7.6321   -6.2209   -1.1056 O   0  0  0  0  0  0  0  0  0  0  0  0
   -8.1981   -6.5500   -2.3758 C   0  0  0  0  0  0  0  0  0  0  0  0
    1.0042    1.8801    0.0026 H   0  0  0  0  0  0  0  0  0  0  0  0
   -0.5455    1.8639   -0.8728 H   0  0  0  0  0  0  0  0  0  0  0  0
   -0.5286    1.8543    0.9071 H   0  0  0  0  0  0  0  0  0  0  0  0
   -1.8592   -0.5245    0.9070 H   0  0  0  0  0  0  0  0  0  0  0  0
   -1.8762   -0.5150   -0.8728 H   0  0  0  0  0  0  0  0  0  0  0  0
   -0.4261   -2.5263   -0.8975 H   0  0  0  0  0  0  0  0  0  0  0  0
   -0.4091   -2.5358    0.8824 H   0  0  0  0  0  0  0  0  0  0  0  0
   -2.3840   -3.1164    2.1471 H   0  0  0  0  0  0  0  0  0  0  0  0
   -4.4754   -4.3629    2.2170 H   0  0  0  0  0  0  0  0  0  0  0  0
   -6.3383   -5.4644    1.0083 H   0  0  0  0  0  0  0  0  0  0  0  0
   -6.3618   -5.4530   -3.2556 H   0  0  0  0  0  0  0  0  0  0  0  0
   -4.2701   -4.2092   -3.3194 H   0  0  0  0  0  0  0  0  0  0  0  0
   -2.4147   -3.0996   -2.1084 H   0  0  0  0  0  0  0  0  0  0  0  0
   -9.1258   -7.1029   -2.2279 H   0  0  0  0  0  0  0  0  0  0  0  0
   -8.4052   -5.6342   -2.9295 H   0  0  0  0  0  0  0  0  0  0  0  0
   -7.4951   -7.1639   -2.9388 H   0  0  0  0  0  0  0  0  0  0  0  0
  1  2  1  0  0  0  0
  1 18  1  0  0  0  0
  1 19  1  0  0  0  0
  1 20  1  0  0  0  0
  2  3  2  0  0  0  0
  2  4  1  0  0  0  0
  4  5  1  0  0  0  0
  4 21  1  0  0  0  0
  4 22  1  0  0  0  0
  5  6  1  0  0  0  0
  5 23  1  0  0  0  0
  5 24  1  0  0  0  0
  6 15  2  0  0  0  0
  6  7  1  0  0  0  0
  7  8  2  0  0  0  0
  7 25  1  0  0  0  0
  8  9  1  0  0  0  0
  8 26  1  0  0  0  0
  9 14  2  0  0  0  0
  9 10  1  0  0  0  0
 10 11  2  0  0  0  0
 10 27  1  0  0  0  0
 11 12  1  0  0  0  0
 11 16  1  0  0  0  0
 12 13  2  0  0  0  0
 12 28  1  0  0  0  0
 13 14  1  0  0  0  0
 13 29  1  0  0  0  0
 14 15  1  0  0  0  0
 15 30  1  0  0  0  0
 16 17  1  0  0  0  0
 17 31  1  0  0  0  0
 17 32  1  0  0  0  0
 17 33  1  0  0  0  0
M  END
$$$$
