ZINC00002009
 OpenBabel08292219463D

 26 26  0  0  0  0  0  0  0  0999 V2000
    0.2034    1.4237   -0.0505 C   0  0  0  0  0  0  0  0  0  0  0  0
    0.1008   -0.0377   -0.0358 N   0  0  0  0  0  0  0  0  0  0  0  0
   -0.0104   -0.6846   -1.1796 C   0  0  0  0  0  3  0  0  0  0  0  0
   -0.1092   -2.0628   -1.2085 C   0  0  0  0  0  0  0  0  0  0  0  0
   -0.0903   -2.7676   -0.0154 C   0  0  0  0  0  0  0  0  0  0  0  0
    0.0283   -2.0536    1.1723 C   0  0  0  0  0  0  0  0  0  0  0  0
    0.1277   -0.6708    1.1201 C   0  0  0  0  0  0  0  0  0  0  0  0
    0.0512   -2.7018    2.3671 O   0  0  0  0  0  0  0  0  0  0  0  0
    1.1407   -3.4339    2.6684 C   0  0  0  0  0  0  0  0  0  0  0  0
    2.1079   -3.4148    1.9331 O   0  0  0  0  0  0  0  0  0  0  0  0
    1.1581   -4.1878    3.7854 N   0  0  0  0  0  0  0  0  0  0  0  0
    2.3432   -4.9843    4.1132 C   0  0  0  0  0  0  0  0  0  0  0  0
   -0.0080   -4.2109    4.6719 C   0  0  0  0  0  0  0  0  0  0  0  0
    1.2520    1.7136   -0.1176 H   0  0  0  0  0  0  0  0  0  0  0  0
   -0.3382    1.8173   -0.9106 H   0  0  0  0  0  0  0  0  0  0  0  0
   -0.2273    1.8274    0.8658 H   0  0  0  0  0  0  0  0  0  0  0  0
   -0.0250   -0.1299   -2.1061 H   0  0  0  0  0  0  0  0  0  0  0  0
   -0.2003   -2.5844   -2.1497 H   0  0  0  0  0  0  0  0  0  0  0  0
   -0.1660   -3.8449   -0.0080 H   0  0  0  0  0  0  0  0  0  0  0  0
    0.2245   -0.1069    2.0361 H   0  0  0  0  0  0  0  0  0  0  0  0
    3.0233   -4.3897    4.7231 H   0  0  0  0  0  0  0  0  0  0  0  0
    2.0417   -5.8734    4.6669 H   0  0  0  0  0  0  0  0  0  0  0  0
    2.8464   -5.2824    3.1934 H   0  0  0  0  0  0  0  0  0  0  0  0
   -0.7849   -3.5622    4.2673 H   0  0  0  0  0  0  0  0  0  0  0  0
   -0.3878   -5.2299    4.7462 H   0  0  0  0  0  0  0  0  0  0  0  0
    0.2811   -3.8578    5.6618 H   0  0  0  0  0  0  0  0  0  0  0  0
  1  2  1  0  0  0  0
  1 14  1  0  0  0  0
  1 15  1  0  0  0  0
  1 16  1  0  0  0  0
  2  7  1  0  0  0  0
  2  3  1  0  0  0  0
  3  4  1  0  0  0  0
  3 17  1  0  0  0  0
  4  5  2  0  0  0  0
  4 18  1  0  0  0  0
  5  6  1  0  0  0  0
  5 19  1  0  0  0  0
  6  7  2  0  0  0  0
  6  8  1  0  0  0  0
  7 20  1  0  0  0  0
  8  9  1  0  0  0  0
  9 10  2  0  0  0  0
  9 11  1  0  0  0  0
 11 12  1  0  0  0  0
 11 13  1  0  0  0  0
 12 21  1  0  0  0  0
 12 22  1  0  0  0  0
 12 23  1  0  0  0  0
 13 24  1  0  0  0  0
 13 25  1  0  0  0  0
 13 26  1  0  0  0  0
M  END
$$$$
