ZINC00608179
 OpenBabel08292219463D

 55 57  0  0  1  0  0  0  0  0999 V2000
   -4.6585   -7.2138   -1.0770 C   0  0  0  0  0  0  0  0  0  0  0  0
   -3.6115   -6.6263   -2.0255 C   0  0  0  0  0  0  0  0  0  0  0  0
   -2.2823   -6.9578   -1.5444 O   0  0  0  0  0  0  0  0  0  0  0  0
   -1.2435   -6.5133   -2.2690 C   0  0  0  0  0  0  0  0  0  0  0  0
   -1.4384   -5.8685   -3.2720 O   0  0  0  0  0  0  0  0  0  0  0  0
    0.1659   -6.8184   -1.8314 C   0  0  1  0  0  0  0  0  0  0  0  0
    1.1549   -6.2014   -2.8243 C   0  0  0  0  0  0  0  0  0  0  0  0
    0.9872   -4.6803   -2.8253 C   0  0  0  0  0  0  0  0  0  0  0  0
    0.2647   -4.7008   -0.5123 C   0  0  0  0  0  0  0  0  0  0  0  0
    0.4108   -6.2226   -0.4423 C   0  0  0  0  0  0  0  0  0  0  0  0
    1.2163   -2.6898   -1.4666 C   0  0  0  0  0  0  0  0  0  0  0  0
    1.2245   -2.1876   -0.0214 C   0  0  0  0  0  0  0  0  0  0  0  0
    1.2080   -0.6807   -0.0131 C   0  0  0  0  0  0  0  0  0  0  0  0
    0.0021   -0.0041    0.0020 C   0  0  0  0  0  0  0  0  0  0  0  0
   -0.0167    1.3768    0.0096 C   0  0  0  0  0  0  0  0  0  0  0  0
    1.1777    2.0861    0.0020 C   0  0  0  0  0  0  0  0  0  0  0  0
    2.3873    1.4033   -0.0123 C   0  0  0  0  0  0  0  0  0  0  0  0
    2.3988    0.0223   -0.0203 C   0  0  0  0  0  0  0  0  0  0  0  0
    1.1624    3.4827    0.0097 N   0  0  0  0  0  0  0  0  0  0  0  0
    0.3662   -8.3113   -1.7830 C   0  0  0  0  0  0  0  0  0  0  0  0
    1.3310   -8.9053   -2.5750 C   0  0  0  0  0  0  0  0  0  0  0  0
    1.5179  -10.2741   -2.5269 C   0  0  0  0  0  0  0  0  0  0  0  0
    0.7330  -11.0501   -1.6947 C   0  0  0  0  0  0  0  0  0  0  0  0
   -0.2353  -10.4567   -0.9066 C   0  0  0  0  0  0  0  0  0  0  0  0
   -0.4187   -9.0873   -0.9507 C   0  0  0  0  0  0  0  0  0  0  0  0
   -4.5460   -8.2973   -1.0379 H   0  0  0  0  0  0  0  0  0  0  0  0
   -4.5190   -6.7978   -0.0792 H   0  0  0  0  0  0  0  0  0  0  0  0
   -5.6563   -6.9649   -1.4382 H   0  0  0  0  0  0  0  0  0  0  0  0
   -3.7240   -5.5428   -2.0646 H   0  0  0  0  0  0  0  0  0  0  0  0
   -3.7510   -7.0423   -3.0233 H   0  0  0  0  0  0  0  0  0  0  0  0
    0.9576   -6.5899   -3.8235 H   0  0  0  0  0  0  0  0  0  0  0  0
    2.1732   -6.4551   -2.5298 H   0  0  0  0  0  0  0  0  0  0  0  0
   -0.0270   -4.4269   -3.1339 H   0  0  0  0  0  0  0  0  0  0  0  0
    1.6999   -4.2369   -3.5207 H   0  0  0  0  0  0  0  0  0  0  0  0
    0.4525   -4.2723    0.4722 H   0  0  0  0  0  0  0  0  0  0  0  0
   -0.7461   -4.4473   -0.8318 H   0  0  0  0  0  0  0  0  0  0  0  0
   -0.3181   -6.6262    0.2604 H   0  0  0  0  0  0  0  0  0  0  0  0
    1.4170   -6.4773   -0.1093 H   0  0  0  0  0  0  0  0  0  0  0  0
    0.3175   -2.3335   -1.9700 H   0  0  0  0  0  0  0  0  0  0  0  0
    2.0973   -2.3139   -1.9868 H   0  0  0  0  0  0  0  0  0  0  0  0
    2.1233   -2.5439    0.4820 H   0  0  0  0  0  0  0  0  0  0  0  0
    0.3435   -2.5634    0.4989 H   0  0  0  0  0  0  0  0  0  0  0  0
   -0.9261   -0.5561    0.0083 H   0  0  0  0  0  0  0  0  0  0  0  0
   -0.9588    1.9047    0.0170 H   0  0  0  0  0  0  0  0  0  0  0  0
    3.3177    1.9517   -0.0179 H   0  0  0  0  0  0  0  0  0  0  0  0
    3.3389   -0.5092   -0.0317 H   0  0  0  0  0  0  0  0  0  0  0  0
    0.3171    3.9585    0.0203 H   0  0  0  0  0  0  0  0  0  0  0  0
    1.9971    3.9769    0.0043 H   0  0  0  0  0  0  0  0  0  0  0  0
    1.9412   -8.2995   -3.2285 H   0  0  0  0  0  0  0  0  0  0  0  0
    2.2742  -10.7377   -3.1429 H   0  0  0  0  0  0  0  0  0  0  0  0
    0.8761  -12.1200   -1.6605 H   0  0  0  0  0  0  0  0  0  0  0  0
   -0.8488  -11.0630   -0.2567 H   0  0  0  0  0  0  0  0  0  0  0  0
   -1.1755   -8.6237   -0.3353 H   0  0  0  0  0  0  0  0  0  0  0  0
    1.2600   -4.1666   -1.4660 N   0  3  2  0  0  0  0  0  0  0  0  0
    2.1963   -4.4724   -1.1761 H   0  0  0  0  0  0  0  0  0  0  0  0
  1  2  1  0  0  0  0
  1 26  1  0  0  0  0
  1 27  1  0  0  0  0
  1 28  1  0  0  0  0
  2  3  1  0  0  0  0
  2 29  1  0  0  0  0
  2 30  1  0  0  0  0
  3  4  1  0  0  0  0
  4  5  2  0  0  0  0
  6  4  1  6  0  0  0
  6 10  1  0  0  0  0
  6  7  1  0  0  0  0
  6 20  1  0  0  0  0
  7  8  1  0  0  0  0
  7 31  1  0  0  0  0
  7 32  1  0  0  0  0
  8 33  1  0  0  0  0
  8 34  1  0  0  0  0
  8 54  1  0  0  0  0
  9 10  1  0  0  0  0
  9 35  1  0  0  0  0
  9 36  1  0  0  0  0
  9 54  1  0  0  0  0
 10 37  1  0  0  0  0
 10 38  1  0  0  0  0
 11 12  1  0  0  0  0
 11 39  1  0  0  0  0
 11 40  1  0  0  0  0
 11 54  1  0  0  0  0
 12 13  1  0  0  0  0
 12 41  1  0  0  0  0
 12 42  1  0  0  0  0
 13 18  2  0  0  0  0
 13 14  1  0  0  0  0
 14 15  2  0  0  0  0
 14 43  1  0  0  0  0
 15 16  1  0  0  0  0
 15 44  1  0  0  0  0
 16 17  2  0  0  0  0
 16 19  1  0  0  0  0
 17 18  1  0  0  0  0
 17 45  1  0  0  0  0
 18 46  1  0  0  0  0
 19 47  1  0  0  0  0
 19 48  1  0  0  0  0
 20 25  2  0  0  0  0
 20 21  1  0  0  0  0
 21 22  2  0  0  0  0
 21 49  1  0  0  0  0
 22 23  1  0  0  0  0
 22 50  1  0  0  0  0
 23 24  2  0  0  0  0
 23 51  1  0  0  0  0
 24 25  1  0  0  0  0
 24 52  1  0  0  0  0
 25 53  1  0  0  0  0
 54 55  1  1  0  0  0
M  CHG  1  54   1
M  END
$$$$
