ZINC00120319
 OpenBabel08292219463D

 27 28  0  0  0  0  0  0  0  0999 V2000
   -0.0167    1.3818    0.0096 C   0  0  0  0  0  0  0  0  0  0  0  0
    1.1915    2.0609    0.0018 C   0  0  0  0  0  0  0  0  0  0  0  0
    2.3197    1.3705   -0.0127 N   0  0  0  0  0  0  0  0  0  0  0  0
    2.3029    0.0457   -0.0197 C   0  0  0  0  0  0  0  0  0  0  0  0
    1.1654   -0.6335   -0.0129 N   0  0  0  0  0  0  0  0  0  0  0  0
    0.0021   -0.0041    0.0020 C   0  0  0  0  0  0  0  0  0  0  0  0
    3.5022   -0.6451   -0.0348 N   0  0  0  0  0  0  0  0  0  0  0  0
    3.5317   -2.2607    0.3274 S   0  0  0  0  0  0  0  0  0  0  0  0
    4.8834   -2.6806    0.2009 O   0  0  0  0  0  0  0  0  0  0  0  0
    2.7938   -2.4206    1.5312 O   0  0  0  0  0  0  0  0  0  0  0  0
    2.6255   -3.0939   -0.9332 C   0  0  0  0  0  0  0  0  0  0  0  0
    1.2642   -3.2900   -0.7892 C   0  0  0  0  0  0  0  0  0  0  0  0
    0.5509   -3.9427   -1.7753 C   0  0  0  0  0  0  0  0  0  0  0  0
    1.2023   -4.4024   -2.9128 C   0  0  0  0  0  0  0  0  0  0  0  0
    2.5699   -4.2037   -3.0543 C   0  0  0  0  0  0  0  0  0  0  0  0
    3.2761   -3.5453   -2.0669 C   0  0  0  0  0  0  0  0  0  0  0  0
    0.4840   -5.0633   -3.9119 N   0  0  0  0  0  0  0  0  0  0  0  0
   -0.9525    1.9208    0.0259 H   0  0  0  0  0  0  0  0  0  0  0  0
    1.2116    3.1407    0.0070 H   0  0  0  0  0  0  0  0  0  0  0  0
   -0.9219   -0.5632    0.0082 H   0  0  0  0  0  0  0  0  0  0  0  0
    4.3253   -0.1828   -0.2577 H   0  0  0  0  0  0  0  0  0  0  0  0
    0.7584   -2.9327    0.0956 H   0  0  0  0  0  0  0  0  0  0  0  0
   -0.5122   -4.0958   -1.6621 H   0  0  0  0  0  0  0  0  0  0  0  0
    3.0795   -4.5602   -3.9372 H   0  0  0  0  0  0  0  0  0  0  0  0
    4.3386   -3.3866   -2.1782 H   0  0  0  0  0  0  0  0  0  0  0  0
   -0.4708   -5.2017   -3.8119 H   0  0  0  0  0  0  0  0  0  0  0  0
    0.9400   -5.3838   -4.7058 H   0  0  0  0  0  0  0  0  0  0  0  0
  1  6  2  0  0  0  0
  1  2  1  0  0  0  0
  1 18  1  0  0  0  0
  2  3  2  0  0  0  0
  2 19  1  0  0  0  0
  3  4  1  0  0  0  0
  4  5  2  0  0  0  0
  4  7  1  0  0  0  0
  5  6  1  0  0  0  0
  6 20  1  0  0  0  0
  7  8  1  0  0  0  0
  7 21  1  0  0  0  0
  8  9  2  0  0  0  0
  8 10  2  0  0  0  0
  8 11  1  0  0  0  0
 11 16  2  0  0  0  0
 11 12  1  0  0  0  0
 12 13  2  0  0  0  0
 12 22  1  0  0  0  0
 13 14  1  0  0  0  0
 13 23  1  0  0  0  0
 14 15  2  0  0  0  0
 14 17  1  0  0  0  0
 15 16  1  0  0  0  0
 15 24  1  0  0  0  0
 16 25  1  0  0  0  0
 17 26  1  0  0  0  0
 17 27  1  0  0  0  0
M  END
$$$$
