ZINC13298439
 OpenBabel08292219463D

 52 55  0  0  0  0  0  0  0  0999 V2000
   -0.0187    1.5258    0.0104 C   0  0  0  0  0  0  0  0  0  0  0  0
    0.0021   -0.0041    0.0020 C   0  0  0  0  0  0  0  0  0  0  0  0
   -1.4333   -0.5336    0.0129 C   0  0  0  0  0  0  0  0  0  0  0  0
   -1.4126   -2.0635    0.0045 C   0  0  0  0  0  0  0  0  0  0  0  0
   -2.8264   -2.5851    0.0152 C   0  0  0  0  0  0  0  0  0  0  0  0
   -3.5317   -2.8487    1.0813 N   0  0  0  0  0  0  0  0  0  0  0  0
   -4.7425   -3.2933    0.7126 C   0  0  0  0  0  0  0  0  0  0  0  0
   -4.7893   -3.3058   -0.6341 C   0  0  0  0  0  0  0  0  0  0  0  0
   -3.5749   -2.8515   -1.0765 N   0  0  0  0  0  0  0  0  0  0  0  0
   -3.1642   -2.6880   -2.4732 C   0  0  0  0  0  0  0  0  0  0  0  0
   -2.5320   -3.9650   -2.9637 C   0  0  0  0  0  0  0  0  0  0  0  0
   -1.1697   -4.1584   -2.8210 C   0  0  0  0  0  0  0  0  0  0  0  0
   -0.5852   -5.3258   -3.2683 C   0  0  0  0  0  0  0  0  0  0  0  0
   -1.3705   -6.3112   -3.8649 C   0  0  0  0  0  0  0  0  0  0  0  0
   -2.7429   -6.1106   -4.0060 C   0  0  0  0  0  0  0  0  0  0  0  0
   -3.3171   -4.9416   -3.5498 C   0  0  0  0  0  0  0  0  0  0  0  0
   -0.7486   -7.5670   -4.3478 C   0  0  0  0  0  0  0  0  0  0  0  0
    0.3817   -7.5216   -5.1593 C   0  0  0  0  0  0  0  0  0  0  0  0
    0.9577   -8.6934   -5.6068 C   0  0  0  0  0  0  0  0  0  0  0  0
    0.4183   -9.9190   -5.2536 C   0  0  0  0  0  0  0  0  0  0  0  0
   -0.7015   -9.9834   -4.4501 C   0  0  0  0  0  0  0  0  0  0  0  0
   -1.2929   -8.8103   -3.9843 C   0  0  0  0  0  0  0  0  0  0  0  0
   -2.4897   -8.8737   -3.1184 C   0  0  0  0  0  0  0  0  0  0  0  0
   -3.1640   -7.8399   -2.6109 N   0  0  0  0  0  2  0  0  0  0  0  0
   -4.1379   -8.3174   -1.9140 N   0  0  0  0  0  0  0  0  0  0  0  0
   -4.1044   -9.6030   -1.9618 N   0  0  0  0  0  0  0  0  0  0  0  0
   -3.1117   -9.9760   -2.6951 N   0  0  0  0  0  0  0  0  0  0  0  0
   -5.9547   -3.7328   -1.4888 C   0  0  0  0  0  0  0  0  0  0  0  0
   -5.8570   -5.1318   -1.7630 O   0  0  0  0  0  0  0  0  0  0  0  0
   -6.0238   -3.7700    1.7825 Cl  0  0  0  0  0  0  0  0  0  0  0  0
    1.0039    1.9031    0.0027 H   0  0  0  0  0  0  0  0  0  0  0  0
   -0.5459    1.8868   -0.8726 H   0  0  0  0  0  0  0  0  0  0  0  0
   -0.5289    1.8773    0.9072 H   0  0  0  0  0  0  0  0  0  0  0  0
    0.5123   -0.3556   -0.8948 H   0  0  0  0  0  0  0  0  0  0  0  0
    0.5293   -0.3651    0.8851 H   0  0  0  0  0  0  0  0  0  0  0  0
   -1.9435   -0.1821    0.9097 H   0  0  0  0  0  0  0  0  0  0  0  0
   -1.9605   -0.1726   -0.8702 H   0  0  0  0  0  0  0  0  0  0  0  0
   -0.9024   -2.4150   -0.8923 H   0  0  0  0  0  0  0  0  0  0  0  0
   -0.8854   -2.4246    0.8875 H   0  0  0  0  0  0  0  0  0  0  0  0
   -4.0369   -2.4567   -3.0839 H   0  0  0  0  0  0  0  0  0  0  0  0
   -2.4431   -1.8739   -2.5470 H   0  0  0  0  0  0  0  0  0  0  0  0
   -0.5623   -3.3942   -2.3590 H   0  0  0  0  0  0  0  0  0  0  0  0
    0.4786   -5.4755   -3.1566 H   0  0  0  0  0  0  0  0  0  0  0  0
   -3.3562   -6.8705   -4.4674 H   0  0  0  0  0  0  0  0  0  0  0  0
   -4.3808   -4.7869   -3.6546 H   0  0  0  0  0  0  0  0  0  0  0  0
    0.8076   -6.5694   -5.4391 H   0  0  0  0  0  0  0  0  0  0  0  0
    1.8342   -8.6542   -6.2365 H   0  0  0  0  0  0  0  0  0  0  0  0
    0.8767  -10.8298   -5.6096 H   0  0  0  0  0  0  0  0  0  0  0  0
   -1.1173  -10.9425   -4.1788 H   0  0  0  0  0  0  0  0  0  0  0  0
   -6.8863   -3.5303   -0.9604 H   0  0  0  0  0  0  0  0  0  0  0  0
   -5.9406   -3.1769   -2.4263 H   0  0  0  0  0  0  0  0  0  0  0  0
   -6.5760   -5.4766   -2.3100 H   0  0  0  0  0  0  0  0  0  0  0  0
  1  2  1  0  0  0  0
  1 31  1  0  0  0  0
  1 32  1  0  0  0  0
  1 33  1  0  0  0  0
  2  3  1  0  0  0  0
  2 34  1  0  0  0  0
  2 35  1  0  0  0  0
  3  4  1  0  0  0  0
  3 36  1  0  0  0  0
  3 37  1  0  0  0  0
  4  5  1  0  0  0  0
  4 38  1  0  0  0  0
  4 39  1  0  0  0  0
  5  9  1  0  0  0  0
  5  6  2  0  0  0  0
  6  7  1  0  0  0  0
  7  8  2  0  0  0  0
  7 30  1  0  0  0  0
  8  9  1  0  0  0  0
  8 28  1  0  0  0  0
  9 10  1  0  0  0  0
 10 11  1  0  0  0  0
 10 40  1  0  0  0  0
 10 41  1  0  0  0  0
 11 16  2  0  0  0  0
 11 12  1  0  0  0  0
 12 13  2  0  0  0  0
 12 42  1  0  0  0  0
 13 14  1  0  0  0  0
 13 43  1  0  0  0  0
 14 15  2  0  0  0  0
 14 17  1  0  0  0  0
 15 16  1  0  0  0  0
 15 44  1  0  0  0  0
 16 45  1  0  0  0  0
 17 22  2  0  0  0  0
 17 18  1  0  0  0  0
 18 19  2  0  0  0  0
 18 46  1  0  0  0  0
 19 20  1  0  0  0  0
 19 47  1  0  0  0  0
 20 21  2  0  0  0  0
 20 48  1  0  0  0  0
 21 22  1  0  0  0  0
 21 49  1  0  0  0  0
 22 23  1  0  0  0  0
 23 27  2  0  0  0  0
 23 24  1  0  0  0  0
 24 25  1  0  0  0  0
 25 26  2  0  0  0  0
 26 27  1  0  0  0  0
 28 29  1  0  0  0  0
 28 50  1  0  0  0  0
 28 51  1  0  0  0  0
 29 52  1  0  0  0  0
M  END
$$$$
