ZINC96006018
 OpenBabel08292219463D

144147  0  0  1  0  0  0  0  0999 V2000
    1.3174    2.6268   -0.6913 C   0  0  0  0  0  0  0  0  0  0  0  0
    1.1082    1.1123   -0.7167 C   0  0  2  0  0  0  0  0  0  0  0  0
    1.6547    0.6973   -1.5674 H   0  0  0  0  0  0  0  0  0  0  0  0
   -0.3760    0.7952   -0.8865 C   0  0  0  0  0  0  0  0  0  0  0  0
   -1.1655    1.2046    0.3517 C   0  0  0  0  0  0  0  0  0  0  0  0
   -0.5316    0.6155    1.6096 C   0  0  1  0  0  0  0  0  0  0  0  0
   -0.1828    1.4230    2.2512 H   0  0  0  0  0  0  0  0  0  0  0  0
   -1.5670   -0.2405    2.3392 C   0  0  0  0  0  0  0  0  0  0  0  0
   -2.4883    0.6096    3.2201 C   0  0  1  0  0  0  0  0  0  0  0  0
   -3.3548    0.9340    2.6426 H   0  0  0  0  0  0  0  0  0  0  0  0
   -2.9491   -0.2571    4.3621 C   0  0  0  0  0  0  0  0  0  0  0  0
   -2.4055   -0.1353    5.5666 C   0  0  0  0  0  0  0  0  0  0  0  0
   -2.8115   -0.9971    6.6850 C   0  0  0  0  0  0  0  0  0  0  0  0
   -2.1587   -0.8996    7.8572 C   0  0  0  0  0  0  0  0  0  0  0  0
   -2.4756   -1.8228    8.9514 C   0  0  0  0  0  0  0  0  0  0  0  0
   -1.7203   -1.7702   10.0488 C   0  0  0  0  0  0  0  0  0  0  0  0
   -1.8898   -2.6787   11.2285 C   0  0  2  0  0  0  0  0  0  0  0  0
   -2.5599   -2.1819   11.9488 H   0  0  0  0  0  0  0  0  0  0  0  0
   -0.5508   -2.9158   11.9195 C   0  0  0  0  0  0  0  0  0  0  0  0
    0.4204   -3.7554   11.1026 C   0  0  2  0  0  0  0  0  0  0  0  0
   -0.0712   -4.6204   10.6630 H   0  0  0  0  0  0  0  0  0  0  0  0
    1.5281   -4.2532   12.0103 C   0  0  0  0  0  0  0  0  0  0  0  0
    1.5671   -3.8885   13.1606 O   0  0  0  0  0  0  0  0  0  0  0  0
    2.5747   -5.1976   11.4805 C   0  0  1  0  0  0  0  0  0  0  0  0
    2.4849   -5.2788   10.3983 H   0  0  0  0  0  0  0  0  0  0  0  0
    3.9684   -4.6830   11.8395 C   0  0  1  0  0  0  0  0  0  0  0  0
    4.2239   -4.9949   12.8525 H   0  0  0  0  0  0  0  0  0  0  0  0
    4.9853   -5.2599   10.8742 C   0  0  0  0  0  0  0  0  0  0  0  0
    4.9915   -4.8416    9.6368 C   0  0  0  0  0  0  0  0  0  0  0  0
    5.9616   -5.3367    8.6006 C   0  0  2  0  0  0  0  0  0  0  0  0
    6.9164   -5.5919    9.0576 H   0  0  0  0  0  0  0  0  0  0  0  0
    6.1957   -4.2305    7.5932 C   0  0  0  0  0  0  0  0  0  0  0  0
    6.5899   -3.1568    7.9856 O   0  0  0  0  0  0  0  0  0  0  0  0
    5.9513   -4.4543    6.1272 C   0  0  0  0  0  0  0  0  0  0  0  0
    6.2295   -3.1739    5.3342 C   0  0  2  0  0  0  0  0  0  0  0  0
    5.9679   -2.3084    5.9394 H   0  0  0  0  0  0  0  0  0  0  0  0
    5.4554   -3.1893    4.1332 O   0  0  0  0  0  0  0  0  0  0  0  0
    5.5213   -2.1256    3.3133 C   0  0  0  0  0  0  0  0  0  0  0  0
    5.4402   -1.0039    3.7494 O   0  0  0  0  0  0  0  0  0  0  0  0
    5.6889   -2.3434    1.8335 C   0  0  2  0  0  0  0  0  0  0  0  0
    5.3225   -3.3408    1.5715 H   0  0  0  0  0  0  0  0  0  0  0  0
    7.1738   -2.2454    1.4724 C   0  0  0  0  0  0  0  0  0  0  0  0
    7.4042   -2.4316   -0.0200 C   0  0  0  0  0  0  0  0  0  0  0  0
    6.3287   -1.7522   -0.8580 C   0  0  0  0  0  0  0  0  0  0  0  0
    5.6452   -0.6524   -0.0356 C   0  0  0  0  0  0  0  0  0  0  0  0
    4.9343   -1.3420    1.0689 N   0  0  0  0  0  0  0  0  0  0  0  0
    3.6636   -1.0129    1.3211 C   0  0  0  0  0  0  0  0  0  0  0  0
    3.1758   -1.2693    2.4122 O   0  0  0  0  0  0  0  0  0  0  0  0
    2.7964   -0.3894    0.2832 C   0  0  0  0  0  0  0  0  0  0  0  0
    3.0510   -0.6013   -0.8756 O   0  0  0  0  0  0  0  0  0  0  0  0
    1.6346    0.4946    0.5866 C   0  0  2  0  0  0  0  0  0  0  0  0
    0.5824   -0.2074    1.2415 O   0  0  0  0  0  0  0  0  0  0  0  0
    2.0734    1.5650    1.4371 O   0  0  0  0  0  0  0  0  0  0  0  0
    7.7183   -3.1103    4.9747 C   0  0  1  0  0  0  0  0  0  0  0  0
    8.3158   -3.2456    5.8762 H   0  0  0  0  0  0  0  0  0  0  0  0
    8.0488   -4.2183    3.9728 C   0  0  0  0  0  0  0  0  0  0  0  0
    8.0350   -1.7489    4.3525 C   0  0  0  0  0  0  0  0  0  0  0  0
    9.5447   -1.6253    4.1373 C   0  0  2  0  0  0  0  0  0  0  0  0
    9.8971   -2.4678    3.5421 H   0  0  0  0  0  0  0  0  0  0  0  0
   10.2548   -1.6260    5.4925 C   0  0  0  0  0  0  0  0  0  0  0  0
   11.7646   -1.5024    5.2773 C   0  0  0  0  0  0  0  0  0  0  0  0
   12.0697   -0.1956    4.5423 C   0  0  2  0  0  0  0  0  0  0  0  0
   11.7173    0.6468    5.1375 H   0  0  0  0  0  0  0  0  0  0  0  0
   11.3596   -0.1950    3.1870 C   0  0  1  0  0  0  0  0  0  0  0  0
   11.7119   -1.0375    2.5919 H   0  0  0  0  0  0  0  0  0  0  0  0
    9.8499   -0.3186    3.4022 C   0  0  0  0  0  0  0  0  0  0  0  0
   11.6446    1.0254    2.5005 O   0  0  0  0  0  0  0  0  0  0  0  0
   12.8077    0.9685    1.6724 C   0  0  0  0  0  0  0  0  0  0  0  0
   13.4798   -0.0802    4.3413 O   0  0  0  0  0  0  0  0  0  0  0  0
    5.3844   -6.5674    7.8986 C   0  0  0  0  0  0  0  0  0  0  0  0
    5.9577   -6.2955   11.3714 C   0  0  0  0  0  0  0  0  0  0  0  0
    3.9986   -3.2578   11.7553 O   0  0  0  0  0  0  0  0  0  0  0  0
    2.3836   -6.4878   12.0666 O   0  0  0  0  0  0  0  0  0  0  0  0
    1.5118   -7.3410   11.3223 C   0  0  0  0  0  0  0  0  0  0  0  0
    1.0582   -2.9099    9.9951 C   0  0  0  0  0  0  0  0  0  0  0  0
   -2.5347   -4.0034   10.8259 C   0  0  0  0  0  0  0  0  0  0  0  0
   -4.0432   -1.2705    4.1117 C   0  0  0  0  0  0  0  0  0  0  0  0
   -1.7921    1.7466    3.7264 O   0  0  0  0  0  0  0  0  0  0  0  0
   -2.6255    2.8852    3.9526 C   0  0  0  0  0  0  0  0  0  0  0  0
    2.3805    2.8451   -0.5903 H   0  0  0  0  0  0  0  0  0  0  0  0
    0.9438    3.0609   -1.6187 H   0  0  0  0  0  0  0  0  0  0  0  0
    0.7769    3.0541    0.1534 H   0  0  0  0  0  0  0  0  0  0  0  0
   -0.7615    1.3343   -1.7566 H   0  0  0  0  0  0  0  0  0  0  0  0
   -0.5002   -0.2782   -1.0599 H   0  0  0  0  0  0  0  0  0  0  0  0
   -1.2071    2.2895    0.4328 H   0  0  0  0  0  0  0  0  0  0  0  0
   -2.1894    0.8252    0.2614 H   0  0  0  0  0  0  0  0  0  0  0  0
   -2.1719   -0.7706    1.5997 H   0  0  0  0  0  0  0  0  0  0  0  0
   -1.0512   -0.9772    2.9605 H   0  0  0  0  0  0  0  0  0  0  0  0
   -1.6400    0.6127    5.7489 H   0  0  0  0  0  0  0  0  0  0  0  0
   -3.6217   -1.7006    6.5959 H   0  0  0  0  0  0  0  0  0  0  0  0
   -1.4067   -0.1322    7.9973 H   0  0  0  0  0  0  0  0  0  0  0  0
   -3.3040   -2.5020    8.8506 H   0  0  0  0  0  0  0  0  0  0  0  0
   -0.9466   -1.0017   10.0853 H   0  0  0  0  0  0  0  0  0  0  0  0
   -0.0880   -1.9445   12.1367 H   0  0  0  0  0  0  0  0  0  0  0  0
   -0.7358   -3.4141   12.8796 H   0  0  0  0  0  0  0  0  0  0  0  0
    4.2566   -4.0950    9.3355 H   0  0  0  0  0  0  0  0  0  0  0  0
    6.6101   -5.2417    5.7582 H   0  0  0  0  0  0  0  0  0  0  0  0
    4.9113   -4.7421    5.9624 H   0  0  0  0  0  0  0  0  0  0  0  0
    7.5505   -1.2677    1.7730 H   0  0  0  0  0  0  0  0  0  0  0  0
    7.7205   -3.0210    2.0094 H   0  0  0  0  0  0  0  0  0  0  0  0
    8.3772   -2.0118   -0.2794 H   0  0  0  0  0  0  0  0  0  0  0  0
    7.4136   -3.4966   -0.2525 H   0  0  0  0  0  0  0  0  0  0  0  0
    6.7882   -1.3090   -1.7391 H   0  0  0  0  0  0  0  0  0  0  0  0
    5.5892   -2.4904   -1.1685 H   0  0  0  0  0  0  0  0  0  0  0  0
    6.4007    0.0223    0.3798 H   0  0  0  0  0  0  0  0  0  0  0  0
    4.9598   -0.0884   -0.6588 H   0  0  0  0  0  0  0  0  0  0  0  0
    2.4246    1.2717    2.2890 H   0  0  0  0  0  0  0  0  0  0  0  0
    9.0649   -4.0822    3.6026 H   0  0  0  0  0  0  0  0  0  0  0  0
    7.9678   -5.1881    4.4637 H   0  0  0  0  0  0  0  0  0  0  0  0
    7.3491   -4.1740    3.1382 H   0  0  0  0  0  0  0  0  0  0  0  0
    7.5229   -1.6593    3.3944 H   0  0  0  0  0  0  0  0  0  0  0  0
    7.6972   -0.9566    5.0205 H   0  0  0  0  0  0  0  0  0  0  0  0
    9.9025   -0.7835    6.0877 H   0  0  0  0  0  0  0  0  0  0  0  0
   10.0374   -2.5569    6.0162 H   0  0  0  0  0  0  0  0  0  0  0  0
   12.2704   -1.5028    6.2428 H   0  0  0  0  0  0  0  0  0  0  0  0
   12.1169   -2.3448    4.6822 H   0  0  0  0  0  0  0  0  0  0  0  0
    9.3440   -0.3182    2.4367 H   0  0  0  0  0  0  0  0  0  0  0  0
    9.4975    0.5239    3.9974 H   0  0  0  0  0  0  0  0  0  0  0  0
   12.9554    1.9331    1.1866 H   0  0  0  0  0  0  0  0  0  0  0  0
   13.6784    0.7329    2.2844 H   0  0  0  0  0  0  0  0  0  0  0  0
   12.6767    0.1962    0.9144 H   0  0  0  0  0  0  0  0  0  0  0  0
   13.9945   -0.0741    5.1599 H   0  0  0  0  0  0  0  0  0  0  0  0
    4.4441   -6.3024    7.4152 H   0  0  0  0  0  0  0  0  0  0  0  0
    6.0911   -6.9226    7.1485 H   0  0  0  0  0  0  0  0  0  0  0  0
    5.2069   -7.3541    8.6319 H   0  0  0  0  0  0  0  0  0  0  0  0
    5.5300   -7.2892   11.2379 H   0  0  0  0  0  0  0  0  0  0  0  0
    6.8874   -6.2214   10.8073 H   0  0  0  0  0  0  0  0  0  0  0  0
    6.1599   -6.1260   12.4290 H   0  0  0  0  0  0  0  0  0  0  0  0
    4.8572   -2.8691   11.9718 H   0  0  0  0  0  0  0  0  0  0  0  0
    0.5295   -6.8756   11.2418 H   0  0  0  0  0  0  0  0  0  0  0  0
    1.9221   -7.4985   10.3248 H   0  0  0  0  0  0  0  0  0  0  0  0
    1.4190   -8.2997   11.8325 H   0  0  0  0  0  0  0  0  0  0  0  0
    1.5992   -2.0753   10.4411 H   0  0  0  0  0  0  0  0  0  0  0  0
    1.7500   -3.5258    9.4206 H   0  0  0  0  0  0  0  0  0  0  0  0
    0.2791   -2.5271    9.3359 H   0  0  0  0  0  0  0  0  0  0  0  0
   -1.9053   -4.5054   10.0911 H   0  0  0  0  0  0  0  0  0  0  0  0
   -2.6423   -4.6374   11.7059 H   0  0  0  0  0  0  0  0  0  0  0  0
   -3.5168   -3.8126   10.3932 H   0  0  0  0  0  0  0  0  0  0  0  0
   -3.5984   -2.2168    3.8037 H   0  0  0  0  0  0  0  0  0  0  0  0
   -4.6168   -1.4194    5.0266 H   0  0  0  0  0  0  0  0  0  0  0  0
   -4.7030   -0.9059    3.3245 H   0  0  0  0  0  0  0  0  0  0  0  0
   -3.0928    3.1855    3.0148 H   0  0  0  0  0  0  0  0  0  0  0  0
   -3.3980    2.6315    4.6786 H   0  0  0  0  0  0  0  0  0  0  0  0
   -2.0214    3.7070    4.3371 H   0  0  0  0  0  0  0  0  0  0  0  0
  1  2  1  0  0  0  0
  1 80  1  0  0  0  0
  1 81  1  0  0  0  0
  1 82  1  0  0  0  0
  2  3  1  6  0  0  0
  2 51  1  0  0  0  0
  2  4  1  0  0  0  0
  4  5  1  0  0  0  0
  4 83  1  0  0  0  0
  4 84  1  0  0  0  0
  5  6  1  0  0  0  0
  5 85  1  0  0  0  0
  5 86  1  0  0  0  0
  6  7  1  1  0  0  0
  6 52  1  0  0  0  0
  6  8  1  0  0  0  0
  8  9  1  0  0  0  0
  8 87  1  0  0  0  0
  8 88  1  0  0  0  0
  9 10  1  6  0  0  0
  9 11  1  0  0  0  0
  9 78  1  0  0  0  0
 11 12  2  0  0  0  0
 11 77  1  0  0  0  0
 12 13  1  0  0  0  0
 12 89  1  0  0  0  0
 13 14  2  0  0  0  0
 13 90  1  0  0  0  0
 14 15  1  0  0  0  0
 14 91  1  0  0  0  0
 15 16  2  0  0  0  0
 15 92  1  0  0  0  0
 16 17  1  0  0  0  0
 16 93  1  0  0  0  0
 17 18  1  1  0  0  0
 17 19  1  0  0  0  0
 17 76  1  0  0  0  0
 19 20  1  0  0  0  0
 19 94  1  0  0  0  0
 19 95  1  0  0  0  0
 20 21  1  6  0  0  0
 20 22  1  0  0  0  0
 20 75  1  0  0  0  0
 22 23  2  0  0  0  0
 22 24  1  0  0  0  0
 24 25  1  6  0  0  0
 24 26  1  0  0  0  0
 24 73  1  0  0  0  0
 26 27  1  1  0  0  0
 26 28  1  0  0  0  0
 26 72  1  0  0  0  0
 28 29  2  0  0  0  0
 28 71  1  0  0  0  0
 29 30  1  0  0  0  0
 29 96  1  0  0  0  0
 30 31  1  1  0  0  0
 30 32  1  0  0  0  0
 30 70  1  0  0  0  0
 32 33  2  0  0  0  0
 32 34  1  0  0  0  0
 34 35  1  0  0  0  0
 34 97  1  0  0  0  0
 34 98  1  0  0  0  0
 35 36  1  1  0  0  0
 35 37  1  0  0  0  0
 35 54  1  0  0  0  0
 37 38  1  0  0  0  0
 38 39  2  0  0  0  0
 38 40  1  0  0  0  0
 40 41  1  6  0  0  0
 40 46  1  0  0  0  0
 40 42  1  0  0  0  0
 42 43  1  0  0  0  0
 42 99  1  0  0  0  0
 42100  1  0  0  0  0
 43 44  1  0  0  0  0
 43101  1  0  0  0  0
 43102  1  0  0  0  0
 44 45  1  0  0  0  0
 44103  1  0  0  0  0
 44104  1  0  0  0  0
 45 46  1  0  0  0  0
 45105  1  0  0  0  0
 45106  1  0  0  0  0
 46 47  1  0  0  0  0
 47 48  2  0  0  0  0
 47 49  1  0  0  0  0
 49 50  2  0  0  0  0
 49 51  1  0  0  0  0
 51 52  1  0  0  0  0
 51 53  1  1  0  0  0
 53107  1  0  0  0  0
 54 55  1  1  0  0  0
 54 56  1  0  0  0  0
 54 57  1  0  0  0  0
 56108  1  0  0  0  0
 56109  1  0  0  0  0
 56110  1  0  0  0  0
 57 58  1  0  0  0  0
 57111  1  0  0  0  0
 57112  1  0  0  0  0
 58 59  1  6  0  0  0
 58 66  1  0  0  0  0
 58 60  1  0  0  0  0
 60 61  1  0  0  0  0
 60113  1  0  0  0  0
 60114  1  0  0  0  0
 61 62  1  0  0  0  0
 61115  1  0  0  0  0
 61116  1  0  0  0  0
 62 63  1  1  0  0  0
 62 64  1  0  0  0  0
 62 69  1  0  0  0  0
 64 65  1  6  0  0  0
 64 66  1  0  0  0  0
 64 67  1  0  0  0  0
 66117  1  0  0  0  0
 66118  1  0  0  0  0
 67 68  1  0  0  0  0
 68119  1  0  0  0  0
 68120  1  0  0  0  0
 68121  1  0  0  0  0
 69122  1  0  0  0  0
 70123  1  0  0  0  0
 70124  1  0  0  0  0
 70125  1  0  0  0  0
 71126  1  0  0  0  0
 71127  1  0  0  0  0
 71128  1  0  0  0  0
 72129  1  0  0  0  0
 73 74  1  0  0  0  0
 74130  1  0  0  0  0
 74131  1  0  0  0  0
 74132  1  0  0  0  0
 75133  1  0  0  0  0
 75134  1  0  0  0  0
 75135  1  0  0  0  0
 76136  1  0  0  0  0
 76137  1  0  0  0  0
 76138  1  0  0  0  0
 77139  1  0  0  0  0
 77140  1  0  0  0  0
 77141  1  0  0  0  0
 78 79  1  0  0  0  0
 79142  1  0  0  0  0
 79143  1  0  0  0  0
 79144  1  0  0  0  0
M  END
$$$$
