ZINC03871703
 OpenBabel08292219463D

 52 54  0  0  1  0  0  0  0  0999 V2000
    1.1850    2.0698    0.0019 C   0  0  0  0  0  0  0  0  0  0  0  0
   -0.0167    1.3776    0.0096 C   0  0  0  0  0  0  0  0  0  0  0  0
    0.0021   -0.0041    0.0020 C   0  0  0  0  0  0  0  0  0  0  0  0
    1.1443   -0.6632   -0.0129 N   0  0  0  0  0  0  0  0  0  0  0  0
    2.3054   -0.0383   -0.0206 C   0  0  0  0  0  0  0  0  0  0  0  0
    2.3651    1.3426   -0.0133 C   0  0  0  0  0  0  0  0  0  0  0  0
    3.5820   -0.8390   -0.0381 C   0  0  1  0  0  0  0  0  0  0  0  0
    4.4346   -0.1653    0.0471 H   0  0  0  0  0  0  0  0  0  0  0  0
    3.5860   -1.8033    1.1200 C   0  0  0  0  0  0  0  0  0  0  0  0
    2.9634   -3.0316    0.9985 C   0  0  0  0  0  0  0  0  0  0  0  0
    2.9717   -3.9187    2.0584 C   0  0  0  0  0  0  0  0  0  0  0  0
    3.5935   -3.5726    3.2449 C   0  0  0  0  0  0  0  0  0  0  0  0
    4.2116   -2.3410    3.3677 C   0  0  0  0  0  0  0  0  0  0  0  0
    4.2075   -1.4570    2.3052 C   0  0  0  0  0  0  0  0  0  0  0  0
    3.5977   -4.6833    4.5791 Cl  0  0  0  0  0  0  0  0  0  0  0  0
    3.6708   -1.5670   -1.2645 O   0  0  0  0  0  0  0  0  0  0  0  0
    4.3301   -0.8575   -2.3152 C   0  0  2  0  0  0  0  0  0  0  0  0
    3.3008   -0.0527   -3.1135 C   0  0  0  0  0  0  0  0  0  0  0  0
    4.0032    0.6550   -4.2746 C   0  0  0  0  0  0  0  0  0  0  0  0
    5.6770   -1.0925   -4.4044 C   0  0  0  0  0  0  0  0  0  0  0  0
    5.0244   -1.8536   -3.2481 C   0  0  0  0  0  0  0  0  0  0  0  0
    5.2179    0.2915   -6.3368 C   0  0  0  0  0  0  0  0  0  0  0  0
    4.1956    1.2602   -6.9346 C   0  0  0  0  0  0  0  0  0  0  0  0
    4.7861    1.9185   -8.1831 C   0  0  0  0  0  0  0  0  0  0  0  0
    3.7791    2.8727   -8.7718 C   0  0  0  0  0  0  0  0  0  0  0  0
    2.6998    3.0118   -8.2467 O   0  0  0  0  0  0  0  0  0  0  0  0
    1.2010    3.1496    0.0075 H   0  0  0  0  0  0  0  0  0  0  0  0
   -0.9553    1.9117    0.0170 H   0  0  0  0  0  0  0  0  0  0  0  0
   -0.9295   -0.5505    0.0080 H   0  0  0  0  0  0  0  0  0  0  0  0
    3.3192    1.8487   -0.0194 H   0  0  0  0  0  0  0  0  0  0  0  0
    2.4743   -3.2998    0.0737 H   0  0  0  0  0  0  0  0  0  0  0  0
    2.4891   -4.8800    1.9619 H   0  0  0  0  0  0  0  0  0  0  0  0
    4.6968   -2.0701    4.2938 H   0  0  0  0  0  0  0  0  0  0  0  0
    4.6896   -0.4953    2.4012 H   0  0  0  0  0  0  0  0  0  0  0  0
    5.0706   -0.1807   -1.8889 H   0  0  0  0  0  0  0  0  0  0  0  0
    2.5382   -0.7252   -3.5062 H   0  0  0  0  0  0  0  0  0  0  0  0
    2.8343    0.6876   -2.4636 H   0  0  0  0  0  0  0  0  0  0  0  0
    4.7554    1.3384   -3.8805 H   0  0  0  0  0  0  0  0  0  0  0  0
    3.2705    1.2167   -4.8542 H   0  0  0  0  0  0  0  0  0  0  0  0
    6.4214   -0.4009   -4.0097 H   0  0  0  0  0  0  0  0  0  0  0  0
    6.1600   -1.8001   -5.0782 H   0  0  0  0  0  0  0  0  0  0  0  0
    5.7884   -2.3992   -2.6944 H   0  0  0  0  0  0  0  0  0  0  0  0
    4.2896   -2.5552   -3.6431 H   0  0  0  0  0  0  0  0  0  0  0  0
    6.1215    0.8380   -6.0665 H   0  0  0  0  0  0  0  0  0  0  0  0
    5.4634   -0.4761   -7.0707 H   0  0  0  0  0  0  0  0  0  0  0  0
    3.2920    0.7137   -7.2048 H   0  0  0  0  0  0  0  0  0  0  0  0
    3.9501    2.0278   -6.2007 H   0  0  0  0  0  0  0  0  0  0  0  0
    5.6896    2.4651   -7.9128 H   0  0  0  0  0  0  0  0  0  0  0  0
    5.0316    1.1509   -8.9170 H   0  0  0  0  0  0  0  0  0  0  0  0
    4.6302   -0.3599   -5.1480 N   0  3  2  0  0  0  0  0  0  0  0  0
    3.9112   -1.0259   -5.4540 H   0  0  0  0  0  0  0  0  0  0  0  0
    4.0811    3.5679   -9.8796 O   0  0  0  0  0  1  0  0  0  0  0  0
  1  6  2  0  0  0  0
  1  2  1  0  0  0  0
  1 27  1  0  0  0  0
  2  3  2  0  0  0  0
  2 28  1  0  0  0  0
  3  4  1  0  0  0  0
  3 29  1  0  0  0  0
  4  5  2  0  0  0  0
  5  6  1  0  0  0  0
  5  7  1  0  0  0  0
  6 30  1  0  0  0  0
  7  8  1  1  0  0  0
  7  9  1  0  0  0  0
  7 16  1  0  0  0  0
  9 14  2  0  0  0  0
  9 10  1  0  0  0  0
 10 11  2  0  0  0  0
 10 31  1  0  0  0  0
 11 12  1  0  0  0  0
 11 32  1  0  0  0  0
 12 13  2  0  0  0  0
 12 15  1  0  0  0  0
 13 14  1  0  0  0  0
 13 33  1  0  0  0  0
 14 34  1  0  0  0  0
 16 17  1  0  0  0  0
 17 21  1  0  0  0  0
 17 18  1  0  0  0  0
 17 35  1  1  0  0  0
 18 19  1  0  0  0  0
 18 36  1  0  0  0  0
 18 37  1  0  0  0  0
 19 38  1  0  0  0  0
 19 39  1  0  0  0  0
 19 50  1  0  0  0  0
 20 21  1  0  0  0  0
 20 40  1  0  0  0  0
 20 41  1  0  0  0  0
 20 50  1  0  0  0  0
 21 42  1  0  0  0  0
 21 43  1  0  0  0  0
 22 23  1  0  0  0  0
 22 44  1  0  0  0  0
 22 45  1  0  0  0  0
 22 50  1  0  0  0  0
 23 24  1  0  0  0  0
 23 46  1  0  0  0  0
 23 47  1  0  0  0  0
 24 25  1  0  0  0  0
 24 48  1  0  0  0  0
 24 49  1  0  0  0  0
 25 26  2  0  0  0  0
 25 52  1  0  0  0  0
 50 51  1  6  0  0  0
M  CHG  1  50   1
M  END
$$$$
