ZINC00086599
 OpenBabel08292219463D

 42 42  0  0  1  0  0  0  0  0999 V2000
   -0.0187    1.5258    0.0104 C   0  0  0  0  0  0  0  0  0  0  0  0
    0.0021   -0.0041    0.0020 C   0  0  0  0  0  0  0  0  0  0  0  0
   -1.4333   -0.5336    0.0129 C   0  0  0  0  0  0  0  0  0  0  0  0
    0.6897   -0.4778   -1.2066 N   0  3  0  0  0  0  0  0  0  0  0  0
    2.1002   -0.0703   -1.1590 C   0  0  0  0  0  0  0  0  0  0  0  0
    2.8163   -0.5637   -2.4178 C   0  0  1  0  0  0  0  0  0  0  0  0
    2.3425   -0.1306   -3.2988 H   0  0  0  0  0  0  0  0  0  0  0  0
    4.2854   -0.1392   -2.3683 C   0  0  0  0  0  0  0  0  0  0  0  0
    4.9264   -0.4976   -3.5942 O   0  0  0  0  0  0  0  0  0  0  0  0
    6.2443   -0.1886   -3.7147 C   0  0  0  0  0  0  0  0  0  0  0  0
    6.9085    0.4413   -2.6719 C   0  0  0  0  0  0  0  0  0  0  0  0
    8.2481    0.7538   -2.7966 C   0  0  0  0  0  0  0  0  0  0  0  0
    8.9274    0.4394   -3.9595 C   0  0  0  0  0  0  0  0  0  0  0  0
    8.2677   -0.1877   -5.0000 C   0  0  0  0  0  0  0  0  0  0  0  0
    6.9292   -0.5076   -4.8780 C   0  0  0  0  0  0  0  0  0  0  0  0
    6.2123   -1.1969   -6.0102 C   0  0  0  0  0  0  0  0  0  0  0  0
    5.5240   -0.1679   -6.8695 C   0  0  0  0  0  0  0  0  0  0  0  0
    5.7643   -0.1225   -8.1565 C   0  0  0  0  0  0  0  0  0  0  0  0
    2.7343   -1.9888   -2.4849 O   0  0  0  0  0  0  0  0  0  0  0  0
    1.0039    1.9031    0.0027 H   0  0  0  0  0  0  0  0  0  0  0  0
   -0.5459    1.8868   -0.8726 H   0  0  0  0  0  0  0  0  0  0  0  0
   -0.5289    1.8773    0.9072 H   0  0  0  0  0  0  0  0  0  0  0  0
    0.5293   -0.3651    0.8851 H   0  0  0  0  0  0  0  0  0  0  0  0
   -1.9605   -0.1726   -0.8702 H   0  0  0  0  0  0  0  0  0  0  0  0
   -1.4185   -1.6235    0.0069 H   0  0  0  0  0  0  0  0  0  0  0  0
   -1.9435   -0.1821    0.9097 H   0  0  0  0  0  0  0  0  0  0  0  0
    0.6317   -1.4840   -1.2540 H   0  0  0  0  0  0  0  0  0  0  0  0
    2.1628    1.0167   -1.1079 H   0  0  0  0  0  0  0  0  0  0  0  0
    2.5740   -0.5034   -0.2781 H   0  0  0  0  0  0  0  0  0  0  0  0
    4.3473    0.9399   -2.2279 H   0  0  0  0  0  0  0  0  0  0  0  0
    4.7813   -0.6427   -1.5384 H   0  0  0  0  0  0  0  0  0  0  0  0
    6.3784    0.6873   -1.7637 H   0  0  0  0  0  0  0  0  0  0  0  0
    8.7655    1.2444   -1.9854 H   0  0  0  0  0  0  0  0  0  0  0  0
    9.9748    0.6846   -4.0550 H   0  0  0  0  0  0  0  0  0  0  0  0
    8.8003   -0.4319   -5.9073 H   0  0  0  0  0  0  0  0  0  0  0  0
    6.9324   -1.7505   -6.6128 H   0  0  0  0  0  0  0  0  0  0  0  0
    5.4714   -1.8862   -5.6051 H   0  0  0  0  0  0  0  0  0  0  0  0
    4.8325    0.5322   -6.4243 H   0  0  0  0  0  0  0  0  0  0  0  0
    6.4557   -0.8226   -8.6017 H   0  0  0  0  0  0  0  0  0  0  0  0
    5.2710    0.6149   -8.7723 H   0  0  0  0  0  0  0  0  0  0  0  0
    3.1369   -2.4418   -1.7314 H   0  0  0  0  0  0  0  0  0  0  0  0
    0.2511   -0.0769   -2.0221 H   0  0  0  0  0  0  0  0  0  0  0  0
  1  2  1  0  0  0  0
  1 20  1  0  0  0  0
  1 21  1  0  0  0  0
  1 22  1  0  0  0  0
  2  3  1  0  0  0  0
  2  4  1  0  0  0  0
  2 23  1  0  0  0  0
  3 24  1  0  0  0  0
  3 25  1  0  0  0  0
  3 26  1  0  0  0  0
  4  5  1  0  0  0  0
  4 27  1  0  0  0  0
  4 42  1  0  0  0  0
  5  6  1  0  0  0  0
  5 28  1  0  0  0  0
  5 29  1  0  0  0  0
  6  7  1  6  0  0  0
  6  8  1  0  0  0  0
  6 19  1  0  0  0  0
  8  9  1  0  0  0  0
  8 30  1  0  0  0  0
  8 31  1  0  0  0  0
  9 10  1  0  0  0  0
 10 15  2  0  0  0  0
 10 11  1  0  0  0  0
 11 12  2  0  0  0  0
 11 32  1  0  0  0  0
 12 13  1  0  0  0  0
 12 33  1  0  0  0  0
 13 14  2  0  0  0  0
 13 34  1  0  0  0  0
 14 15  1  0  0  0  0
 14 35  1  0  0  0  0
 15 16  1  0  0  0  0
 16 17  1  0  0  0  0
 16 36  1  0  0  0  0
 16 37  1  0  0  0  0
 17 18  2  0  0  0  0
 17 38  1  0  0  0  0
 18 39  1  0  0  0  0
 18 40  1  0  0  0  0
 19 41  1  0  0  0  0
M  CHG  1   4   1
M  END
$$$$
