ZINC03995861
 OpenBabel08292219463D

 40 44  0  0  1  0  0  0  0  0999 V2000
   -0.0248    1.6132    1.3366 C   0  0  0  0  0  0  0  0  0  0  0  0
    0.2309    0.1050    1.3666 C   0  0  1  0  0  0  0  0  0  0  0  0
   -0.1809   -0.5061    0.0397 C   0  0  1  0  0  0  0  0  0  0  0  0
   -0.2011    0.2682   -0.7272 H   0  0  0  0  0  0  0  0  0  0  0  0
    0.6875   -1.6677   -0.4319 C   0  0  1  0  0  0  0  0  0  0  0  0
    0.4467   -1.9660   -1.4522 H   0  0  0  0  0  0  0  0  0  0  0  0
    2.1754   -1.2663   -0.2820 C   0  0  2  0  0  0  0  0  0  0  0  0
    2.8352   -1.9645   -0.7971 H   0  0  0  0  0  0  0  0  0  0  0  0
    2.2779   -1.4110    1.2643 C   0  0  1  0  0  0  0  0  0  0  0  0
    3.2985   -1.5826    1.6063 H   0  0  0  0  0  0  0  0  0  0  0  0
    1.6395   -0.1618    1.8653 C   0  0  2  0  0  0  0  0  0  0  0  0
    1.4896   -0.3644    3.3926 C   0  0  0  0  0  0  0  0  0  0  0  0
    0.1104   -1.0610    3.5342 C   0  0  2  0  0  0  0  0  0  0  0  0
    0.0767   -2.0829    3.9122 H   0  0  0  0  0  0  0  0  0  0  0  0
   -0.7410   -0.5605    2.3607 C   0  0  1  0  0  0  0  0  0  0  0  0
   -0.9998   -0.1657    3.7194 O   0  0  0  0  0  0  0  0  0  0  0  0
   -1.6764   -1.3691    1.5002 C   0  0  0  0  0  0  0  0  0  0  0  0
   -2.4591   -2.1987    1.8988 O   0  0  0  0  0  0  0  0  0  0  0  0
   -1.5130   -1.0176    0.2420 O   0  0  0  0  0  0  0  0  0  0  0  0
    2.4664    0.9749    1.6080 O   0  0  0  0  0  0  0  0  0  0  0  0
    1.3582   -2.5864    1.5485 C   0  0  0  0  0  0  0  0  0  0  0  0
    1.3765   -3.2669    2.5467 O   0  0  0  0  0  0  0  0  0  0  0  0
    0.5110   -2.7510    0.5030 O   0  0  0  0  0  0  0  0  0  0  0  0
    2.4214    0.1743   -0.7347 C   0  0  0  0  0  0  0  0  0  0  0  0
    3.9056    0.5116   -0.5784 C   0  0  0  0  0  0  0  0  0  0  0  0
    2.0163    0.3239   -2.2025 C   0  0  0  0  0  0  0  0  0  0  0  0
    1.6435    1.0651    0.0673 O   0  0  0  0  0  0  0  0  0  0  0  0
    0.9209    2.1396    1.2081 H   0  0  0  0  0  0  0  0  0  0  0  0
   -0.6896    1.8526    0.5065 H   0  0  0  0  0  0  0  0  0  0  0  0
   -0.4881    1.9219    2.2737 H   0  0  0  0  0  0  0  0  0  0  0  0
    2.2841   -1.0056    3.7742 H   0  0  0  0  0  0  0  0  0  0  0  0
    1.4891    0.5957    3.9086 H   0  0  0  0  0  0  0  0  0  0  0  0
    3.3217    0.9491    2.0585 H   0  0  0  0  0  0  0  0  0  0  0  0
    4.4990   -0.1679   -1.1901 H   0  0  0  0  0  0  0  0  0  0  0  0
    4.0809    1.5379   -0.9009 H   0  0  0  0  0  0  0  0  0  0  0  0
    4.1942    0.4050    0.4673 H   0  0  0  0  0  0  0  0  0  0  0  0
    0.9807    0.0079   -2.3276 H   0  0  0  0  0  0  0  0  0  0  0  0
    2.1168    1.3670   -2.5027 H   0  0  0  0  0  0  0  0  0  0  0  0
    2.6630   -0.2965   -2.8230 H   0  0  0  0  0  0  0  0  0  0  0  0
    0.7192    1.1365   -0.2078 H   0  0  0  0  0  0  0  0  0  0  0  0
  1 28  1  0  0  0  0
  1 29  1  0  0  0  0
  1 30  1  0  0  0  0
  2  1  1  6  0  0  0
  2 11  1  0  0  0  0
  2 15  1  0  0  0  0
  2  3  1  0  0  0  0
  3  4  1  6  0  0  0
  3 19  1  0  0  0  0
  3  5  1  0  0  0  0
  5  6  1  6  0  0  0
  5 23  1  0  0  0  0
  5  7  1  0  0  0  0
  7  8  1  6  0  0  0
  7  9  1  0  0  0  0
  7 24  1  0  0  0  0
  9 10  1  1  0  0  0
  9 11  1  0  0  0  0
  9 21  1  0  0  0  0
 11 12  1  0  0  0  0
 11 20  1  6  0  0  0
 12 13  1  0  0  0  0
 12 31  1  0  0  0  0
 12 32  1  0  0  0  0
 13 14  1  1  0  0  0
 13 16  1  0  0  0  0
 13 15  1  0  0  0  0
 15 16  1  1  0  0  0
 15 17  1  0  0  0  0
 17 18  2  0  0  0  0
 17 19  1  0  0  0  0
 20 33  1  0  0  0  0
 21 22  2  0  0  0  0
 21 23  1  0  0  0  0
 24 25  1  0  0  0  0
 24 26  1  0  0  0  0
 24 27  1  0  0  0  0
 25 34  1  0  0  0  0
 25 35  1  0  0  0  0
 25 36  1  0  0  0  0
 26 37  1  0  0  0  0
 26 38  1  0  0  0  0
 26 39  1  0  0  0  0
 27 40  1  0  0  0  0
M  END
$$$$
