ZINC03830944
 OpenBabel08292219463D

 60 60  0  0  1  0  0  0  0  0999 V2000
    1.6135    3.2877   -4.3677 C   0  0  0  0  0  0  0  0  0  0  0  0
    2.0552    2.8002   -3.0118 C   0  0  0  0  0  0  0  0  0  0  0  0
    2.9752    3.3468   -2.4409 O   0  0  0  0  0  0  0  0  0  0  0  0
    1.4278    1.7568   -2.4336 N   0  0  0  0  0  0  0  0  0  0  0  0
    1.8572    1.2830   -1.1155 C   0  0  0  0  0  0  0  0  0  0  0  0
    2.9841    0.2617   -1.2829 C   0  0  2  0  0  0  0  0  0  0  0  0
    2.6285   -0.5769   -1.8814 H   0  0  0  0  0  0  0  0  0  0  0  0
    3.4231   -0.2435    0.0930 C   0  0  0  0  0  0  0  0  0  0  0  0
    4.3929   -1.2807   -0.0676 O   0  0  0  0  0  0  0  0  0  0  0  0
    4.0929    0.8793   -1.9395 O   0  0  0  0  0  0  0  0  0  0  0  0
    0.3655    1.1257   -3.0927 C   0  0  0  0  0  0  0  0  0  0  0  0
    0.6241    0.1706   -4.0652 C   0  0  0  0  0  0  0  0  0  0  0  0
   -0.4330   -0.4652   -4.7208 C   0  0  0  0  0  0  0  0  0  0  0  0
   -1.7491   -0.1306   -4.4048 C   0  0  0  0  0  0  0  0  0  0  0  0
   -2.0050    0.8338   -3.4311 C   0  0  0  0  0  0  0  0  0  0  0  0
   -0.9428    1.4612   -2.7757 C   0  0  0  0  0  0  0  0  0  0  0  0
   -1.3259    2.9101   -1.3117 I   0  0  0  0  0  0  0  0  0  0  0  0
   -3.3982    1.1922   -3.0930 C   0  0  0  0  0  0  0  0  0  0  0  0
   -3.9578    2.0890   -3.6932 O   0  0  0  0  0  0  0  0  0  0  0  0
   -4.0484    0.5247   -2.1193 N   0  0  0  0  0  0  0  0  0  0  0  0
   -5.4296    0.8800   -1.7841 C   0  0  0  0  0  0  0  0  0  0  0  0
   -5.9288   -0.0232   -0.6546 C   0  0  1  0  0  0  0  0  0  0  0  0
   -5.2963    0.1094    0.2232 H   0  0  0  0  0  0  0  0  0  0  0  0
   -7.3712    0.3478   -0.3046 C   0  0  0  0  0  0  0  0  0  0  0  0
   -7.7983   -0.4147    0.8260 O   0  0  0  0  0  0  0  0  0  0  0  0
   -5.8770   -1.3873   -1.0772 O   0  0  0  0  0  0  0  0  0  0  0  0
   -3.3382   -1.0752   -5.3904 I   0  0  0  0  0  0  0  0  0  0  0  0
   -0.1566   -1.4864   -5.7525 C   0  0  0  0  0  0  0  0  0  0  0  0
   -0.0297   -1.1564   -6.9156 O   0  0  0  0  0  0  0  0  0  0  0  0
   -0.0453   -2.7835   -5.4039 N   0  0  0  0  0  0  0  0  0  0  0  0
    0.2287   -3.7959   -6.4268 C   0  0  0  0  0  0  0  0  0  0  0  0
    0.3059   -5.1759   -5.7706 C   0  0  1  0  0  0  0  0  0  0  0  0
   -0.6428   -5.3998   -5.2828 H   0  0  0  0  0  0  0  0  0  0  0  0
    0.5920   -6.2332   -6.8389 C   0  0  0  0  0  0  0  0  0  0  0  0
    0.5488   -7.5329   -6.2463 O   0  0  0  0  0  0  0  0  0  0  0  0
    1.3543   -5.1838   -4.7997 O   0  0  0  0  0  0  0  0  0  0  0  0
    2.6023   -0.3250   -4.5449 I   0  0  0  0  0  0  0  0  0  0  0  0
    0.8452    4.0513   -4.2467 H   0  0  0  0  0  0  0  0  0  0  0  0
    2.4668    3.7114   -4.8971 H   0  0  0  0  0  0  0  0  0  0  0  0
    1.2090    2.4528   -4.9399 H   0  0  0  0  0  0  0  0  0  0  0  0
    1.0152    0.8146   -0.6058 H   0  0  0  0  0  0  0  0  0  0  0  0
    2.2158    2.1263   -0.5253 H   0  0  0  0  0  0  0  0  0  0  0  0
    3.8607    0.5786    0.6593 H   0  0  0  0  0  0  0  0  0  0  0  0
    2.5584   -0.6344    0.6293 H   0  0  0  0  0  0  0  0  0  0  0  0
    4.7167   -1.6489    0.7659 H   0  0  0  0  0  0  0  0  0  0  0  0
    4.4615    1.6353   -1.4622 H   0  0  0  0  0  0  0  0  0  0  0  0
   -3.6018   -0.1910   -1.6404 H   0  0  0  0  0  0  0  0  0  0  0  0
   -5.4691    1.9205   -1.4617 H   0  0  0  0  0  0  0  0  0  0  0  0
   -6.0621    0.7473   -2.6619 H   0  0  0  0  0  0  0  0  0  0  0  0
   -7.4258    1.4104   -0.0677 H   0  0  0  0  0  0  0  0  0  0  0  0
   -8.0185    0.1313   -1.1544 H   0  0  0  0  0  0  0  0  0  0  0  0
   -8.7059   -0.2307    1.1044 H   0  0  0  0  0  0  0  0  0  0  0  0
   -6.4178   -1.5787   -1.8557 H   0  0  0  0  0  0  0  0  0  0  0  0
   -0.1467   -3.0468   -4.4759 H   0  0  0  0  0  0  0  0  0  0  0  0
   -0.5711   -3.7899   -7.1674 H   0  0  0  0  0  0  0  0  0  0  0  0
    1.1773   -3.5720   -6.9147 H   0  0  0  0  0  0  0  0  0  0  0  0
   -0.1594   -6.1675   -7.6257 H   0  0  0  0  0  0  0  0  0  0  0  0
    1.5803   -6.0609   -7.2651 H   0  0  0  0  0  0  0  0  0  0  0  0
    0.7217   -8.2540   -6.8669 H   0  0  0  0  0  0  0  0  0  0  0  0
    2.2292   -4.9917   -5.1641 H   0  0  0  0  0  0  0  0  0  0  0  0
  1  2  1  0  0  0  0
  1 38  1  0  0  0  0
  1 39  1  0  0  0  0
  1 40  1  0  0  0  0
  2  3  2  0  0  0  0
  2  4  1  0  0  0  0
  4  5  1  0  0  0  0
  4 11  1  0  0  0  0
  5  6  1  0  0  0  0
  5 41  1  0  0  0  0
  5 42  1  0  0  0  0
  6  7  1  6  0  0  0
  6  8  1  0  0  0  0
  6 10  1  0  0  0  0
  8  9  1  0  0  0  0
  8 43  1  0  0  0  0
  8 44  1  0  0  0  0
  9 45  1  0  0  0  0
 10 46  1  0  0  0  0
 11 16  2  0  0  0  0
 11 12  1  0  0  0  0
 12 13  2  0  0  0  0
 12 37  1  0  0  0  0
 13 14  1  0  0  0  0
 13 28  1  0  0  0  0
 14 15  2  0  0  0  0
 14 27  1  0  0  0  0
 15 16  1  0  0  0  0
 15 18  1  0  0  0  0
 16 17  1  0  0  0  0
 18 19  2  0  0  0  0
 18 20  1  0  0  0  0
 20 21  1  0  0  0  0
 20 47  1  0  0  0  0
 21 22  1  0  0  0  0
 21 48  1  0  0  0  0
 21 49  1  0  0  0  0
 22 23  1  1  0  0  0
 22 24  1  0  0  0  0
 22 26  1  0  0  0  0
 24 25  1  0  0  0  0
 24 50  1  0  0  0  0
 24 51  1  0  0  0  0
 25 52  1  0  0  0  0
 26 53  1  0  0  0  0
 28 29  2  0  0  0  0
 28 30  1  0  0  0  0
 30 31  1  0  0  0  0
 30 54  1  0  0  0  0
 31 32  1  0  0  0  0
 31 55  1  0  0  0  0
 31 56  1  0  0  0  0
 32 33  1  1  0  0  0
 32 34  1  0  0  0  0
 32 36  1  0  0  0  0
 34 35  1  0  0  0  0
 34 57  1  0  0  0  0
 34 58  1  0  0  0  0
 35 59  1  0  0  0  0
 36 60  1  0  0  0  0
M  END
$$$$
