ZINC00897251
 OpenBabel08292219463D

 58 61  0  0  1  0  0  0  0  0999 V2000
   -0.4000    2.7928   -9.4111 C   0  0  0  0  0  0  0  0  0  0  0  0
   -0.3921    3.3043   -8.0768 O   0  0  0  0  0  0  0  0  0  0  0  0
    0.2864    2.5865   -7.1456 C   0  0  0  0  0  0  0  0  0  0  0  0
    0.9365    1.4157   -7.5106 C   0  0  0  0  0  0  0  0  0  0  0  0
    1.6280    0.6797   -6.5702 C   0  0  0  0  0  0  0  0  0  0  0  0
    1.6776    1.1109   -5.2428 C   0  0  0  0  0  0  0  0  0  0  0  0
    1.0179    2.2969   -4.8763 C   0  0  0  0  0  0  0  0  0  0  0  0
    0.3345    3.0288   -5.8236 C   0  0  0  0  0  0  0  0  0  0  0  0
   -0.2981    4.1789   -5.4680 O   0  0  0  0  0  0  0  0  0  0  0  0
   -0.2072    4.5722   -4.0972 C   0  0  0  0  0  0  0  0  0  0  0  0
    2.4645    0.1785   -4.4238 C   0  0  0  0  0  0  0  0  0  0  0  0
    2.6844    0.2862   -3.2359 O   0  0  0  0  0  0  0  0  0  0  0  0
    2.9517   -0.9365   -5.3169 C   0  0  1  0  0  0  0  0  0  0  0  0
    2.5591   -1.8938   -4.9740 H   0  0  0  0  0  0  0  0  0  0  0  0
    2.4055   -0.6071   -6.7129 C   0  0  0  0  0  0  0  0  0  0  0  0
    4.4812   -0.9687   -5.3380 C   0  0  0  0  0  0  0  0  0  0  0  0
    4.9548   -2.1846   -6.1369 C   0  0  2  0  0  0  0  0  0  0  0  0
    4.5565   -3.4674   -5.4014 C   0  0  0  0  0  0  0  0  0  0  0  0
    5.1018   -4.6765   -6.1643 C   0  0  0  0  0  0  0  0  0  0  0  0
    6.5650   -4.5904   -6.2436 N   0  3  2  0  0  0  0  0  0  0  0  0
    6.9530   -3.4000   -7.0098 C   0  0  0  0  0  0  0  0  0  0  0  0
    6.4789   -2.1417   -6.2794 C   0  0  0  0  0  0  0  0  0  0  0  0
    7.0894   -5.7910   -6.9081 C   0  0  0  0  0  0  0  0  0  0  0  0
    8.5959   -5.7625   -6.8811 C   0  0  0  0  0  0  0  0  0  0  0  0
    9.2944   -5.1622   -7.9119 C   0  0  0  0  0  0  0  0  0  0  0  0
   10.6763   -5.1361   -7.8871 C   0  0  0  0  0  0  0  0  0  0  0  0
   11.3596   -5.7098   -6.8313 C   0  0  0  0  0  0  0  0  0  0  0  0
   10.6611   -6.3093   -5.8000 C   0  0  0  0  0  0  0  0  0  0  0  0
    9.2791   -6.3317   -5.8227 C   0  0  0  0  0  0  0  0  0  0  0  0
    0.6233    2.7264   -9.7808 H   0  0  0  0  0  0  0  0  0  0  0  0
   -0.8537    1.8018   -9.4176 H   0  0  0  0  0  0  0  0  0  0  0  0
   -0.9755    3.4601  -10.0527 H   0  0  0  0  0  0  0  0  0  0  0  0
    0.9006    1.0787   -8.5360 H   0  0  0  0  0  0  0  0  0  0  0  0
    1.0506    2.6377   -3.8520 H   0  0  0  0  0  0  0  0  0  0  0  0
   -0.7539    5.5035   -3.9494 H   0  0  0  0  0  0  0  0  0  0  0  0
   -0.6376    3.7942   -3.4667 H   0  0  0  0  0  0  0  0  0  0  0  0
    0.8393    4.7188   -3.8299 H   0  0  0  0  0  0  0  0  0  0  0  0
    1.7480   -1.4060   -7.0558 H   0  0  0  0  0  0  0  0  0  0  0  0
    3.2285   -0.4716   -7.4146 H   0  0  0  0  0  0  0  0  0  0  0  0
    4.8574   -0.0583   -5.8047 H   0  0  0  0  0  0  0  0  0  0  0  0
    4.8574   -1.0358   -4.3172 H   0  0  0  0  0  0  0  0  0  0  0  0
    4.4958   -2.1724   -7.1255 H   0  0  0  0  0  0  0  0  0  0  0  0
    4.9736   -3.4540   -4.3944 H   0  0  0  0  0  0  0  0  0  0  0  0
    3.4699   -3.5323   -5.3452 H   0  0  0  0  0  0  0  0  0  0  0  0
    4.8199   -5.5916   -5.6435 H   0  0  0  0  0  0  0  0  0  0  0  0
    4.6840   -4.6890   -7.1710 H   0  0  0  0  0  0  0  0  0  0  0  0
    8.0378   -3.3726   -7.1131 H   0  0  0  0  0  0  0  0  0  0  0  0
    6.4957   -3.4397   -7.9984 H   0  0  0  0  0  0  0  0  0  0  0  0
    6.7664   -1.2591   -6.8507 H   0  0  0  0  0  0  0  0  0  0  0  0
    6.9359   -2.1009   -5.2906 H   0  0  0  0  0  0  0  0  0  0  0  0
    6.7334   -6.6795   -6.3867 H   0  0  0  0  0  0  0  0  0  0  0  0
    6.7449   -5.8138   -7.9420 H   0  0  0  0  0  0  0  0  0  0  0  0
    8.7606   -4.7139   -8.7368 H   0  0  0  0  0  0  0  0  0  0  0  0
   11.2221   -4.6677   -8.6928 H   0  0  0  0  0  0  0  0  0  0  0  0
   12.4393   -5.6901   -6.8123 H   0  0  0  0  0  0  0  0  0  0  0  0
   11.1949   -6.7579   -4.9753 H   0  0  0  0  0  0  0  0  0  0  0  0
    8.7332   -6.7968   -5.0151 H   0  0  0  0  0  0  0  0  0  0  0  0
    6.9482   -4.5293   -5.3123 H   0  0  0  0  0  0  0  0  0  0  0  0
  1  2  1  0  0  0  0
  1 30  1  0  0  0  0
  1 31  1  0  0  0  0
  1 32  1  0  0  0  0
  2  3  1  0  0  0  0
  3  8  2  0  0  0  0
  3  4  1  0  0  0  0
  4  5  2  0  0  0  0
  4 33  1  0  0  0  0
  5 15  1  0  0  0  0
  5  6  1  0  0  0  0
  6  7  2  0  0  0  0
  6 11  1  0  0  0  0
  7  8  1  0  0  0  0
  7 34  1  0  0  0  0
  8  9  1  0  0  0  0
  9 10  1  0  0  0  0
 10 35  1  0  0  0  0
 10 36  1  0  0  0  0
 10 37  1  0  0  0  0
 11 12  2  0  0  0  0
 11 13  1  0  0  0  0
 13 14  1  1  0  0  0
 13 15  1  0  0  0  0
 13 16  1  0  0  0  0
 15 38  1  0  0  0  0
 15 39  1  0  0  0  0
 16 17  1  0  0  0  0
 16 40  1  0  0  0  0
 16 41  1  0  0  0  0
 17 22  1  0  0  0  0
 17 18  1  0  0  0  0
 17 42  1  6  0  0  0
 18 19  1  0  0  0  0
 18 43  1  0  0  0  0
 18 44  1  0  0  0  0
 19 20  1  0  0  0  0
 19 45  1  0  0  0  0
 19 46  1  0  0  0  0
 20 21  1  0  0  0  0
 20 23  1  0  0  0  0
 20 58  1  1  0  0  0
 21 22  1  0  0  0  0
 21 47  1  0  0  0  0
 21 48  1  0  0  0  0
 22 49  1  0  0  0  0
 22 50  1  0  0  0  0
 23 24  1  0  0  0  0
 23 51  1  0  0  0  0
 23 52  1  0  0  0  0
 24 29  2  0  0  0  0
 24 25  1  0  0  0  0
 25 26  2  0  0  0  0
 25 53  1  0  0  0  0
 26 27  1  0  0  0  0
 26 54  1  0  0  0  0
 27 28  2  0  0  0  0
 27 55  1  0  0  0  0
 28 29  1  0  0  0  0
 28 56  1  0  0  0  0
 29 57  1  0  0  0  0
M  CHG  1  20   1
M  END
$$$$
