ZINC01481789
 OpenBabel08292219463D

 47 49  0  0  1  0  0  0  0  0999 V2000
   -0.6599    1.3285   -0.3543 C   0  0  0  0  0  0  0  0  0  0  0  0
    0.0021   -0.0041    0.0020 C   0  0  2  0  0  0  0  0  0  0  0  0
    0.6290    0.1261    0.8841 H   0  0  0  0  0  0  0  0  0  0  0  0
    0.8509   -0.4682   -1.1535 C   0  0  0  0  0  0  0  0  0  0  0  0
    0.7050    0.1291   -2.3915 C   0  0  0  0  0  0  0  0  0  0  0  0
    1.4907   -0.3052   -3.4478 C   0  0  0  0  0  0  0  0  0  0  0  0
    2.3978   -1.3287   -3.2185 C   0  0  0  0  0  0  0  0  0  0  0  0
    2.4878   -1.8778   -1.9536 C   0  0  0  0  0  0  0  0  0  0  0  0
    1.7279   -1.4356   -0.9706 N   0  0  0  0  0  0  0  0  0  0  0  0
   -1.0615   -1.0324    0.2889 C   0  0  0  0  0  0  0  0  0  0  0  0
   -1.1820   -1.6849    1.4318 C   0  0  0  0  0  0  0  0  0  0  0  0
   -2.3641   -2.6194    1.3216 C   0  0  0  0  0  0  0  0  0  0  0  0
   -2.9151   -2.4092   -0.0677 C   0  0  0  0  0  0  0  0  0  0  0  0
   -2.1088   -1.4387   -0.6664 C   0  0  0  0  0  0  0  0  0  0  0  0
   -2.3881   -1.0327   -1.9734 C   0  0  0  0  0  0  0  0  0  0  0  0
   -3.4524   -1.5879   -2.6532 C   0  0  0  0  0  0  0  0  0  0  0  0
   -4.2459   -2.5456   -2.0479 C   0  0  0  0  0  0  0  0  0  0  0  0
   -3.9709   -2.9601   -0.7551 C   0  0  0  0  0  0  0  0  0  0  0  0
   -0.2926   -1.5248    2.6378 C   0  0  0  0  0  0  0  0  0  0  0  0
   -0.9227   -0.5224    3.6068 C   0  0  0  0  0  0  0  0  0  0  0  0
   -0.0557   -0.3664    4.7824 N   0  3  0  0  0  0  0  0  0  0  0  0
   -0.5987    0.6826    5.6556 C   0  0  0  0  0  0  0  0  0  0  0  0
    0.0027   -1.6357    5.5196 C   0  0  0  0  0  0  0  0  0  0  0  0
    0.1094    2.0723   -0.5618 H   0  0  0  0  0  0  0  0  0  0  0  0
   -1.2868    1.1984   -1.2364 H   0  0  0  0  0  0  0  0  0  0  0  0
   -1.2738    1.6642    0.4814 H   0  0  0  0  0  0  0  0  0  0  0  0
   -0.0122    0.9239   -2.5341 H   0  0  0  0  0  0  0  0  0  0  0  0
    1.3982    0.1426   -4.4262 H   0  0  0  0  0  0  0  0  0  0  0  0
    3.0257   -1.6923   -4.0184 H   0  0  0  0  0  0  0  0  0  0  0  0
    3.1918   -2.6752   -1.7668 H   0  0  0  0  0  0  0  0  0  0  0  0
   -2.0409   -3.6528    1.4469 H   0  0  0  0  0  0  0  0  0  0  0  0
   -3.1165   -2.3656    2.0683 H   0  0  0  0  0  0  0  0  0  0  0  0
   -1.7721   -0.2851   -2.4508 H   0  0  0  0  0  0  0  0  0  0  0  0
   -3.6674   -1.2728   -3.6636 H   0  0  0  0  0  0  0  0  0  0  0  0
   -5.0774   -2.9757   -2.5865 H   0  0  0  0  0  0  0  0  0  0  0  0
   -4.5919   -3.7072   -0.2835 H   0  0  0  0  0  0  0  0  0  0  0  0
   -0.1778   -2.4880    3.1350 H   0  0  0  0  0  0  0  0  0  0  0  0
    0.6850   -1.1600    2.3224 H   0  0  0  0  0  0  0  0  0  0  0  0
   -1.0374    0.4407    3.1096 H   0  0  0  0  0  0  0  0  0  0  0  0
   -1.9002   -0.8872    3.9222 H   0  0  0  0  0  0  0  0  0  0  0  0
   -1.6017    0.4034    5.9784 H   0  0  0  0  0  0  0  0  0  0  0  0
    0.0446    0.7983    6.5279 H   0  0  0  0  0  0  0  0  0  0  0  0
   -0.6421    1.6244    5.1085 H   0  0  0  0  0  0  0  0  0  0  0  0
    0.4057   -2.4140    4.8717 H   0  0  0  0  0  0  0  0  0  0  0  0
    0.6461   -1.5199    6.3919 H   0  0  0  0  0  0  0  0  0  0  0  0
   -1.0003   -1.9148    5.8424 H   0  0  0  0  0  0  0  0  0  0  0  0
    0.8728   -0.1080    4.4836 H   0  0  0  0  0  0  0  0  0  0  0  0
  1  2  1  0  0  0  0
  1 24  1  0  0  0  0
  1 25  1  0  0  0  0
  1 26  1  0  0  0  0
  2  3  1  1  0  0  0
  2  4  1  0  0  0  0
  2 10  1  0  0  0  0
  4  9  2  0  0  0  0
  4  5  1  0  0  0  0
  5  6  2  0  0  0  0
  5 27  1  0  0  0  0
  6  7  1  0  0  0  0
  6 28  1  0  0  0  0
  7  8  2  0  0  0  0
  7 29  1  0  0  0  0
  8  9  1  0  0  0  0
  8 30  1  0  0  0  0
 10 14  1  0  0  0  0
 10 11  2  0  0  0  0
 11 12  1  0  0  0  0
 11 19  1  0  0  0  0
 12 13  1  0  0  0  0
 12 31  1  0  0  0  0
 12 32  1  0  0  0  0
 13 18  2  0  0  0  0
 13 14  1  0  0  0  0
 14 15  2  0  0  0  0
 15 16  1  0  0  0  0
 15 33  1  0  0  0  0
 16 17  2  0  0  0  0
 16 34  1  0  0  0  0
 17 18  1  0  0  0  0
 17 35  1  0  0  0  0
 18 36  1  0  0  0  0
 19 20  1  0  0  0  0
 19 37  1  0  0  0  0
 19 38  1  0  0  0  0
 20 21  1  0  0  0  0
 20 39  1  0  0  0  0
 20 40  1  0  0  0  0
 21 22  1  0  0  0  0
 21 23  1  0  0  0  0
 21 47  1  0  0  0  0
 22 41  1  0  0  0  0
 22 42  1  0  0  0  0
 22 43  1  0  0  0  0
 23 44  1  0  0  0  0
 23 45  1  0  0  0  0
 23 46  1  0  0  0  0
M  CHG  1  21   1
M  END
$$$$
