ZINC03806262
 OpenBabel08292219463D

 35 37  0  0  1  0  0  0  0  0999 V2000
   -0.0163    1.3522    0.0095 C   0  0  0  0  0  0  0  0  0  0  0  0
    1.2103    1.7869    0.0001 N   0  0  0  0  0  0  0  0  0  0  0  0
    2.0633    0.7434   -0.0126 C   0  0  0  0  0  0  0  0  0  0  0  0
    1.3317   -0.3961   -0.0166 C   0  0  0  0  0  0  0  0  0  0  0  0
    0.0021   -0.0041    0.0020 N   0  0  0  0  0  0  0  0  0  0  0  0
   -1.1651   -0.8893    0.0125 C   0  0  1  0  0  0  0  0  0  0  0  0
   -0.9730   -1.7765   -0.5908 H   0  0  0  0  0  0  0  0  0  0  0  0
   -1.5224   -1.2909    1.4608 C   0  0  0  0  0  0  0  0  0  0  0  0
   -3.0672   -1.3227    1.4714 C   0  0  1  0  0  0  0  0  0  0  0  0
   -3.4593   -0.5949    2.1818 H   0  0  0  0  0  0  0  0  0  0  0  0
   -3.4604   -0.9365    0.0282 C   0  0  2  0  0  0  0  0  0  0  0  0
   -3.6223   -1.8310   -0.5732 H   0  0  0  0  0  0  0  0  0  0  0  0
   -2.3304   -0.1908   -0.4774 O   0  0  0  0  0  0  0  0  0  0  0  0
   -4.7180   -0.0651    0.0340 C   0  0  0  0  0  0  0  0  0  0  0  0
   -5.1311    0.1840   -1.3112 O   0  0  0  0  0  0  0  0  0  0  0  0
   -3.5389   -2.6339    1.7879 O   0  0  0  0  0  0  0  0  0  0  0  0
    1.7149   -1.6930   -0.0407 N   0  0  0  0  0  0  0  0  0  0  0  0
    2.8881   -2.1890   -0.0979 C   0  0  0  0  0  0  0  0  0  0  0  0
    4.0487   -1.5019   -0.1101 N   0  0  0  0  0  0  0  0  0  0  0  0
    4.2371   -0.2273   -0.7738 C   0  0  0  0  0  0  0  0  0  0  0  0
    3.5586    0.8968   -0.0151 C   0  0  1  0  0  0  0  0  0  0  0  0
    3.9174    0.8982    1.0141 H   0  0  0  0  0  0  0  0  0  0  0  0
    3.8981    2.1429   -0.6266 O   0  0  0  0  0  0  0  0  0  0  0  0
   -0.9025    1.9694    0.0253 H   0  0  0  0  0  0  0  0  0  0  0  0
   -1.1186   -2.2760    1.6947 H   0  0  0  0  0  0  0  0  0  0  0  0
   -1.1509   -0.5475    2.1660 H   0  0  0  0  0  0  0  0  0  0  0  0
   -5.5151   -0.5810    0.5692 H   0  0  0  0  0  0  0  0  0  0  0  0
   -4.5017    0.8817    0.5288 H   0  0  0  0  0  0  0  0  0  0  0  0
   -5.9246    0.7318   -1.3839 H   0  0  0  0  0  0  0  0  0  0  0  0
   -3.2688   -2.9488    2.6614 H   0  0  0  0  0  0  0  0  0  0  0  0
    2.9595   -3.2658   -0.1405 H   0  0  0  0  0  0  0  0  0  0  0  0
    4.8074   -1.8862    0.3565 H   0  0  0  0  0  0  0  0  0  0  0  0
    5.3042   -0.0164   -0.8447 H   0  0  0  0  0  0  0  0  0  0  0  0
    3.8183   -0.2831   -1.7786 H   0  0  0  0  0  0  0  0  0  0  0  0
    4.8487    2.3156   -0.6661 H   0  0  0  0  0  0  0  0  0  0  0  0
  1  5  1  0  0  0  0
  1  2  2  0  0  0  0
  1 24  1  0  0  0  0
  2  3  1  0  0  0  0
  3 21  1  0  0  0  0
  3  4  2  0  0  0  0
  4  5  1  0  0  0  0
  4 17  1  0  0  0  0
  5  6  1  0  0  0  0
  6  7  1  6  0  0  0
  6 13  1  0  0  0  0
  6  8  1  0  0  0  0
  8  9  1  0  0  0  0
  8 25  1  0  0  0  0
  8 26  1  0  0  0  0
  9 10  1  1  0  0  0
  9 11  1  0  0  0  0
  9 16  1  0  0  0  0
 11 12  1  6  0  0  0
 11 13  1  0  0  0  0
 11 14  1  0  0  0  0
 14 15  1  0  0  0  0
 14 27  1  0  0  0  0
 14 28  1  0  0  0  0
 15 29  1  0  0  0  0
 16 30  1  0  0  0  0
 17 18  2  0  0  0  0
 18 19  1  0  0  0  0
 18 31  1  0  0  0  0
 19 20  1  0  0  0  0
 19 32  1  0  0  0  0
 20 21  1  0  0  0  0
 20 33  1  0  0  0  0
 20 34  1  0  0  0  0
 21 22  1  1  0  0  0
 21 23  1  0  0  0  0
 23 35  1  0  0  0  0
M  END
$$$$
