ZINC03873817
 OpenBabel08292219463D

 58 62  0  0  1  0  0  0  0  0999 V2000
   -0.0178    1.4608    0.0101 C   0  0  0  0  0  0  0  0  0  0  0  0
    0.0021   -0.0041    0.0020 N   0  0  0  0  0  0  0  0  0  0  0  0
    0.0080   -0.7895   -1.1411 C   0  0  0  0  0  0  0  0  0  0  0  0
    0.0282   -2.0729   -0.8158 C   0  0  0  0  0  0  0  0  0  0  0  0
    0.0400   -2.1061    0.6467 C   0  0  0  0  0  0  0  0  0  0  0  0
    0.0233   -0.7876    1.1160 C   0  0  0  0  0  0  0  0  0  0  0  0
    0.0281   -0.6014    2.4974 C   0  0  0  0  0  0  0  0  0  0  0  0
    0.0555   -1.7454    3.2836 C   0  0  0  0  0  0  0  0  0  0  0  0
    0.0797   -3.0442    2.7772 C   0  0  0  0  0  0  0  0  0  0  0  0
    0.0695   -3.2585    1.4352 C   0  0  0  0  0  0  0  0  0  0  0  0
    0.1084   -4.5672    0.7055 C   0  0  1  0  0  0  0  0  0  0  0  0
   -0.5981   -5.6387    1.5422 C   0  0  0  0  0  0  0  0  0  0  0  0
   -0.5917   -6.9634    0.7749 C   0  0  2  0  0  0  0  0  0  0  0  0
    0.4364   -7.2946    0.6283 H   0  0  0  0  0  0  0  0  0  0  0  0
   -1.2619   -6.7580   -0.5856 C   0  0  0  0  0  0  0  0  0  0  0  0
   -0.5193   -5.7488   -1.3493 N   0  3  2  0  0  0  0  0  0  0  0  0
   -0.5750   -4.4545   -0.6579 C   0  0  2  0  0  0  0  0  0  0  0  0
   -1.6220   -4.1979   -0.4966 H   0  0  0  0  0  0  0  0  0  0  0  0
    0.0386   -3.3796   -1.5674 C   0  0  0  0  0  0  0  0  0  0  0  0
   -1.1140   -5.6136   -2.6857 C   0  0  0  0  0  0  0  0  0  0  0  0
   -1.3607   -8.0194    1.5713 C   0  0  0  0  0  0  0  0  0  0  0  0
   -1.2557   -9.2830    0.9123 O   0  0  0  0  0  0  0  0  0  0  0  0
   -1.8818  -10.3273    1.4887 C   0  0  0  0  0  0  0  0  0  0  0  0
   -2.4999  -10.1697    2.5224 O   0  0  0  0  0  0  0  0  0  0  0  0
   -1.8166  -11.6642    0.8636 C   0  0  0  0  0  0  0  0  0  0  0  0
   -2.4681  -12.7568    1.4497 C   0  0  0  0  0  0  0  0  0  0  0  0
   -2.3762  -13.9880    0.8236 C   0  0  0  0  0  0  0  0  0  0  0  0
   -1.6504  -14.0984   -0.3503 C   0  0  0  0  0  0  0  0  0  0  0  0
   -1.0472  -13.0511   -0.8790 N   0  0  0  0  0  0  0  0  0  0  0  0
   -1.1097  -11.8585   -0.3241 C   0  0  0  0  0  0  0  0  0  0  0  0
   -3.2323  -15.5029    1.5639 Br  0  0  0  0  0  0  0  0  0  0  0  0
    1.4691   -4.9617    0.5188 O   0  0  0  0  0  0  0  0  0  0  0  0
    2.1971   -5.1325    1.7366 C   0  0  0  0  0  0  0  0  0  0  0  0
    1.0048    1.8381    0.0023 H   0  0  0  0  0  0  0  0  0  0  0  0
   -0.5450    1.8219   -0.8730 H   0  0  0  0  0  0  0  0  0  0  0  0
   -0.5280    1.8123    0.9069 H   0  0  0  0  0  0  0  0  0  0  0  0
   -0.0028   -0.4089   -2.1517 H   0  0  0  0  0  0  0  0  0  0  0  0
    0.0117    0.3857    2.9353 H   0  0  0  0  0  0  0  0  0  0  0  0
    0.0586   -1.6213    4.3564 H   0  0  0  0  0  0  0  0  0  0  0  0
    0.1012   -3.8846    3.4551 H   0  0  0  0  0  0  0  0  0  0  0  0
   -0.0744   -5.7644    2.4899 H   0  0  0  0  0  0  0  0  0  0  0  0
   -1.6269   -5.3328    1.7318 H   0  0  0  0  0  0  0  0  0  0  0  0
   -1.2652   -7.6995   -1.1349 H   0  0  0  0  0  0  0  0  0  0  0  0
   -2.2876   -6.4199   -0.4381 H   0  0  0  0  0  0  0  0  0  0  0  0
   -0.5532   -3.2857   -2.4780 H   0  0  0  0  0  0  0  0  0  0  0  0
    1.0635   -3.6515   -1.8197 H   0  0  0  0  0  0  0  0  0  0  0  0
   -2.1551   -5.3050   -2.5906 H   0  0  0  0  0  0  0  0  0  0  0  0
   -0.5634   -4.8642   -3.2543 H   0  0  0  0  0  0  0  0  0  0  0  0
   -1.0648   -6.5713   -3.2039 H   0  0  0  0  0  0  0  0  0  0  0  0
   -0.9396   -8.0964    2.5738 H   0  0  0  0  0  0  0  0  0  0  0  0
   -2.4096   -7.7310    1.6390 H   0  0  0  0  0  0  0  0  0  0  0  0
   -3.0272  -12.6419    2.3665 H   0  0  0  0  0  0  0  0  0  0  0  0
   -1.5766  -15.0577   -0.8410 H   0  0  0  0  0  0  0  0  0  0  0  0
   -0.6058  -11.0244   -0.7897 H   0  0  0  0  0  0  0  0  0  0  0  0
    2.2075   -4.1926    2.2885 H   0  0  0  0  0  0  0  0  0  0  0  0
    1.7187   -5.9033    2.3408 H   0  0  0  0  0  0  0  0  0  0  0  0
    3.2202   -5.4318    1.5094 H   0  0  0  0  0  0  0  0  0  0  0  0
    0.4428   -6.0388   -1.4403 H   0  0  0  0  0  0  0  0  0  0  0  0
  1  2  1  0  0  0  0
  1 34  1  0  0  0  0
  1 35  1  0  0  0  0
  1 36  1  0  0  0  0
  2  6  1  0  0  0  0
  2  3  1  0  0  0  0
  3  4  2  0  0  0  0
  3 37  1  0  0  0  0
  4 19  1  0  0  0  0
  4  5  1  0  0  0  0
  5 10  2  0  0  0  0
  5  6  1  0  0  0  0
  6  7  2  0  0  0  0
  7  8  1  0  0  0  0
  7 38  1  0  0  0  0
  8  9  2  0  0  0  0
  8 39  1  0  0  0  0
  9 10  1  0  0  0  0
  9 40  1  0  0  0  0
 10 11  1  0  0  0  0
 11 17  1  0  0  0  0
 11 12  1  0  0  0  0
 11 32  1  6  0  0  0
 12 13  1  0  0  0  0
 12 41  1  0  0  0  0
 12 42  1  0  0  0  0
 13 14  1  6  0  0  0
 13 15  1  0  0  0  0
 13 21  1  0  0  0  0
 15 16  1  0  0  0  0
 15 43  1  0  0  0  0
 15 44  1  0  0  0  0
 16 17  1  0  0  0  0
 16 20  1  0  0  0  0
 16 58  1  6  0  0  0
 17 18  1  1  0  0  0
 17 19  1  0  0  0  0
 19 45  1  0  0  0  0
 19 46  1  0  0  0  0
 20 47  1  0  0  0  0
 20 48  1  0  0  0  0
 20 49  1  0  0  0  0
 21 22  1  0  0  0  0
 21 50  1  0  0  0  0
 21 51  1  0  0  0  0
 22 23  1  0  0  0  0
 23 24  2  0  0  0  0
 23 25  1  0  0  0  0
 25 30  2  0  0  0  0
 25 26  1  0  0  0  0
 26 27  2  0  0  0  0
 26 52  1  0  0  0  0
 27 28  1  0  0  0  0
 27 31  1  0  0  0  0
 28 29  2  0  0  0  0
 28 53  1  0  0  0  0
 29 30  1  0  0  0  0
 30 54  1  0  0  0  0
 32 33  1  0  0  0  0
 33 55  1  0  0  0  0
 33 56  1  0  0  0  0
 33 57  1  0  0  0  0
M  CHG  1  16   1
M  END
$$$$
