ZINC00897261
 OpenBabel08292219463D

 38 38  0  0  1  0  0  0  0  0999 V2000
   -2.1779    1.0578   -3.6694 C   0  0  0  0  0  0  0  0  0  0  0  0
   -2.8734    1.5517   -2.3993 C   0  0  0  0  0  0  0  0  0  0  0  0
   -4.3009    1.0029   -2.3532 C   0  0  0  0  0  0  0  0  0  0  0  0
   -2.9148    3.0811   -2.4022 C   0  0  0  0  0  0  0  0  0  0  0  0
   -0.7527    1.5927   -1.2315 C   0  0  0  0  0  0  0  0  0  0  0  0
   -0.0127    1.0858    0.0080 C   0  0  1  0  0  0  0  0  0  0  0  0
    0.0021   -0.0041    0.0020 H   0  0  0  0  0  0  0  0  0  0  0  0
    1.4011    1.6074   -0.0027 C   0  0  0  0  0  0  0  0  0  0  0  0
    1.8754    2.3145    1.0866 C   0  0  0  0  0  0  0  0  0  0  0  0
    3.1763    2.7904    1.0696 C   0  0  0  0  0  0  0  0  0  0  0  0
    3.9591    2.5355   -0.0521 C   0  0  0  0  0  0  0  0  0  0  0  0
    3.4123    1.8186   -1.1062 C   0  0  0  0  0  0  0  0  0  0  0  0
    2.1708    1.3787   -1.0484 N   0  0  0  0  0  0  0  0  0  0  0  0
    4.2479    1.5347   -2.3278 C   0  0  0  0  0  0  0  0  0  0  0  0
    4.9396    0.2963   -2.1545 O   0  0  0  0  0  0  0  0  0  0  0  0
    5.2410    2.9829   -0.1143 O   0  0  0  0  0  0  0  0  0  0  0  0
   -0.6816    1.5467    1.1837 O   0  0  0  0  0  0  0  0  0  0  0  0
   -2.1484   -0.0318   -3.6673 H   0  0  0  0  0  0  0  0  0  0  0  0
   -2.7289    1.4047   -4.5436 H   0  0  0  0  0  0  0  0  0  0  0  0
   -1.1609    1.4488   -3.7022 H   0  0  0  0  0  0  0  0  0  0  0  0
   -4.7963    1.3547   -1.4483 H   0  0  0  0  0  0  0  0  0  0  0  0
   -4.8518    1.3498   -3.2274 H   0  0  0  0  0  0  0  0  0  0  0  0
   -4.2714   -0.0867   -2.3511 H   0  0  0  0  0  0  0  0  0  0  0  0
   -1.8978    3.4720   -2.4350 H   0  0  0  0  0  0  0  0  0  0  0  0
   -3.4657    3.4280   -3.2764 H   0  0  0  0  0  0  0  0  0  0  0  0
   -3.4103    3.4329   -1.4973 H   0  0  0  0  0  0  0  0  0  0  0  0
   -0.7675    2.6825   -1.2255 H   0  0  0  0  0  0  0  0  0  0  0  0
   -0.2425    1.2411   -2.1283 H   0  0  0  0  0  0  0  0  0  0  0  0
    1.2394    2.4934    1.9409 H   0  0  0  0  0  0  0  0  0  0  0  0
    3.5734    3.3454    1.9067 H   0  0  0  0  0  0  0  0  0  0  0  0
    3.6016    1.4705   -3.2032 H   0  0  0  0  0  0  0  0  0  0  0  0
    4.9710    2.3382   -2.4682 H   0  0  0  0  0  0  0  0  0  0  0  0
    5.4983    0.0496   -2.9042 H   0  0  0  0  0  0  0  0  0  0  0  0
    5.8925    2.3593    0.2347 H   0  0  0  0  0  0  0  0  0  0  0  0
   -0.7322    2.5097    1.2555 H   0  0  0  0  0  0  0  0  0  0  0  0
   -2.1350    1.0779   -1.2135 N   0  3  0  0  0  0  0  0  0  0  0  0
   -2.1142    0.0514   -1.2153 H   0  0  0  0  0  0  0  0  0  0  0  0
   -2.6087    1.4091   -0.3648 H   0  0  0  0  0  0  0  0  0  0  0  0
  1  2  1  0  0  0  0
  1 18  1  0  0  0  0
  1 19  1  0  0  0  0
  1 20  1  0  0  0  0
  2  3  1  0  0  0  0
  2  4  1  0  0  0  0
  2 36  1  0  0  0  0
  3 21  1  0  0  0  0
  3 22  1  0  0  0  0
  3 23  1  0  0  0  0
  4 24  1  0  0  0  0
  4 25  1  0  0  0  0
  4 26  1  0  0  0  0
  5  6  1  0  0  0  0
  5 27  1  0  0  0  0
  5 28  1  0  0  0  0
  5 36  1  0  0  0  0
  6  7  1  6  0  0  0
  6  8  1  0  0  0  0
  6 17  1  0  0  0  0
  8 13  2  0  0  0  0
  8  9  1  0  0  0  0
  9 10  2  0  0  0  0
  9 29  1  0  0  0  0
 10 11  1  0  0  0  0
 10 30  1  0  0  0  0
 11 12  2  0  0  0  0
 11 16  1  0  0  0  0
 12 13  1  0  0  0  0
 12 14  1  0  0  0  0
 14 15  1  0  0  0  0
 14 31  1  0  0  0  0
 14 32  1  0  0  0  0
 15 33  1  0  0  0  0
 16 34  1  0  0  0  0
 17 35  1  0  0  0  0
 36 37  1  0  0  0  0
 36 38  1  0  0  0  0
M  CHG  1  36   1
M  END
$$$$
