ZINC14879961
 OpenBabel08292219463D

 98 99  0  0  1  0  0  0  0  0999 V2000
   -0.2595    4.2359   -3.0150 C   0  0  0  0  0  0  0  0  0  0  0  0
    0.0609    3.4808   -1.7508 C   0  0  0  0  0  0  0  0  0  0  0  0
    0.4983    4.1668   -0.7081 C   0  0  0  0  0  0  0  0  0  0  0  0
    0.8622    3.5414    0.6070 C   0  0  0  0  0  0  0  0  0  0  0  0
    0.2668    2.1352    0.7040 C   0  0  0  0  0  0  0  0  0  0  0  0
    0.6238    1.3659   -0.5738 C   0  0  2  0  0  0  0  0  0  0  0  0
    1.6967    1.4296   -0.7552 H   0  0  0  0  0  0  0  0  0  0  0  0
   -0.1338    1.9924   -1.7462 C   0  0  0  0  0  0  0  0  0  0  0  0
    0.2414   -0.0036   -0.4321 O   0  0  0  0  0  0  0  0  0  0  0  0
    2.3853    3.4566    0.7241 C   0  0  0  0  0  0  0  0  0  0  0  0
    0.3158    4.4033    1.7470 C   0  0  0  0  0  0  0  0  0  0  0  0
    0.6313    5.5720   -0.8401 C   0  0  0  0  0  0  0  0  0  0  0  0
   -0.4453    6.3272   -1.1831 C   0  0  0  0  0  0  0  0  0  0  0  0
   -0.3358    7.7281   -1.2274 C   0  0  0  0  0  0  0  0  0  0  0  0
   -1.4171    8.4866   -1.5718 C   0  0  0  0  0  0  0  0  0  0  0  0
   -1.3079    9.8834   -1.6160 C   0  0  0  0  0  0  0  0  0  0  0  0
   -2.3987   10.6485   -1.9634 C   0  0  0  0  0  0  0  0  0  0  0  0
   -2.2897   12.0436   -2.0075 C   0  0  0  0  0  0  0  0  0  0  0  0
   -3.3812   12.8093   -2.3553 C   0  0  0  0  0  0  0  0  0  0  0  0
   -3.2722   14.2039   -2.3993 C   0  0  0  0  0  0  0  0  0  0  0  0
   -4.3638   14.9697   -2.7471 C   0  0  0  0  0  0  0  0  0  0  0  0
   -4.2547   16.3648   -2.7912 C   0  0  0  0  0  0  0  0  0  0  0  0
   -5.3455   17.1299   -3.1386 C   0  0  0  0  0  0  0  0  0  0  0  0
   -6.6566   16.4657   -3.4715 C   0  0  0  0  0  0  0  0  0  0  0  0
   -5.2363   18.5267   -3.1828 C   0  0  0  0  0  0  0  0  0  0  0  0
   -6.3176   19.2852   -3.5272 C   0  0  0  0  0  0  0  0  0  0  0  0
   -6.2081   20.6860   -3.5715 C   0  0  0  0  0  0  0  0  0  0  0  0
   -7.2847   21.4413   -3.9145 C   0  0  0  0  0  0  0  0  0  0  0  0
   -8.5958   20.7770   -4.2473 C   0  0  0  0  0  0  0  0  0  0  0  0
   -7.1743   22.8539   -3.9591 C   0  0  0  0  0  0  0  0  0  0  0  0
   -8.2330   23.5966   -4.2964 C   0  0  0  0  0  0  0  0  0  0  0  0
   -8.1157   25.0983   -4.3439 C   0  0  1  0  0  0  0  0  0  0  0  0
   -7.1020   25.3903   -4.0695 H   0  0  0  0  0  0  0  0  0  0  0  0
   -8.4086   25.5764   -5.7359 C   0  0  0  0  0  0  0  0  0  0  0  0
   -9.1351   26.6123   -6.0091 C   0  0  0  0  0  0  0  0  0  0  0  0
   -9.7943   27.4740   -4.9724 C   0  0  1  0  0  0  0  0  0  0  0  0
  -10.8567   27.2349   -4.9262 H   0  0  0  0  0  0  0  0  0  0  0  0
   -9.1591   27.2290   -3.6019 C   0  0  0  0  0  0  0  0  0  0  0  0
   -9.1067   25.7160   -3.3550 C   0  0  0  0  0  0  0  0  0  0  0  0
  -10.4951   25.1110   -3.5726 C   0  0  0  0  0  0  0  0  0  0  0  0
   -8.6440   25.4399   -1.9230 C   0  0  0  0  0  0  0  0  0  0  0  0
   -9.6360   28.8488   -5.3288 O   0  0  0  0  0  0  0  0  0  0  0  0
   -7.8199   24.8026   -6.8873 C   0  0  0  0  0  0  0  0  0  0  0  0
   -0.9785   12.7078   -1.6747 C   0  0  0  0  0  0  0  0  0  0  0  0
    0.9753    8.3923   -0.8945 C   0  0  0  0  0  0  0  0  0  0  0  0
   -0.5135    3.5297   -3.8055 H   0  0  0  0  0  0  0  0  0  0  0  0
   -1.1044    4.9010   -2.8367 H   0  0  0  0  0  0  0  0  0  0  0  0
    0.6077    4.8231   -3.3172 H   0  0  0  0  0  0  0  0  0  0  0  0
   -0.8168    2.2019    0.8005 H   0  0  0  0  0  0  0  0  0  0  0  0
    0.6833    1.6203    1.5697 H   0  0  0  0  0  0  0  0  0  0  0  0
    0.2400    1.5762   -2.6817 H   0  0  0  0  0  0  0  0  0  0  0  0
   -1.1964    1.7693   -1.6504 H   0  0  0  0  0  0  0  0  0  0  0  0
    0.4254   -0.5460   -1.2113 H   0  0  0  0  0  0  0  0  0  0  0  0
    2.8105    4.4587    0.6671 H   0  0  0  0  0  0  0  0  0  0  0  0
    2.6516    3.0027    1.6786 H   0  0  0  0  0  0  0  0  0  0  0  0
    2.7790    2.8481   -0.0900 H   0  0  0  0  0  0  0  0  0  0  0  0
   -0.7737    4.4003    1.7147 H   0  0  0  0  0  0  0  0  0  0  0  0
    0.6522    3.9989    2.7016 H   0  0  0  0  0  0  0  0  0  0  0  0
    0.6798    5.4249    1.6367 H   0  0  0  0  0  0  0  0  0  0  0  0
    1.5881    6.0424   -0.6681 H   0  0  0  0  0  0  0  0  0  0  0  0
   -1.3849    5.8512   -1.4216 H   0  0  0  0  0  0  0  0  0  0  0  0
   -2.3567    8.0105   -1.8103 H   0  0  0  0  0  0  0  0  0  0  0  0
   -0.3683   10.3594   -1.3774 H   0  0  0  0  0  0  0  0  0  0  0  0
   -3.3383   10.1725   -2.2020 H   0  0  0  0  0  0  0  0  0  0  0  0
   -4.3208   12.3333   -2.5938 H   0  0  0  0  0  0  0  0  0  0  0  0
   -2.3326   14.6800   -2.1608 H   0  0  0  0  0  0  0  0  0  0  0  0
   -5.3034   14.4936   -2.9856 H   0  0  0  0  0  0  0  0  0  0  0  0
   -3.3151   16.8408   -2.5526 H   0  0  0  0  0  0  0  0  0  0  0  0
   -7.2503   16.3585   -2.5637 H   0  0  0  0  0  0  0  0  0  0  0  0
   -7.2009   17.0766   -4.1916 H   0  0  0  0  0  0  0  0  0  0  0  0
   -6.4669   15.4815   -3.8999 H   0  0  0  0  0  0  0  0  0  0  0  0
   -4.2967   19.0027   -2.9443 H   0  0  0  0  0  0  0  0  0  0  0  0
   -7.2572   18.8092   -3.7658 H   0  0  0  0  0  0  0  0  0  0  0  0
   -5.2685   21.1621   -3.3330 H   0  0  0  0  0  0  0  0  0  0  0  0
   -9.1895   20.6698   -3.3395 H   0  0  0  0  0  0  0  0  0  0  0  0
   -9.1401   21.3880   -4.9674 H   0  0  0  0  0  0  0  0  0  0  0  0
   -8.4061   19.7929   -4.6757 H   0  0  0  0  0  0  0  0  0  0  0  0
   -6.2346   23.3299   -3.7206 H   0  0  0  0  0  0  0  0  0  0  0  0
   -9.1727   23.1206   -4.5350 H   0  0  0  0  0  0  0  0  0  0  0  0
   -9.2752   26.8728   -7.0478 H   0  0  0  0  0  0  0  0  0  0  0  0
   -9.7612   27.7058   -2.8285 H   0  0  0  0  0  0  0  0  0  0  0  0
   -8.1488   27.6378   -3.5880 H   0  0  0  0  0  0  0  0  0  0  0  0
  -10.4506   24.0334   -3.4147 H   0  0  0  0  0  0  0  0  0  0  0  0
  -11.1986   25.5528   -2.8669 H   0  0  0  0  0  0  0  0  0  0  0  0
  -10.8251   25.3157   -4.5910 H   0  0  0  0  0  0  0  0  0  0  0  0
   -7.6581   25.8784   -1.7688 H   0  0  0  0  0  0  0  0  0  0  0  0
   -9.3518   25.8810   -1.2211 H   0  0  0  0  0  0  0  0  0  0  0  0
   -8.5926   24.3635   -1.7590 H   0  0  0  0  0  0  0  0  0  0  0  0
  -10.0155   29.0785   -6.1881 H   0  0  0  0  0  0  0  0  0  0  0  0
   -8.5153   24.0209   -7.1931 H   0  0  0  0  0  0  0  0  0  0  0  0
   -7.6405   25.4772   -7.7245 H   0  0  0  0  0  0  0  0  0  0  0  0
   -6.8780   24.3500   -6.5771 H   0  0  0  0  0  0  0  0  0  0  0  0
   -0.3848   12.8151   -2.5825 H   0  0  0  0  0  0  0  0  0  0  0  0
   -1.1682   13.6920   -1.2463 H   0  0  0  0  0  0  0  0  0  0  0  0
   -0.4342   12.0969   -0.9546 H   0  0  0  0  0  0  0  0  0  0  0  0
    1.5690    8.4995   -1.8023 H   0  0  0  0  0  0  0  0  0  0  0  0
    0.7856    9.3765   -0.4661 H   0  0  0  0  0  0  0  0  0  0  0  0
    1.5196    7.7814   -0.1744 H   0  0  0  0  0  0  0  0  0  0  0  0
  1  2  1  0  0  0  0
  1 46  1  0  0  0  0
  1 47  1  0  0  0  0
  1 48  1  0  0  0  0
  2  8  1  0  0  0  0
  2  3  2  0  0  0  0
  3  4  1  0  0  0  0
  3 12  1  0  0  0  0
  4  5  1  0  0  0  0
  4 10  1  0  0  0  0
  4 11  1  0  0  0  0
  5  6  1  0  0  0  0
  5 49  1  0  0  0  0
  5 50  1  0  0  0  0
  6  7  1  6  0  0  0
  6  8  1  0  0  0  0
  6  9  1  0  0  0  0
  8 51  1  0  0  0  0
  8 52  1  0  0  0  0
  9 53  1  0  0  0  0
 10 54  1  0  0  0  0
 10 55  1  0  0  0  0
 10 56  1  0  0  0  0
 11 57  1  0  0  0  0
 11 58  1  0  0  0  0
 11 59  1  0  0  0  0
 12 13  2  0  0  0  0
 12 60  1  0  0  0  0
 13 14  1  0  0  0  0
 13 61  1  0  0  0  0
 14 15  2  0  0  0  0
 14 45  1  0  0  0  0
 15 16  1  0  0  0  0
 15 62  1  0  0  0  0
 16 17  2  0  0  0  0
 16 63  1  0  0  0  0
 17 18  1  0  0  0  0
 17 64  1  0  0  0  0
 18 19  2  0  0  0  0
 18 44  1  0  0  0  0
 19 20  1  0  0  0  0
 19 65  1  0  0  0  0
 20 21  2  0  0  0  0
 20 66  1  0  0  0  0
 21 22  1  0  0  0  0
 21 67  1  0  0  0  0
 22 23  2  0  0  0  0
 22 68  1  0  0  0  0
 23 24  1  0  0  0  0
 23 25  1  0  0  0  0
 24 69  1  0  0  0  0
 24 70  1  0  0  0  0
 24 71  1  0  0  0  0
 25 26  2  0  0  0  0
 25 72  1  0  0  0  0
 26 27  1  0  0  0  0
 26 73  1  0  0  0  0
 27 28  2  0  0  0  0
 27 74  1  0  0  0  0
 28 29  1  0  0  0  0
 28 30  1  0  0  0  0
 29 75  1  0  0  0  0
 29 76  1  0  0  0  0
 29 77  1  0  0  0  0
 30 31  2  0  0  0  0
 30 78  1  0  0  0  0
 31 32  1  0  0  0  0
 31 79  1  0  0  0  0
 32 33  1  1  0  0  0
 32 39  1  0  0  0  0
 32 34  1  0  0  0  0
 34 35  2  0  0  0  0
 34 43  1  0  0  0  0
 35 36  1  0  0  0  0
 35 80  1  0  0  0  0
 36 37  1  1  0  0  0
 36 38  1  0  0  0  0
 36 42  1  0  0  0  0
 38 39  1  0  0  0  0
 38 81  1  0  0  0  0
 38 82  1  0  0  0  0
 39 40  1  0  0  0  0
 39 41  1  0  0  0  0
 40 83  1  0  0  0  0
 40 84  1  0  0  0  0
 40 85  1  0  0  0  0
 41 86  1  0  0  0  0
 41 87  1  0  0  0  0
 41 88  1  0  0  0  0
 42 89  1  0  0  0  0
 43 90  1  0  0  0  0
 43 91  1  0  0  0  0
 43 92  1  0  0  0  0
 44 93  1  0  0  0  0
 44 94  1  0  0  0  0
 44 95  1  0  0  0  0
 45 96  1  0  0  0  0
 45 97  1  0  0  0  0
 45 98  1  0  0  0  0
M  END
$$$$
