ZINC01530579
 OpenBabel08292219463D

 57 60  0  0  1  0  0  0  0  0999 V2000
   -0.0173    1.4248    0.0099 C   0  0  0  0  0  0  0  0  0  0  0  0
    0.0021   -0.0041    0.0020 O   0  0  0  0  0  0  0  0  0  0  0  0
    0.6062   -0.6075   -1.0564 C   0  0  0  0  0  0  0  0  0  0  0  0
    1.1729    0.1590   -2.0621 C   0  0  0  0  0  0  0  0  0  0  0  0
    1.7870   -0.4560   -3.1371 C   0  0  0  0  0  0  0  0  0  0  0  0
    1.8372   -1.8356   -3.2121 C   0  0  0  0  0  0  0  0  0  0  0  0
    1.2734   -2.6062   -2.2124 C   0  0  0  0  0  0  0  0  0  0  0  0
    0.6617   -1.9961   -1.1290 C   0  0  0  0  0  0  0  0  0  0  0  0
    0.1119   -2.7526   -0.1417 O   0  0  0  0  0  0  0  0  0  0  0  0
    0.2064   -4.1715   -0.2827 C   0  0  0  0  0  0  0  0  0  0  0  0
   -0.4630   -4.8487    0.9148 C   0  0  0  0  0  0  0  0  0  0  0  0
   -1.9017   -4.5521    0.9040 N   0  3  0  0  0  0  0  0  0  0  0  0
   -2.5444   -5.2023    2.0538 C   0  0  0  0  0  0  0  0  0  0  0  0
   -4.0428   -4.8933    2.0425 C   0  0  1  0  0  0  0  0  0  0  0  0
   -4.4843   -5.2687    1.1193 H   0  0  0  0  0  0  0  0  0  0  0  0
   -4.7123   -5.5706    3.2401 C   0  0  0  0  0  0  0  0  0  0  0  0
   -6.1265   -5.3798    3.1660 O   0  0  0  0  0  0  0  0  0  0  0  0
   -6.8751   -5.9229    4.1611 C   0  0  0  0  0  0  0  0  0  0  0  0
   -6.2645   -6.6191    5.1897 C   0  0  0  0  0  0  0  0  0  0  0  0
   -7.0273   -7.1730    6.2045 C   0  0  0  0  0  0  0  0  0  0  0  0
   -8.3996   -7.0397    6.2043 C   0  0  0  0  0  0  0  0  0  0  0  0
   -9.0343   -6.3440    5.1793 C   0  0  0  0  0  0  0  0  0  0  0  0
   -8.2644   -5.7764    4.1541 C   0  0  0  0  0  0  0  0  0  0  0  0
   -9.2097   -5.1108    3.2397 C   0  0  0  0  0  0  0  0  0  0  0  0
   -9.0542   -4.3908    2.0573 C   0  0  0  0  0  0  0  0  0  0  0  0
  -10.1619   -3.8790    1.4166 C   0  0  0  0  0  0  0  0  0  0  0  0
  -11.4283   -4.0780    1.9446 C   0  0  0  0  0  0  0  0  0  0  0  0
  -11.5964   -4.7880    3.1139 C   0  0  0  0  0  0  0  0  0  0  0  0
  -10.4904   -5.3134    3.7750 C   0  0  0  0  0  0  0  0  0  0  0  0
  -10.3660   -6.0629    4.9316 N   0  0  0  0  0  0  0  0  0  0  0  0
  -11.1055   -6.3405    5.4947 H   0  0  0  0  0  0  0  0  0  0  0  0
   -4.2384   -3.4801    2.1238 O   0  0  0  0  0  0  0  0  0  0  0  0
    1.0053    1.8021    0.0021 H   0  0  0  0  0  0  0  0  0  0  0  0
   -0.5445    1.7859   -0.8732 H   0  0  0  0  0  0  0  0  0  0  0  0
   -0.5275    1.7763    0.9067 H   0  0  0  0  0  0  0  0  0  0  0  0
    1.1344    1.2368   -2.0063 H   0  0  0  0  0  0  0  0  0  0  0  0
    2.2283    0.1425   -3.9203 H   0  0  0  0  0  0  0  0  0  0  0  0
    2.3175   -2.3124   -4.0537 H   0  0  0  0  0  0  0  0  0  0  0  0
    1.3136   -3.6837   -2.2735 H   0  0  0  0  0  0  0  0  0  0  0  0
   -0.2940   -4.4795   -1.2008 H   0  0  0  0  0  0  0  0  0  0  0  0
    1.2558   -4.4633   -0.3254 H   0  0  0  0  0  0  0  0  0  0  0  0
   -0.3138   -5.9267    0.8528 H   0  0  0  0  0  0  0  0  0  0  0  0
   -0.0216   -4.4734    1.8380 H   0  0  0  0  0  0  0  0  0  0  0  0
   -2.0398   -3.5542    0.9614 H   0  0  0  0  0  0  0  0  0  0  0  0
   -2.3952   -6.2803    1.9918 H   0  0  0  0  0  0  0  0  0  0  0  0
   -2.1030   -4.8270    2.9770 H   0  0  0  0  0  0  0  0  0  0  0  0
   -4.4883   -6.6372    3.2262 H   0  0  0  0  0  0  0  0  0  0  0  0
   -4.3343   -5.1319    4.1636 H   0  0  0  0  0  0  0  0  0  0  0  0
   -5.1904   -6.7310    5.2009 H   0  0  0  0  0  0  0  0  0  0  0  0
   -6.5426   -7.7147    7.0033 H   0  0  0  0  0  0  0  0  0  0  0  0
   -8.9834   -7.4765    7.0010 H   0  0  0  0  0  0  0  0  0  0  0  0
   -8.0687   -4.2338    1.6443 H   0  0  0  0  0  0  0  0  0  0  0  0
  -10.0429   -3.3206    0.4999 H   0  0  0  0  0  0  0  0  0  0  0  0
  -12.2904   -3.6728    1.4356 H   0  0  0  0  0  0  0  0  0  0  0  0
  -12.5872   -4.9370    3.5170 H   0  0  0  0  0  0  0  0  0  0  0  0
   -3.8700   -3.0774    2.9221 H   0  0  0  0  0  0  0  0  0  0  0  0
   -2.3103   -4.8995    0.0494 H   0  0  0  0  0  0  0  0  0  0  0  0
  1  2  1  0  0  0  0
  1 33  1  0  0  0  0
  1 34  1  0  0  0  0
  1 35  1  0  0  0  0
  2  3  1  0  0  0  0
  3  8  2  0  0  0  0
  3  4  1  0  0  0  0
  4  5  2  0  0  0  0
  4 36  1  0  0  0  0
  5  6  1  0  0  0  0
  5 37  1  0  0  0  0
  6  7  2  0  0  0  0
  6 38  1  0  0  0  0
  7  8  1  0  0  0  0
  7 39  1  0  0  0  0
  8  9  1  0  0  0  0
  9 10  1  0  0  0  0
 10 11  1  0  0  0  0
 10 40  1  0  0  0  0
 10 41  1  0  0  0  0
 11 12  1  0  0  0  0
 11 42  1  0  0  0  0
 11 43  1  0  0  0  0
 12 13  1  0  0  0  0
 12 44  1  0  0  0  0
 12 57  1  0  0  0  0
 13 14  1  0  0  0  0
 13 45  1  0  0  0  0
 13 46  1  0  0  0  0
 14 15  1  6  0  0  0
 14 16  1  0  0  0  0
 14 32  1  0  0  0  0
 16 17  1  0  0  0  0
 16 47  1  0  0  0  0
 16 48  1  0  0  0  0
 17 18  1  0  0  0  0
 18 23  2  0  0  0  0
 18 19  1  0  0  0  0
 19 20  2  0  0  0  0
 19 49  1  0  0  0  0
 20 21  1  0  0  0  0
 20 50  1  0  0  0  0
 21 22  2  0  0  0  0
 21 51  1  0  0  0  0
 22 30  1  0  0  0  0
 22 23  1  0  0  0  0
 23 24  1  0  0  0  0
 24 29  2  0  0  0  0
 24 25  1  0  0  0  0
 25 26  2  0  0  0  0
 25 52  1  0  0  0  0
 26 27  1  0  0  0  0
 26 53  1  0  0  0  0
 27 28  2  0  0  0  0
 27 54  1  0  0  0  0
 28 29  1  0  0  0  0
 28 55  1  0  0  0  0
 29 30  1  0  0  0  0
 30 31  1  0  0  0  0
 32 56  1  0  0  0  0
M  CHG  1  12   1
M  END
$$$$
