ZINC12503070
 OpenBabel08292219463D

 35 36  0  0  1  0  0  0  0  0999 V2000
   -4.3810    7.5429   -2.1598 C   0  0  0  0  0  0  0  0  0  0  0  0
   -3.6295    6.4252   -2.8859 C   0  0  0  0  0  0  0  0  0  0  0  0
   -2.1413    6.7740   -2.9568 C   0  0  0  0  0  0  0  0  0  0  0  0
   -1.5873    6.9305   -1.5397 C   0  0  0  0  0  0  0  0  0  0  0  0
   -2.3396    8.0437   -0.8087 C   0  0  0  0  0  0  0  0  0  0  0  0
   -3.8276    7.6931   -0.7414 C   0  0  0  0  0  0  0  0  0  0  0  0
   -0.1918    7.2506   -1.6004 O   0  0  0  0  0  0  0  0  0  0  0  0
    0.5198    6.1913   -0.9284 C   0  0  0  0  0  0  0  0  0  0  0  0
   -0.4824    5.0109   -0.9754 C   0  0  2  0  0  0  0  0  0  0  0  0
   -0.4305    4.4920   -1.9326 H   0  0  0  0  0  0  0  0  0  0  0  0
   -1.7497    5.6947   -0.8245 O   0  0  0  0  0  0  0  0  0  0  0  0
   -0.2416    4.0416    0.1836 C   0  0  0  0  0  0  0  0  0  0  0  0
   -0.9367    1.6909   -0.0521 C   0  0  0  0  0  0  0  0  0  0  0  0
    0.3753    1.2797   -0.0549 N   0  0  0  0  0  0  0  0  0  0  0  0
   -1.9448    0.7740   -0.2344 N   0  0  0  0  0  0  0  0  0  0  0  0
   -4.2506    8.4797   -2.7015 H   0  0  0  0  0  0  0  0  0  0  0  0
   -5.4415    7.2958   -2.1117 H   0  0  0  0  0  0  0  0  0  0  0  0
   -4.0260    6.3172   -3.8954 H   0  0  0  0  0  0  0  0  0  0  0  0
   -3.7579    5.4889   -2.3430 H   0  0  0  0  0  0  0  0  0  0  0  0
   -2.0127    7.7088   -3.5027 H   0  0  0  0  0  0  0  0  0  0  0  0
   -1.6050    5.9762   -3.4708 H   0  0  0  0  0  0  0  0  0  0  0  0
   -1.9444    8.1466    0.2018 H   0  0  0  0  0  0  0  0  0  0  0  0
   -2.2115    8.9829   -1.3467 H   0  0  0  0  0  0  0  0  0  0  0  0
   -4.3651    8.4878   -0.2240 H   0  0  0  0  0  0  0  0  0  0  0  0
   -3.9560    6.7556   -0.2002 H   0  0  0  0  0  0  0  0  0  0  0  0
    0.7401    6.4689    0.1024 H   0  0  0  0  0  0  0  0  0  0  0  0
    1.4350    5.9413   -1.4651 H   0  0  0  0  0  0  0  0  0  0  0  0
   -0.3448    4.5734    1.1295 H   0  0  0  0  0  0  0  0  0  0  0  0
    0.7636    3.6270    0.1077 H   0  0  0  0  0  0  0  0  0  0  0  0
    0.5952    0.3613   -0.2764 H   0  0  0  0  0  0  0  0  0  0  0  0
    1.0812    1.9091    0.1606 H   0  0  0  0  0  0  0  0  0  0  0  0
   -1.7304   -0.1630   -0.3651 H   0  0  0  0  0  0  0  0  0  0  0  0
   -2.8705    1.0641   -0.2324 H   0  0  0  0  0  0  0  0  0  0  0  0
   -1.2930    2.9681    0.1308 N   0  0  0  0  0  4  0  0  0  0  0  0
   -2.2842    3.2148    0.2351 H   0  0  0  0  0  0  0  0  0  0  0  0
  1  6  1  0  0  0  0
  1  2  1  0  0  0  0
  1 16  1  0  0  0  0
  1 17  1  0  0  0  0
  2  3  1  0  0  0  0
  2 18  1  0  0  0  0
  2 19  1  0  0  0  0
  3  4  1  0  0  0  0
  3 20  1  0  0  0  0
  3 21  1  0  0  0  0
  4 11  1  0  0  0  0
  4  5  1  0  0  0  0
  4  7  1  0  0  0  0
  5  6  1  0  0  0  0
  5 22  1  0  0  0  0
  5 23  1  0  0  0  0
  6 24  1  0  0  0  0
  6 25  1  0  0  0  0
  7  8  1  0  0  0  0
  8  9  1  0  0  0  0
  8 26  1  0  0  0  0
  8 27  1  0  0  0  0
  9 10  1  6  0  0  0
  9 11  1  0  0  0  0
  9 12  1  0  0  0  0
 12 28  1  0  0  0  0
 12 29  1  0  0  0  0
 12 34  1  0  0  0  0
 13 14  1  0  0  0  0
 13 15  1  0  0  0  0
 13 34  2  0  0  0  0
 14 30  1  0  0  0  0
 14 31  1  0  0  0  0
 15 32  1  0  0  0  0
 15 33  1  0  0  0  0
 34 35  1  0  0  0  0
M  END
$$$$
