ZINC00001850
 OpenBabel08292219463D

 48 50  0  0  0  0  0  0  0  0999 V2000
    5.3319    7.9193   -0.5966 C   0  0  0  0  0  0  0  0  0  0  0  0
    4.0625    9.6873    0.4642 C   0  0  0  0  0  0  0  0  0  0  0  0
    3.2365    7.4116    0.5052 C   0  0  0  0  0  0  0  0  0  0  0  0
    3.6413    5.9668    0.8040 C   0  0  0  0  0  0  0  0  0  0  0  0
    2.4155    5.0901    0.7981 C   0  0  0  0  0  0  0  0  0  0  0  0
    2.3672    4.0125    0.0055 C   0  0  0  0  0  0  0  0  0  0  0  0
    1.1569    3.1579    0.0081 C   0  0  0  0  0  0  0  0  0  0  0  0
   -0.0781    3.8238    0.0214 C   0  0  0  0  0  0  0  0  0  0  0  0
   -1.2581    3.1167    0.0288 C   0  0  0  0  0  0  0  0  0  0  0  0
   -1.2218    1.7335    0.0173 C   0  0  0  0  0  0  0  0  0  0  0  0
   -0.0126    1.0758    0.0080 C   0  0  0  0  0  0  0  0  0  0  0  0
    1.1949    1.7757    0.0002 C   0  0  0  0  0  0  0  0  0  0  0  0
    2.4306    0.9154   -0.0183 C   0  0  0  0  0  0  0  0  0  0  0  0
    3.6316    1.5988    0.2345 O   0  0  0  0  0  0  0  0  0  0  0  0
    4.1378    2.4622   -0.6686 C   0  0  0  0  0  0  0  0  0  0  0  0
    3.5240    3.6915   -0.8614 C   0  0  0  0  0  0  0  0  0  0  0  0
    4.0020    4.5874   -1.8085 C   0  0  0  0  0  0  0  0  0  0  0  0
    5.1192    4.2497   -2.5514 C   0  0  0  0  0  0  0  0  0  0  0  0
    5.7466    3.0334   -2.3482 C   0  0  0  0  0  0  0  0  0  0  0  0
    5.2630    2.1367   -1.4128 C   0  0  0  0  0  0  0  0  0  0  0  0
    5.6541    5.2087   -3.5834 C   0  0  0  0  0  0  0  0  0  0  0  0
    6.6667    6.1227   -2.9429 C   0  0  0  0  0  0  0  0  0  0  0  0
    6.9273    6.0071   -1.7687 O   0  0  0  0  0  0  0  0  0  0  0  0
    4.8107    8.0537   -1.5445 H   0  0  0  0  0  0  0  0  0  0  0  0
    6.2082    8.5670   -0.5689 H   0  0  0  0  0  0  0  0  0  0  0  0
    5.6451    6.8799   -0.4984 H   0  0  0  0  0  0  0  0  0  0  0  0
    3.4528    9.9332    1.3336 H   0  0  0  0  0  0  0  0  0  0  0  0
    4.9656   10.2975    0.4695 H   0  0  0  0  0  0  0  0  0  0  0  0
    3.4952    9.8857   -0.4452 H   0  0  0  0  0  0  0  0  0  0  0  0
    2.7597    7.4603   -0.4738 H   0  0  0  0  0  0  0  0  0  0  0  0
    2.5382    7.7583    1.2670 H   0  0  0  0  0  0  0  0  0  0  0  0
    4.1181    5.9181    1.7830 H   0  0  0  0  0  0  0  0  0  0  0  0
    4.3396    5.6201    0.0422 H   0  0  0  0  0  0  0  0  0  0  0  0
    1.5761    5.3313    1.4335 H   0  0  0  0  0  0  0  0  0  0  0  0
   -0.1025    4.9035    0.0256 H   0  0  0  0  0  0  0  0  0  0  0  0
   -2.2046    3.6367    0.0393 H   0  0  0  0  0  0  0  0  0  0  0  0
   -2.1429    1.1695    0.0198 H   0  0  0  0  0  0  0  0  0  0  0  0
    0.0021   -0.0041    0.0020 H   0  0  0  0  0  0  0  0  0  0  0  0
    2.3159    0.1326    0.7315 H   0  0  0  0  0  0  0  0  0  0  0  0
    2.5061    0.4430   -0.9977 H   0  0  0  0  0  0  0  0  0  0  0  0
    3.5084    5.5355   -1.9629 H   0  0  0  0  0  0  0  0  0  0  0  0
    6.6234    2.7815   -2.9264 H   0  0  0  0  0  0  0  0  0  0  0  0
    5.7585    1.1890   -1.2619 H   0  0  0  0  0  0  0  0  0  0  0  0
    6.1287    4.6482   -4.3888 H   0  0  0  0  0  0  0  0  0  0  0  0
    4.8339    5.8019   -3.9879 H   0  0  0  0  0  0  0  0  0  0  0  0
    4.4455    8.2615    0.5355 N   0  3  0  0  0  0  0  0  0  0  0  0
    4.9483    8.0949    1.4150 H   0  0  0  0  0  0  0  0  0  0  0  0
    7.2791    7.0651   -3.6767 O   0  0  0  0  0  1  0  0  0  0  0  0
  1 24  1  0  0  0  0
  1 25  1  0  0  0  0
  1 26  1  0  0  0  0
  1 46  1  0  0  0  0
  2 27  1  0  0  0  0
  2 28  1  0  0  0  0
  2 29  1  0  0  0  0
  2 46  1  0  0  0  0
  3  4  1  0  0  0  0
  3 30  1  0  0  0  0
  3 31  1  0  0  0  0
  3 46  1  0  0  0  0
  4  5  1  0  0  0  0
  4 32  1  0  0  0  0
  4 33  1  0  0  0  0
  5  6  2  0  0  0  0
  5 34  1  0  0  0  0
  6 16  1  0  0  0  0
  6  7  1  0  0  0  0
  7 12  2  0  0  0  0
  7  8  1  0  0  0  0
  8  9  2  0  0  0  0
  8 35  1  0  0  0  0
  9 10  1  0  0  0  0
  9 36  1  0  0  0  0
 10 11  2  0  0  0  0
 10 37  1  0  0  0  0
 11 12  1  0  0  0  0
 11 38  1  0  0  0  0
 12 13  1  0  0  0  0
 13 14  1  0  0  0  0
 13 39  1  0  0  0  0
 13 40  1  0  0  0  0
 14 15  1  0  0  0  0
 15 20  2  0  0  0  0
 15 16  1  0  0  0  0
 16 17  2  0  0  0  0
 17 18  1  0  0  0  0
 17 41  1  0  0  0  0
 18 19  2  0  0  0  0
 18 21  1  0  0  0  0
 19 20  1  0  0  0  0
 19 42  1  0  0  0  0
 20 43  1  0  0  0  0
 21 22  1  0  0  0  0
 21 44  1  0  0  0  0
 21 45  1  0  0  0  0
 22 23  2  0  0  0  0
 22 48  1  0  0  0  0
 46 47  1  0  0  0  0
M  CHG  1  46   1
M  END
$$$$
