ZINC11726211
 OpenBabel08292219463D

 45 48  0  0  1  0  0  0  0  0999 V2000
   -0.1618    0.9094    2.4177 C   0  0  0  0  0  0  0  0  0  0  0  0
   -0.0127    1.0858    0.0080 C   0  0  0  0  0  0  0  0  0  0  0  0
   -0.7547    1.5939   -1.2335 C   0  0  0  0  0  0  0  0  0  0  0  0
   -0.8943    3.0976   -1.1200 C   0  0  0  0  0  0  0  0  0  0  0  0
   -0.5624    3.9038   -2.1405 C   0  0  0  0  0  0  0  0  0  0  0  0
   -0.7024    5.3809   -2.0214 C   0  0  0  0  0  0  0  0  0  0  0  0
   -1.9343    5.9528   -1.7210 C   0  0  0  0  0  0  0  0  0  0  0  0
   -2.0325    7.3271   -1.6112 C   0  0  0  0  0  0  0  0  0  0  0  0
   -0.9099    8.1135   -1.7998 C   0  0  0  0  0  0  0  0  0  0  0  0
    0.3105    7.5390   -2.1002 C   0  0  0  0  0  0  0  0  0  0  0  0
    0.4193    6.1603   -2.2149 C   0  0  0  0  0  0  0  0  0  0  0  0
    1.7454    5.5559   -2.5536 C   0  0  0  0  0  0  0  0  0  0  0  0
    1.8151    5.0141   -3.9624 C   0  0  0  0  0  0  0  0  0  0  0  0
    0.9399    3.8596   -4.1762 N   0  0  0  0  0  0  0  0  0  0  0  0
   -0.0424    3.3455   -3.4100 C   0  0  0  0  0  0  0  0  0  0  0  0
   -0.5154    2.2430   -3.9797 N   0  0  0  0  0  0  0  0  0  0  0  0
    0.1107    2.0286   -5.1276 C   0  0  0  0  0  0  0  0  0  0  0  0
    1.0349    3.0407   -5.3010 C   0  0  0  0  0  0  0  0  0  0  0  0
    1.9048    3.2122   -6.4008 C   0  0  0  0  0  0  0  0  0  0  0  0
    2.6732    4.1524   -6.4265 O   0  0  0  0  0  0  0  0  0  0  0  0
   -1.4212    3.6611    0.1830 C   0  0  0  0  0  0  0  0  0  0  0  0
   -0.6368    3.0217    1.3345 C   0  0  0  0  0  0  0  0  0  0  0  0
    0.9004    1.1367    2.5085 H   0  0  0  0  0  0  0  0  0  0  0  0
   -0.6888    1.2784    3.2975 H   0  0  0  0  0  0  0  0  0  0  0  0
   -0.2971   -0.1693    2.3389 H   0  0  0  0  0  0  0  0  0  0  0  0
    0.0021   -0.0041    0.0020 H   0  0  0  0  0  0  0  0  0  0  0  0
    1.0098    1.4633    0.0003 H   0  0  0  0  0  0  0  0  0  0  0  0
   -0.1864    1.3440   -2.1294 H   0  0  0  0  0  0  0  0  0  0  0  0
   -1.7425    1.1359   -1.2845 H   0  0  0  0  0  0  0  0  0  0  0  0
   -2.8045    5.3300   -1.5754 H   0  0  0  0  0  0  0  0  0  0  0  0
   -2.9822    7.7856   -1.3786 H   0  0  0  0  0  0  0  0  0  0  0  0
   -0.9882    9.1870   -1.7118 H   0  0  0  0  0  0  0  0  0  0  0  0
    1.1799    8.1631   -2.2454 H   0  0  0  0  0  0  0  0  0  0  0  0
    2.5171    6.3162   -2.4329 H   0  0  0  0  0  0  0  0  0  0  0  0
    1.9463    4.7415   -1.8575 H   0  0  0  0  0  0  0  0  0  0  0  0
    1.5293    5.8044   -4.6566 H   0  0  0  0  0  0  0  0  0  0  0  0
    2.8428    4.7192   -4.1743 H   0  0  0  0  0  0  0  0  0  0  0  0
   -0.0693    1.2084   -5.8068 H   0  0  0  0  0  0  0  0  0  0  0  0
    1.8866    2.5073   -7.2188 H   0  0  0  0  0  0  0  0  0  0  0  0
   -1.2819    4.7421    0.1991 H   0  0  0  0  0  0  0  0  0  0  0  0
   -2.4805    3.4249    0.2841 H   0  0  0  0  0  0  0  0  0  0  0  0
    0.4032    3.3449    1.2895 H   0  0  0  0  0  0  0  0  0  0  0  0
   -1.0721    3.3286    2.2855 H   0  0  0  0  0  0  0  0  0  0  0  0
   -0.7316    1.5500    1.2152 N   0  3  2  0  0  0  0  0  0  0  0  0
   -1.7207    1.2866    1.1345 H   0  0  0  0  0  0  0  0  0  0  0  0
  1 23  1  0  0  0  0
  1 24  1  0  0  0  0
  1 25  1  0  0  0  0
  1 44  1  0  0  0  0
  2  3  1  0  0  0  0
  2 26  1  0  0  0  0
  2 27  1  0  0  0  0
  2 44  1  0  0  0  0
  3  4  1  0  0  0  0
  3 28  1  0  0  0  0
  3 29  1  0  0  0  0
  4  5  2  0  0  0  0
  4 21  1  0  0  0  0
  5 15  1  0  0  0  0
  5  6  1  0  0  0  0
  6 11  2  0  0  0  0
  6  7  1  0  0  0  0
  7  8  2  0  0  0  0
  7 30  1  0  0  0  0
  8  9  1  0  0  0  0
  8 31  1  0  0  0  0
  9 10  2  0  0  0  0
  9 32  1  0  0  0  0
 10 11  1  0  0  0  0
 10 33  1  0  0  0  0
 11 12  1  0  0  0  0
 12 13  1  0  0  0  0
 12 34  1  0  0  0  0
 12 35  1  0  0  0  0
 13 14  1  0  0  0  0
 13 36  1  0  0  0  0
 13 37  1  0  0  0  0
 14 18  1  0  0  0  0
 14 15  1  0  0  0  0
 15 16  2  0  0  0  0
 16 17  1  0  0  0  0
 17 18  2  0  0  0  0
 17 38  1  0  0  0  0
 18 19  1  0  0  0  0
 19 20  2  0  0  0  0
 19 39  1  0  0  0  0
 21 22  1  0  0  0  0
 21 40  1  0  0  0  0
 21 41  1  0  0  0  0
 22 42  1  0  0  0  0
 22 43  1  0  0  0  0
 22 44  1  0  0  0  0
 44 45  1  6  0  0  0
M  CHG  1  44   1
M  END
$$$$
