ZINC00403566
 OpenBabel08292219463D

 47 50  0  0  1  0  0  0  0  0999 V2000
   -0.9873    1.1089    2.4119 C   0  0  0  0  0  0  0  0  0  0  0  0
    0.0496    1.7992    1.8120 C   0  0  0  0  0  0  0  0  0  0  0  0
    1.1359    1.1073    1.3165 C   0  0  0  0  0  0  0  0  0  0  0  0
    1.1964   -0.2748    1.4200 C   0  0  0  0  0  0  0  0  0  0  0  0
    0.1690   -0.9640    2.0284 C   0  0  0  0  0  0  0  0  0  0  0  0
   -0.9270   -0.2649    2.5182 C   0  0  0  0  0  0  0  0  0  0  0  0
    0.1854   -2.4592    2.2050 C   0  0  0  0  0  0  0  0  0  0  0  0
    1.1656   -3.1189    1.2363 C   0  0  0  0  0  0  0  0  0  0  0  0
    2.4347   -2.3625    1.2979 N   0  0  0  0  0  0  0  0  0  0  0  0
    2.3939   -0.9828    0.8478 C   0  0  2  0  0  0  0  0  0  0  0  0
    2.2523   -1.0099   -0.2326 H   0  0  0  0  0  0  0  0  0  0  0  0
    3.6670   -0.1986    1.0873 C   0  0  0  0  0  0  0  0  0  0  0  0
    4.4661   -0.8093    2.1559 N   0  0  0  0  0  0  0  0  0  0  0  0
    4.8136   -2.2335    2.0003 C   0  0  0  0  0  0  0  0  0  0  0  0
    3.5265   -2.9829    1.7660 C   0  0  0  0  0  0  0  0  0  0  0  0
    3.4781   -4.1706    2.0064 O   0  0  0  0  0  0  0  0  0  0  0  0
    4.8646   -0.1003    3.2306 C   0  0  0  0  0  0  0  0  0  0  0  0
    5.4585   -0.6503    4.1337 O   0  0  0  0  0  0  0  0  0  0  0  0
    4.5722    1.3760    3.3100 C   0  0  0  0  0  0  0  0  0  0  0  0
    5.6316    2.1488    2.5217 C   0  0  0  0  0  0  0  0  0  0  0  0
    5.3347    3.6476    2.6024 C   0  0  0  0  0  0  0  0  0  0  0  0
    5.3606    4.0946    4.0654 C   0  0  0  0  0  0  0  0  0  0  0  0
    4.3013    3.3217    4.8536 C   0  0  0  0  0  0  0  0  0  0  0  0
    4.5981    1.8230    4.7730 C   0  0  0  0  0  0  0  0  0  0  0  0
   -1.8408    1.6447    2.8004 H   0  0  0  0  0  0  0  0  0  0  0  0
    0.0094    2.8754    1.7312 H   0  0  0  0  0  0  0  0  0  0  0  0
    1.9446    1.6455    0.8445 H   0  0  0  0  0  0  0  0  0  0  0  0
   -1.7388   -0.8018    2.9863 H   0  0  0  0  0  0  0  0  0  0  0  0
    0.4804   -2.6949    3.2276 H   0  0  0  0  0  0  0  0  0  0  0  0
   -0.8152   -2.8515    2.0234 H   0  0  0  0  0  0  0  0  0  0  0  0
    1.3374   -4.1539    1.5320 H   0  0  0  0  0  0  0  0  0  0  0  0
    0.7638   -3.0849    0.2236 H   0  0  0  0  0  0  0  0  0  0  0  0
    4.2533   -0.1782    0.1686 H   0  0  0  0  0  0  0  0  0  0  0  0
    3.4108    0.8224    1.3705 H   0  0  0  0  0  0  0  0  0  0  0  0
    5.4788   -2.3622    1.1465 H   0  0  0  0  0  0  0  0  0  0  0  0
    5.2963   -2.5991    2.9066 H   0  0  0  0  0  0  0  0  0  0  0  0
    3.5876    1.5746    2.8867 H   0  0  0  0  0  0  0  0  0  0  0  0
    6.6162    1.9501    2.9450 H   0  0  0  0  0  0  0  0  0  0  0  0
    5.6131    1.8303    1.4795 H   0  0  0  0  0  0  0  0  0  0  0  0
    6.0894    4.1982    2.0408 H   0  0  0  0  0  0  0  0  0  0  0  0
    4.3501    3.8462    2.1791 H   0  0  0  0  0  0  0  0  0  0  0  0
    6.3452    3.8959    4.4887 H   0  0  0  0  0  0  0  0  0  0  0  0
    5.1491    5.1624    4.1229 H   0  0  0  0  0  0  0  0  0  0  0  0
    4.3197    3.6402    5.8959 H   0  0  0  0  0  0  0  0  0  0  0  0
    3.3166    3.5204    4.4304 H   0  0  0  0  0  0  0  0  0  0  0  0
    3.8434    1.2724    5.3346 H   0  0  0  0  0  0  0  0  0  0  0  0
    5.5827    1.6243    5.1963 H   0  0  0  0  0  0  0  0  0  0  0  0
  1  6  2  0  0  0  0
  1  2  1  0  0  0  0
  1 25  1  0  0  0  0
  2  3  2  0  0  0  0
  2 26  1  0  0  0  0
  3  4  1  0  0  0  0
  3 27  1  0  0  0  0
  4 10  1  0  0  0  0
  4  5  2  0  0  0  0
  5  6  1  0  0  0  0
  5  7  1  0  0  0  0
  6 28  1  0  0  0  0
  7  8  1  0  0  0  0
  7 29  1  0  0  0  0
  7 30  1  0  0  0  0
  8  9  1  0  0  0  0
  8 31  1  0  0  0  0
  8 32  1  0  0  0  0
  9 15  1  0  0  0  0
  9 10  1  0  0  0  0
 10 11  1  6  0  0  0
 10 12  1  0  0  0  0
 12 13  1  0  0  0  0
 12 33  1  0  0  0  0
 12 34  1  0  0  0  0
 13 14  1  0  0  0  0
 13 17  1  0  0  0  0
 14 15  1  0  0  0  0
 14 35  1  0  0  0  0
 14 36  1  0  0  0  0
 15 16  2  0  0  0  0
 17 18  2  0  0  0  0
 17 19  1  0  0  0  0
 19 24  1  0  0  0  0
 19 20  1  0  0  0  0
 19 37  1  0  0  0  0
 20 21  1  0  0  0  0
 20 38  1  0  0  0  0
 20 39  1  0  0  0  0
 21 22  1  0  0  0  0
 21 40  1  0  0  0  0
 21 41  1  0  0  0  0
 22 23  1  0  0  0  0
 22 42  1  0  0  0  0
 22 43  1  0  0  0  0
 23 24  1  0  0  0  0
 23 44  1  0  0  0  0
 23 45  1  0  0  0  0
 24 46  1  0  0  0  0
 24 47  1  0  0  0  0
M  END
$$$$
