ZINC19632603
 OpenBabel08292219463D

 55 59  0  0  1  0  0  0  0  0999 V2000
   -0.0167    1.3768    0.0096 C   0  0  0  0  0  0  0  0  0  0  0  0
    1.1692    2.0911    0.0021 C   0  0  0  0  0  0  0  0  0  0  0  0
    2.3811    1.4289   -0.0130 C   0  0  0  0  0  0  0  0  0  0  0  0
    2.4100    0.0426   -0.0206 C   0  0  0  0  0  0  0  0  0  0  0  0
    1.2139   -0.6778   -0.0131 C   0  0  0  0  0  0  0  0  0  0  0  0
    0.0021   -0.0041    0.0020 C   0  0  0  0  0  0  0  0  0  0  0  0
    1.5570   -2.0277   -0.0228 N   0  0  0  0  0  0  0  0  0  0  0  0
    0.9345   -2.7717   -0.0209 H   0  0  0  0  0  0  0  0  0  0  0  0
    2.8999   -2.1240   -0.0357 C   0  0  0  0  0  0  0  0  0  0  0  0
    3.5277   -3.1663   -0.0469 O   0  0  0  0  0  0  0  0  0  0  0  0
    3.4427   -0.8919   -0.0347 N   0  0  0  0  0  0  0  0  0  0  0  0
    4.8754   -0.5862   -0.0465 C   0  0  0  0  0  0  0  0  0  0  0  0
    5.3875   -0.4868    1.3919 C   0  0  0  0  0  0  0  0  0  0  0  0
    6.8838   -0.1676    1.3796 C   0  0  0  0  0  0  0  0  0  0  0  0
    7.3754   -0.0722    2.7606 N   0  3  1  0  0  0  0  0  0  0  0  0
    7.2545   -1.3814    3.4130 C   0  0  0  0  0  0  0  0  0  0  0  0
    7.6893   -1.2687    4.8758 C   0  0  0  0  0  0  0  0  0  0  0  0
    9.1460   -0.7998    4.9349 C   0  0  1  0  0  0  0  0  0  0  0  0
    9.2745    0.5304    4.1871 C   0  0  0  0  0  0  0  0  0  0  0  0
    8.7809    0.3510    2.7499 C   0  0  0  0  0  0  0  0  0  0  0  0
    9.5454   -0.6167    6.3325 N   0  0  0  0  0  0  0  0  0  0  0  0
   10.5850   -1.2834    6.9776 C   0  0  0  0  0  0  0  0  0  0  0  0
   11.4982   -2.2432    6.5685 C   0  0  0  0  0  0  0  0  0  0  0  0
   12.4350   -2.7258    7.4611 C   0  0  0  0  0  0  0  0  0  0  0  0
   12.4657   -2.2551    8.7638 C   0  0  0  0  0  0  0  0  0  0  0  0
   11.5591   -1.2988    9.1803 C   0  0  0  0  0  0  0  0  0  0  0  0
   10.6158   -0.8083    8.2902 C   0  0  0  0  0  0  0  0  0  0  0  0
    9.5943    0.1320    8.4021 N   0  0  0  0  0  0  0  0  0  0  0  0
    9.3704    0.6344    9.2010 H   0  0  0  0  0  0  0  0  0  0  0  0
    8.9742    0.2287    7.2110 C   0  0  0  0  0  0  0  0  0  0  0  0
    8.0375    0.9660    6.9664 O   0  0  0  0  0  0  0  0  0  0  0  0
   13.6474   -2.8693    9.8774 Cl  0  0  0  0  0  0  0  0  0  0  0  0
   -0.9604    1.9017    0.0259 H   0  0  0  0  0  0  0  0  0  0  0  0
    1.1466    3.1709    0.0077 H   0  0  0  0  0  0  0  0  0  0  0  0
    3.3041    1.9895   -0.0191 H   0  0  0  0  0  0  0  0  0  0  0  0
   -0.9251   -0.5579    0.0079 H   0  0  0  0  0  0  0  0  0  0  0  0
    5.4116   -1.3783   -0.5691 H   0  0  0  0  0  0  0  0  0  0  0  0
    5.0403    0.3625   -0.5572 H   0  0  0  0  0  0  0  0  0  0  0  0
    4.8513    0.3053    1.9145 H   0  0  0  0  0  0  0  0  0  0  0  0
    5.2225   -1.4355    1.9027 H   0  0  0  0  0  0  0  0  0  0  0  0
    7.4200   -0.9597    0.8570 H   0  0  0  0  0  0  0  0  0  0  0  0
    7.0487    0.7811    0.8688 H   0  0  0  0  0  0  0  0  0  0  0  0
    6.2179   -1.7153    3.3673 H   0  0  0  0  0  0  0  0  0  0  0  0
    7.8905   -2.1027    2.8999 H   0  0  0  0  0  0  0  0  0  0  0  0
    7.0537   -0.5478    5.3900 H   0  0  0  0  0  0  0  0  0  0  0  0
    7.6005   -2.2423    5.3580 H   0  0  0  0  0  0  0  0  0  0  0  0
    9.7882   -1.5452    4.4658 H   0  0  0  0  0  0  0  0  0  0  0  0
    8.6718    1.2887    4.6870 H   0  0  0  0  0  0  0  0  0  0  0  0
   10.3187    0.8429    4.1770 H   0  0  0  0  0  0  0  0  0  0  0  0
    9.3844   -0.4072    2.2509 H   0  0  0  0  0  0  0  0  0  0  0  0
    8.8712    1.2962    2.2145 H   0  0  0  0  0  0  0  0  0  0  0  0
   11.4767   -2.6129    5.5540 H   0  0  0  0  0  0  0  0  0  0  0  0
   13.1463   -3.4734    7.1425 H   0  0  0  0  0  0  0  0  0  0  0  0
   11.5856   -0.9339   10.1964 H   0  0  0  0  0  0  0  0  0  0  0  0
    6.8250    0.6055    3.2664 H   0  0  0  0  0  0  0  0  0  0  0  0
  1  6  2  0  0  0  0
  1  2  1  0  0  0  0
  1 33  1  0  0  0  0
  2  3  2  0  0  0  0
  2 34  1  0  0  0  0
  3  4  1  0  0  0  0
  3 35  1  0  0  0  0
  4 11  1  0  0  0  0
  4  5  2  0  0  0  0
  5  6  1  0  0  0  0
  5  7  1  0  0  0  0
  6 36  1  0  0  0  0
  7  8  1  0  0  0  0
  7  9  1  0  0  0  0
  9 10  2  0  0  0  0
  9 11  1  0  0  0  0
 11 12  1  0  0  0  0
 12 13  1  0  0  0  0
 12 37  1  0  0  0  0
 12 38  1  0  0  0  0
 13 14  1  0  0  0  0
 13 39  1  0  0  0  0
 13 40  1  0  0  0  0
 14 15  1  0  0  0  0
 14 41  1  0  0  0  0
 14 42  1  0  0  0  0
 15 20  1  0  0  0  0
 15 16  1  0  0  0  0
 15 55  1  1  0  0  0
 16 17  1  0  0  0  0
 16 43  1  0  0  0  0
 16 44  1  0  0  0  0
 17 18  1  0  0  0  0
 17 45  1  0  0  0  0
 17 46  1  0  0  0  0
 18 19  1  0  0  0  0
 18 21  1  0  0  0  0
 18 47  1  6  0  0  0
 19 20  1  0  0  0  0
 19 48  1  0  0  0  0
 19 49  1  0  0  0  0
 20 50  1  0  0  0  0
 20 51  1  0  0  0  0
 21 30  1  0  0  0  0
 21 22  1  0  0  0  0
 22 27  2  0  0  0  0
 22 23  1  0  0  0  0
 23 24  2  0  0  0  0
 23 52  1  0  0  0  0
 24 25  1  0  0  0  0
 24 53  1  0  0  0  0
 25 26  2  0  0  0  0
 25 32  1  0  0  0  0
 26 27  1  0  0  0  0
 26 54  1  0  0  0  0
 27 28  1  0  0  0  0
 28 29  1  0  0  0  0
 28 30  1  0  0  0  0
 30 31  2  0  0  0  0
M  CHG  1  15   1
M  END
$$$$
