ZINC04097344
 OpenBabel08292219463D

 87 93  0  0  1  0  0  0  0  0999 V2000
   -2.1330    0.0091    0.1658 C   0  0  0  0  0  0  0  0  0  0  0  0
   -2.8145   -0.2535   -1.1786 C   0  0  0  0  0  0  0  0  0  0  0  0
   -1.8280    0.0273   -2.3139 C   0  0  2  0  0  0  0  0  0  0  0  0
   -1.4386    1.0405   -2.2146 H   0  0  0  0  0  0  0  0  0  0  0  0
   -2.5441   -0.1144   -3.6585 C   0  0  0  0  0  0  0  0  0  0  0  0
   -0.7211   -0.9300   -2.2469 N   0  0  0  0  0  0  0  0  0  0  0  0
    0.5853   -0.6319   -2.0878 C   0  0  0  0  0  0  0  0  0  0  0  0
    1.0615    0.4833   -1.9723 O   0  0  0  0  0  0  0  0  0  0  0  0
    1.2665   -1.7953   -2.0796 N   0  0  0  0  0  0  0  0  0  0  0  0
    0.3672   -2.8235   -2.2359 C   0  0  0  0  0  0  0  0  0  0  0  0
   -0.8224   -2.3248   -2.3420 N   0  0  0  0  0  0  0  0  0  0  0  0
    2.6560   -1.9332   -1.9366 C   0  0  0  0  0  0  0  0  0  0  0  0
    3.4540   -0.8064   -1.7921 C   0  0  0  0  0  0  0  0  0  0  0  0
    4.8201   -0.9420   -1.6465 C   0  0  0  0  0  0  0  0  0  0  0  0
    5.3974   -2.2053   -1.6553 C   0  0  0  0  0  0  0  0  0  0  0  0
    4.5992   -3.3321   -1.8052 C   0  0  0  0  0  0  0  0  0  0  0  0
    3.2325   -3.1960   -1.9454 C   0  0  0  0  0  0  0  0  0  0  0  0
    6.7818   -2.3427   -1.5127 N   0  0  0  0  0  0  0  0  0  0  0  0
    7.1102   -3.2163   -0.3776 C   0  0  0  0  0  0  0  0  0  0  0  0
    8.6273   -3.4046   -0.3044 C   0  0  0  0  0  0  0  0  0  0  0  0
    9.2747   -2.0932   -0.1605 N   0  0  0  0  0  0  0  0  0  0  0  0
    8.9463   -1.2195   -1.2957 C   0  0  0  0  0  0  0  0  0  0  0  0
    7.4292   -1.0313   -1.3688 C   0  0  0  0  0  0  0  0  0  0  0  0
   10.6600   -2.2307   -0.0179 C   0  0  0  0  0  0  0  0  0  0  0  0
   11.5167   -1.5832   -0.8983 C   0  0  0  0  0  0  0  0  0  0  0  0
   12.8838   -1.7142   -0.7528 C   0  0  0  0  0  0  0  0  0  0  0  0
   13.4010   -2.5023    0.2646 C   0  0  0  0  0  0  0  0  0  0  0  0
   12.5459   -3.1543    1.1407 C   0  0  0  0  0  0  0  0  0  0  0  0
   11.1786   -3.0192    1.0007 C   0  0  0  0  0  0  0  0  0  0  0  0
   14.7473   -2.6356    0.4035 O   0  0  0  0  0  0  0  0  0  0  0  0
   15.5686   -1.9362   -0.5337 C   0  0  0  0  0  0  0  0  0  0  0  0
   17.0420   -2.2049   -0.2208 C   0  0  1  0  0  0  0  0  0  0  0  0
   17.2469   -3.2755   -0.2284 H   0  0  0  0  0  0  0  0  0  0  0  0
   17.9591   -1.4610   -1.2235 C   0  0  0  0  0  0  0  0  0  0  0  0
   19.1698   -1.2948   -0.4471 O   0  0  0  0  0  0  0  0  0  0  0  0
   18.7156   -1.0584    0.8961 C   0  0  2  0  0  0  0  0  0  0  0  0
   17.4074   -1.6251    1.0478 O   0  0  0  0  0  0  0  0  0  0  0  0
   18.6574    0.4473    1.1616 C   0  0  0  0  0  0  0  0  0  0  0  0
   18.2548    0.6832    2.5503 N   0  0  0  0  0  0  0  0  0  0  0  0
   18.9336    1.3789    3.4789 C   0  0  0  0  0  0  0  0  0  0  0  0
   18.2409    1.3579    4.5886 N   0  0  0  0  0  0  0  0  0  0  0  0
   17.1193    0.6617    4.4082 C   0  0  0  0  0  0  0  0  0  0  0  0
   17.0800    0.2326    3.1742 N   0  0  0  0  0  0  0  0  0  0  0  0
   19.6639   -1.7052    1.8725 C   0  0  0  0  0  0  0  0  0  0  0  0
   19.1780   -2.5575    2.8465 C   0  0  0  0  0  0  0  0  0  0  0  0
   20.0471   -3.1514    3.7420 C   0  0  0  0  0  0  0  0  0  0  0  0
   21.4044   -2.8932    3.6641 C   0  0  0  0  0  0  0  0  0  0  0  0
   21.8911   -2.0406    2.6899 C   0  0  0  0  0  0  0  0  0  0  0  0
   21.0211   -1.4504    1.7904 C   0  0  0  0  0  0  0  0  0  0  0  0
   21.6319   -0.3853    0.5632 Cl  0  0  0  0  0  0  0  0  0  0  0  0
   22.4959   -3.6389    4.7894 Cl  0  0  0  0  0  0  0  0  0  0  0  0
   -2.8358   -0.1909    0.9746 H   0  0  0  0  0  0  0  0  0  0  0  0
   -1.2664   -0.6441    0.2676 H   0  0  0  0  0  0  0  0  0  0  0  0
   -1.8113    1.0495    0.2130 H   0  0  0  0  0  0  0  0  0  0  0  0
   -3.6811    0.3997   -1.2804 H   0  0  0  0  0  0  0  0  0  0  0  0
   -3.1362   -1.2939   -1.2258 H   0  0  0  0  0  0  0  0  0  0  0  0
   -3.3677    0.5979   -3.7084 H   0  0  0  0  0  0  0  0  0  0  0  0
   -1.8413    0.0856   -4.4673 H   0  0  0  0  0  0  0  0  0  0  0  0
   -2.9335   -1.1276   -3.7578 H   0  0  0  0  0  0  0  0  0  0  0  0
    0.6135   -3.8745   -2.2692 H   0  0  0  0  0  0  0  0  0  0  0  0
    3.0055    0.1760   -1.7894 H   0  0  0  0  0  0  0  0  0  0  0  0
    5.4404   -0.0656   -1.5300 H   0  0  0  0  0  0  0  0  0  0  0  0
    5.0477   -4.3145   -1.8124 H   0  0  0  0  0  0  0  0  0  0  0  0
    2.6119   -4.0721   -2.0623 H   0  0  0  0  0  0  0  0  0  0  0  0
    6.7553   -2.7604    0.5467 H   0  0  0  0  0  0  0  0  0  0  0  0
    6.6297   -4.1852   -0.5134 H   0  0  0  0  0  0  0  0  0  0  0  0
    8.9786   -3.8853   -1.2175 H   0  0  0  0  0  0  0  0  0  0  0  0
    8.8753   -4.0287    0.5541 H   0  0  0  0  0  0  0  0  0  0  0  0
    9.3011   -1.6754   -2.2200 H   0  0  0  0  0  0  0  0  0  0  0  0
    9.4268   -0.2507   -1.1598 H   0  0  0  0  0  0  0  0  0  0  0  0
    7.1812   -0.4071   -2.2273 H   0  0  0  0  0  0  0  0  0  0  0  0
    7.0776   -0.5504   -0.4560 H   0  0  0  0  0  0  0  0  0  0  0  0
   11.1140   -0.9737   -1.6938 H   0  0  0  0  0  0  0  0  0  0  0  0
   13.5504   -1.2065   -1.4343 H   0  0  0  0  0  0  0  0  0  0  0  0
   12.9495   -3.7676    1.9328 H   0  0  0  0  0  0  0  0  0  0  0  0
   10.5130   -3.5264    1.6834 H   0  0  0  0  0  0  0  0  0  0  0  0
   15.3427   -2.2809   -1.5428 H   0  0  0  0  0  0  0  0  0  0  0  0
   15.3713   -0.8666   -0.4624 H   0  0  0  0  0  0  0  0  0  0  0  0
   18.1437   -2.0694   -2.1088 H   0  0  0  0  0  0  0  0  0  0  0  0
   17.5353   -0.4948   -1.4972 H   0  0  0  0  0  0  0  0  0  0  0  0
   19.6407    0.8849    0.9891 H   0  0  0  0  0  0  0  0  0  0  0  0
   17.9323    0.9069    0.4900 H   0  0  0  0  0  0  0  0  0  0  0  0
   19.8850    1.8691    3.3343 H   0  0  0  0  0  0  0  0  0  0  0  0
   16.3631    0.4844    5.1587 H   0  0  0  0  0  0  0  0  0  0  0  0
   18.1187   -2.7590    2.9078 H   0  0  0  0  0  0  0  0  0  0  0  0
   19.6669   -3.8174    4.5024 H   0  0  0  0  0  0  0  0  0  0  0  0
   22.9503   -1.8385    2.6291 H   0  0  0  0  0  0  0  0  0  0  0  0
  1  2  1  0  0  0  0
  1 52  1  0  0  0  0
  1 53  1  0  0  0  0
  1 54  1  0  0  0  0
  2  3  1  0  0  0  0
  2 55  1  0  0  0  0
  2 56  1  0  0  0  0
  3  4  1  1  0  0  0
  3  5  1  0  0  0  0
  3  6  1  0  0  0  0
  5 57  1  0  0  0  0
  5 58  1  0  0  0  0
  5 59  1  0  0  0  0
  6 11  1  0  0  0  0
  6  7  1  0  0  0  0
  7  8  2  0  0  0  0
  7  9  1  0  0  0  0
  9 10  1  0  0  0  0
  9 12  1  0  0  0  0
 10 11  2  0  0  0  0
 10 60  1  0  0  0  0
 12 17  2  0  0  0  0
 12 13  1  0  0  0  0
 13 14  2  0  0  0  0
 13 61  1  0  0  0  0
 14 15  1  0  0  0  0
 14 62  1  0  0  0  0
 15 16  2  0  0  0  0
 15 18  1  0  0  0  0
 16 17  1  0  0  0  0
 16 63  1  0  0  0  0
 17 64  1  0  0  0  0
 18 23  1  0  0  0  0
 18 19  1  0  0  0  0
 19 20  1  0  0  0  0
 19 65  1  0  0  0  0
 19 66  1  0  0  0  0
 20 21  1  0  0  0  0
 20 67  1  0  0  0  0
 20 68  1  0  0  0  0
 21 22  1  0  0  0  0
 21 24  1  0  0  0  0
 22 23  1  0  0  0  0
 22 69  1  0  0  0  0
 22 70  1  0  0  0  0
 23 71  1  0  0  0  0
 23 72  1  0  0  0  0
 24 29  2  0  0  0  0
 24 25  1  0  0  0  0
 25 26  2  0  0  0  0
 25 73  1  0  0  0  0
 26 27  1  0  0  0  0
 26 74  1  0  0  0  0
 27 28  2  0  0  0  0
 27 30  1  0  0  0  0
 28 29  1  0  0  0  0
 28 75  1  0  0  0  0
 29 76  1  0  0  0  0
 30 31  1  0  0  0  0
 31 32  1  0  0  0  0
 31 77  1  0  0  0  0
 31 78  1  0  0  0  0
 32 33  1  6  0  0  0
 32 37  1  0  0  0  0
 32 34  1  0  0  0  0
 34 35  1  0  0  0  0
 34 79  1  0  0  0  0
 34 80  1  0  0  0  0
 35 36  1  0  0  0  0
 36 37  1  0  0  0  0
 36 38  1  1  0  0  0
 36 44  1  0  0  0  0
 38 39  1  0  0  0  0
 38 81  1  0  0  0  0
 38 82  1  0  0  0  0
 39 43  1  0  0  0  0
 39 40  1  0  0  0  0
 40 41  2  0  0  0  0
 40 83  1  0  0  0  0
 41 42  1  0  0  0  0
 42 43  2  0  0  0  0
 42 84  1  0  0  0  0
 44 49  2  0  0  0  0
 44 45  1  0  0  0  0
 45 46  2  0  0  0  0
 45 85  1  0  0  0  0
 46 47  1  0  0  0  0
 46 86  1  0  0  0  0
 47 48  2  0  0  0  0
 47 51  1  0  0  0  0
 48 49  1  0  0  0  0
 48 87  1  0  0  0  0
 49 50  1  0  0  0  0
M  END
$$$$
