ZINC00896887
 OpenBabel08292219463D

 25 26  0  0  1  0  0  0  0  0999 V2000
   -0.0178    1.4608    0.0101 C   0  0  0  0  0  0  0  0  0  0  0  0
    0.0021   -0.0041    0.0020 N   0  0  0  0  0  0  0  0  0  0  0  0
    0.0069   -0.7223   -1.1277 C   0  0  0  0  0  0  0  0  0  0  0  0
   -0.0039   -0.2653   -2.2505 O   0  0  0  0  0  0  0  0  0  0  0  0
    0.0284   -2.1951   -0.7812 C   0  0  0  0  0  0  0  0  0  0  0  0
    0.0353   -2.2035    0.7611 C   0  0  1  0  0  0  0  0  0  0  0  0
    0.9400   -2.6805    1.1380 H   0  0  0  0  0  0  0  0  0  0  0  0
    0.0226   -0.7345    1.1238 C   0  0  0  0  0  0  0  0  0  0  0  0
    0.0276   -0.2896    2.2514 O   0  0  0  0  0  0  0  0  0  0  0  0
   -1.1907   -2.8999    1.2931 C   0  0  0  0  0  0  0  0  0  0  0  0
   -2.4487   -2.4204    0.9797 C   0  0  0  0  0  0  0  0  0  0  0  0
   -3.5733   -3.0592    1.4678 C   0  0  0  0  0  0  0  0  0  0  0  0
   -3.4397   -4.1778    2.2689 C   0  0  0  0  0  0  0  0  0  0  0  0
   -2.1817   -4.6579    2.5816 C   0  0  0  0  0  0  0  0  0  0  0  0
   -1.0573   -4.0216    2.0900 C   0  0  0  0  0  0  0  0  0  0  0  0
    1.0048    1.8381    0.0023 H   0  0  0  0  0  0  0  0  0  0  0  0
   -0.5450    1.8219   -0.8730 H   0  0  0  0  0  0  0  0  0  0  0  0
   -0.5280    1.8123    0.9069 H   0  0  0  0  0  0  0  0  0  0  0  0
   -0.8631   -2.6922   -1.1635 H   0  0  0  0  0  0  0  0  0  0  0  0
    0.9296   -2.6679   -1.1714 H   0  0  0  0  0  0  0  0  0  0  0  0
   -2.5530   -1.5465    0.3538 H   0  0  0  0  0  0  0  0  0  0  0  0
   -4.5561   -2.6841    1.2235 H   0  0  0  0  0  0  0  0  0  0  0  0
   -4.3183   -4.6765    2.6508 H   0  0  0  0  0  0  0  0  0  0  0  0
   -2.0774   -5.5316    3.2078 H   0  0  0  0  0  0  0  0  0  0  0  0
   -0.0745   -4.3988    2.3312 H   0  0  0  0  0  0  0  0  0  0  0  0
  1  2  1  0  0  0  0
  1 16  1  0  0  0  0
  1 17  1  0  0  0  0
  1 18  1  0  0  0  0
  2  8  1  0  0  0  0
  2  3  1  0  0  0  0
  3  4  2  0  0  0  0
  3  5  1  0  0  0  0
  5  6  1  0  0  0  0
  5 19  1  0  0  0  0
  5 20  1  0  0  0  0
  6  7  1  1  0  0  0
  6  8  1  0  0  0  0
  6 10  1  0  0  0  0
  8  9  2  0  0  0  0
 10 15  2  0  0  0  0
 10 11  1  0  0  0  0
 11 12  2  0  0  0  0
 11 21  1  0  0  0  0
 12 13  1  0  0  0  0
 12 22  1  0  0  0  0
 13 14  2  0  0  0  0
 13 23  1  0  0  0  0
 14 15  1  0  0  0  0
 14 24  1  0  0  0  0
 15 25  1  0  0  0  0
M  END
$$$$
