ZINC00967787
 OpenBabel08292219463D

 48 51  0  0  1  0  0  0  0  0999 V2000
   -0.0034    1.5030    0.0089 C   0  0  0  0  0  0  0  0  0  0  0  0
    0.0168   -0.0039    0.0006 C   0  0  0  0  0  0  0  0  0  0  0  0
   -0.0920   -0.6994   -1.2063 C   0  0  0  0  0  0  0  0  0  0  0  0
   -0.0732   -2.1059   -1.2196 C   0  0  0  0  0  0  0  0  0  0  0  0
    0.0552   -2.7941   -0.0188 C   0  0  0  0  0  0  0  0  0  0  0  0
    0.1626   -2.0910    1.1701 C   0  0  0  0  0  0  0  0  0  0  0  0
    0.1472   -0.6935    1.1723 C   0  0  0  0  0  0  0  0  0  0  0  0
    0.2581   -0.0217    2.3392 F   0  0  0  0  0  0  0  0  0  0  0  0
    0.2912   -2.7823    2.3722 N   0  0  0  0  0  0  0  0  0  0  0  0
   -0.8946   -3.1811    3.1460 C   0  0  0  0  0  0  0  0  0  0  0  0
   -0.7033   -2.7267    4.5968 C   0  0  0  0  0  0  0  0  0  0  0  0
    0.5642   -3.2594    5.1124 N   0  3  0  0  0  0  0  0  0  0  0  0
    1.6896   -2.6827    4.3661 C   0  0  2  0  0  0  0  0  0  0  0  0
    1.6376   -1.5950    4.4132 H   0  0  0  0  0  0  0  0  0  0  0  0
    1.6166   -3.1399    2.9011 C   0  0  0  0  0  0  0  0  0  0  0  0
    3.0071   -3.1576    4.9821 C   0  0  0  0  0  0  0  0  0  0  0  0
   -0.1815   -2.7926   -2.4110 N   0  0  0  0  0  0  0  0  0  0  0  0
   -0.3075   -2.1780   -3.5931 C   0  0  0  0  0  0  0  0  0  0  0  0
   -0.3380   -0.8012   -3.7066 C   0  0  0  0  0  0  0  0  0  0  0  0
   -0.2286    0.0162   -2.4859 C   0  0  0  0  0  0  0  0  0  0  0  0
   -0.2503    1.2339   -2.5331 O   0  0  0  0  0  0  0  0  0  0  0  0
   -0.4764   -0.1644   -5.0202 C   0  0  0  0  0  0  0  0  0  0  0  0
   -0.5661   -0.8535   -6.0280 O   0  0  0  0  0  0  0  0  0  0  0  0
   -0.5023    1.0562   -5.1090 O   0  0  0  0  0  1  0  0  0  0  0  0
   -0.1571   -4.2571   -2.3811 C   0  0  0  0  0  0  0  0  0  0  0  0
    0.0507   -4.9874   -3.7093 C   0  0  0  0  0  0  0  0  0  0  0  0
   -1.3242   -4.9966   -3.0383 C   0  0  0  0  0  0  0  0  0  0  0  0
    0.9949    1.8810   -0.2117 H   0  0  0  0  0  0  0  0  0  0  0  0
   -0.7026    1.8611   -0.7468 H   0  0  0  0  0  0  0  0  0  0  0  0
   -0.3171    1.8568    0.9910 H   0  0  0  0  0  0  0  0  0  0  0  0
    0.0709   -3.8740   -0.0126 H   0  0  0  0  0  0  0  0  0  0  0  0
   -1.7819   -2.7061    2.7274 H   0  0  0  0  0  0  0  0  0  0  0  0
   -1.0058   -4.2650    3.1133 H   0  0  0  0  0  0  0  0  0  0  0  0
   -0.6829   -1.6377    4.6369 H   0  0  0  0  0  0  0  0  0  0  0  0
   -1.5278   -3.0976    5.2056 H   0  0  0  0  0  0  0  0  0  0  0  0
    0.6541   -3.0237    6.0894 H   0  0  0  0  0  0  0  0  0  0  0  0
    1.7546   -4.2196    2.8441 H   0  0  0  0  0  0  0  0  0  0  0  0
    2.3903   -2.6376    2.3205 H   0  0  0  0  0  0  0  0  0  0  0  0
    3.0592   -4.2453    4.9348 H   0  0  0  0  0  0  0  0  0  0  0  0
    3.8424   -2.7294    4.4281 H   0  0  0  0  0  0  0  0  0  0  0  0
    3.0584   -2.8363    6.0225 H   0  0  0  0  0  0  0  0  0  0  0  0
   -0.3877   -2.7777   -4.4877 H   0  0  0  0  0  0  0  0  0  0  0  0
    0.2815   -4.7018   -1.4878 H   0  0  0  0  0  0  0  0  0  0  0  0
    0.1693   -4.3783   -4.6055 H   0  0  0  0  0  0  0  0  0  0  0  0
    0.6264   -5.9128   -3.6901 H   0  0  0  0  0  0  0  0  0  0  0  0
   -1.6531   -5.9281   -2.5775 H   0  0  0  0  0  0  0  0  0  0  0  0
   -2.1102   -4.3936   -3.4928 H   0  0  0  0  0  0  0  0  0  0  0  0
    0.5727   -4.2631    5.0089 H   0  0  0  0  0  0  0  0  0  0  0  0
  1  2  1  0  0  0  0
  1 28  1  0  0  0  0
  1 29  1  0  0  0  0
  1 30  1  0  0  0  0
  2  7  2  0  0  0  0
  2  3  1  0  0  0  0
  3 20  1  0  0  0  0
  3  4  2  0  0  0  0
  4  5  1  0  0  0  0
  4 17  1  0  0  0  0
  5  6  2  0  0  0  0
  5 31  1  0  0  0  0
  6  7  1  0  0  0  0
  6  9  1  0  0  0  0
  7  8  1  0  0  0  0
  9 15  1  0  0  0  0
  9 10  1  0  0  0  0
 10 11  1  0  0  0  0
 10 32  1  0  0  0  0
 10 33  1  0  0  0  0
 11 12  1  0  0  0  0
 11 34  1  0  0  0  0
 11 35  1  0  0  0  0
 12 13  1  0  0  0  0
 12 36  1  0  0  0  0
 12 48  1  0  0  0  0
 13 14  1  1  0  0  0
 13 15  1  0  0  0  0
 13 16  1  0  0  0  0
 15 37  1  0  0  0  0
 15 38  1  0  0  0  0
 16 39  1  0  0  0  0
 16 40  1  0  0  0  0
 16 41  1  0  0  0  0
 17 18  1  0  0  0  0
 17 25  1  0  0  0  0
 18 19  2  0  0  0  0
 18 42  1  0  0  0  0
 19 20  1  0  0  0  0
 19 22  1  0  0  0  0
 20 21  2  0  0  0  0
 22 23  2  0  0  0  0
 22 24  1  0  0  0  0
 25 27  1  0  0  0  0
 25 26  1  0  0  0  0
 25 43  1  0  0  0  0
 26 27  1  0  0  0  0
 26 44  1  0  0  0  0
 26 45  1  0  0  0  0
 27 46  1  0  0  0  0
 27 47  1  0  0  0  0
M  CHG  1  12   1
M  END
$$$$
