ZINC00006481
 OpenBabel08292219463D

 20 21  0  0  0  0  0  0  0  0999 V2000
   -0.0168    1.3868    0.0097 C   0  0  0  0  0  0  0  0  0  0  0  0
    1.1429    2.1175    0.0025 C   0  0  0  0  0  0  0  0  0  0  0  0
    2.4023    1.4765   -0.0134 C   0  0  0  0  0  0  0  0  0  0  0  0
    2.3854    0.0633   -0.0209 C   0  0  0  0  0  0  0  0  0  0  0  0
    1.2223   -0.6645   -0.0136 C   0  0  0  0  0  0  0  0  0  0  0  0
    0.0021   -0.0041    0.0020 C   0  0  0  0  0  0  0  0  0  0  0  0
   -1.1614   -0.7081    0.0093 O   0  0  0  0  0  0  0  0  0  0  0  0
   -2.3755    0.0454    0.0249 C   0  0  0  0  0  0  0  0  0  0  0  0
   -2.4349    0.8577   -1.1125 F   0  0  0  0  0  0  0  0  0  0  0  0
   -3.4672   -0.8295    0.0306 F   0  0  0  0  0  0  0  0  0  0  0  0
   -2.4131    0.8455    1.1719 F   0  0  0  0  0  0  0  0  0  0  0  0
    4.1165   -0.3363   -0.0396 S   0  0  0  0  0  0  0  0  0  0  0  0
    4.7350    1.3404   -0.0365 C   0  0  0  0  0  0  0  0  0  0  0  0
    3.6287    2.0473   -0.0221 N   0  0  0  0  0  0  0  0  0  0  0  0
    6.0437    1.7806   -0.0461 N   0  0  0  0  0  0  0  0  0  0  0  0
   -0.9658    1.9021    0.0261 H   0  0  0  0  0  0  0  0  0  0  0  0
    1.0936    3.1964    0.0088 H   0  0  0  0  0  0  0  0  0  0  0  0
    1.2563   -1.7439   -0.0200 H   0  0  0  0  0  0  0  0  0  0  0  0
    6.7711    1.1390   -0.0559 H   0  0  0  0  0  0  0  0  0  0  0  0
    6.2356    2.7314   -0.0429 H   0  0  0  0  0  0  0  0  0  0  0  0
  1  6  2  0  0  0  0
  1  2  1  0  0  0  0
  1 16  1  0  0  0  0
  2  3  2  0  0  0  0
  2 17  1  0  0  0  0
  3 14  1  0  0  0  0
  3  4  1  0  0  0  0
  4  5  2  0  0  0  0
  4 12  1  0  0  0  0
  5  6  1  0  0  0  0
  5 18  1  0  0  0  0
  6  7  1  0  0  0  0
  7  8  1  0  0  0  0
  8  9  1  0  0  0  0
  8 10  1  0  0  0  0
  8 11  1  0  0  0  0
 12 13  1  0  0  0  0
 13 14  2  0  0  0  0
 13 15  1  0  0  0  0
 15 19  1  0  0  0  0
 15 20  1  0  0  0  0
M  END
$$$$
