ZINC03604264
 OpenBabel08292219463D

 32 34  0  0  1  0  0  0  0  0999 V2000
   -0.0058    1.2571    0.4267 C   0  0  0  0  0  0  0  0  0  0  0  0
    1.1834    1.8783    0.7509 C   0  0  0  0  0  0  0  0  0  0  0  0
    2.3965    1.3157    0.3496 C   0  0  0  0  0  0  0  0  0  0  0  0
    2.3925    0.1247   -0.3788 C   0  0  0  0  0  0  0  0  0  0  0  0
    1.1977   -0.4920   -0.6995 C   0  0  0  0  0  0  0  0  0  0  0  0
   -0.0054    0.0781   -0.2945 C   0  0  0  0  0  0  0  0  0  0  0  0
    1.1980   -1.6838   -1.4286 N   0  0  0  0  0  0  0  0  0  0  0  0
    3.8364   -0.2134   -0.6530 C   0  0  0  0  0  0  0  0  0  0  0  0
    4.6322    0.8544   -0.0369 N   0  0  0  0  0  0  0  0  0  0  0  0
    3.7982    1.7358    0.5413 C   0  0  0  0  0  0  0  0  0  0  0  0
    4.1484    2.7358    1.1371 O   0  0  0  0  0  0  0  0  0  0  0  0
    6.0944    0.9443   -0.0489 C   0  0  2  0  0  0  0  0  0  0  0  0
    6.4240    1.6236    0.7372 H   0  0  0  0  0  0  0  0  0  0  0  0
    6.5640    1.4696   -1.4098 C   0  0  0  0  0  0  0  0  0  0  0  0
    6.1864    0.4450   -2.4850 C   0  0  0  0  0  0  0  0  0  0  0  0
    6.7716   -0.8935   -2.1194 C   0  0  0  0  0  0  0  0  0  0  0  0
    7.0649   -1.6742   -2.9992 O   0  0  0  0  0  0  0  0  0  0  0  0
    6.9749   -1.2386   -0.8392 N   0  0  0  0  0  0  0  0  0  0  0  0
    6.6845   -0.4211    0.1857 C   0  0  0  0  0  0  0  0  0  0  0  0
    6.9013   -0.7879    1.3207 O   0  0  0  0  0  0  0  0  0  0  0  0
   -0.9423    1.6926    0.7425 H   0  0  0  0  0  0  0  0  0  0  0  0
    1.1754    2.7996    1.3144 H   0  0  0  0  0  0  0  0  0  0  0  0
   -0.9403   -0.4016   -0.5440 H   0  0  0  0  0  0  0  0  0  0  0  0
    2.0375   -2.0797   -1.7104 H   0  0  0  0  0  0  0  0  0  0  0  0
    0.3588   -2.1153   -1.6529 H   0  0  0  0  0  0  0  0  0  0  0  0
    4.0877   -1.1745   -0.2043 H   0  0  0  0  0  0  0  0  0  0  0  0
    4.0167   -0.2426   -1.7276 H   0  0  0  0  0  0  0  0  0  0  0  0
    6.0762    2.4207   -1.6232 H   0  0  0  0  0  0  0  0  0  0  0  0
    7.6455    1.6047   -1.3966 H   0  0  0  0  0  0  0  0  0  0  0  0
    5.1011    0.3638   -2.5457 H   0  0  0  0  0  0  0  0  0  0  0  0
    6.5831    0.7651   -3.4485 H   0  0  0  0  0  0  0  0  0  0  0  0
    7.3465   -2.1134   -0.6458 H   0  0  0  0  0  0  0  0  0  0  0  0
  1  6  2  0  0  0  0
  1  2  1  0  0  0  0
  1 21  1  0  0  0  0
  2  3  2  0  0  0  0
  2 22  1  0  0  0  0
  3 10  1  0  0  0  0
  3  4  1  0  0  0  0
  4  5  2  0  0  0  0
  4  8  1  0  0  0  0
  5  6  1  0  0  0  0
  5  7  1  0  0  0  0
  6 23  1  0  0  0  0
  7 24  1  0  0  0  0
  7 25  1  0  0  0  0
  8  9  1  0  0  0  0
  8 26  1  0  0  0  0
  8 27  1  0  0  0  0
  9 10  1  0  0  0  0
  9 12  1  0  0  0  0
 10 11  2  0  0  0  0
 12 13  1  1  0  0  0
 12 19  1  0  0  0  0
 12 14  1  0  0  0  0
 14 15  1  0  0  0  0
 14 28  1  0  0  0  0
 14 29  1  0  0  0  0
 15 16  1  0  0  0  0
 15 30  1  0  0  0  0
 15 31  1  0  0  0  0
 16 17  2  0  0  0  0
 16 18  1  0  0  0  0
 18 19  1  0  0  0  0
 18 32  1  0  0  0  0
 19 20  2  0  0  0  0
M  END
$$$$
