ZINC14879999
 OpenBabel08292219463D

 79 82  0  0  1  0  0  0  0  0999 V2000
   -2.5990    3.4347    0.9516 C   0  0  0  0  0  0  0  0  0  0  0  0
   -2.5835    1.9554    1.2386 C   0  0  0  0  0  0  0  0  0  0  0  0
   -2.5853    1.0451    0.1942 C   0  0  0  0  0  0  0  0  0  0  0  0
   -2.5710   -0.3237    0.4491 C   0  0  0  0  0  0  0  0  0  0  0  0
   -2.5546   -0.7872    1.7337 C   0  0  0  0  0  0  0  0  0  0  0  0
   -2.5522    0.1177    2.7989 C   0  0  0  0  0  0  0  0  0  0  0  0
   -2.5616    1.5013    2.5489 C   0  0  0  0  0  0  0  0  0  0  0  0
   -2.5544    2.3744    3.5790 O   0  0  0  0  0  0  0  0  0  0  0  0
   -2.5333    1.9630    4.8565 C   0  0  0  0  0  0  0  0  0  0  0  0
   -2.5278    2.7945    5.7476 O   0  0  0  0  0  0  0  0  0  0  0  0
   -2.5179    0.5962    5.1943 C   0  0  0  0  0  0  0  0  0  0  0  0
   -2.5346   -0.3531    4.1902 C   0  0  0  0  0  0  0  0  0  0  0  0
   -2.5208   -1.6760    4.4796 O   0  5  0  0  0  0  0  0  0  0  0  0
   -2.4964    0.2004    6.5422 N   0  0  0  0  0  0  0  0  0  0  0  0
   -1.4825    0.5865    7.3417 C   0  0  0  0  0  0  0  0  0  0  0  0
   -0.6300    1.3445    6.9198 O   0  0  0  0  0  0  0  0  0  0  0  0
   -1.4065    0.0894    8.7293 C   0  0  0  0  0  0  0  0  0  0  0  0
   -2.3819   -0.7862    9.2143 C   0  0  0  0  0  0  0  0  0  0  0  0
   -2.3075   -1.2476   10.5093 C   0  0  0  0  0  0  0  0  0  0  0  0
   -1.2640   -0.8437   11.3343 C   0  0  0  0  0  0  0  0  0  0  0  0
   -0.2921    0.0269   10.8559 C   0  0  0  0  0  0  0  0  0  0  0  0
   -0.3562    0.4884    9.5598 C   0  0  0  0  0  0  0  0  0  0  0  0
    0.8369    0.4615   11.7545 C   0  0  0  0  0  0  0  0  0  0  0  0
    0.3570    1.5589   12.6690 C   0  0  0  0  0  0  0  0  0  0  0  0
    1.0084    2.6939   12.7281 C   0  0  0  0  0  0  0  0  0  0  0  0
    2.3180    2.8500   11.9989 C   0  0  0  0  0  0  0  0  0  0  0  0
    0.4482    3.8436   13.5252 C   0  0  0  0  0  0  0  0  0  0  0  0
   -1.1945   -1.3004   12.6104 O   0  0  0  0  0  0  0  0  0  0  0  0
   -2.6015    1.4914   -1.0881 O   0  0  0  0  0  0  0  0  0  0  0  0
   -2.6025    0.5021   -2.1193 C   0  0  1  0  0  0  0  0  0  0  0  0
   -3.4367   -0.1824   -1.9656 H   0  0  0  0  0  0  0  0  0  0  0  0
   -2.7468    1.1850   -3.4819 C   0  0  1  0  0  0  0  0  0  0  0  0
   -1.9352    1.8996   -3.6190 H   0  0  0  0  0  0  0  0  0  0  0  0
   -2.6865    0.1240   -4.5850 C   0  0  1  0  0  0  0  0  0  0  0  0
   -2.7325    0.6089   -5.5602 H   0  0  0  0  0  0  0  0  0  0  0  0
   -1.3720   -0.6523   -4.4602 C   0  0  2  0  0  0  0  0  0  0  0  0
   -1.3453   -1.4459   -5.2070 H   0  0  0  0  0  0  0  0  0  0  0  0
   -1.2807   -1.2643   -3.0599 C   0  0  0  0  0  0  0  0  0  0  0  0
   -1.3742   -0.2273   -2.0811 O   0  0  0  0  0  0  0  0  0  0  0  0
    0.0568   -1.9912   -2.9069 C   0  0  0  0  0  0  0  0  0  0  0  0
   -2.4273   -2.2577   -2.8615 C   0  0  0  0  0  0  0  0  0  0  0  0
   -0.2716    0.2355   -4.6673 O   0  0  0  0  0  0  0  0  0  0  0  0
    0.1444    0.3374   -6.0307 C   0  0  0  0  0  0  0  0  0  0  0  0
   -3.7892   -0.7741   -4.4452 O   0  0  0  0  0  0  0  0  0  0  0  0
   -4.9233   -0.4557   -5.0973 C   0  0  0  0  0  0  0  0  0  0  0  0
   -4.9753    0.5570   -5.7668 O   0  0  0  0  0  0  0  0  0  0  0  0
   -6.0008   -1.2603   -5.0076 N   0  0  0  0  0  0  0  0  0  0  0  0
   -4.0002    1.8686   -3.5430 O   0  0  0  0  0  0  0  0  0  0  0  0
   -1.5752    3.7994    0.8681 H   0  0  0  0  0  0  0  0  0  0  0  0
   -3.1274    3.6179    0.0160 H   0  0  0  0  0  0  0  0  0  0  0  0
   -3.1056    3.9570    1.7633 H   0  0  0  0  0  0  0  0  0  0  0  0
   -2.5733   -1.0230   -0.3740 H   0  0  0  0  0  0  0  0  0  0  0  0
   -2.5440   -1.8499    1.9259 H   0  0  0  0  0  0  0  0  0  0  0  0
   -3.2113   -0.3506    6.8973 H   0  0  0  0  0  0  0  0  0  0  0  0
   -3.1931   -1.1002    8.5741 H   0  0  0  0  0  0  0  0  0  0  0  0
   -3.0611   -1.9240   10.8850 H   0  0  0  0  0  0  0  0  0  0  0  0
    0.4019    1.1614    9.1874 H   0  0  0  0  0  0  0  0  0  0  0  0
    1.1740   -0.3867   12.3504 H   0  0  0  0  0  0  0  0  0  0  0  0
    1.6634    0.8302   11.1470 H   0  0  0  0  0  0  0  0  0  0  0  0
   -0.5239    1.4097   13.2757 H   0  0  0  0  0  0  0  0  0  0  0  0
    2.1296    3.2033   10.9851 H   0  0  0  0  0  0  0  0  0  0  0  0
    2.9430    3.5716   12.5249 H   0  0  0  0  0  0  0  0  0  0  0  0
    2.8287    1.8878   11.9593 H   0  0  0  0  0  0  0  0  0  0  0  0
   -0.4975    3.5453   13.9777 H   0  0  0  0  0  0  0  0  0  0  0  0
    1.1541    4.1211   14.3081 H   0  0  0  0  0  0  0  0  0  0  0  0
    0.2828    4.6961   12.8663 H   0  0  0  0  0  0  0  0  0  0  0  0
   -0.6924   -2.1211   12.7076 H   0  0  0  0  0  0  0  0  0  0  0  0
    0.8734   -1.2831   -3.0478 H   0  0  0  0  0  0  0  0  0  0  0  0
    0.1216   -2.4269   -1.9099 H   0  0  0  0  0  0  0  0  0  0  0  0
    0.1283   -2.7816   -3.6541 H   0  0  0  0  0  0  0  0  0  0  0  0
   -2.4698   -2.9381   -3.7121 H   0  0  0  0  0  0  0  0  0  0  0  0
   -2.2598   -2.8282   -1.9479 H   0  0  0  0  0  0  0  0  0  0  0  0
   -3.3691   -1.7147   -2.7833 H   0  0  0  0  0  0  0  0  0  0  0  0
   -0.6838    0.7048   -6.6367 H   0  0  0  0  0  0  0  0  0  0  0  0
    0.9832    1.0296   -6.1038 H   0  0  0  0  0  0  0  0  0  0  0  0
    0.4510   -0.6444   -6.3914 H   0  0  0  0  0  0  0  0  0  0  0  0
   -5.9593   -2.0687   -4.4731 H   0  0  0  0  0  0  0  0  0  0  0  0
   -6.8179   -1.0309   -5.4774 H   0  0  0  0  0  0  0  0  0  0  0  0
   -4.1084    2.5530   -2.8685 H   0  0  0  0  0  0  0  0  0  0  0  0
  1  2  1  0  0  0  0
  1 49  1  0  0  0  0
  1 50  1  0  0  0  0
  1 51  1  0  0  0  0
  2  7  2  0  0  0  0
  2  3  1  0  0  0  0
  3  4  2  0  0  0  0
  3 29  1  0  0  0  0
  4  5  1  0  0  0  0
  4 52  1  0  0  0  0
  5  6  2  0  0  0  0
  5 53  1  0  0  0  0
  6 12  1  0  0  0  0
  6  7  1  0  0  0  0
  7  8  1  0  0  0  0
  8  9  1  0  0  0  0
  9 10  2  0  0  0  0
  9 11  1  0  0  0  0
 11 12  2  0  0  0  0
 11 14  1  0  0  0  0
 12 13  1  0  0  0  0
 14 15  1  0  0  0  0
 14 54  1  0  0  0  0
 15 16  2  0  0  0  0
 15 17  1  0  0  0  0
 17 22  2  0  0  0  0
 17 18  1  0  0  0  0
 18 19  2  0  0  0  0
 18 55  1  0  0  0  0
 19 20  1  0  0  0  0
 19 56  1  0  0  0  0
 20 21  2  0  0  0  0
 20 28  1  0  0  0  0
 21 22  1  0  0  0  0
 21 23  1  0  0  0  0
 22 57  1  0  0  0  0
 23 24  1  0  0  0  0
 23 58  1  0  0  0  0
 23 59  1  0  0  0  0
 24 25  2  0  0  0  0
 24 60  1  0  0  0  0
 25 26  1  0  0  0  0
 25 27  1  0  0  0  0
 26 61  1  0  0  0  0
 26 62  1  0  0  0  0
 26 63  1  0  0  0  0
 27 64  1  0  0  0  0
 27 65  1  0  0  0  0
 27 66  1  0  0  0  0
 28 67  1  0  0  0  0
 29 30  1  0  0  0  0
 30 31  1  1  0  0  0
 30 39  1  0  0  0  0
 30 32  1  0  0  0  0
 32 33  1  6  0  0  0
 32 34  1  0  0  0  0
 32 48  1  0  0  0  0
 34 35  1  6  0  0  0
 34 36  1  0  0  0  0
 34 44  1  0  0  0  0
 36 37  1  6  0  0  0
 36 38  1  0  0  0  0
 36 42  1  0  0  0  0
 38 39  1  0  0  0  0
 38 40  1  0  0  0  0
 38 41  1  0  0  0  0
 40 68  1  0  0  0  0
 40 69  1  0  0  0  0
 40 70  1  0  0  0  0
 41 71  1  0  0  0  0
 41 72  1  0  0  0  0
 41 73  1  0  0  0  0
 42 43  1  0  0  0  0
 43 74  1  0  0  0  0
 43 75  1  0  0  0  0
 43 76  1  0  0  0  0
 44 45  1  0  0  0  0
 45 46  2  0  0  0  0
 45 47  1  0  0  0  0
 47 77  1  0  0  0  0
 47 78  1  0  0  0  0
 48 79  1  0  0  0  0
M  CHG  1  13  -1
M  END
$$$$
