ZINC21981454
 OpenBabel08292219463D

 56 59  0  0  1  0  0  0  0  0999 V2000
   -0.4704    0.7094   -0.4039 C   0  0  0  0  0  0  0  0  0  0  0  0
   -1.0885    1.3341    0.8485 C   0  0  2  0  0  0  0  0  0  0  0  0
   -1.0524    2.4253    0.7147 H   0  0  0  0  0  0  0  0  0  0  0  0
   -0.3052    0.8831    2.1114 C   0  0  0  0  0  0  0  0  0  0  0  0
   -1.1191   -0.3160    2.6102 C   0  0  1  0  0  0  0  0  0  0  0  0
   -0.7976   -1.2298    2.0890 H   0  0  0  0  0  0  0  0  0  0  0  0
   -0.9569   -0.6586    4.0798 C   0  0  2  0  0  0  0  0  0  0  0  0
   -1.1890    0.2204    4.6991 H   0  0  0  0  0  0  0  0  0  0  0  0
    0.4859   -1.0833    4.3596 C   0  0  0  0  0  0  0  0  0  0  0  0
    0.6536   -1.3841    5.8525 C   0  0  1  0  0  0  0  0  0  0  0  0
    0.5937   -0.4830    6.4805 H   0  0  0  0  0  0  0  0  0  0  0  0
   -0.3810   -2.4228    6.2433 C   0  0  0  0  0  0  0  0  0  0  0  0
    0.0146   -3.5116    6.8882 C   0  0  0  0  0  0  0  0  0  0  0  0
   -0.9503   -4.5679    7.2328 C   0  0  0  0  0  0  0  0  0  0  0  0
   -0.5961   -5.5574    7.8460 O   0  0  0  0  0  0  0  0  0  0  0  0
   -2.3570   -4.3927    6.8338 C   0  0  0  0  0  0  0  0  0  0  0  0
   -2.7329   -3.2864    6.2117 C   0  0  0  0  0  0  0  0  0  0  0  0
   -1.8129   -2.1619    5.8806 C   0  0  2  0  0  0  0  0  0  0  0  0
   -1.9076   -1.8260    4.3893 C   0  0  1  0  0  0  0  0  0  0  0  0
   -3.3529   -1.4826    4.0408 C   0  0  2  0  0  0  0  0  0  0  0  0
   -3.9936   -2.3591    4.2174 H   0  0  0  0  0  0  0  0  0  0  0  0
   -3.4892   -1.0086    2.5852 C   0  0  0  0  0  0  0  0  0  0  0  0
   -2.5742    0.1890    2.4160 C   0  0  2  0  0  0  0  0  0  0  0  0
   -2.5421    0.8310    1.0316 C   0  0  1  0  0  0  0  0  0  0  0  0
   -2.8575    0.1288    0.2459 H   0  0  0  0  0  0  0  0  0  0  0  0
   -3.5067    1.9871    0.9684 C   0  0  0  0  0  0  0  0  0  0  0  0
   -3.1325    3.1014    1.2450 O   0  0  0  0  0  0  0  0  0  0  0  0
   -4.9382    1.7525    0.5602 C   0  0  0  0  0  0  0  0  0  0  0  0
   -5.6476    2.9929    0.5767 O   0  0  0  0  0  0  0  0  0  0  0  0
   -2.9020    1.2454    3.4731 C   0  0  0  0  0  0  0  0  0  0  0  0
   -3.8091   -0.4466    4.9129 O   0  0  0  0  0  0  0  0  0  0  0  0
   -1.4132   -3.2663    3.4240 Cl  0  0  0  0  0  0  0  0  0  0  0  0
   -2.2763   -0.9324    6.6644 C   0  0  0  0  0  0  0  0  0  0  0  0
    1.9382   -1.8833    6.0925 F   0  0  0  0  0  0  0  0  0  0  0  0
    0.5607    1.0731   -0.5243 H   0  0  0  0  0  0  0  0  0  0  0  0
   -1.0642    0.9919   -1.2857 H   0  0  0  0  0  0  0  0  0  0  0  0
   -0.4634   -0.3859   -0.3020 H   0  0  0  0  0  0  0  0  0  0  0  0
    0.7216    0.6090    1.8275 H   0  0  0  0  0  0  0  0  0  0  0  0
   -0.2768    1.7075    2.8391 H   0  0  0  0  0  0  0  0  0  0  0  0
    0.7222   -1.9856    3.7764 H   0  0  0  0  0  0  0  0  0  0  0  0
    1.1696   -0.2711    4.0716 H   0  0  0  0  0  0  0  0  0  0  0  0
    1.0712   -3.6306    7.1699 H   0  0  0  0  0  0  0  0  0  0  0  0
   -3.0948   -5.1789    7.0518 H   0  0  0  0  0  0  0  0  0  0  0  0
   -3.7816   -3.1564    5.9062 H   0  0  0  0  0  0  0  0  0  0  0  0
   -3.1926   -1.8212    1.9057 H   0  0  0  0  0  0  0  0  0  0  0  0
   -4.5343   -0.7281    2.3872 H   0  0  0  0  0  0  0  0  0  0  0  0
   -4.9653    1.3280   -0.4542 H   0  0  0  0  0  0  0  0  0  0  0  0
   -5.4099    1.0509    1.2639 H   0  0  0  0  0  0  0  0  0  0  0  0
   -6.7133    3.0207    0.3055 H   0  0  0  0  0  0  0  0  0  0  0  0
   -3.9337    1.5991    3.3303 H   0  0  0  0  0  0  0  0  0  0  0  0
   -2.2069    2.0921    3.3732 H   0  0  0  0  0  0  0  0  0  0  0  0
   -2.8010    0.8044    4.4758 H   0  0  0  0  0  0  0  0  0  0  0  0
   -4.8343   -0.0594    4.8178 H   0  0  0  0  0  0  0  0  0  0  0  0
   -3.3263   -0.7153    6.4187 H   0  0  0  0  0  0  0  0  0  0  0  0
   -1.6506   -0.0687    6.3952 H   0  0  0  0  0  0  0  0  0  0  0  0
   -2.1852   -1.1293    7.7428 H   0  0  0  0  0  0  0  0  0  0  0  0
  1  2  1  0  0  0  0
  1 35  1  0  0  0  0
  1 36  1  0  0  0  0
  1 37  1  0  0  0  0
  2  3  1  6  0  0  0
  2 24  1  0  0  0  0
  2  4  1  0  0  0  0
  4  5  1  0  0  0  0
  4 38  1  0  0  0  0
  4 39  1  0  0  0  0
  5  6  1  6  0  0  0
  5 23  1  0  0  0  0
  5  7  1  0  0  0  0
  7  8  1  1  0  0  0
  7 19  1  0  0  0  0
  7  9  1  0  0  0  0
  9 10  1  0  0  0  0
  9 40  1  0  0  0  0
  9 41  1  0  0  0  0
 10 11  1  1  0  0  0
 10 12  1  0  0  0  0
 10 34  1  0  0  0  0
 12 18  1  0  0  0  0
 12 13  2  0  0  0  0
 13 14  1  0  0  0  0
 13 42  1  0  0  0  0
 14 15  2  0  0  0  0
 14 16  1  0  0  0  0
 16 17  2  0  0  0  0
 16 43  1  0  0  0  0
 17 18  1  0  0  0  0
 17 44  1  0  0  0  0
 18 19  1  0  0  0  0
 18 33  1  1  0  0  0
 19 20  1  0  0  0  0
 19 32  1  6  0  0  0
 20 21  1  1  0  0  0
 20 22  1  0  0  0  0
 20 31  1  0  0  0  0
 22 23  1  0  0  0  0
 22 45  1  0  0  0  0
 22 46  1  0  0  0  0
 23 24  1  0  0  0  0
 23 30  1  1  0  0  0
 24 25  1  6  0  0  0
 24 26  1  0  0  0  0
 26 27  2  0  0  0  0
 26 28  1  0  0  0  0
 28 29  1  0  0  0  0
 28 47  1  0  0  0  0
 28 48  1  0  0  0  0
 29 49  1  0  0  0  0
 30 50  1  0  0  0  0
 30 51  1  0  0  0  0
 30 52  1  0  0  0  0
 31 53  1  0  0  0  0
 33 54  1  0  0  0  0
 33 55  1  0  0  0  0
 33 56  1  0  0  0  0
M  END
$$$$
