ZINC08220828
 OpenBabel08292219463D

  8  7  0  0  1  0  0  0  0  0999 V2000
   -0.0127    1.0858    0.0080 C   0  0  2  0  0  0  0  0  0  0  0  0
    0.0021   -0.0041    0.0020 H   0  0  0  0  0  0  0  0  0  0  0  0
   -0.7527    1.5927   -1.2315 C   0  0  0  0  0  0  0  0  0  0  0  0
   -0.0979    1.1415   -2.3825 F   0  0  0  0  0  0  0  0  0  0  0  0
   -2.0652    1.1084   -1.2216 F   0  0  0  0  0  0  0  0  0  0  0  0
   -0.7717    2.9915   -1.2238 F   0  0  0  0  0  0  0  0  0  0  0  0
   -0.8566    1.6673    1.4914 Cl  0  0  0  0  0  0  0  0  0  0  0  0
    1.8317    1.7663   -0.0059 Br  0  0  0  0  0  0  0  0  0  0  0  0
  1  2  1  6  0  0  0
  1  3  1  0  0  0  0
  1  7  1  0  0  0  0
  1  8  1  0  0  0  0
  3  4  1  0  0  0  0
  3  5  1  0  0  0  0
  3  6  1  0  0  0  0
M  END
$$$$
