ZINC00403079
 OpenBabel08292219463D

 37 37  0  0  1  0  0  0  0  0999 V2000
   -0.0173    1.4248    0.0099 C   0  0  0  0  0  0  0  0  0  0  0  0
    0.0021   -0.0041    0.0020 O   0  0  0  0  0  0  0  0  0  0  0  0
    0.6062   -0.6075   -1.0563 C   0  0  0  0  0  0  0  0  0  0  0  0
    1.1729    0.1613   -2.0623 C   0  0  0  0  0  0  0  0  0  0  0  0
    1.7860   -0.4515   -3.1375 C   0  0  0  0  0  0  0  0  0  0  0  0
    1.8355   -1.8358   -3.2112 C   0  0  0  0  0  0  0  0  0  0  0  0
    1.2694   -2.6044   -2.2052 C   0  0  0  0  0  0  0  0  0  0  0  0
    0.6606   -1.9914   -1.1272 C   0  0  0  0  0  0  0  0  0  0  0  0
    1.3231   -4.1083   -2.2853 C   0  0  2  0  0  0  0  0  0  0  0  0
    2.2630   -4.4144   -2.7447 H   0  0  0  0  0  0  0  0  0  0  0  0
    0.1532   -4.6162   -3.1304 C   0  0  0  0  0  0  0  0  0  0  0  0
    0.2055   -6.0782   -3.2081 N   0  0  0  0  0  0  0  0  0  0  0  0
   -0.7318   -6.7499   -3.9058 C   0  0  0  0  0  0  0  0  0  0  0  0
   -1.6186   -6.1440   -4.4693 O   0  0  0  0  0  0  0  0  0  0  0  0
   -0.6781   -8.2538   -3.9859 C   0  0  0  0  0  0  0  0  0  0  0  0
   -1.8013   -8.7415   -4.7973 N   0  3  0  0  0  0  0  0  0  0  0  0
    1.2346   -4.6588   -0.9695 O   0  0  0  0  0  0  0  0  0  0  0  0
    2.4388   -2.4392   -4.2700 O   0  0  0  0  0  0  0  0  0  0  0  0
    3.0003   -1.5861   -5.2694 C   0  0  0  0  0  0  0  0  0  0  0  0
    1.0053    1.8021    0.0021 H   0  0  0  0  0  0  0  0  0  0  0  0
   -0.5445    1.7859   -0.8732 H   0  0  0  0  0  0  0  0  0  0  0  0
   -0.5275    1.7763    0.9067 H   0  0  0  0  0  0  0  0  0  0  0  0
    1.1343    1.2391   -2.0050 H   0  0  0  0  0  0  0  0  0  0  0  0
    2.2266    0.1471   -3.9211 H   0  0  0  0  0  0  0  0  0  0  0  0
    0.2233   -2.5899   -0.3417 H   0  0  0  0  0  0  0  0  0  0  0  0
   -0.7867   -4.3102   -2.6709 H   0  0  0  0  0  0  0  0  0  0  0  0
    0.2207   -4.1963   -4.1340 H   0  0  0  0  0  0  0  0  0  0  0  0
    0.9147   -6.5629   -2.7575 H   0  0  0  0  0  0  0  0  0  0  0  0
    0.2618   -8.5598   -4.4453 H   0  0  0  0  0  0  0  0  0  0  0  0
   -0.7456   -8.6737   -2.9822 H   0  0  0  0  0  0  0  0  0  0  0  0
   -2.6714   -8.4582   -4.3720 H   0  0  0  0  0  0  0  0  0  0  0  0
   -1.7389   -8.3528   -5.7263 H   0  0  0  0  0  0  0  0  0  0  0  0
    0.4217   -4.4269   -0.5000 H   0  0  0  0  0  0  0  0  0  0  0  0
    3.7644   -0.9526   -4.8189 H   0  0  0  0  0  0  0  0  0  0  0  0
    3.4490   -2.1936   -6.0554 H   0  0  0  0  0  0  0  0  0  0  0  0
    2.2158   -0.9613   -5.6963 H   0  0  0  0  0  0  0  0  0  0  0  0
   -1.7653   -9.7484   -4.8508 H   0  0  0  0  0  0  0  0  0  0  0  0
  1  2  1  0  0  0  0
  1 20  1  0  0  0  0
  1 21  1  0  0  0  0
  1 22  1  0  0  0  0
  2  3  1  0  0  0  0
  3  8  2  0  0  0  0
  3  4  1  0  0  0  0
  4  5  2  0  0  0  0
  4 23  1  0  0  0  0
  5  6  1  0  0  0  0
  5 24  1  0  0  0  0
  6  7  2  0  0  0  0
  6 18  1  0  0  0  0
  7  8  1  0  0  0  0
  7  9  1  0  0  0  0
  8 25  1  0  0  0  0
  9 10  1  6  0  0  0
  9 11  1  0  0  0  0
  9 17  1  0  0  0  0
 11 12  1  0  0  0  0
 11 26  1  0  0  0  0
 11 27  1  0  0  0  0
 12 13  1  0  0  0  0
 12 28  1  0  0  0  0
 13 14  2  0  0  0  0
 13 15  1  0  0  0  0
 15 16  1  0  0  0  0
 15 29  1  0  0  0  0
 15 30  1  0  0  0  0
 16 31  1  0  0  0  0
 16 32  1  0  0  0  0
 16 37  1  0  0  0  0
 17 33  1  0  0  0  0
 18 19  1  0  0  0  0
 19 34  1  0  0  0  0
 19 35  1  0  0  0  0
 19 36  1  0  0  0  0
M  CHG  1  16   1
M  END
$$$$
