ZINC04095696
 OpenBabel08292219463D

 49 49  0  0  1  0  0  0  0  0999 V2000
    3.6768    0.2035   -0.7226 C   0  0  0  0  0  0  0  0  0  0  0  0
    2.6548   -0.9211   -0.5443 C   0  0  0  0  0  0  0  0  0  0  0  0
    1.2156   -0.5217   -0.2128 C   0  0  0  0  0  0  0  0  0  0  0  0
    2.1006   -1.1556    0.8623 C   0  0  2  0  0  0  0  0  0  0  0  0
    1.8822   -2.1833    1.1524 H   0  0  0  0  0  0  0  0  0  0  0  0
    2.6031   -0.2612    1.9662 C   0  0  0  0  0  0  0  0  0  0  0  0
    3.4166    0.6048    1.7223 O   0  0  0  0  0  0  0  0  0  0  0  0
    2.1485   -0.4235    3.2246 N   0  0  0  0  0  0  0  0  0  0  0  0
    2.6918    0.3368    4.2697 C   0  0  0  0  0  0  0  0  0  0  0  0
    3.2778   -0.2728    5.3055 C   0  0  0  0  0  0  0  0  0  0  0  0
    3.4582   -1.7689    5.2956 C   0  0  0  0  0  0  0  0  0  0  0  0
    4.9333   -2.1062    5.5223 C   0  0  0  0  0  0  0  0  0  0  0  0
    5.1165   -3.6252    5.5122 C   0  0  0  0  0  0  0  0  0  0  0  0
    6.5915   -3.9625    5.7390 C   0  0  0  0  0  0  0  0  0  0  0  0
    6.8088   -5.7634    5.7270 S   0  0  0  0  0  0  0  0  0  0  0  0
    8.5866   -5.9928    6.0050 C   0  0  0  0  0  0  0  0  0  0  0  0
    8.9120   -7.4878    6.0182 C   0  0  1  0  0  0  0  0  0  0  0  0
    8.6340   -7.9286    5.0608 H   0  0  0  0  0  0  0  0  0  0  0  0
   10.3889   -7.6784    6.2491 C   0  0  0  0  0  0  0  0  0  0  0  0
   10.8200   -7.7825    7.3848 O   0  0  0  0  0  0  0  0  0  0  0  0
   11.1528   -7.7284    5.3001 O   0  0  0  0  0  1  0  0  0  0  0  0
    8.1593   -8.1432    7.0960 N   0  3  0  0  0  0  0  0  0  0  0  0
    2.6171    1.8062    4.2267 C   0  0  0  0  0  0  0  0  0  0  0  0
    3.0178    2.4671    5.1751 O   0  0  0  0  0  0  0  0  0  0  0  0
    2.1543    2.3667    3.2426 O   0  0  0  0  0  1  0  0  0  0  0  0
    2.8606   -2.1472   -1.4360 C   0  0  0  0  0  0  0  0  0  0  0  0
    4.5484    0.0046   -0.0991 H   0  0  0  0  0  0  0  0  0  0  0  0
    3.9819    0.2550   -1.7678 H   0  0  0  0  0  0  0  0  0  0  0  0
    3.2282    1.1522   -0.4279 H   0  0  0  0  0  0  0  0  0  0  0  0
    0.9968    0.5422   -0.1216 H   0  0  0  0  0  0  0  0  0  0  0  0
    0.4150   -1.1324   -0.6300 H   0  0  0  0  0  0  0  0  0  0  0  0
    1.4455   -1.0664    3.4072 H   0  0  0  0  0  0  0  0  0  0  0  0
    3.6217    0.3070    6.1493 H   0  0  0  0  0  0  0  0  0  0  0  0
    2.8578   -2.2126    6.0897 H   0  0  0  0  0  0  0  0  0  0  0  0
    3.1384   -2.1671    4.3326 H   0  0  0  0  0  0  0  0  0  0  0  0
    5.5337   -1.6625    4.7282 H   0  0  0  0  0  0  0  0  0  0  0  0
    5.2531   -1.7081    6.4853 H   0  0  0  0  0  0  0  0  0  0  0  0
    4.5161   -4.0689    6.3064 H   0  0  0  0  0  0  0  0  0  0  0  0
    4.7966   -4.0233    4.5493 H   0  0  0  0  0  0  0  0  0  0  0  0
    7.1920   -3.5188    4.9448 H   0  0  0  0  0  0  0  0  0  0  0  0
    6.9114   -3.5643    6.7020 H   0  0  0  0  0  0  0  0  0  0  0  0
    9.1451   -5.5065    5.2052 H   0  0  0  0  0  0  0  0  0  0  0  0
    8.8645   -5.5520    6.9623 H   0  0  0  0  0  0  0  0  0  0  0  0
    8.4165   -7.7352    7.9822 H   0  0  0  0  0  0  0  0  0  0  0  0
    7.1704   -8.0156    6.9414 H   0  0  0  0  0  0  0  0  0  0  0  0
    3.5657   -2.8285   -0.9599 H   0  0  0  0  0  0  0  0  0  0  0  0
    1.9070   -2.6546   -1.5818 H   0  0  0  0  0  0  0  0  0  0  0  0
    3.2558   -1.8319   -2.4017 H   0  0  0  0  0  0  0  0  0  0  0  0
    8.3738   -9.1291    7.1047 H   0  0  0  0  0  0  0  0  0  0  0  0
  1  2  1  0  0  0  0
  1 27  1  0  0  0  0
  1 28  1  0  0  0  0
  1 29  1  0  0  0  0
  2  4  1  0  0  0  0
  2  3  1  0  0  0  0
  2 26  1  0  0  0  0
  3  4  1  0  0  0  0
  3 30  1  0  0  0  0
  3 31  1  0  0  0  0
  4  5  1  1  0  0  0
  4  6  1  0  0  0  0
  6  7  2  0  0  0  0
  6  8  1  0  0  0  0
  8  9  1  0  0  0  0
  8 32  1  0  0  0  0
  9 10  2  0  0  0  0
  9 23  1  0  0  0  0
 10 11  1  0  0  0  0
 10 33  1  0  0  0  0
 11 12  1  0  0  0  0
 11 34  1  0  0  0  0
 11 35  1  0  0  0  0
 12 13  1  0  0  0  0
 12 36  1  0  0  0  0
 12 37  1  0  0  0  0
 13 14  1  0  0  0  0
 13 38  1  0  0  0  0
 13 39  1  0  0  0  0
 14 15  1  0  0  0  0
 14 40  1  0  0  0  0
 14 41  1  0  0  0  0
 15 16  1  0  0  0  0
 16 17  1  0  0  0  0
 16 42  1  0  0  0  0
 16 43  1  0  0  0  0
 17 18  1  6  0  0  0
 17 19  1  0  0  0  0
 17 22  1  0  0  0  0
 19 20  2  0  0  0  0
 19 21  1  0  0  0  0
 22 44  1  0  0  0  0
 22 45  1  0  0  0  0
 22 49  1  0  0  0  0
 23 24  2  0  0  0  0
 23 25  1  0  0  0  0
 26 46  1  0  0  0  0
 26 47  1  0  0  0  0
 26 48  1  0  0  0  0
M  CHG  1  22   1
M  END
$$$$
