ZINC34176695
 OpenBabel08292219463D

 64 67  0  0  1  0  0  0  0  0999 V2000
   -1.3120    0.9418    0.8939 C   0  0  0  0  0  0  0  0  0  0  0  0
   -0.7886   -0.4789    0.6734 C   0  0  0  0  0  0  0  0  0  0  0  0
   -0.3966   -0.6512   -0.7715 C   0  0  0  0  0  0  0  0  0  0  0  0
   -0.5228    0.2680   -1.5455 O   0  0  0  0  0  0  0  0  0  0  0  0
    0.0928   -1.8258   -1.1987 O   0  0  0  0  0  0  0  0  0  0  0  0
    0.5583   -1.8823   -2.5486 C   0  0  2  0  0  0  0  0  0  0  0  0
   -0.5640   -1.4559   -3.5132 C   0  0  2  0  0  0  0  0  0  0  0  0
   -1.4722   -1.2319   -2.9538 H   0  0  0  0  0  0  0  0  0  0  0  0
   -0.8080   -2.6517   -4.4624 C   0  0  0  0  0  0  0  0  0  0  0  0
    0.5188   -3.4317   -4.4063 C   0  0  1  0  0  0  0  0  0  0  0  0
    1.2624   -2.9144   -5.0125 H   0  0  0  0  0  0  0  0  0  0  0  0
    0.9258   -3.3420   -2.9248 C   0  0  2  0  0  0  0  0  0  0  0  0
    0.0412   -4.2536   -2.0700 C   0  0  0  0  0  0  0  0  0  0  0  0
    0.0776   -5.6854   -2.5965 C   0  0  1  0  0  0  0  0  0  0  0  0
   -0.5215   -6.3275   -1.9509 H   0  0  0  0  0  0  0  0  0  0  0  0
   -0.4991   -5.7030   -4.0168 C   0  0  1  0  0  0  0  0  0  0  0  0
    0.3806   -4.8497   -4.8965 C   0  0  2  0  0  0  0  0  0  0  0  0
   -0.0631   -4.8335   -5.8920 H   0  0  0  0  0  0  0  0  0  0  0  0
    1.7541   -5.5254   -5.0046 C   0  0  0  0  0  0  0  0  0  0  0  0
    1.5913   -6.7593   -5.8944 C   0  0  1  0  0  0  0  0  0  0  0  0
    2.4966   -7.3641   -5.8413 H   0  0  0  0  0  0  0  0  0  0  0  0
    0.4191   -7.5799   -5.4419 C   0  0  0  0  0  0  0  0  0  0  0  0
    0.2741   -8.8239   -5.9547 C   0  0  0  0  0  0  0  0  0  0  0  0
   -0.9415   -9.5506   -5.4970 C   0  0  0  0  0  0  0  0  0  0  0  0
   -0.9281  -10.7318   -5.2051 O   0  0  0  0  0  0  0  0  0  0  0  0
   -2.1756   -8.7204   -5.4243 C   0  0  0  0  0  0  0  0  0  0  0  0
   -2.0015   -7.4811   -4.9158 C   0  0  0  0  0  0  0  0  0  0  0  0
   -0.6102   -7.1175   -4.5192 C   0  0  2  0  0  0  0  0  0  0  0  0
   -0.3911   -7.9900   -3.2816 C   0  0  0  0  0  0  0  0  0  0  0  0
    1.3836   -6.3522   -7.2166 F   0  0  0  0  0  0  0  0  0  0  0  0
   -1.7762   -5.1324   -3.9910 F   0  0  0  0  0  0  0  0  0  0  0  0
    1.4275   -6.1536   -2.6186 O   0  0  0  0  0  0  0  0  0  0  0  0
    2.4154   -3.6278   -2.7242 C   0  0  0  0  0  0  0  0  0  0  0  0
   -0.1271   -0.2289   -4.3160 C   0  0  0  0  0  0  0  0  0  0  0  0
    1.7577   -0.9862   -2.7199 C   0  0  0  0  0  0  0  0  0  0  0  0
    2.3327   -0.9432   -3.7809 O   0  0  0  0  0  0  0  0  0  0  0  0
    2.2395   -0.1436   -1.5670 C   0  0  0  0  0  0  0  0  0  0  0  0
    3.7701    0.6894   -2.0299 Cl  0  0  0  0  0  0  0  0  0  0  0  0
   -0.5317    1.6597    0.6411 H   0  0  0  0  0  0  0  0  0  0  0  0
   -2.1814    1.1114    0.2588 H   0  0  0  0  0  0  0  0  0  0  0  0
   -1.5955    1.0663    1.9390 H   0  0  0  0  0  0  0  0  0  0  0  0
    0.0809   -0.6485    1.3084 H   0  0  0  0  0  0  0  0  0  0  0  0
   -1.5688   -1.1969    0.9262 H   0  0  0  0  0  0  0  0  0  0  0  0
   -1.6310   -3.2677   -4.0999 H   0  0  0  0  0  0  0  0  0  0  0  0
   -1.0057   -2.3031   -5.4760 H   0  0  0  0  0  0  0  0  0  0  0  0
    0.3998   -4.2400   -1.0408 H   0  0  0  0  0  0  0  0  0  0  0  0
   -0.9849   -3.8867   -2.0971 H   0  0  0  0  0  0  0  0  0  0  0  0
    2.4707   -4.8375   -5.4532 H   0  0  0  0  0  0  0  0  0  0  0  0
    2.0978   -5.8256   -4.0147 H   0  0  0  0  0  0  0  0  0  0  0  0
    0.9853   -9.2559   -6.6432 H   0  0  0  0  0  0  0  0  0  0  0  0
   -3.1383   -9.0822   -5.7540 H   0  0  0  0  0  0  0  0  0  0  0  0
   -2.8219   -6.7836   -4.8333 H   0  0  0  0  0  0  0  0  0  0  0  0
   -1.0825   -7.6860   -2.4957 H   0  0  0  0  0  0  0  0  0  0  0  0
   -0.5685   -9.0346   -3.5374 H   0  0  0  0  0  0  0  0  0  0  0  0
    0.6337   -7.8710   -2.9300 H   0  0  0  0  0  0  0  0  0  0  0  0
    1.8563   -6.1584   -1.7519 H   0  0  0  0  0  0  0  0  0  0  0  0
    2.6862   -3.4330   -1.6865 H   0  0  0  0  0  0  0  0  0  0  0  0
    2.6206   -4.6712   -2.9635 H   0  0  0  0  0  0  0  0  0  0  0  0
    3.0006   -2.9828   -3.3797 H   0  0  0  0  0  0  0  0  0  0  0  0
    0.7669   -0.4702   -4.8909 H   0  0  0  0  0  0  0  0  0  0  0  0
   -0.9275    0.0648   -4.9951 H   0  0  0  0  0  0  0  0  0  0  0  0
    0.0904    0.5930   -3.6338 H   0  0  0  0  0  0  0  0  0  0  0  0
    1.4820    0.5997   -1.3187 H   0  0  0  0  0  0  0  0  0  0  0  0
    2.4203   -0.7813   -0.7016 H   0  0  0  0  0  0  0  0  0  0  0  0
  1  2  1  0  0  0  0
  1 39  1  0  0  0  0
  1 40  1  0  0  0  0
  1 41  1  0  0  0  0
  2  3  1  0  0  0  0
  2 42  1  0  0  0  0
  2 43  1  0  0  0  0
  3  4  2  0  0  0  0
  3  5  1  0  0  0  0
  6  5  1  1  0  0  0
  6 12  1  0  0  0  0
  6  7  1  0  0  0  0
  6 35  1  0  0  0  0
  7  8  1  1  0  0  0
  7  9  1  0  0  0  0
  7 34  1  0  0  0  0
  9 10  1  0  0  0  0
  9 44  1  0  0  0  0
  9 45  1  0  0  0  0
 10 11  1  6  0  0  0
 10 17  1  0  0  0  0
 10 12  1  0  0  0  0
 12 13  1  0  0  0  0
 12 33  1  1  0  0  0
 13 14  1  0  0  0  0
 13 46  1  0  0  0  0
 13 47  1  0  0  0  0
 14 15  1  1  0  0  0
 14 16  1  0  0  0  0
 14 32  1  0  0  0  0
 16 28  1  0  0  0  0
 16 17  1  0  0  0  0
 16 31  1  1  0  0  0
 17 18  1  6  0  0  0
 17 19  1  0  0  0  0
 19 20  1  0  0  0  0
 19 48  1  0  0  0  0
 19 49  1  0  0  0  0
 20 21  1  1  0  0  0
 20 22  1  0  0  0  0
 20 30  1  0  0  0  0
 22 28  1  0  0  0  0
 22 23  2  0  0  0  0
 23 24  1  0  0  0  0
 23 50  1  0  0  0  0
 24 25  2  0  0  0  0
 24 26  1  0  0  0  0
 26 27  2  0  0  0  0
 26 51  1  0  0  0  0
 27 28  1  0  0  0  0
 27 52  1  0  0  0  0
 28 29  1  1  0  0  0
 29 53  1  0  0  0  0
 29 54  1  0  0  0  0
 29 55  1  0  0  0  0
 32 56  1  0  0  0  0
 33 57  1  0  0  0  0
 33 58  1  0  0  0  0
 33 59  1  0  0  0  0
 34 60  1  0  0  0  0
 34 61  1  0  0  0  0
 34 62  1  0  0  0  0
 35 36  2  0  0  0  0
 35 37  1  0  0  0  0
 37 38  1  0  0  0  0
 37 63  1  0  0  0  0
 37 64  1  0  0  0  0
M  END
$$$$
