ZINC03802690
 OpenBabel08292219463D

 35 37  0  0  1  0  0  0  0  0999 V2000
   -0.0362    1.3166    0.0149 C   0  0  0  0  0  0  0  0  0  0  0  0
   -0.0064    0.0070    0.0034 C   0  0  0  0  0  0  0  0  0  0  0  0
   -1.2087   -0.9204    0.0025 C   0  0  2  0  0  0  0  0  0  0  0  0
   -2.0013   -0.5167    0.6325 H   0  0  0  0  0  0  0  0  0  0  0  0
   -0.6724   -2.2483    0.5924 C   0  0  0  0  0  0  0  0  0  0  0  0
    0.7521   -2.3281   -0.0131 C   0  0  1  0  0  0  0  0  0  0  0  0
    0.7146   -2.7182   -1.0302 H   0  0  0  0  0  0  0  0  0  0  0  0
    1.2335   -0.8623   -0.0182 C   0  0  1  0  0  0  0  0  0  0  0  0
    1.8399   -0.6684    0.8666 H   0  0  0  0  0  0  0  0  0  0  0  0
    2.0476   -0.5807   -1.2826 C   0  0  0  0  0  0  0  0  0  0  0  0
    2.5633    0.7510   -1.2305 O   0  0  0  0  0  0  0  0  0  0  0  0
    1.5999   -3.1387    0.8031 O   0  0  0  0  0  0  0  0  0  0  0  0
   -1.6964   -1.1245   -1.3637 N   0  0  0  0  0  0  0  0  0  0  0  0
   -0.9648   -1.5789   -2.4225 C   0  0  0  0  0  0  0  0  0  0  0  0
   -1.7151   -1.6388   -3.4837 N   0  0  0  0  0  0  0  0  0  0  0  0
   -2.9683   -1.2282   -3.1709 C   0  0  0  0  0  0  0  0  0  0  0  0
   -2.9704   -0.9002   -1.8103 C   0  0  0  0  0  0  0  0  0  0  0  0
   -4.0977   -0.4659   -1.2349 N   0  0  0  0  0  0  0  0  0  0  0  0
   -5.2094   -0.3433   -1.9253 C   0  0  0  0  0  0  0  0  0  0  0  0
   -5.2708   -0.6497   -3.2521 N   0  0  0  0  0  0  0  0  0  0  0  0
   -6.1072   -0.5480   -3.7326 H   0  0  0  0  0  0  0  0  0  0  0  0
   -4.1701   -1.0866   -3.9034 C   0  0  0  0  0  0  0  0  0  0  0  0
   -4.2154   -1.3650   -5.0895 O   0  0  0  0  0  0  0  0  0  0  0  0
   -6.3410    0.1057   -1.2921 N   0  0  0  0  0  0  0  0  0  0  0  0
    0.8866    1.8778    0.0096 H   0  0  0  0  0  0  0  0  0  0  0  0
   -0.9835    1.8351    0.0253 H   0  0  0  0  0  0  0  0  0  0  0  0
   -0.6289   -2.1996    1.6805 H   0  0  0  0  0  0  0  0  0  0  0  0
   -1.2805   -3.0916    0.2650 H   0  0  0  0  0  0  0  0  0  0  0  0
    2.8743   -1.2882   -1.3476 H   0  0  0  0  0  0  0  0  0  0  0  0
    1.4076   -0.6885   -2.1584 H   0  0  0  0  0  0  0  0  0  0  0  0
    3.0911    0.9989   -2.0019 H   0  0  0  0  0  0  0  0  0  0  0  0
    1.3048   -4.0557    0.8876 H   0  0  0  0  0  0  0  0  0  0  0  0
    0.0805   -1.8479   -2.3852 H   0  0  0  0  0  0  0  0  0  0  0  0
   -6.3129    0.3275   -0.3482 H   0  0  0  0  0  0  0  0  0  0  0  0
   -7.1689    0.2014   -1.7884 H   0  0  0  0  0  0  0  0  0  0  0  0
  1  2  2  0  0  0  0
  1 25  1  0  0  0  0
  1 26  1  0  0  0  0
  2  8  1  0  0  0  0
  2  3  1  0  0  0  0
  3  4  1  1  0  0  0
  3  5  1  0  0  0  0
  3 13  1  0  0  0  0
  5  6  1  0  0  0  0
  5 27  1  0  0  0  0
  5 28  1  0  0  0  0
  6  7  1  6  0  0  0
  6  8  1  0  0  0  0
  6 12  1  0  0  0  0
  8  9  1  1  0  0  0
  8 10  1  0  0  0  0
 10 11  1  0  0  0  0
 10 29  1  0  0  0  0
 10 30  1  0  0  0  0
 11 31  1  0  0  0  0
 12 32  1  0  0  0  0
 13 17  1  0  0  0  0
 13 14  1  0  0  0  0
 14 15  2  0  0  0  0
 14 33  1  0  0  0  0
 15 16  1  0  0  0  0
 16 22  1  0  0  0  0
 16 17  2  0  0  0  0
 17 18  1  0  0  0  0
 18 19  2  0  0  0  0
 19 20  1  0  0  0  0
 19 24  1  0  0  0  0
 20 21  1  0  0  0  0
 20 22  1  0  0  0  0
 22 23  2  0  0  0  0
 24 34  1  0  0  0  0
 24 35  1  0  0  0  0
M  END
$$$$
