ZINC53683271
 OpenBabel08292219463D

 99101  0  0  1  0  0  0  0  0999 V2000
   -0.2755    1.3223    0.8384 C   0  0  0  0  0  0  0  0  0  0  0  0
   -0.5304   -0.1253    1.2634 C   0  0  0  0  0  0  0  0  0  0  0  0
   -0.0070   -1.0364    0.2368 N   0  3  0  0  0  0  0  0  0  0  0  0
    1.4542   -0.9044    0.1640 C   0  0  0  0  0  0  0  0  0  0  0  0
    1.9851   -1.7471   -0.9975 C   0  0  0  0  0  0  0  0  0  0  0  0
   -0.3569   -2.4198    0.5857 C   0  0  0  0  0  0  0  0  0  0  0  0
   -1.8743   -2.5981    0.5043 C   0  0  0  0  0  0  0  0  0  0  0  0
   -2.2960   -4.3363    0.8069 S   0  0  0  0  0  0  0  0  0  0  0  0
   -1.7633   -5.1191   -0.2527 O   0  0  0  0  0  0  0  0  0  0  0  0
   -1.9463   -4.6570    2.1463 O   0  0  0  0  0  0  0  0  0  0  0  0
   -4.1026   -4.3396    0.6697 C   0  0  2  0  0  0  0  0  0  0  0  0
   -4.4045   -3.8472   -0.2615 H   0  0  0  0  0  0  0  0  0  0  0  0
   -4.7303   -3.6095    1.8580 C   0  0  0  0  0  0  0  0  0  0  0  0
   -5.8260   -4.5315    2.3958 C   0  0  0  0  0  0  0  0  0  0  0  0
   -5.6719   -5.8417    1.7680 N   0  0  0  0  0  0  0  0  0  0  0  0
   -4.6543   -5.7612    0.7083 C   0  0  2  0  0  0  0  0  0  0  0  0
   -5.1171   -6.0064   -0.2494 H   0  0  0  0  0  0  0  0  0  0  0  0
   -3.5716   -6.7665    1.0132 C   0  0  0  0  0  0  0  0  0  0  0  0
   -2.9764   -6.7037    2.0619 O   0  0  0  0  0  0  0  0  0  0  0  0
   -3.3111   -7.7411    0.1325 O   0  0  0  0  0  0  0  0  0  0  0  0
   -2.1716   -8.5743    0.3205 C   0  0  1  0  0  0  0  0  0  0  0  0
   -1.4983   -8.1258    1.0478 H   0  0  0  0  0  0  0  0  0  0  0  0
   -2.6138   -9.9574    0.8087 C   0  0  1  0  0  0  0  0  0  0  0  0
   -3.3690  -10.3478    0.1277 H   0  0  0  0  0  0  0  0  0  0  0  0
   -1.4313  -10.8866    0.8554 C   0  0  0  0  0  0  0  0  0  0  0  0
   -1.5656  -12.2033    0.9350 C   0  0  0  0  0  0  0  0  0  0  0  0
   -2.8674  -12.8761    0.9712 C   0  0  0  0  0  0  0  0  0  0  0  0
   -3.8708  -12.3396    0.5443 O   0  0  0  0  0  0  0  0  0  0  0  0
   -2.9590  -14.1212    1.5034 N   0  0  0  0  0  0  0  0  0  0  0  0
   -4.3034  -14.6998    1.6683 C   0  0  0  0  0  0  0  0  0  0  0  0
   -4.7544  -14.4917    3.0862 C   0  0  0  0  0  0  0  0  0  0  0  0
   -5.9733  -14.2080    3.4761 C   0  0  0  0  0  0  0  0  0  0  0  0
   -7.2027  -14.0896    2.7047 C   0  0  0  0  0  0  0  0  0  0  0  0
   -8.1115  -13.1660    3.0080 C   0  0  0  0  0  0  0  0  0  0  0  0
   -7.8875  -12.1943    4.1332 C   0  0  2  0  0  0  0  0  0  0  0  0
   -7.8111  -12.7329    5.0773 H   0  0  0  0  0  0  0  0  0  0  0  0
   -9.0567  -11.2079    4.2045 C   0  0  0  0  0  0  0  0  0  0  0  0
   -8.8342  -10.2518    5.3488 C   0  0  0  0  0  0  0  0  0  0  0  0
   -8.1035  -10.5601    6.2584 O   0  0  0  0  0  0  0  0  0  0  0  0
   -9.5199   -8.9086    5.3586 C   0  0  0  0  0  0  0  0  0  0  0  0
   -8.6802   -7.9161    4.5967 C   0  0  0  0  0  0  0  0  0  0  0  0
   -7.8653   -8.2158    3.6320 N   0  0  0  0  0  0  0  0  0  0  0  0
   -7.2953   -7.0623    3.1761 C   0  0  0  0  0  0  0  0  0  0  0  0
   -7.8122   -6.0455    3.9138 C   0  0  0  0  0  0  0  0  0  0  0  0
   -8.6527   -6.5932    4.8058 O   0  0  0  0  0  0  0  0  0  0  0  0
   -6.3152   -6.9810    2.0843 C   0  0  0  0  0  0  0  0  0  0  0  0
   -6.0764   -7.9874    1.4353 O   0  0  0  0  0  0  0  0  0  0  0  0
   -6.6760  -11.4679    3.8978 O   0  0  0  0  0  0  0  0  0  0  0  0
   -7.5226  -15.0153    1.5540 C   0  0  0  0  0  0  0  0  0  0  0  0
   -3.2076   -9.8325    2.2161 C   0  0  0  0  0  0  0  0  0  0  0  0
   -1.4407   -8.7226   -1.0194 C   0  0  0  0  0  0  0  0  0  0  0  0
   -2.3765   -9.3705   -2.0418 C   0  0  0  0  0  0  0  0  0  0  0  0
   -1.0127   -7.3425   -1.5224 C   0  0  0  0  0  0  0  0  0  0  0  0
   -0.6639    1.9983    1.6001 H   0  0  0  0  0  0  0  0  0  0  0  0
    0.7962    1.4833    0.7219 H   0  0  0  0  0  0  0  0  0  0  0  0
   -0.7772    1.5163   -0.1096 H   0  0  0  0  0  0  0  0  0  0  0  0
   -0.0287   -0.3193    2.2114 H   0  0  0  0  0  0  0  0  0  0  0  0
   -1.6022   -0.2863    1.3799 H   0  0  0  0  0  0  0  0  0  0  0  0
    1.7170    0.1413    0.0041 H   0  0  0  0  0  0  0  0  0  0  0  0
    1.8974   -1.2518    1.0973 H   0  0  0  0  0  0  0  0  0  0  0  0
    1.5677   -1.3784   -1.9344 H   0  0  0  0  0  0  0  0  0  0  0  0
    3.0723   -1.6756   -1.0310 H   0  0  0  0  0  0  0  0  0  0  0  0
    1.6937   -2.7876   -0.8544 H   0  0  0  0  0  0  0  0  0  0  0  0
    0.1272   -3.1039   -0.1114 H   0  0  0  0  0  0  0  0  0  0  0  0
   -0.0197   -2.6353    1.5995 H   0  0  0  0  0  0  0  0  0  0  0  0
   -2.3546   -1.9716    1.2558 H   0  0  0  0  0  0  0  0  0  0  0  0
   -2.2217   -2.3073   -0.4871 H   0  0  0  0  0  0  0  0  0  0  0  0
   -3.9829   -3.4279    2.6269 H   0  0  0  0  0  0  0  0  0  0  0  0
   -5.1691   -2.6654    1.5297 H   0  0  0  0  0  0  0  0  0  0  0  0
   -5.7169   -4.6258    3.4768 H   0  0  0  0  0  0  0  0  0  0  0  0
   -6.8061   -4.1163    2.1600 H   0  0  0  0  0  0  0  0  0  0  0  0
   -0.4261  -10.4705    0.8392 H   0  0  0  0  0  0  0  0  0  0  0  0
   -0.6646  -12.8117    0.9707 H   0  0  0  0  0  0  0  0  0  0  0  0
   -2.1685  -14.6153    1.7636 H   0  0  0  0  0  0  0  0  0  0  0  0
   -4.9850  -14.1879    0.9901 H   0  0  0  0  0  0  0  0  0  0  0  0
   -4.2795  -15.7611    1.4367 H   0  0  0  0  0  0  0  0  0  0  0  0
   -3.9904  -14.6005    3.8706 H   0  0  0  0  0  0  0  0  0  0  0  0
   -6.0769  -14.0352    4.5669 H   0  0  0  0  0  0  0  0  0  0  0  0
   -9.0333  -13.1260    2.4393 H   0  0  0  0  0  0  0  0  0  0  0  0
   -9.1169  -10.6503    3.2709 H   0  0  0  0  0  0  0  0  0  0  0  0
   -9.9847  -11.7544    4.3633 H   0  0  0  0  0  0  0  0  0  0  0  0
  -10.4964   -8.9955    4.8815 H   0  0  0  0  0  0  0  0  0  0  0  0
   -9.6432   -8.5700    6.3863 H   0  0  0  0  0  0  0  0  0  0  0  0
   -7.6016   -4.9930    3.8007 H   0  0  0  0  0  0  0  0  0  0  0  0
   -5.8881  -12.0255    3.8395 H   0  0  0  0  0  0  0  0  0  0  0  0
   -6.7114  -15.7324    1.4283 H   0  0  0  0  0  0  0  0  0  0  0  0
   -8.4498  -15.5485    1.7636 H   0  0  0  0  0  0  0  0  0  0  0  0
   -7.6373  -14.4325    0.6400 H   0  0  0  0  0  0  0  0  0  0  0  0
   -4.0674   -9.1631    2.1896 H   0  0  0  0  0  0  0  0  0  0  0  0
   -3.5230  -10.8155    2.5659 H   0  0  0  0  0  0  0  0  0  0  0  0
   -2.4546   -9.4302    2.8938 H   0  0  0  0  0  0  0  0  0  0  0  0
   -0.5594   -9.3497   -0.8850 H   0  0  0  0  0  0  0  0  0  0  0  0
   -3.2579   -8.7434   -2.1762 H   0  0  0  0  0  0  0  0  0  0  0  0
   -1.8570   -9.4759   -2.9942 H   0  0  0  0  0  0  0  0  0  0  0  0
   -2.6814  -10.3537   -1.6835 H   0  0  0  0  0  0  0  0  0  0  0  0
   -0.3627   -6.8724   -0.7844 H   0  0  0  0  0  0  0  0  0  0  0  0
   -0.4750   -7.4498   -2.4644 H   0  0  0  0  0  0  0  0  0  0  0  0
   -1.8956   -6.7221   -1.6766 H   0  0  0  0  0  0  0  0  0  0  0  0
   -0.4109   -0.8027   -0.6578 H   0  0  0  0  0  0  0  0  0  0  0  0
  1  2  1  0  0  0  0
  1 54  1  0  0  0  0
  1 55  1  0  0  0  0
  1 56  1  0  0  0  0
  2  3  1  0  0  0  0
  2 57  1  0  0  0  0
  2 58  1  0  0  0  0
  3  4  1  0  0  0  0
  3  6  1  0  0  0  0
  3 99  1  0  0  0  0
  4  5  1  0  0  0  0
  4 59  1  0  0  0  0
  4 60  1  0  0  0  0
  5 61  1  0  0  0  0
  5 62  1  0  0  0  0
  5 63  1  0  0  0  0
  6  7  1  0  0  0  0
  6 64  1  0  0  0  0
  6 65  1  0  0  0  0
  7  8  1  0  0  0  0
  7 66  1  0  0  0  0
  7 67  1  0  0  0  0
  8  9  2  0  0  0  0
  8 10  2  0  0  0  0
  8 11  1  0  0  0  0
 11 12  1  6  0  0  0
 11 16  1  0  0  0  0
 11 13  1  0  0  0  0
 13 14  1  0  0  0  0
 13 68  1  0  0  0  0
 13 69  1  0  0  0  0
 14 15  1  0  0  0  0
 14 70  1  0  0  0  0
 14 71  1  0  0  0  0
 15 46  1  0  0  0  0
 15 16  1  0  0  0  0
 16 17  1  6  0  0  0
 16 18  1  0  0  0  0
 18 19  2  0  0  0  0
 18 20  1  0  0  0  0
 20 21  1  0  0  0  0
 21 22  1  1  0  0  0
 21 23  1  0  0  0  0
 21 51  1  0  0  0  0
 23 24  1  6  0  0  0
 23 25  1  0  0  0  0
 23 50  1  0  0  0  0
 25 26  2  0  0  0  0
 25 72  1  0  0  0  0
 26 27  1  0  0  0  0
 26 73  1  0  0  0  0
 27 28  2  0  0  0  0
 27 29  1  0  0  0  0
 29 30  1  0  0  0  0
 29 74  1  0  0  0  0
 30 31  1  0  0  0  0
 30 75  1  0  0  0  0
 30 76  1  0  0  0  0
 31 32  2  0  0  0  0
 31 77  1  0  0  0  0
 32 33  1  0  0  0  0
 32 78  1  0  0  0  0
 33 34  2  0  0  0  0
 33 49  1  0  0  0  0
 34 35  1  0  0  0  0
 34 79  1  0  0  0  0
 35 36  1  1  0  0  0
 35 37  1  0  0  0  0
 35 48  1  0  0  0  0
 37 38  1  0  0  0  0
 37 80  1  0  0  0  0
 37 81  1  0  0  0  0
 38 39  2  0  0  0  0
 38 40  1  0  0  0  0
 40 41  1  0  0  0  0
 40 82  1  0  0  0  0
 40 83  1  0  0  0  0
 41 45  1  0  0  0  0
 41 42  2  0  0  0  0
 42 43  1  0  0  0  0
 43 44  2  0  0  0  0
 43 46  1  0  0  0  0
 44 45  1  0  0  0  0
 44 84  1  0  0  0  0
 46 47  2  0  0  0  0
 48 85  1  0  0  0  0
 49 86  1  0  0  0  0
 49 87  1  0  0  0  0
 49 88  1  0  0  0  0
 50 89  1  0  0  0  0
 50 90  1  0  0  0  0
 50 91  1  0  0  0  0
 51 52  1  0  0  0  0
 51 53  1  0  0  0  0
 51 92  1  0  0  0  0
 52 93  1  0  0  0  0
 52 94  1  0  0  0  0
 52 95  1  0  0  0  0
 53 96  1  0  0  0  0
 53 97  1  0  0  0  0
 53 98  1  0  0  0  0
M  CHG  1   3   1
M  END
$$$$
