ZINC03812865
 OpenBabel08292219463D

 30 31  0  0  0  0  0  0  0  0999 V2000
   -0.0169    1.3967    0.0097 C   0  0  0  0  0  0  0  0  0  0  0  0
    1.1624    2.1066    0.0023 C   0  0  0  0  0  0  0  0  0  0  0  0
    2.3810    1.4400   -0.0129 C   0  0  0  0  0  0  0  0  0  0  0  0
    2.4134    0.0355   -0.0207 C   0  0  0  0  0  0  0  0  0  0  0  0
    1.2183   -0.6842   -0.0132 C   0  0  0  0  0  0  0  0  0  0  0  0
    0.0021   -0.0041    0.0020 C   0  0  0  0  0  0  0  0  0  0  0  0
   -1.1716   -0.7033    0.0099 N   0  0  0  0  0  0  0  0  0  0  0  0
   -2.2974   -0.0736    0.0244 N   0  0  0  0  0  0  0  0  0  0  0  0
   -3.4710   -0.7728    0.0322 C   0  0  0  0  0  0  0  0  0  0  0  0
   -3.4520   -2.1736    0.0303 C   0  0  0  0  0  0  0  0  0  0  0  0
   -4.6313   -2.8835    0.0382 C   0  0  0  0  0  0  0  0  0  0  0  0
   -5.8499   -2.2169    0.0481 C   0  0  0  0  0  0  0  0  0  0  0  0
   -5.8824   -0.8124    0.0501 C   0  0  0  0  0  0  0  0  0  0  0  0
   -4.6873   -0.0927    0.0479 C   0  0  0  0  0  0  0  0  0  0  0  0
   -7.1722   -0.1031    0.0605 C   0  0  0  0  0  0  0  0  0  0  0  0
   -7.1977    1.1200    0.0622 O   0  0  0  0  0  0  0  0  0  0  0  0
   -8.2187   -0.7366    0.0674 O   0  0  0  0  0  1  0  0  0  0  0  0
   -7.0075   -2.9214    0.0553 O   0  0  0  0  0  0  0  0  0  0  0  0
    3.7032   -0.6738   -0.0373 C   0  0  0  0  0  0  0  0  0  0  0  0
    3.7286   -1.8969   -0.0440 O   0  0  0  0  0  0  0  0  0  0  0  0
    4.7497   -0.0403   -0.0443 O   0  0  0  0  0  1  0  0  0  0  0  0
    3.5386    2.1445   -0.0206 O   0  0  0  0  0  0  0  0  0  0  0  0
   -0.9606    1.9217    0.0261 H   0  0  0  0  0  0  0  0  0  0  0  0
    1.1401    3.1864    0.0079 H   0  0  0  0  0  0  0  0  0  0  0  0
    1.2357   -1.7640   -0.0194 H   0  0  0  0  0  0  0  0  0  0  0  0
   -2.5082   -2.6986    0.0223 H   0  0  0  0  0  0  0  0  0  0  0  0
   -4.6090   -3.9633    0.0363 H   0  0  0  0  0  0  0  0  0  0  0  0
   -4.7046    0.9871    0.0543 H   0  0  0  0  0  0  0  0  0  0  0  0
   -7.3371   -3.1273    0.9408 H   0  0  0  0  0  0  0  0  0  0  0  0
    3.8832    2.3445    0.8605 H   0  0  0  0  0  0  0  0  0  0  0  0
  1  6  2  0  0  0  0
  1  2  1  0  0  0  0
  1 23  1  0  0  0  0
  2  3  2  0  0  0  0
  2 24  1  0  0  0  0
  3  4  1  0  0  0  0
  3 22  1  0  0  0  0
  4  5  2  0  0  0  0
  4 19  1  0  0  0  0
  5  6  1  0  0  0  0
  5 25  1  0  0  0  0
  6  7  1  0  0  0  0
  7  8  2  0  0  0  0
  8  9  1  0  0  0  0
  9 14  2  0  0  0  0
  9 10  1  0  0  0  0
 10 11  2  0  0  0  0
 10 26  1  0  0  0  0
 11 12  1  0  0  0  0
 11 27  1  0  0  0  0
 12 13  2  0  0  0  0
 12 18  1  0  0  0  0
 13 14  1  0  0  0  0
 13 15  1  0  0  0  0
 14 28  1  0  0  0  0
 15 16  2  0  0  0  0
 15 17  1  0  0  0  0
 18 29  1  0  0  0  0
 19 20  2  0  0  0  0
 19 21  1  0  0  0  0
 22 30  1  0  0  0  0
M  END
$$$$
