ZINC03876000
 OpenBabel08292219463D

 40 42  0  0  1  0  0  0  0  0999 V2000
   -0.0442    1.4975    0.0279 C   0  0  0  0  0  0  0  0  0  0  0  0
   -0.0218   -0.0093    0.0125 C   0  0  0  0  0  0  0  0  0  0  0  0
   -0.0243   -0.6238    1.0521 O   0  0  0  0  0  0  0  0  0  0  0  0
    0.0036   -0.7492   -1.3001 C   0  0  0  0  0  0  0  0  0  0  0  0
    0.0229   -2.2561   -1.0359 C   0  0  2  0  0  0  0  0  0  0  0  0
    0.9202   -2.5149   -0.4737 H   0  0  0  0  0  0  0  0  0  0  0  0
    0.0215   -2.9963   -2.3485 C   0  0  0  0  0  0  0  0  0  0  0  0
   -0.9669   -2.7462   -3.2820 C   0  0  0  0  0  0  0  0  0  0  0  0
   -0.9681   -3.4252   -4.4861 C   0  0  0  0  0  0  0  0  0  0  0  0
    0.0193   -4.3540   -4.7569 C   0  0  0  0  0  0  0  0  0  0  0  0
    1.0082   -4.6034   -3.8238 C   0  0  0  0  0  0  0  0  0  0  0  0
    1.0119   -3.9213   -2.6214 C   0  0  0  0  0  0  0  0  0  0  0  0
    0.0174   -5.0817   -6.0458 N   0  0  0  0  0  4  0  0  0  0  0  0
   -0.8477   -4.8639   -6.8618 O   0  0  0  0  0  0  0  0  0  0  0  0
    0.8810   -5.8940   -6.2827 O   0  5  0  0  0  0  0  0  0  0  0  0
   -1.1973   -2.6422   -0.2402 C   0  0  0  0  0  0  0  0  0  0  0  0
   -2.2922   -1.8229   -0.2209 C   0  0  0  0  0  0  0  0  0  0  0  0
   -3.4575   -2.2456    0.5713 C   0  0  0  0  0  0  0  0  0  0  0  0
   -4.6091   -1.4582    0.6352 C   0  0  0  0  0  0  0  0  0  0  0  0
   -5.6830   -1.8828    1.3855 C   0  0  0  0  0  0  0  0  0  0  0  0
   -5.6240   -3.0852    2.0749 C   0  0  0  0  0  0  0  0  0  0  0  0
   -4.4928   -3.8719    2.0205 C   0  0  0  0  0  0  0  0  0  0  0  0
   -3.3987   -3.4624    1.2692 C   0  0  0  0  0  0  0  0  0  0  0  0
   -2.2835   -4.2214    1.2040 O   0  0  0  0  0  0  0  0  0  0  0  0
   -1.2170   -3.8466    0.4795 C   0  0  0  0  0  0  0  0  0  0  0  0
   -0.2369   -4.5703    0.4502 O   0  0  0  0  0  0  0  0  0  0  0  0
   -2.3031   -0.6586   -0.9092 O   0  5  0  0  0  0  0  0  0  0  0  0
    0.9779    1.8759    0.0430 H   0  0  0  0  0  0  0  0  0  0  0  0
   -0.5536    1.8624   -0.8640 H   0  0  0  0  0  0  0  0  0  0  0  0
   -0.5730    1.8440    0.9158 H   0  0  0  0  0  0  0  0  0  0  0  0
   -0.8839   -0.4931   -1.8788 H   0  0  0  0  0  0  0  0  0  0  0  0
    0.8958   -0.4669   -1.8591 H   0  0  0  0  0  0  0  0  0  0  0  0
   -1.7383   -2.0206   -3.0705 H   0  0  0  0  0  0  0  0  0  0  0  0
   -1.7407   -3.2303   -5.2151 H   0  0  0  0  0  0  0  0  0  0  0  0
    1.7794   -5.3293   -4.0352 H   0  0  0  0  0  0  0  0  0  0  0  0
    1.7866   -4.1134   -1.8939 H   0  0  0  0  0  0  0  0  0  0  0  0
   -4.6571   -0.5216    0.0996 H   0  0  0  0  0  0  0  0  0  0  0  0
   -6.5753   -1.2766    1.4378 H   0  0  0  0  0  0  0  0  0  0  0  0
   -6.4723   -3.4082    2.6602 H   0  0  0  0  0  0  0  0  0  0  0  0
   -4.4576   -4.8059    2.5617 H   0  0  0  0  0  0  0  0  0  0  0  0
  1  2  1  0  0  0  0
  1 28  1  0  0  0  0
  1 29  1  0  0  0  0
  1 30  1  0  0  0  0
  2  3  2  0  0  0  0
  2  4  1  0  0  0  0
  4  5  1  0  0  0  0
  4 31  1  0  0  0  0
  4 32  1  0  0  0  0
  5  6  1  1  0  0  0
  5  7  1  0  0  0  0
  5 16  1  0  0  0  0
  7 12  2  0  0  0  0
  7  8  1  0  0  0  0
  8  9  2  0  0  0  0
  8 33  1  0  0  0  0
  9 10  1  0  0  0  0
  9 34  1  0  0  0  0
 10 11  2  0  0  0  0
 10 13  1  0  0  0  0
 11 12  1  0  0  0  0
 11 35  1  0  0  0  0
 12 36  1  0  0  0  0
 13 14  2  0  0  0  0
 13 15  1  0  0  0  0
 16 25  1  0  0  0  0
 16 17  2  0  0  0  0
 17 18  1  0  0  0  0
 17 27  1  0  0  0  0
 18 23  2  0  0  0  0
 18 19  1  0  0  0  0
 19 20  2  0  0  0  0
 19 37  1  0  0  0  0
 20 21  1  0  0  0  0
 20 38  1  0  0  0  0
 21 22  2  0  0  0  0
 21 39  1  0  0  0  0
 22 23  1  0  0  0  0
 22 40  1  0  0  0  0
 23 24  1  0  0  0  0
 24 25  1  0  0  0  0
 25 26  2  0  0  0  0
M  CHG  2  15  -1  27  -1
M  END
$$$$
