ZINC03806413
 OpenBabel08292219463D

 47 48  0  0  1  0  0  0  0  0999 V2000
    0.0350    1.0590    5.0047 C   0  0  0  0  0  0  0  0  0  0  0  0
   -0.7050    1.5658    3.7651 C   0  0  0  0  0  0  0  0  0  0  0  0
    0.0111    1.0724    2.5063 C   0  0  0  0  0  0  0  0  0  0  0  0
   -0.7288    1.5792    1.2668 C   0  0  0  0  0  0  0  0  0  0  0  0
   -0.0127    1.0858    0.0080 C   0  0  0  0  0  0  0  0  0  0  0  0
   -0.7150    1.5668   -1.1683 O   0  0  0  0  0  0  0  0  0  0  0  0
   -0.2100    1.2185   -2.3666 C   0  0  0  0  0  0  0  0  0  0  0  0
    0.7901    0.5315   -2.4278 O   0  0  0  0  0  0  0  0  0  0  0  0
   -0.8139    1.6320   -3.4983 N   0  0  0  0  0  0  0  0  0  0  0  0
   -0.2953    1.2743   -4.7289 C   0  0  0  0  0  0  0  0  0  0  0  0
   -0.9240    1.7048   -5.9152 C   0  0  0  0  0  0  0  0  0  0  0  0
   -0.3942    1.3394   -7.1089 C   0  0  0  0  0  0  0  0  0  0  0  0
    0.7297    0.5673   -7.1303 N   0  0  0  0  0  0  0  0  0  0  0  0
    1.3051    0.1734   -5.9793 C   0  0  0  0  0  0  0  0  0  0  0  0
    2.3102   -0.5171   -6.0168 O   0  0  0  0  0  0  0  0  0  0  0  0
    0.7987    0.5294   -4.7997 N   0  0  0  0  0  0  0  0  0  0  0  0
    1.3131    0.1643   -8.4122 C   0  0  1  0  0  0  0  0  0  0  0  0
    0.6859    0.5029   -9.2369 H   0  0  0  0  0  0  0  0  0  0  0  0
    2.7435    0.7304   -8.5538 C   0  0  1  0  0  0  0  0  0  0  0  0
    3.1759    0.9254   -7.5724 H   0  0  0  0  0  0  0  0  0  0  0  0
    3.5220   -0.3926   -9.2750 C   0  0  1  0  0  0  0  0  0  0  0  0
    4.3393   -0.7527   -8.6501 H   0  0  0  0  0  0  0  0  0  0  0  0
    2.4699   -1.5043   -9.4838 C   0  0  2  0  0  0  0  0  0  0  0  0
    2.0217   -1.4214  -10.4740 H   0  0  0  0  0  0  0  0  0  0  0  0
    1.4773   -1.2697   -8.4614 O   0  0  0  0  0  0  0  0  0  0  0  0
    3.1061   -2.8838   -9.3021 C   0  0  0  0  0  0  0  0  0  0  0  0
    4.0180    0.0701  -10.5327 O   0  0  0  0  0  0  0  0  0  0  0  0
    2.7349    1.9209   -9.3441 O   0  0  0  0  0  0  0  0  0  0  0  0
   -2.0370    2.4689   -5.8635 F   0  0  0  0  0  0  0  0  0  0  0  0
    0.0498   -0.0309    4.9987 H   0  0  0  0  0  0  0  0  0  0  0  0
    1.0576    1.4363    4.9969 H   0  0  0  0  0  0  0  0  0  0  0  0
   -0.4752    1.4105    5.9015 H   0  0  0  0  0  0  0  0  0  0  0  0
   -0.7198    2.6557    3.7711 H   0  0  0  0  0  0  0  0  0  0  0  0
   -1.7276    1.1885    3.7729 H   0  0  0  0  0  0  0  0  0  0  0  0
    0.0259   -0.0175    2.5003 H   0  0  0  0  0  0  0  0  0  0  0  0
    1.0337    1.4497    2.4986 H   0  0  0  0  0  0  0  0  0  0  0  0
   -0.7436    2.6691    1.2728 H   0  0  0  0  0  0  0  0  0  0  0  0
   -1.7514    1.2020    1.2746 H   0  0  0  0  0  0  0  0  0  0  0  0
    0.0021   -0.0041    0.0020 H   0  0  0  0  0  0  0  0  0  0  0  0
    1.0099    1.4631    0.0003 H   0  0  0  0  0  0  0  0  0  0  0  0
   -1.7517    1.2856   -3.5214 H   0  0  0  0  0  0  0  0  0  0  0  0
   -0.8568    1.6564   -8.0319 H   0  0  0  0  0  0  0  0  0  0  0  0
    2.3397   -3.6529   -9.3982 H   0  0  0  0  0  0  0  0  0  0  0  0
    3.8701   -3.0350  -10.0647 H   0  0  0  0  0  0  0  0  0  0  0  0
    3.5618   -2.9465   -8.3139 H   0  0  0  0  0  0  0  0  0  0  0  0
    4.4635   -0.6113  -11.0546 H   0  0  0  0  0  0  0  0  0  0  0  0
    3.6078    2.3189   -9.4653 H   0  0  0  0  0  0  0  0  0  0  0  0
  1  2  1  0  0  0  0
  1 30  1  0  0  0  0
  1 31  1  0  0  0  0
  1 32  1  0  0  0  0
  2  3  1  0  0  0  0
  2 33  1  0  0  0  0
  2 34  1  0  0  0  0
  3  4  1  0  0  0  0
  3 35  1  0  0  0  0
  3 36  1  0  0  0  0
  4  5  1  0  0  0  0
  4 37  1  0  0  0  0
  4 38  1  0  0  0  0
  5  6  1  0  0  0  0
  5 39  1  0  0  0  0
  5 40  1  0  0  0  0
  6  7  1  0  0  0  0
  7  8  2  0  0  0  0
  7  9  1  0  0  0  0
  9 10  1  0  0  0  0
  9 41  1  0  0  0  0
 10 16  2  0  0  0  0
 10 11  1  0  0  0  0
 11 12  2  0  0  0  0
 11 29  1  0  0  0  0
 12 13  1  0  0  0  0
 12 42  1  0  0  0  0
 13 14  1  0  0  0  0
 13 17  1  0  0  0  0
 14 15  2  0  0  0  0
 14 16  1  0  0  0  0
 17 18  1  6  0  0  0
 17 25  1  0  0  0  0
 17 19  1  0  0  0  0
 19 20  1  1  0  0  0
 19 21  1  0  0  0  0
 19 28  1  0  0  0  0
 21 22  1  1  0  0  0
 21 23  1  0  0  0  0
 21 27  1  0  0  0  0
 23 24  1  6  0  0  0
 23 25  1  0  0  0  0
 23 26  1  0  0  0  0
 26 43  1  0  0  0  0
 26 44  1  0  0  0  0
 26 45  1  0  0  0  0
 27 46  1  0  0  0  0
 28 47  1  0  0  0  0
M  END
$$$$
