ZINC03881613
 OpenBabel08292219463D

 64 68  0  0  1  0  0  0  0  0999 V2000
   -0.0187    1.5258    0.0104 C   0  0  0  0  0  0  0  0  0  0  0  0
    0.0021   -0.0041    0.0020 C   0  0  2  0  0  0  0  0  0  0  0  0
   -1.4158   -0.5376    0.0743 C   0  0  0  0  0  0  0  0  0  0  0  0
   -2.0776    0.1004    1.3058 C   0  0  0  0  0  0  0  0  0  0  0  0
   -1.2987   -0.1970    2.5836 C   0  0  1  0  0  0  0  0  0  0  0  0
   -1.3515   -1.2658    2.7907 H   0  0  0  0  0  0  0  0  0  0  0  0
    0.1752    0.2165    2.4630 C   0  0  2  0  0  0  0  0  0  0  0  0
    0.2494    1.2951    2.3243 H   0  0  0  0  0  0  0  0  0  0  0  0
    0.7514   -0.5272    1.2569 C   0  0  2  0  0  0  0  0  0  0  0  0
    0.6125   -1.6031    1.3628 H   0  0  0  0  0  0  0  0  0  0  0  0
    2.2067   -0.1924    0.9110 C   0  0  0  0  0  0  0  0  0  0  0  0
    2.3039   -0.5736   -0.5914 C   0  0  0  0  0  0  0  0  0  0  0  0
    0.8625   -0.5030   -1.1542 C   0  0  2  0  0  0  0  0  0  0  0  0
    0.5320   -1.4921   -1.4715 H   0  0  0  0  0  0  0  0  0  0  0  0
    0.8024    0.4146   -2.2480 O   0  0  0  0  0  0  0  0  0  0  0  0
    0.9458   -0.0965   -3.4809 C   0  0  0  0  0  0  0  0  0  0  0  0
    1.1166   -1.2837   -3.6265 O   0  0  0  0  0  0  0  0  0  0  0  0
    0.8937    0.8103   -4.6833 C   0  0  0  0  0  0  0  0  0  0  0  0
    1.0828   -0.0182   -5.9556 C   0  0  0  0  0  0  0  0  0  0  0  0
    1.0306    0.8887   -7.1580 C   0  0  0  0  0  0  0  0  0  0  0  0
   -0.1781    1.1474   -7.7768 C   0  0  0  0  0  0  0  0  0  0  0  0
   -0.2260    1.9792   -8.8798 C   0  0  0  0  0  0  0  0  0  0  0  0
    0.9349    2.5528   -9.3637 C   0  0  0  0  0  0  0  0  0  0  0  0
    2.1436    2.2948   -8.7445 C   0  0  0  0  0  0  0  0  0  0  0  0
    2.1908    1.4663   -7.6389 C   0  0  0  0  0  0  0  0  0  0  0  0
    0.9157   -0.1993    3.7375 C   0  0  0  0  0  0  0  0  0  0  0  0
    0.3625    0.5959    4.9221 C   0  0  0  0  0  0  0  0  0  0  0  0
   -1.1396    0.3896    4.9907 C   0  0  0  0  0  0  0  0  0  0  0  0
   -1.6676    0.0666    6.1711 C   0  0  0  0  0  0  0  0  0  0  0  0
   -3.1159   -0.1282    6.2982 C   0  0  0  0  0  0  0  0  0  0  0  0
   -3.5965   -0.7740    7.2060 O   0  0  0  0  0  0  0  0  0  0  0  0
   -3.9807    0.5207    5.2350 C   0  0  0  0  0  0  0  0  0  0  0  0
   -3.3979    0.1372    3.8755 C   0  0  0  0  0  0  0  0  0  0  0  0
   -1.9353    0.5692    3.7501 C   0  0  2  0  0  0  0  0  0  0  0  0
   -1.9238    1.6303    3.5011 H   0  0  0  0  0  0  0  0  0  0  0  0
    1.0039    1.9031    0.0027 H   0  0  0  0  0  0  0  0  0  0  0  0
   -0.5459    1.8868   -0.8726 H   0  0  0  0  0  0  0  0  0  0  0  0
   -0.5289    1.8773    0.9072 H   0  0  0  0  0  0  0  0  0  0  0  0
   -1.9632   -0.2607   -0.8268 H   0  0  0  0  0  0  0  0  0  0  0  0
   -1.3995   -1.6222    0.1815 H   0  0  0  0  0  0  0  0  0  0  0  0
   -2.1276    1.1799    1.1632 H   0  0  0  0  0  0  0  0  0  0  0  0
   -3.0901   -0.2904    1.4077 H   0  0  0  0  0  0  0  0  0  0  0  0
    2.4020    0.8706    1.0526 H   0  0  0  0  0  0  0  0  0  0  0  0
    2.8929   -0.7943    1.5068 H   0  0  0  0  0  0  0  0  0  0  0  0
    2.9456    0.1342   -1.1162 H   0  0  0  0  0  0  0  0  0  0  0  0
    2.6974   -1.5847   -0.6961 H   0  0  0  0  0  0  0  0  0  0  0  0
   -0.0728    1.3132   -4.7175 H   0  0  0  0  0  0  0  0  0  0  0  0
    1.6877    1.5537   -4.6125 H   0  0  0  0  0  0  0  0  0  0  0  0
    2.0492   -0.5211   -5.9214 H   0  0  0  0  0  0  0  0  0  0  0  0
    0.2887   -0.7616   -6.0264 H   0  0  0  0  0  0  0  0  0  0  0  0
   -1.0851    0.6993   -7.3986 H   0  0  0  0  0  0  0  0  0  0  0  0
   -1.1703    2.1808   -9.3636 H   0  0  0  0  0  0  0  0  0  0  0  0
    0.8977    3.2021  -10.2259 H   0  0  0  0  0  0  0  0  0  0  0  0
    3.0506    2.7426   -9.1228 H   0  0  0  0  0  0  0  0  0  0  0  0
    3.1346    1.2678   -7.1528 H   0  0  0  0  0  0  0  0  0  0  0  0
    0.7681   -1.2649    3.9134 H   0  0  0  0  0  0  0  0  0  0  0  0
    1.9798    0.0081    3.6247 H   0  0  0  0  0  0  0  0  0  0  0  0
    0.8223    0.2433    5.8454 H   0  0  0  0  0  0  0  0  0  0  0  0
    0.5800    1.6550    4.7845 H   0  0  0  0  0  0  0  0  0  0  0  0
   -1.0290   -0.0520    7.0340 H   0  0  0  0  0  0  0  0  0  0  0  0
   -5.0043    0.1549    5.3159 H   0  0  0  0  0  0  0  0  0  0  0  0
   -3.9630    1.6041    5.3535 H   0  0  0  0  0  0  0  0  0  0  0  0
   -3.4588   -0.9444    3.7551 H   0  0  0  0  0  0  0  0  0  0  0  0
   -3.9842    0.6144    3.0902 H   0  0  0  0  0  0  0  0  0  0  0  0
  1 36  1  0  0  0  0
  1 37  1  0  0  0  0
  1 38  1  0  0  0  0
  2  1  1  1  0  0  0
  2  9  1  0  0  0  0
  2 13  1  0  0  0  0
  2  3  1  0  0  0  0
  3  4  1  0  0  0  0
  3 39  1  0  0  0  0
  3 40  1  0  0  0  0
  4  5  1  0  0  0  0
  4 41  1  0  0  0  0
  4 42  1  0  0  0  0
  5  6  1  1  0  0  0
  5 34  1  0  0  0  0
  5  7  1  0  0  0  0
  7  8  1  6  0  0  0
  7  9  1  0  0  0  0
  7 26  1  0  0  0  0
  9 10  1  1  0  0  0
  9 11  1  0  0  0  0
 11 12  1  0  0  0  0
 11 43  1  0  0  0  0
 11 44  1  0  0  0  0
 12 13  1  0  0  0  0
 12 45  1  0  0  0  0
 12 46  1  0  0  0  0
 13 14  1  6  0  0  0
 13 15  1  0  0  0  0
 15 16  1  0  0  0  0
 16 17  2  0  0  0  0
 16 18  1  0  0  0  0
 18 19  1  0  0  0  0
 18 47  1  0  0  0  0
 18 48  1  0  0  0  0
 19 20  1  0  0  0  0
 19 49  1  0  0  0  0
 19 50  1  0  0  0  0
 20 25  2  0  0  0  0
 20 21  1  0  0  0  0
 21 22  2  0  0  0  0
 21 51  1  0  0  0  0
 22 23  1  0  0  0  0
 22 52  1  0  0  0  0
 23 24  2  0  0  0  0
 23 53  1  0  0  0  0
 24 25  1  0  0  0  0
 24 54  1  0  0  0  0
 25 55  1  0  0  0  0
 26 27  1  0  0  0  0
 26 56  1  0  0  0  0
 26 57  1  0  0  0  0
 27 28  1  0  0  0  0
 27 58  1  0  0  0  0
 27 59  1  0  0  0  0
 28 34  1  0  0  0  0
 28 29  2  0  0  0  0
 29 30  1  0  0  0  0
 29 60  1  0  0  0  0
 30 31  2  0  0  0  0
 30 32  1  0  0  0  0
 32 33  1  0  0  0  0
 32 61  1  0  0  0  0
 32 62  1  0  0  0  0
 33 34  1  0  0  0  0
 33 63  1  0  0  0  0
 33 64  1  0  0  0  0
 34 35  1  6  0  0  0
M  END
$$$$
