ZINC19796041
 OpenBabel08292219463D

 54 55  0  0  1  0  0  0  0  0999 V2000
    1.9114   -1.6145   -2.3659 C   0  0  0  0  0  0  0  0  0  0  0  0
    1.0231   -1.3941   -1.1399 C   0  0  0  0  0  0  0  0  0  0  0  0
    1.6578   -1.9485    0.0141 O   0  0  0  0  0  0  0  0  0  0  0  0
    1.0006   -1.8374    1.1876 C   0  0  0  0  0  0  0  0  0  0  0  0
   -0.0825   -1.2844    1.2283 O   0  0  0  0  0  0  0  0  0  0  0  0
    1.5707   -2.3639    2.3698 C   0  0  0  0  0  0  0  0  0  0  0  0
    1.4893   -3.6844    2.6076 C   0  0  0  0  0  0  0  0  0  0  0  0
    2.0231   -4.2258    3.7452 N   0  0  0  0  0  0  0  0  0  0  0  0
    2.3221   -3.4271    4.8151 C   0  0  0  0  0  0  0  0  0  0  0  0
    2.4382   -2.0958    4.6693 C   0  0  0  0  0  0  0  0  0  0  0  0
    2.2595   -1.4360    3.3299 C   0  0  1  0  0  0  0  0  0  0  0  0
    1.6577   -0.5356    3.4532 H   0  0  0  0  0  0  0  0  0  0  0  0
    3.6081   -1.0580    2.7735 C   0  0  0  0  0  0  0  0  0  0  0  0
    4.5471   -2.0379    2.5112 C   0  0  0  0  0  0  0  0  0  0  0  0
    5.7840   -1.6914    2.0008 C   0  0  0  0  0  0  0  0  0  0  0  0
    6.0828   -0.3645    1.7523 C   0  0  0  0  0  0  0  0  0  0  0  0
    5.1449    0.6161    2.0141 C   0  0  0  0  0  0  0  0  0  0  0  0
    3.9044    0.2692    2.5197 C   0  0  0  0  0  0  0  0  0  0  0  0
    2.7233    1.4997    2.8427 Cl  0  0  0  0  0  0  0  0  0  0  0  0
    2.7391   -1.2999    5.7988 C   0  0  0  0  0  0  0  0  0  0  0  0
    2.8901   -1.8214    6.8878 O   0  0  0  0  0  0  0  0  0  0  0  0
    2.8589    0.0380    5.6689 O   0  0  0  0  0  0  0  0  0  0  0  0
    3.1642    0.7799    6.8514 C   0  0  0  0  0  0  0  0  0  0  0  0
    2.5233   -4.0474    6.1737 C   0  0  0  0  0  0  0  0  0  0  0  0
    0.8014   -4.5794    1.6092 C   0  0  0  0  0  0  0  0  0  0  0  0
    1.7561   -5.4739    1.0344 O   0  0  0  0  0  0  0  0  0  0  0  0
    1.2040   -6.3712    0.0689 C   0  0  0  0  0  0  0  0  0  0  0  0
    2.3100   -7.2766   -0.4770 C   0  0  0  0  0  0  0  0  0  0  0  0
    2.8194   -8.1327    0.6026 N   0  3  0  0  0  0  0  0  0  0  0  0
    2.0666   -2.6831   -2.5147 H   0  0  0  0  0  0  0  0  0  0  0  0
    1.4273   -1.1916   -3.2462 H   0  0  0  0  0  0  0  0  0  0  0  0
    2.8732   -1.1259   -2.2103 H   0  0  0  0  0  0  0  0  0  0  0  0
    0.8679   -0.3255   -0.9911 H   0  0  0  0  0  0  0  0  0  0  0  0
    0.0612   -1.8827   -1.2955 H   0  0  0  0  0  0  0  0  0  0  0  0
    2.1899   -5.1801    3.7935 H   0  0  0  0  0  0  0  0  0  0  0  0
    4.3144   -3.0745    2.7054 H   0  0  0  0  0  0  0  0  0  0  0  0
    6.5174   -2.4573    1.7964 H   0  0  0  0  0  0  0  0  0  0  0  0
    7.0496   -0.0943    1.3539 H   0  0  0  0  0  0  0  0  0  0  0  0
    5.3785    1.6525    1.8203 H   0  0  0  0  0  0  0  0  0  0  0  0
    2.3771    0.6267    7.5898 H   0  0  0  0  0  0  0  0  0  0  0  0
    4.1159    0.4388    7.2588 H   0  0  0  0  0  0  0  0  0  0  0  0
    3.2323    1.8401    6.6077 H   0  0  0  0  0  0  0  0  0  0  0  0
    2.3915   -5.1271    6.1032 H   0  0  0  0  0  0  0  0  0  0  0  0
    3.5301   -3.8267    6.5284 H   0  0  0  0  0  0  0  0  0  0  0  0
    1.7940   -3.6371    6.8721 H   0  0  0  0  0  0  0  0  0  0  0  0
    0.0226   -5.1531    2.1117 H   0  0  0  0  0  0  0  0  0  0  0  0
    0.3545   -3.9708    0.8232 H   0  0  0  0  0  0  0  0  0  0  0  0
    0.4336   -6.9821    0.5394 H   0  0  0  0  0  0  0  0  0  0  0  0
    0.7654   -5.7998   -0.7491 H   0  0  0  0  0  0  0  0  0  0  0  0
    1.9082   -7.8998   -1.2759 H   0  0  0  0  0  0  0  0  0  0  0  0
    3.1218   -6.6632   -0.8680 H   0  0  0  0  0  0  0  0  0  0  0  0
    3.1914   -7.5559    1.3422 H   0  0  0  0  0  0  0  0  0  0  0  0
    2.0680   -8.7005    0.9645 H   0  0  0  0  0  0  0  0  0  0  0  0
    3.5488   -8.7298    0.2426 H   0  0  0  0  0  0  0  0  0  0  0  0
  1  2  1  0  0  0  0
  1 30  1  0  0  0  0
  1 31  1  0  0  0  0
  1 32  1  0  0  0  0
  2  3  1  0  0  0  0
  2 33  1  0  0  0  0
  2 34  1  0  0  0  0
  3  4  1  0  0  0  0
  4  5  2  0  0  0  0
  4  6  1  0  0  0  0
  6 11  1  0  0  0  0
  6  7  2  0  0  0  0
  7  8  1  0  0  0  0
  7 25  1  0  0  0  0
  8  9  1  0  0  0  0
  8 35  1  0  0  0  0
  9 10  2  0  0  0  0
  9 24  1  0  0  0  0
 10 11  1  0  0  0  0
 10 20  1  0  0  0  0
 11 12  1  1  0  0  0
 11 13  1  0  0  0  0
 13 18  2  0  0  0  0
 13 14  1  0  0  0  0
 14 15  2  0  0  0  0
 14 36  1  0  0  0  0
 15 16  1  0  0  0  0
 15 37  1  0  0  0  0
 16 17  2  0  0  0  0
 16 38  1  0  0  0  0
 17 18  1  0  0  0  0
 17 39  1  0  0  0  0
 18 19  1  0  0  0  0
 20 21  2  0  0  0  0
 20 22  1  0  0  0  0
 22 23  1  0  0  0  0
 23 40  1  0  0  0  0
 23 41  1  0  0  0  0
 23 42  1  0  0  0  0
 24 43  1  0  0  0  0
 24 44  1  0  0  0  0
 24 45  1  0  0  0  0
 25 26  1  0  0  0  0
 25 46  1  0  0  0  0
 25 47  1  0  0  0  0
 26 27  1  0  0  0  0
 27 28  1  0  0  0  0
 27 48  1  0  0  0  0
 27 49  1  0  0  0  0
 28 29  1  0  0  0  0
 28 50  1  0  0  0  0
 28 51  1  0  0  0  0
 29 52  1  0  0  0  0
 29 53  1  0  0  0  0
 29 54  1  0  0  0  0
M  CHG  1  29   1
M  END
$$$$
