ZINC00000189
 OpenBabel08292219463D

 44 45  0  0  1  0  0  0  0  0999 V2000
   -0.0187    1.5241    0.0104 C   0  0  0  0  0  0  0  0  0  0  0  0
    0.0021   -0.0041    0.0020 C   0  0  2  0  0  0  0  0  0  0  0  0
    0.5300   -0.3094   -0.9271 H   0  0  0  0  0  0  0  0  0  0  0  0
   -1.4124   -0.5589   -0.0880 C   0  0  0  0  0  0  0  0  0  0  0  0
   -2.1378   -0.4116    1.2482 C   0  0  2  0  0  0  0  0  0  0  0  0
   -2.2086    0.6363    1.5269 H   0  0  0  0  0  0  0  0  0  0  0  0
   -1.3780   -1.1991    2.3132 C   0  0  0  0  0  0  0  0  0  0  0  0
    0.0339   -0.6506    2.4879 C   0  0  0  0  0  0  0  0  0  0  0  0
    0.7872   -0.5606    1.1724 C   0  0  0  0  0  0  0  0  0  0  0  0
    0.8029   -1.6184    3.4132 C   0  0  0  0  0  0  0  0  0  0  0  0
   -0.0151    0.7105    3.1875 C   0  0  0  0  0  0  0  0  0  0  0  0
   -3.4613   -0.9466    1.1242 O   0  0  0  0  0  0  0  0  0  0  0  0
   -4.4269   -0.0997    0.7343 C   0  0  0  0  0  0  0  0  0  0  0  0
   -4.1604    1.0564    0.5056 O   0  0  0  0  0  0  0  0  0  0  0  0
   -5.8435   -0.5908    0.5818 C   0  0  1  0  0  0  0  0  0  0  0  0
   -5.8612   -1.4442   -0.0961 H   0  0  0  0  0  0  0  0  0  0  0  0
   -6.3784   -1.0072    1.9277 C   0  0  0  0  0  0  0  0  0  0  0  0
   -6.9415   -0.0659    2.7691 C   0  0  0  0  0  0  0  0  0  0  0  0
   -7.4322   -0.4479    4.0036 C   0  0  0  0  0  0  0  0  0  0  0  0
   -7.3602   -1.7712    4.3967 C   0  0  0  0  0  0  0  0  0  0  0  0
   -6.7980   -2.7127    3.5550 C   0  0  0  0  0  0  0  0  0  0  0  0
   -6.3112   -2.3314    2.3187 C   0  0  0  0  0  0  0  0  0  0  0  0
   -6.6563    0.4572    0.0497 O   0  0  0  0  0  0  0  0  0  0  0  0
    1.0039    1.9014    0.0027 H   0  0  0  0  0  0  0  0  0  0  0  0
   -0.5458    1.8852   -0.8726 H   0  0  0  0  0  0  0  0  0  0  0  0
   -0.5288    1.8756    0.9072 H   0  0  0  0  0  0  0  0  0  0  0  0
   -1.9685   -0.0199   -0.8599 H   0  0  0  0  0  0  0  0  0  0  0  0
   -1.3745   -1.6165   -0.3622 H   0  0  0  0  0  0  0  0  0  0  0  0
   -1.9143   -1.1316    3.2632 H   0  0  0  0  0  0  0  0  0  0  0  0
   -1.3256   -2.2498    2.0164 H   0  0  0  0  0  0  0  0  0  0  0  0
    1.1518   -1.5668    0.9080 H   0  0  0  0  0  0  0  0  0  0  0  0
    1.6859    0.0590    1.3240 H   0  0  0  0  0  0  0  0  0  0  0  0
    0.8347   -2.6082    2.9579 H   0  0  0  0  0  0  0  0  0  0  0  0
    1.8193   -1.2522    3.5578 H   0  0  0  0  0  0  0  0  0  0  0  0
    0.2976   -1.6780    4.3772 H   0  0  0  0  0  0  0  0  0  0  0  0
   -0.4800    0.5989    4.1671 H   0  0  0  0  0  0  0  0  0  0  0  0
    0.9981    1.0939    3.3077 H   0  0  0  0  0  0  0  0  0  0  0  0
   -0.5984    1.4075    2.5858 H   0  0  0  0  0  0  0  0  0  0  0  0
   -6.9977    0.9680    2.4620 H   0  0  0  0  0  0  0  0  0  0  0  0
   -7.8714    0.2877    4.6613 H   0  0  0  0  0  0  0  0  0  0  0  0
   -7.7430   -2.0695    5.3616 H   0  0  0  0  0  0  0  0  0  0  0  0
   -6.7415   -3.7465    3.8623 H   0  0  0  0  0  0  0  0  0  0  0  0
   -5.8753   -3.0676    1.6595 H   0  0  0  0  0  0  0  0  0  0  0  0
   -6.6871    1.2502    0.6022 H   0  0  0  0  0  0  0  0  0  0  0  0
  1  2  1  0  0  0  0
  1 24  1  0  0  0  0
  1 25  1  0  0  0  0
  1 26  1  0  0  0  0
  2  3  1  6  0  0  0
  2  9  1  0  0  0  0
  2  4  1  0  0  0  0
  4  5  1  0  0  0  0
  4 27  1  0  0  0  0
  4 28  1  0  0  0  0
  5  6  1  1  0  0  0
  5  7  1  0  0  0  0
  5 12  1  0  0  0  0
  7  8  1  0  0  0  0
  7 29  1  0  0  0  0
  7 30  1  0  0  0  0
  8  9  1  0  0  0  0
  8 10  1  0  0  0  0
  8 11  1  0  0  0  0
  9 31  1  0  0  0  0
  9 32  1  0  0  0  0
 10 33  1  0  0  0  0
 10 34  1  0  0  0  0
 10 35  1  0  0  0  0
 11 36  1  0  0  0  0
 11 37  1  0  0  0  0
 11 38  1  0  0  0  0
 12 13  1  0  0  0  0
 13 14  2  0  0  0  0
 13 15  1  0  0  0  0
 15 16  1  6  0  0  0
 15 17  1  0  0  0  0
 15 23  1  0  0  0  0
 17 22  2  0  0  0  0
 17 18  1  0  0  0  0
 18 19  2  0  0  0  0
 18 39  1  0  0  0  0
 19 20  1  0  0  0  0
 19 40  1  0  0  0  0
 20 21  2  0  0  0  0
 20 41  1  0  0  0  0
 21 22  1  0  0  0  0
 21 42  1  0  0  0  0
 22 43  1  0  0  0  0
 23 44  1  0  0  0  0
M  END
$$$$
