ZINC00002043
 OpenBabel08292219463D

 40 41  0  0  1  0  0  0  0  0999 V2000
   -0.0178    1.4648    0.0101 C   0  0  0  0  0  0  0  0  0  0  0  0
    0.0021   -0.0041    0.0020 N   0  3  0  0  0  0  0  0  0  0  0  0
   -1.3761   -0.5125    0.0124 C   0  0  0  0  0  0  0  0  0  0  0  0
    0.6897   -0.4778   -1.2066 C   0  0  0  0  0  0  0  0  0  0  0  0
    2.1588   -0.0534   -1.1571 C   0  0  0  0  0  0  0  0  0  0  0  0
    2.8089   -0.7134   -0.0690 O   0  0  0  0  0  0  0  0  0  0  0  0
    4.1928   -0.3845    0.0669 C   0  0  2  0  0  0  0  0  0  0  0  0
    4.6086   -0.1502   -0.9131 H   0  0  0  0  0  0  0  0  0  0  0  0
    4.9319   -1.5569    0.6588 C   0  0  0  0  0  0  0  0  0  0  0  0
    4.3116   -2.3638    1.5943 C   0  0  0  0  0  0  0  0  0  0  0  0
    4.9889   -3.4391    2.1376 C   0  0  0  0  0  0  0  0  0  0  0  0
    6.2880   -3.7080    1.7449 C   0  0  0  0  0  0  0  0  0  0  0  0
    6.9084   -2.9001    0.8087 C   0  0  0  0  0  0  0  0  0  0  0  0
    6.2280   -1.8283    0.2619 C   0  0  0  0  0  0  0  0  0  0  0  0
    7.1396   -5.0581    2.4272 Cl  0  0  0  0  0  0  0  0  0  0  0  0
    4.3385    0.8106    0.9732 C   0  0  0  0  0  0  0  0  0  0  0  0
    4.8309    1.9978    0.4645 C   0  0  0  0  0  0  0  0  0  0  0  0
    4.9609    3.0913    1.3066 C   0  0  0  0  0  0  0  0  0  0  0  0
    4.5892    2.9491    2.6350 C   0  0  0  0  0  0  0  0  0  0  0  0
    4.1050    1.7310    3.0721 C   0  0  0  0  0  0  0  0  0  0  0  0
    3.9898    0.7134    2.2411 N   0  0  0  0  0  0  0  0  0  0  0  0
    1.0047    1.8421    0.0024 H   0  0  0  0  0  0  0  0  0  0  0  0
   -0.5450    1.8259   -0.8730 H   0  0  0  0  0  0  0  0  0  0  0  0
   -0.5280    1.8163    0.9069 H   0  0  0  0  0  0  0  0  0  0  0  0
   -1.9033   -0.1515   -0.8706 H   0  0  0  0  0  0  0  0  0  0  0  0
   -1.3613   -1.6024    0.0065 H   0  0  0  0  0  0  0  0  0  0  0  0
   -1.8863   -0.1610    0.9092 H   0  0  0  0  0  0  0  0  0  0  0  0
    0.6270   -1.5648   -1.2578 H   0  0  0  0  0  0  0  0  0  0  0  0
    0.2158   -0.0447   -2.0875 H   0  0  0  0  0  0  0  0  0  0  0  0
    2.6477   -0.3267   -2.0922 H   0  0  0  0  0  0  0  0  0  0  0  0
    2.2206    1.0258   -1.0166 H   0  0  0  0  0  0  0  0  0  0  0  0
    3.2976   -2.1536    1.9010 H   0  0  0  0  0  0  0  0  0  0  0  0
    4.5043   -4.0693    2.8687 H   0  0  0  0  0  0  0  0  0  0  0  0
    7.9226   -3.1092    0.5020 H   0  0  0  0  0  0  0  0  0  0  0  0
    6.7105   -1.2004   -0.4725 H   0  0  0  0  0  0  0  0  0  0  0  0
    5.1110    2.0725   -0.5759 H   0  0  0  0  0  0  0  0  0  0  0  0
    5.3430    4.0314    0.9370 H   0  0  0  0  0  0  0  0  0  0  0  0
    4.6774    3.7799    3.3194 H   0  0  0  0  0  0  0  0  0  0  0  0
    3.8134    1.6121    4.1052 H   0  0  0  0  0  0  0  0  0  0  0  0
    0.4901   -0.3383    0.8195 H   0  0  0  0  0  0  0  0  0  0  0  0
  1  2  1  0  0  0  0
  1 22  1  0  0  0  0
  1 23  1  0  0  0  0
  1 24  1  0  0  0  0
  2  3  1  0  0  0  0
  2  4  1  0  0  0  0
  2 40  1  0  0  0  0
  3 25  1  0  0  0  0
  3 26  1  0  0  0  0
  3 27  1  0  0  0  0
  4  5  1  0  0  0  0
  4 28  1  0  0  0  0
  4 29  1  0  0  0  0
  5  6  1  0  0  0  0
  5 30  1  0  0  0  0
  5 31  1  0  0  0  0
  6  7  1  0  0  0  0
  7  8  1  6  0  0  0
  7  9  1  0  0  0  0
  7 16  1  0  0  0  0
  9 14  2  0  0  0  0
  9 10  1  0  0  0  0
 10 11  2  0  0  0  0
 10 32  1  0  0  0  0
 11 12  1  0  0  0  0
 11 33  1  0  0  0  0
 12 13  2  0  0  0  0
 12 15  1  0  0  0  0
 13 14  1  0  0  0  0
 13 34  1  0  0  0  0
 14 35  1  0  0  0  0
 16 21  2  0  0  0  0
 16 17  1  0  0  0  0
 17 18  2  0  0  0  0
 17 36  1  0  0  0  0
 18 19  1  0  0  0  0
 18 37  1  0  0  0  0
 19 20  2  0  0  0  0
 19 38  1  0  0  0  0
 20 21  1  0  0  0  0
 20 39  1  0  0  0  0
M  CHG  1   2   1
M  END
$$$$
