ZINC12402582
 OpenBabel08292219463D

 35 37  0  0  1  0  0  0  0  0999 V2000
   -0.0187    1.5258    0.0104 C   0  0  0  0  0  0  0  0  0  0  0  0
    0.0021   -0.0041    0.0020 C   0  0  1  0  0  0  0  0  0  0  0  0
    0.7182   -0.4975   -1.2568 C   0  0  0  0  0  0  0  0  0  0  0  0
    0.7390   -2.0273   -1.2652 C   0  0  1  0  0  0  0  0  0  0  0  0
    1.4790   -2.5342   -0.0257 C   0  0  0  0  0  0  0  0  0  0  0  0
    0.7628   -2.0407    1.2331 C   0  0  1  0  0  0  0  0  0  0  0  0
    0.7421   -0.5109    1.2415 C   0  0  0  0  0  0  0  0  0  0  0  0
   -0.6726   -2.5703    1.2440 C   0  0  0  0  0  0  0  0  0  0  0  0
   -1.4126   -2.0635    0.0045 C   0  0  2  0  0  0  0  0  0  0  0  0
   -0.6964   -2.5569   -1.2543 C   0  0  0  0  0  0  0  0  0  0  0  0
   -1.4333   -0.5336    0.0129 C   0  0  0  0  0  0  0  0  0  0  0  0
   -2.7907   -2.5720    0.0149 N   0  3  0  0  0  0  0  0  0  0  0  0
    1.5028   -2.5476    2.4727 C   0  0  0  0  0  0  0  0  0  0  0  0
    1.0039    1.9031    0.0027 H   0  0  0  0  0  0  0  0  0  0  0  0
   -0.5459    1.8868   -0.8726 H   0  0  0  0  0  0  0  0  0  0  0  0
   -0.5289    1.8773    0.9072 H   0  0  0  0  0  0  0  0  0  0  0  0
    0.1910   -0.1364   -2.1398 H   0  0  0  0  0  0  0  0  0  0  0  0
    1.7408   -0.1202   -1.2645 H   0  0  0  0  0  0  0  0  0  0  0  0
    1.2492   -2.3788   -2.1620 H   0  0  0  0  0  0  0  0  0  0  0  0
    1.4937   -3.6240   -0.0317 H   0  0  0  0  0  0  0  0  0  0  0  0
    2.5015   -2.1569   -0.0334 H   0  0  0  0  0  0  0  0  0  0  0  0
    1.7647   -0.1336    1.2338 H   0  0  0  0  0  0  0  0  0  0  0  0
    0.2319   -0.1594    2.1383 H   0  0  0  0  0  0  0  0  0  0  0  0
   -0.6578   -3.6602    1.2380 H   0  0  0  0  0  0  0  0  0  0  0  0
   -1.1828   -2.2188    2.1408 H   0  0  0  0  0  0  0  0  0  0  0  0
   -1.2236   -2.1958   -2.1374 H   0  0  0  0  0  0  0  0  0  0  0  0
   -0.6816   -3.6468   -1.2603 H   0  0  0  0  0  0  0  0  0  0  0  0
   -1.9435   -0.1821    0.9097 H   0  0  0  0  0  0  0  0  0  0  0  0
   -1.9605   -0.1726   -0.8702 H   0  0  0  0  0  0  0  0  0  0  0  0
   -3.2630   -2.2466    0.8450 H   0  0  0  0  0  0  0  0  0  0  0  0
   -3.2787   -2.2377   -0.8025 H   0  0  0  0  0  0  0  0  0  0  0  0
    2.5254   -2.1703    2.4649 H   0  0  0  0  0  0  0  0  0  0  0  0
    0.9926   -2.1961    3.3695 H   0  0  0  0  0  0  0  0  0  0  0  0
    1.5176   -3.6375    2.4667 H   0  0  0  0  0  0  0  0  0  0  0  0
   -2.7770   -3.5808    0.0093 H   0  0  0  0  0  0  0  0  0  0  0  0
  1 14  1  0  0  0  0
  1 15  1  0  0  0  0
  1 16  1  0  0  0  0
  2  1  1  1  0  0  0
  2  7  1  0  0  0  0
  2 11  1  0  0  0  0
  2  3  1  0  0  0  0
  3  4  1  0  0  0  0
  3 17  1  0  0  0  0
  3 18  1  0  0  0  0
  4 10  1  0  0  0  0
  4  5  1  0  0  0  0
  4 19  1  6  0  0  0
  5  6  1  0  0  0  0
  5 20  1  0  0  0  0
  5 21  1  0  0  0  0
  6  7  1  0  0  0  0
  6  8  1  0  0  0  0
  6 13  1  1  0  0  0
  7 22  1  0  0  0  0
  7 23  1  0  0  0  0
  8  9  1  0  0  0  0
  8 24  1  0  0  0  0
  8 25  1  0  0  0  0
  9 10  1  0  0  0  0
  9 11  1  0  0  0  0
  9 12  1  1  0  0  0
 10 26  1  0  0  0  0
 10 27  1  0  0  0  0
 11 28  1  0  0  0  0
 11 29  1  0  0  0  0
 12 30  1  0  0  0  0
 12 31  1  0  0  0  0
 12 35  1  0  0  0  0
 13 32  1  0  0  0  0
 13 33  1  0  0  0  0
 13 34  1  0  0  0  0
M  CHG  1  12   1
M  END
$$$$
