ZINC64622556
 OpenBabel08292219463D

 78 80  0  0  1  0  0  0  0  0999 V2000
   -0.0816    2.8050    0.4811 C   0  0  0  0  0  0  0  0  0  0  0  0
    0.2296    1.3070    0.4754 C   0  0  0  0  0  0  0  0  0  0  0  0
    0.7655    0.9232   -0.8374 N   0  3  0  0  0  0  0  0  0  0  0  0
    1.0643   -0.5150   -0.8428 C   0  0  2  0  0  0  0  0  0  0  0  0
    0.1722   -1.0726   -0.5577 H   0  0  0  0  0  0  0  0  0  0  0  0
    2.1880   -0.8063    0.1540 C   0  0  0  0  0  0  0  0  0  0  0  0
    2.4992   -2.3043    0.1483 C   0  0  1  0  0  0  0  0  0  0  0  0
    1.6070   -2.8618    0.4334 H   0  0  0  0  0  0  0  0  0  0  0  0
    2.9391   -2.7285   -1.2544 C   0  0  2  0  0  0  0  0  0  0  0  0
    3.8313   -2.1709   -1.5395 H   0  0  0  0  0  0  0  0  0  0  0  0
    1.8155   -2.4372   -2.2512 C   0  0  1  0  0  0  0  0  0  0  0  0
    0.9233   -2.9947   -1.9661 H   0  0  0  0  0  0  0  0  0  0  0  0
    1.5043   -0.9392   -2.2455 C   0  0  1  0  0  0  0  0  0  0  0  0
    2.3965   -0.3817   -2.5306 H   0  0  0  0  0  0  0  0  0  0  0  0
    0.4548   -0.6672   -3.1765 O   0  0  0  0  0  0  0  0  0  0  0  0
    0.9122   -0.3693   -4.4971 C   0  0  2  0  0  0  0  0  0  0  0  0
    1.6882    0.3947   -4.4493 H   0  0  0  0  0  0  0  0  0  0  0  0
   -0.2587    0.1442   -5.3392 C   0  0  2  0  0  0  0  0  0  0  0  0
    0.2261    0.4041   -6.7688 C   0  0  1  0  0  0  0  0  0  0  0  0
    0.9847    1.1867   -6.7600 H   0  0  0  0  0  0  0  0  0  0  0  0
    0.8273   -0.8860   -7.3348 C   0  0  2  0  0  0  0  0  0  0  0  0
    0.0558   -1.6540   -7.3897 H   0  0  0  0  0  0  0  0  0  0  0  0
    1.9563   -1.3598   -6.4156 C   0  0  0  0  0  0  0  0  0  0  0  0
    1.4447   -1.5528   -5.0953 O   0  0  0  0  0  0  0  0  0  0  0  0
    1.3472   -0.6371   -8.6424 O   0  0  0  0  0  0  0  0  0  0  0  0
   -0.9070    0.8273   -7.6025 N   0  3  0  0  0  0  0  0  0  0  0  0
   -0.4198    1.2037   -8.9363 C   0  0  0  0  0  0  0  0  0  0  0  0
   -0.7908    1.4454   -4.7353 C   0  0  0  0  0  0  0  0  0  0  0  0
   -1.2989   -0.8353   -5.3583 O   0  0  0  0  0  0  0  0  0  0  0  0
    2.2264   -2.8334   -3.5612 O   0  0  0  0  0  0  0  0  0  0  0  0
    3.2298   -4.1276   -1.2597 O   0  0  0  0  0  0  0  0  0  0  0  0
    4.3040   -4.4947   -2.1275 C   0  0  2  0  0  0  0  0  0  0  0  0
    4.1488   -4.0529   -3.1118 H   0  0  0  0  0  0  0  0  0  0  0  0
    4.3705   -6.0233   -2.2510 C   0  0  1  0  0  0  0  0  0  0  0  0
    3.4222   -6.4033   -2.6312 H   0  0  0  0  0  0  0  0  0  0  0  0
    5.4977   -6.3751   -3.2278 C   0  0  0  0  0  0  0  0  0  0  0  0
    6.7270   -5.5801   -2.8810 C   0  0  0  0  0  0  0  0  0  0  0  0
    6.6841   -4.5148   -2.1254 C   0  0  0  0  0  0  0  0  0  0  0  0
    5.5436   -4.0343   -1.5822 O   0  0  0  0  0  0  0  0  0  0  0  0
    7.9721   -3.7839   -1.8460 C   0  0  0  0  0  0  0  0  0  0  0  0
    7.9146   -2.4440   -2.4455 N   0  3  0  0  0  0  0  0  0  0  0  0
    4.6501   -6.6153   -0.9359 N   0  0  0  0  0  0  0  0  0  0  0  0
    3.5780   -2.5839    1.1053 N   0  3  0  0  0  0  0  0  0  0  0  0
    0.8314    3.3666    0.2831 H   0  0  0  0  0  0  0  0  0  0  0  0
   -0.8187    3.0259   -0.2909 H   0  0  0  0  0  0  0  0  0  0  0  0
   -0.4793    3.0898    1.4552 H   0  0  0  0  0  0  0  0  0  0  0  0
    0.9666    1.0861    1.2475 H   0  0  0  0  0  0  0  0  0  0  0  0
   -0.6834    0.7455    0.6734 H   0  0  0  0  0  0  0  0  0  0  0  0
    0.0833    1.1277   -1.5520 H   0  0  0  0  0  0  0  0  0  0  0  0
    3.0801   -0.2487   -0.1311 H   0  0  0  0  0  0  0  0  0  0  0  0
    1.8745   -0.5041    1.1533 H   0  0  0  0  0  0  0  0  0  0  0  0
    2.3595   -2.3005   -6.7904 H   0  0  0  0  0  0  0  0  0  0  0  0
    2.7460   -0.6088   -6.3931 H   0  0  0  0  0  0  0  0  0  0  0  0
    1.7443   -1.4126   -9.0620 H   0  0  0  0  0  0  0  0  0  0  0  0
   -1.5649    0.0671   -7.6870 H   0  0  0  0  0  0  0  0  0  0  0  0
    0.4053    1.9090   -8.8361 H   0  0  0  0  0  0  0  0  0  0  0  0
   -0.0748    0.3132   -9.4618 H   0  0  0  0  0  0  0  0  0  0  0  0
   -1.2283    1.6682   -9.5008 H   0  0  0  0  0  0  0  0  0  0  0  0
    0.0031    2.1922   -4.7241 H   0  0  0  0  0  0  0  0  0  0  0  0
   -1.6244    1.8103   -5.3354 H   0  0  0  0  0  0  0  0  0  0  0  0
   -1.1303    1.2607   -3.7161 H   0  0  0  0  0  0  0  0  0  0  0  0
   -1.6505   -1.0527   -4.4841 H   0  0  0  0  0  0  0  0  0  0  0  0
    2.3683   -3.7850   -3.6580 H   0  0  0  0  0  0  0  0  0  0  0  0
    5.7213   -7.4395   -3.1567 H   0  0  0  0  0  0  0  0  0  0  0  0
    5.1854   -6.1363   -4.2444 H   0  0  0  0  0  0  0  0  0  0  0  0
    7.6812   -5.9023   -3.2711 H   0  0  0  0  0  0  0  0  0  0  0  0
    8.1127   -3.6943   -0.7689 H   0  0  0  0  0  0  0  0  0  0  0  0
    8.8056   -4.3390   -2.2764 H   0  0  0  0  0  0  0  0  0  0  0  0
    7.7844   -2.5269   -3.4426 H   0  0  0  0  0  0  0  0  0  0  0  0
    7.1431   -1.9301   -2.0471 H   0  0  0  0  0  0  0  0  0  0  0  0
    4.6979   -7.6214   -0.9950 H   0  0  0  0  0  0  0  0  0  0  0  0
    5.4975   -6.2355   -0.5412 H   0  0  0  0  0  0  0  0  0  0  0  0
    3.2879   -2.3042    2.0304 H   0  0  0  0  0  0  0  0  0  0  0  0
    3.7832   -3.5718    1.1016 H   0  0  0  0  0  0  0  0  0  0  0  0
    4.4039   -2.0678    0.8414 H   0  0  0  0  0  0  0  0  0  0  0  0
    1.6107    1.4430   -1.0206 H   0  0  0  0  0  0  0  0  0  0  0  0
   -1.3619    1.6199   -7.1747 H   0  0  0  0  0  0  0  0  0  0  0  0
    8.7770   -1.9546   -2.2584 H   0  0  0  0  0  0  0  0  0  0  0  0
  1  2  1  0  0  0  0
  1 44  1  0  0  0  0
  1 45  1  0  0  0  0
  1 46  1  0  0  0  0
  2  3  1  0  0  0  0
  2 47  1  0  0  0  0
  2 48  1  0  0  0  0
  3  4  1  0  0  0  0
  3 49  1  0  0  0  0
  3 76  1  0  0  0  0
  4  5  1  1  0  0  0
  4 13  1  0  0  0  0
  4  6  1  0  0  0  0
  6  7  1  0  0  0  0
  6 50  1  0  0  0  0
  6 51  1  0  0  0  0
  7  8  1  1  0  0  0
  7  9  1  0  0  0  0
  7 43  1  0  0  0  0
  9 10  1  6  0  0  0
  9 11  1  0  0  0  0
  9 31  1  0  0  0  0
 11 12  1  1  0  0  0
 11 13  1  0  0  0  0
 11 30  1  0  0  0  0
 13 14  1  6  0  0  0
 13 15  1  0  0  0  0
 15 16  1  0  0  0  0
 16 17  1  1  0  0  0
 16 24  1  0  0  0  0
 16 18  1  0  0  0  0
 18 19  1  0  0  0  0
 18 28  1  0  0  0  0
 18 29  1  6  0  0  0
 19 20  1  1  0  0  0
 19 21  1  0  0  0  0
 19 26  1  0  0  0  0
 21 22  1  6  0  0  0
 21 23  1  0  0  0  0
 21 25  1  0  0  0  0
 23 24  1  0  0  0  0
 23 52  1  0  0  0  0
 23 53  1  0  0  0  0
 25 54  1  0  0  0  0
 26 27  1  0  0  0  0
 26 55  1  0  0  0  0
 26 77  1  0  0  0  0
 27 56  1  0  0  0  0
 27 57  1  0  0  0  0
 27 58  1  0  0  0  0
 28 59  1  0  0  0  0
 28 60  1  0  0  0  0
 28 61  1  0  0  0  0
 29 62  1  0  0  0  0
 30 63  1  0  0  0  0
 31 32  1  0  0  0  0
 32 33  1  6  0  0  0
 32 39  1  0  0  0  0
 32 34  1  0  0  0  0
 34 35  1  6  0  0  0
 34 36  1  0  0  0  0
 34 42  1  0  0  0  0
 36 37  1  0  0  0  0
 36 64  1  0  0  0  0
 36 65  1  0  0  0  0
 37 38  2  0  0  0  0
 37 66  1  0  0  0  0
 38 39  1  0  0  0  0
 38 40  1  0  0  0  0
 40 41  1  0  0  0  0
 40 67  1  0  0  0  0
 40 68  1  0  0  0  0
 41 69  1  0  0  0  0
 41 70  1  0  0  0  0
 41 78  1  0  0  0  0
 42 71  1  0  0  0  0
 42 72  1  0  0  0  0
 43 73  1  0  0  0  0
 43 74  1  0  0  0  0
 43 75  1  0  0  0  0
M  CHG  4   3   1  26   1  41   1  43   1
M  END
$$$$
