ZINC00538550
 OpenBabel08292219463D

 50 54  0  0  1  0  0  0  0  0999 V2000
    2.6263   -1.6012    3.5769 C   0  0  0  0  0  0  0  0  0  0  0  0
    3.6377   -0.6760    3.3483 C   0  0  0  0  0  0  0  0  0  0  0  0
    3.9136   -0.2683    2.0698 C   0  0  0  0  0  0  0  0  0  0  0  0
    3.1814   -0.7831    1.0209 C   0  0  0  0  0  0  0  0  0  0  0  0
    2.1473   -1.7252    1.2248 C   0  0  0  0  0  0  0  0  0  0  0  0
    1.8930   -2.1204    2.5550 C   0  0  0  0  0  0  0  0  0  0  0  0
    1.5160   -2.1252   -0.0237 C   0  0  0  0  0  0  0  0  0  0  0  0
    1.9319   -1.6135   -1.1449 N   0  0  0  0  0  0  0  0  0  0  0  0
    3.1728   -0.5662   -0.7370 S   0  0  0  0  0  0  0  0  0  0  0  0
    0.4719   -3.0515   -0.0182 N   0  0  0  0  0  0  0  0  0  0  0  0
   -0.9273   -2.6134    0.1017 C   0  0  0  0  0  0  0  0  0  0  0  0
   -1.7410   -3.2754   -1.0152 C   0  0  0  0  0  0  0  0  0  0  0  0
   -1.5546   -4.7307   -0.9586 N   0  3  2  0  0  0  0  0  0  0  0  0
   -0.1529   -5.0667   -1.2386 C   0  0  0  0  0  0  0  0  0  0  0  0
    0.7391   -4.4931   -0.1384 C   0  0  0  0  0  0  0  0  0  0  0  0
   -2.4192   -5.3726   -1.9578 C   0  0  0  0  0  0  0  0  0  0  0  0
   -2.3203   -6.8928   -1.8166 C   0  0  0  0  0  0  0  0  0  0  0  0
   -3.2073   -7.5513   -2.8417 C   0  0  0  0  0  0  0  0  0  0  0  0
   -2.6615   -8.0596   -4.0078 C   0  0  0  0  0  0  0  0  0  0  0  0
   -3.4747   -8.6603   -4.9418 C   0  0  0  0  0  0  0  0  0  0  0  0
   -4.8442   -8.7652   -4.7313 C   0  0  0  0  0  0  0  0  0  0  0  0
   -5.3873   -8.2514   -3.5560 C   0  0  0  0  0  0  0  0  0  0  0  0
   -4.5688   -7.6545   -2.6174 C   0  0  0  0  0  0  0  0  0  0  0  0
   -5.2527   -7.0236   -1.1518 Cl  0  0  0  0  0  0  0  0  0  0  0  0
   -5.4502   -9.4084   -5.8111 N   0  0  0  0  0  0  0  0  0  0  0  0
   -4.5639   -9.7540   -6.7601 C   0  0  0  0  0  0  0  0  0  0  0  0
   -4.8099  -10.3226   -7.8028 O   0  0  0  0  0  0  0  0  0  0  0  0
   -3.2006   -9.3003   -6.2833 C   0  0  0  0  0  0  0  0  0  0  0  0
    2.4206   -1.9188    4.5884 H   0  0  0  0  0  0  0  0  0  0  0  0
    4.2049   -0.2788    4.1770 H   0  0  0  0  0  0  0  0  0  0  0  0
    4.6980    0.4507    1.8851 H   0  0  0  0  0  0  0  0  0  0  0  0
    1.1130   -2.8379    2.7631 H   0  0  0  0  0  0  0  0  0  0  0  0
   -1.3236   -2.9146    1.0714 H   0  0  0  0  0  0  0  0  0  0  0  0
   -0.9816   -1.5294    0.0013 H   0  0  0  0  0  0  0  0  0  0  0  0
   -2.7970   -3.0388   -0.8847 H   0  0  0  0  0  0  0  0  0  0  0  0
   -1.4017   -2.9028   -1.9818 H   0  0  0  0  0  0  0  0  0  0  0  0
   -0.0387   -6.1502   -1.2728 H   0  0  0  0  0  0  0  0  0  0  0  0
    0.1383   -4.6400   -2.1984 H   0  0  0  0  0  0  0  0  0  0  0  0
    1.7859   -4.6512   -0.3976 H   0  0  0  0  0  0  0  0  0  0  0  0
    0.5139   -4.9874    0.8066 H   0  0  0  0  0  0  0  0  0  0  0  0
   -3.4513   -5.0594   -1.8001 H   0  0  0  0  0  0  0  0  0  0  0  0
   -2.0991   -5.0789   -2.9575 H   0  0  0  0  0  0  0  0  0  0  0  0
   -1.2883   -7.2060   -1.9743 H   0  0  0  0  0  0  0  0  0  0  0  0
   -2.6404   -7.1865   -0.8169 H   0  0  0  0  0  0  0  0  0  0  0  0
   -1.5987   -7.9846   -4.1847 H   0  0  0  0  0  0  0  0  0  0  0  0
   -6.4498   -8.3241   -3.3763 H   0  0  0  0  0  0  0  0  0  0  0  0
   -6.4019   -9.5862   -5.8697 H   0  0  0  0  0  0  0  0  0  0  0  0
   -2.7771   -8.5717   -6.9747 H   0  0  0  0  0  0  0  0  0  0  0  0
   -2.5322  -10.1538   -6.1698 H   0  0  0  0  0  0  0  0  0  0  0  0
   -1.8020   -5.0647   -0.0391 H   0  0  0  0  0  0  0  0  0  0  0  0
  1  6  2  0  0  0  0
  1  2  1  0  0  0  0
  1 29  1  0  0  0  0
  2  3  2  0  0  0  0
  2 30  1  0  0  0  0
  3  4  1  0  0  0  0
  3 31  1  0  0  0  0
  4  9  1  0  0  0  0
  4  5  2  0  0  0  0
  5  6  1  0  0  0  0
  5  7  1  0  0  0  0
  6 32  1  0  0  0  0
  7  8  2  0  0  0  0
  7 10  1  0  0  0  0
  8  9  1  0  0  0  0
 10 15  1  0  0  0  0
 10 11  1  0  0  0  0
 11 12  1  0  0  0  0
 11 33  1  0  0  0  0
 11 34  1  0  0  0  0
 12 13  1  0  0  0  0
 12 35  1  0  0  0  0
 12 36  1  0  0  0  0
 13 14  1  0  0  0  0
 13 16  1  0  0  0  0
 13 50  1  1  0  0  0
 14 15  1  0  0  0  0
 14 37  1  0  0  0  0
 14 38  1  0  0  0  0
 15 39  1  0  0  0  0
 15 40  1  0  0  0  0
 16 17  1  0  0  0  0
 16 41  1  0  0  0  0
 16 42  1  0  0  0  0
 17 18  1  0  0  0  0
 17 43  1  0  0  0  0
 17 44  1  0  0  0  0
 18 23  2  0  0  0  0
 18 19  1  0  0  0  0
 19 20  2  0  0  0  0
 19 45  1  0  0  0  0
 20 28  1  0  0  0  0
 20 21  1  0  0  0  0
 21 22  2  0  0  0  0
 21 25  1  0  0  0  0
 22 23  1  0  0  0  0
 22 46  1  0  0  0  0
 23 24  1  0  0  0  0
 25 26  1  0  0  0  0
 25 47  1  0  0  0  0
 26 27  2  0  0  0  0
 26 28  1  0  0  0  0
 28 48  1  0  0  0  0
 28 49  1  0  0  0  0
M  CHG  1  13   1
M  END
$$$$
