ZINC01530283
 OpenBabel08292219463D

 21 20  0  0  1  0  0  0  0  0999 V2000
   -0.0187    1.5258    0.0104 C   0  0  0  0  0  0  0  0  0  0  0  0
    0.0021   -0.0041    0.0020 C   0  0  0  0  0  0  0  0  0  0  0  0
   -1.4117   -0.5257    0.0127 C   0  0  0  0  0  0  0  0  0  0  0  0
   -2.3491    0.2539    0.0259 O   0  0  0  0  0  0  0  0  0  0  0  0
   -1.6182   -1.7273    0.0082 O   0  0  0  0  0  1  0  0  0  0  0  0
    1.4167    2.0553   -0.0004 C   0  0  1  0  0  0  0  0  0  0  0  0
    1.9535    1.6326   -0.8497 H   0  0  0  0  0  0  0  0  0  0  0  0
    1.3970    3.5578   -0.1160 C   0  0  0  0  0  0  0  0  0  0  0  0
    1.3672    4.2462    0.8898 O   0  0  0  0  0  0  0  0  0  0  0  0
    1.4108    4.0849   -1.2153 O   0  0  0  0  0  1  0  0  0  0  0  0
    2.0888    1.6700    1.2430 N   0  0  0  0  0  0  0  0  0  0  0  0
    3.4317    1.5612    1.2773 C   0  0  0  0  0  0  0  0  0  0  0  0
    4.0854    1.7828    0.2764 O   0  0  0  0  0  0  0  0  0  0  0  0
    4.0500    1.2067    2.4212 N   0  0  0  0  0  0  0  0  0  0  0  0
   -0.5459    1.8868   -0.8726 H   0  0  0  0  0  0  0  0  0  0  0  0
   -0.5289    1.8773    0.9072 H   0  0  0  0  0  0  0  0  0  0  0  0
    0.5123   -0.3556   -0.8948 H   0  0  0  0  0  0  0  0  0  0  0  0
    0.5293   -0.3651    0.8851 H   0  0  0  0  0  0  0  0  0  0  0  0
    1.5673    1.4932    2.0415 H   0  0  0  0  0  0  0  0  0  0  0  0
    3.5285    1.0299    3.2198 H   0  0  0  0  0  0  0  0  0  0  0  0
    5.0166    1.1284    2.4460 H   0  0  0  0  0  0  0  0  0  0  0  0
  1  2  1  0  0  0  0
  1  6  1  0  0  0  0
  1 15  1  0  0  0  0
  1 16  1  0  0  0  0
  2  3  1  0  0  0  0
  2 17  1  0  0  0  0
  2 18  1  0  0  0  0
  3  4  2  0  0  0  0
  3  5  1  0  0  0  0
  6  7  1  6  0  0  0
  6  8  1  0  0  0  0
  6 11  1  0  0  0  0
  8  9  2  0  0  0  0
  8 10  1  0  0  0  0
 11 12  1  0  0  0  0
 11 19  1  0  0  0  0
 12 13  2  0  0  0  0
 12 14  1  0  0  0  0
 14 20  1  0  0  0  0
 14 21  1  0  0  0  0
M  END
$$$$
