ZINC28957444
 OpenBabel08292219463D

 64 68  0  0  1  0  0  0  0  0999 V2000
   -1.6850    6.2299   -4.6716 C   0  0  0  0  0  0  0  0  0  0  0  0
   -0.5395    6.5169   -5.6444 C   0  0  0  0  0  0  0  0  0  0  0  0
    0.7986    6.2985   -4.9353 C   0  0  0  0  0  0  0  0  0  0  0  0
    2.1537    6.6379   -6.0862 S   0  0  0  0  0  0  0  0  0  0  0  0
    3.5331    6.3175   -5.0377 C   0  0  0  0  0  0  0  0  0  0  0  0
    3.3115    5.9367   -3.7844 N   0  0  0  0  0  0  0  0  0  0  0  0
    4.3156    5.6882   -2.9541 C   0  0  0  0  0  0  0  0  0  0  0  0
    5.6363    5.8256   -3.4310 C   0  0  0  0  0  0  0  0  0  0  0  0
    5.8200    6.2257   -4.7658 C   0  0  0  0  0  0  0  0  0  0  0  0
    4.7541    6.4591   -5.5270 N   0  0  0  0  0  0  0  0  0  0  0  0
    7.1719    6.2792   -4.9623 N   0  0  0  0  0  0  0  0  0  0  0  0
    7.7689    5.9118   -3.7469 N   0  0  0  0  0  0  0  0  0  0  0  0
    6.8511    5.6555   -2.8813 N   0  0  0  0  0  0  0  0  0  0  0  0
    7.8625    6.6479   -6.2006 C   0  0  2  0  0  0  0  0  0  0  0  0
    7.0622    6.8574   -6.9256 H   0  0  0  0  0  0  0  0  0  0  0  0
    8.7859    5.4980   -6.6531 C   0  0  0  0  0  0  0  0  0  0  0  0
   10.0321    6.2168   -7.2292 C   0  0  1  0  0  0  0  0  0  0  0  0
    9.9806    6.4677   -8.2990 H   0  0  0  0  0  0  0  0  0  0  0  0
   10.2087    7.4189   -6.2686 C   0  0  2  0  0  0  0  0  0  0  0  0
   10.8246    7.2120   -5.3810 H   0  0  0  0  0  0  0  0  0  0  0  0
    8.7665    7.8689   -5.9566 C   0  0  1  0  0  0  0  0  0  0  0  0
    8.6533    8.2941   -4.9484 H   0  0  0  0  0  0  0  0  0  0  0  0
    8.3881    8.9394   -6.8244 O   0  0  0  0  0  0  0  0  0  0  0  0
   10.9336    8.4713   -6.9082 O   0  0  0  0  0  0  0  0  0  0  0  0
   11.1776    5.3636   -7.1886 O   0  0  0  0  0  0  0  0  0  0  0  0
   12.1771    5.6859   -8.1578 C   0  0  0  0  0  0  0  0  0  0  0  0
   13.3504    4.7132   -8.0232 C   0  0  0  0  0  0  0  0  0  0  0  0
   12.9150    3.3930   -8.3539 O   0  0  0  0  0  0  0  0  0  0  0  0
    4.0732    5.2974   -1.6513 N   0  0  0  0  0  0  0  0  0  0  0  0
    2.6957    5.1596   -1.1721 C   0  0  2  0  0  0  0  0  0  0  0  0
    2.3015    5.2823   -2.1917 H   0  0  0  0  0  0  0  0  0  0  0  0
    2.3699    5.7222    0.2129 C   0  0  0  0  0  0  0  0  0  0  0  0
    2.4476    4.2090    0.0008 C   0  0  1  0  0  0  0  0  0  0  0  0
    2.9987    3.3793    0.4675 H   0  0  0  0  0  0  0  0  0  0  0  0
    1.1529    3.4378    0.0096 C   0  0  0  0  0  0  0  0  0  0  0  0
   -0.0533    4.1134    0.0248 C   0  0  0  0  0  0  0  0  0  0  0  0
   -1.2420    3.4084    0.0323 C   0  0  0  0  0  0  0  0  0  0  0  0
   -1.2258    2.0244    0.0189 C   0  0  0  0  0  0  0  0  0  0  0  0
   -0.0162    1.3468    0.0094 C   0  0  0  0  0  0  0  0  0  0  0  0
    1.1724    2.0558    0.0019 C   0  0  0  0  0  0  0  0  0  0  0  0
    0.0021   -0.0041    0.0020 F   0  0  0  0  0  0  0  0  0  0  0  0
   -2.3874    1.3345    0.0206 F   0  0  0  0  0  0  0  0  0  0  0  0
   -2.6470    6.3869   -5.1814 H   0  0  0  0  0  0  0  0  0  0  0  0
   -1.6121    6.9085   -3.8089 H   0  0  0  0  0  0  0  0  0  0  0  0
   -1.6194    5.1880   -4.3251 H   0  0  0  0  0  0  0  0  0  0  0  0
   -0.6124    5.8383   -6.5071 H   0  0  0  0  0  0  0  0  0  0  0  0
   -0.6051    7.5588   -5.9909 H   0  0  0  0  0  0  0  0  0  0  0  0
    0.8715    6.9771   -4.0727 H   0  0  0  0  0  0  0  0  0  0  0  0
    0.8641    5.2566   -4.5887 H   0  0  0  0  0  0  0  0  0  0  0  0
    9.0363    4.8667   -5.7878 H   0  0  0  0  0  0  0  0  0  0  0  0
    8.2709    4.8914   -7.4126 H   0  0  0  0  0  0  0  0  0  0  0  0
    8.9302    9.8958   -6.7867 H   0  0  0  0  0  0  0  0  0  0  0  0
   11.1470    9.4025   -6.3629 H   0  0  0  0  0  0  0  0  0  0  0  0
   11.7481    5.6055   -9.1675 H   0  0  0  0  0  0  0  0  0  0  0  0
   12.5318    6.7137   -7.9909 H   0  0  0  0  0  0  0  0  0  0  0  0
   14.1573    5.0152   -8.7070 H   0  0  0  0  0  0  0  0  0  0  0  0
   13.7222    4.7282   -6.9881 H   0  0  0  0  0  0  0  0  0  0  0  0
   13.6249    2.5537   -8.3143 H   0  0  0  0  0  0  0  0  0  0  0  0
    4.9146    5.0897   -0.9738 H   0  0  0  0  0  0  0  0  0  0  0  0
    3.2008    6.3562    0.5559 H   0  0  0  0  0  0  0  0  0  0  0  0
    1.4495    6.3221    0.1578 H   0  0  0  0  0  0  0  0  0  0  0  0
   -0.0666    5.1933    0.0304 H   0  0  0  0  0  0  0  0  0  0  0  0
   -2.1835    3.9373    0.0446 H   0  0  0  0  0  0  0  0  0  0  0  0
    2.1153    1.5292   -0.0103 H   0  0  0  0  0  0  0  0  0  0  0  0
  1  2  1  0  0  0  0
  1 43  1  0  0  0  0
  1 44  1  0  0  0  0
  1 45  1  0  0  0  0
  2  3  1  0  0  0  0
  2 46  1  0  0  0  0
  2 47  1  0  0  0  0
  3  4  1  0  0  0  0
  3 48  1  0  0  0  0
  3 49  1  0  0  0  0
  4  5  1  0  0  0  0
  5 10  2  0  0  0  0
  5  6  1  0  0  0  0
  6  7  2  0  0  0  0
  7  8  1  0  0  0  0
  7 29  1  0  0  0  0
  8 13  1  0  0  0  0
  8  9  2  0  0  0  0
  9 10  1  0  0  0  0
  9 11  1  0  0  0  0
 11 12  1  0  0  0  0
 11 14  1  0  0  0  0
 12 13  2  0  0  0  0
 14 15  1  6  0  0  0
 14 21  1  0  0  0  0
 14 16  1  0  0  0  0
 16 17  1  0  0  0  0
 16 50  1  0  0  0  0
 16 51  1  0  0  0  0
 17 18  1  6  0  0  0
 17 19  1  0  0  0  0
 17 25  1  0  0  0  0
 19 20  1  1  0  0  0
 19 21  1  0  0  0  0
 19 24  1  0  0  0  0
 21 22  1  1  0  0  0
 21 23  1  0  0  0  0
 23 52  1  0  0  0  0
 24 53  1  0  0  0  0
 25 26  1  0  0  0  0
 26 27  1  0  0  0  0
 26 54  1  0  0  0  0
 26 55  1  0  0  0  0
 27 28  1  0  0  0  0
 27 56  1  0  0  0  0
 27 57  1  0  0  0  0
 28 58  1  0  0  0  0
 29 30  1  0  0  0  0
 29 59  1  0  0  0  0
 30 31  1  6  0  0  0
 30 33  1  0  0  0  0
 30 32  1  0  0  0  0
 32 33  1  0  0  0  0
 32 60  1  0  0  0  0
 32 61  1  0  0  0  0
 33 34  1  1  0  0  0
 33 35  1  0  0  0  0
 35 40  2  0  0  0  0
 35 36  1  0  0  0  0
 36 37  2  0  0  0  0
 36 62  1  0  0  0  0
 37 38  1  0  0  0  0
 37 63  1  0  0  0  0
 38 39  2  0  0  0  0
 38 42  1  0  0  0  0
 39 40  1  0  0  0  0
 39 41  1  0  0  0  0
 40 64  1  0  0  0  0
M  END
$$$$
