ZINC22016976
 OpenBabel08292219463D

 59 59  0  0  1  0  0  0  0  0999 V2000
    0.1514    1.5531    0.0095 C   0  0  0  0  0  0  0  0  0  0  0  0
    0.1125    0.0236    0.0184 C   0  0  2  0  0  0  0  0  0  0  0  0
   -0.9095   -0.3149   -0.1520 H   0  0  0  0  0  0  0  0  0  0  0  0
    0.6009   -0.4911    1.3739 C   0  0  0  0  0  0  0  0  0  0  0  0
    0.5706   -1.9949    1.3798 N   0  0  0  0  0  0  0  0  0  0  0  0
   -0.8293   -2.3353    1.8177 C   0  0  0  0  0  0  0  0  0  0  0  0
   -1.6562   -2.6057    0.5702 C   0  0  0  0  0  0  0  0  0  0  0  0
   -2.7791   -3.5090    0.8229 N   0  3  1  0  0  0  0  0  0  0  0  0
   -2.3616   -4.8944    0.5947 C   0  0  0  0  0  0  0  0  0  0  0  0
   -1.7474   -5.5285    1.8341 C   0  0  0  0  0  0  0  0  0  0  0  0
   -0.7444   -6.5574    1.3842 N   0  0  0  0  0  0  0  0  0  0  0  0
    0.2001   -6.6936    2.5454 C   0  0  0  0  0  0  0  0  0  0  0  0
    1.5036   -5.9904    2.1702 C   0  0  0  0  0  0  0  0  0  0  0  0
    1.6719   -4.7872    2.9967 N   0  3  2  0  0  0  0  0  0  0  0  0
    2.1623   -3.6775    2.1751 C   0  0  0  0  0  0  0  0  0  0  0  0
    1.4305   -2.3910    2.5466 C   0  0  0  0  0  0  0  0  0  0  0  0
    2.6296   -5.0639    4.0771 C   0  0  0  0  0  0  0  0  0  0  0  0
    3.9723   -5.4037    3.4833 C   0  0  0  0  0  0  0  0  0  0  0  0
    4.0965   -5.5045    2.2746 O   0  0  0  0  0  0  0  0  0  0  0  0
    4.9345   -5.5779    4.2115 O   0  0  0  0  0  1  0  0  0  0  0  0
   -1.5167   -7.8452    1.3701 C   0  0  0  0  0  0  0  0  0  0  0  0
   -0.6942   -8.9170    0.7025 C   0  0  0  0  0  0  0  0  0  0  0  0
    0.4183   -8.6557    0.2775 O   0  0  0  0  0  0  0  0  0  0  0  0
   -1.1412  -10.0455    0.5873 O   0  0  0  0  0  1  0  0  0  0  0  0
   -3.3643   -3.3180    2.1454 C   0  0  0  0  0  0  0  0  0  0  0  0
   -4.5843   -4.1915    2.2858 C   0  0  0  0  0  0  0  0  0  0  0  0
   -4.9307   -4.9078    1.3620 O   0  0  0  0  0  0  0  0  0  0  0  0
   -5.2248   -4.1819    3.3231 O   0  0  0  0  0  1  0  0  0  0  0  0
    0.9599   -0.4805   -1.0159 O   0  0  0  0  0  0  0  0  0  0  0  0
    1.1734    1.8915    0.1799 H   0  0  0  0  0  0  0  0  0  0  0  0
   -0.1965    1.9197   -0.9562 H   0  0  0  0  0  0  0  0  0  0  0  0
   -0.4950    1.9375    0.7985 H   0  0  0  0  0  0  0  0  0  0  0  0
    1.6208   -0.1476    1.5470 H   0  0  0  0  0  0  0  0  0  0  0  0
   -0.0491   -0.1116    2.1623 H   0  0  0  0  0  0  0  0  0  0  0  0
   -0.7609   -3.1995    2.4601 H   0  0  0  0  0  0  0  0  0  0  0  0
   -1.2116   -1.4724    2.3549 H   0  0  0  0  0  0  0  0  0  0  0  0
   -2.0361   -1.6613    0.1735 H   0  0  0  0  0  0  0  0  0  0  0  0
   -1.0099   -3.0588   -0.1918 H   0  0  0  0  0  0  0  0  0  0  0  0
   -3.2267   -5.4809    0.2757 H   0  0  0  0  0  0  0  0  0  0  0  0
   -1.6248   -4.9048   -0.2173 H   0  0  0  0  0  0  0  0  0  0  0  0
   -1.2209   -4.8130    2.4447 H   0  0  0  0  0  0  0  0  0  0  0  0
   -2.5057   -6.0561    2.4064 H   0  0  0  0  0  0  0  0  0  0  0  0
   -0.2565   -6.2276    3.4101 H   0  0  0  0  0  0  0  0  0  0  0  0
    0.3738   -7.7502    2.7147 H   0  0  0  0  0  0  0  0  0  0  0  0
    2.3463   -6.6649    2.3349 H   0  0  0  0  0  0  0  0  0  0  0  0
    1.4701   -5.7068    1.1152 H   0  0  0  0  0  0  0  0  0  0  0  0
    3.2348   -3.5493    2.3421 H   0  0  0  0  0  0  0  0  0  0  0  0
    1.9879   -3.8991    1.1183 H   0  0  0  0  0  0  0  0  0  0  0  0
    2.1361   -1.5878    2.7319 H   0  0  0  0  0  0  0  0  0  0  0  0
    0.7824   -2.5459    3.4030 H   0  0  0  0  0  0  0  0  0  0  0  0
    2.7255   -4.1832    4.7121 H   0  0  0  0  0  0  0  0  0  0  0  0
    2.2726   -5.9041    4.6728 H   0  0  0  0  0  0  0  0  0  0  0  0
   -1.7421   -8.1449    2.3936 H   0  0  0  0  0  0  0  0  0  0  0  0
   -2.4468   -7.7051    0.8194 H   0  0  0  0  0  0  0  0  0  0  0  0
   -2.6341   -3.5884    2.9083 H   0  0  0  0  0  0  0  0  0  0  0  0
   -3.6492   -2.2733    2.2693 H   0  0  0  0  0  0  0  0  0  0  0  0
    0.7088   -0.1938   -1.9047 H   0  0  0  0  0  0  0  0  0  0  0  0
    0.7734   -4.5357    3.3956 H   0  0  0  0  0  0  0  0  0  0  0  0
   -3.5074   -3.2919    0.1305 H   0  0  0  0  0  0  0  0  0  0  0  0
  1  2  1  0  0  0  0
  1 30  1  0  0  0  0
  1 31  1  0  0  0  0
  1 32  1  0  0  0  0
  2  3  1  6  0  0  0
  2  4  1  0  0  0  0
  2 29  1  0  0  0  0
  4  5  1  0  0  0  0
  4 33  1  0  0  0  0
  4 34  1  0  0  0  0
  5 16  1  0  0  0  0
  5  6  1  0  0  0  0
  6  7  1  0  0  0  0
  6 35  1  0  0  0  0
  6 36  1  0  0  0  0
  7  8  1  0  0  0  0
  7 37  1  0  0  0  0
  7 38  1  0  0  0  0
  8  9  1  0  0  0  0
  8 25  1  0  0  0  0
  8 59  1  6  0  0  0
  9 10  1  0  0  0  0
  9 39  1  0  0  0  0
  9 40  1  0  0  0  0
 10 11  1  0  0  0  0
 10 41  1  0  0  0  0
 10 42  1  0  0  0  0
 11 12  1  0  0  0  0
 11 21  1  0  0  0  0
 12 13  1  0  0  0  0
 12 43  1  0  0  0  0
 12 44  1  0  0  0  0
 13 14  1  0  0  0  0
 13 45  1  0  0  0  0
 13 46  1  0  0  0  0
 14 15  1  0  0  0  0
 14 17  1  0  0  0  0
 14 58  1  1  0  0  0
 15 16  1  0  0  0  0
 15 47  1  0  0  0  0
 15 48  1  0  0  0  0
 16 49  1  0  0  0  0
 16 50  1  0  0  0  0
 17 18  1  0  0  0  0
 17 51  1  0  0  0  0
 17 52  1  0  0  0  0
 18 19  2  0  0  0  0
 18 20  1  0  0  0  0
 21 22  1  0  0  0  0
 21 53  1  0  0  0  0
 21 54  1  0  0  0  0
 22 23  2  0  0  0  0
 22 24  1  0  0  0  0
 25 26  1  0  0  0  0
 25 55  1  0  0  0  0
 25 56  1  0  0  0  0
 26 27  2  0  0  0  0
 26 28  1  0  0  0  0
 29 57  1  0  0  0  0
M  CHG  2   8   1  14   1
M  END
$$$$
