ZINC01481714
 OpenBabel08292219463D

 46 48  0  0  1  0  0  0  0  0999 V2000
    4.4344    4.4300   -1.6003 C   0  0  0  0  0  0  0  0  0  0  0  0
    3.2589    4.4810   -0.6224 C   0  0  1  0  0  0  0  0  0  0  0  0
    2.3282    4.3111   -1.1638 H   0  0  0  0  0  0  0  0  0  0  0  0
    3.4344    3.3968    0.4429 C   0  0  0  0  0  0  0  0  0  0  0  0
    3.3719    2.0766   -0.1890 N   0  0  0  0  0  0  0  0  0  0  0  0
    2.1120    1.5577   -0.4723 C   0  0  0  0  0  0  0  0  0  0  0  0
    1.0454    2.4367   -0.6334 C   0  0  0  0  0  0  0  0  0  0  0  0
   -0.2204    1.9556   -0.9071 C   0  0  0  0  0  0  0  0  0  0  0  0
   -0.4376    0.5956   -1.0238 C   0  0  0  0  0  0  0  0  0  0  0  0
    0.6153   -0.2871   -0.8690 C   0  0  0  0  0  0  0  0  0  0  0  0
    1.8898    0.1890   -0.5950 C   0  0  0  0  0  0  0  0  0  0  0  0
    3.2198   -0.9504   -0.4082 S   0  0  0  0  0  0  0  0  0  0  0  0
    4.6620    0.0460   -0.5860 C   0  0  0  0  0  0  0  0  0  0  0  0
    4.5779    1.4352   -0.4611 C   0  0  0  0  0  0  0  0  0  0  0  0
    5.7212    2.2020   -0.6081 C   0  0  0  0  0  0  0  0  0  0  0  0
    6.9519    1.5882   -0.8769 C   0  0  0  0  0  0  0  0  0  0  0  0
    7.0242    0.1950   -0.9973 C   0  0  0  0  0  0  0  0  0  0  0  0
    5.8854   -0.5633   -0.8523 C   0  0  0  0  0  0  0  0  0  0  0  0
    8.1612    2.4031   -1.0322 C   0  0  0  0  0  0  0  0  0  0  0  0
    8.0969    3.6102   -0.9280 O   0  0  0  0  0  0  0  0  0  0  0  0
    9.4839    1.7412   -1.3212 C   0  0  0  0  0  0  0  0  0  0  0  0
    2.9340    6.8570   -0.9566 C   0  0  0  0  0  0  0  0  0  0  0  0
    2.2341    5.8191    1.1160 C   0  0  0  0  0  0  0  0  0  0  0  0
    4.5662    3.4086   -1.9572 H   0  0  0  0  0  0  0  0  0  0  0  0
    4.2321    5.0871   -2.4461 H   0  0  0  0  0  0  0  0  0  0  0  0
    5.3424    4.7582   -1.0944 H   0  0  0  0  0  0  0  0  0  0  0  0
    2.6393    3.4831    1.1835 H   0  0  0  0  0  0  0  0  0  0  0  0
    4.4009    3.5205    0.9314 H   0  0  0  0  0  0  0  0  0  0  0  0
    1.2081    3.5007   -0.5446 H   0  0  0  0  0  0  0  0  0  0  0  0
   -1.0421    2.6448   -1.0349 H   0  0  0  0  0  0  0  0  0  0  0  0
   -1.4288    0.2228   -1.2360 H   0  0  0  0  0  0  0  0  0  0  0  0
    0.4455   -1.3496   -0.9618 H   0  0  0  0  0  0  0  0  0  0  0  0
    5.6643    3.2766   -0.5158 H   0  0  0  0  0  0  0  0  0  0  0  0
    7.9705   -0.2826   -1.2040 H   0  0  0  0  0  0  0  0  0  0  0  0
    5.9407   -1.6378   -0.9456 H   0  0  0  0  0  0  0  0  0  0  0  0
    9.4221    1.2343   -2.1810 H   0  0  0  0  0  0  0  0  0  0  0  0
   10.2606    2.5016   -1.4027 H   0  0  0  0  0  0  0  0  0  0  0  0
    9.7311    1.0546   -0.5115 H   0  0  0  0  0  0  0  0  0  0  0  0
    1.9699    6.6673   -1.4284 H   0  0  0  0  0  0  0  0  0  0  0  0
    2.9079    7.8227   -0.4519 H   0  0  0  0  0  0  0  0  0  0  0  0
    3.7151    6.8654   -1.7169 H   0  0  0  0  0  0  0  0  0  0  0  0
    2.5554    5.1396    1.9053 H   0  0  0  0  0  0  0  0  0  0  0  0
    2.1560    6.8300    1.5163 H   0  0  0  0  0  0  0  0  0  0  0  0
    1.2625    5.5024    0.7369 H   0  0  0  0  0  0  0  0  0  0  0  0
    3.2419    5.8048    0.0348 N   0  3  0  0  0  0  0  0  0  0  0  0
    4.1676    5.9883    0.4393 H   0  0  0  0  0  0  0  0  0  0  0  0
  1  2  1  0  0  0  0
  1 24  1  0  0  0  0
  1 25  1  0  0  0  0
  1 26  1  0  0  0  0
  2  3  1  6  0  0  0
  2  4  1  0  0  0  0
  2 45  1  0  0  0  0
  4  5  1  0  0  0  0
  4 27  1  0  0  0  0
  4 28  1  0  0  0  0
  5 14  1  0  0  0  0
  5  6  1  0  0  0  0
  6 11  2  0  0  0  0
  6  7  1  0  0  0  0
  7  8  2  0  0  0  0
  7 29  1  0  0  0  0
  8  9  1  0  0  0  0
  8 30  1  0  0  0  0
  9 10  2  0  0  0  0
  9 31  1  0  0  0  0
 10 11  1  0  0  0  0
 10 32  1  0  0  0  0
 11 12  1  0  0  0  0
 12 13  1  0  0  0  0
 13 18  2  0  0  0  0
 13 14  1  0  0  0  0
 14 15  2  0  0  0  0
 15 16  1  0  0  0  0
 15 33  1  0  0  0  0
 16 17  2  0  0  0  0
 16 19  1  0  0  0  0
 17 18  1  0  0  0  0
 17 34  1  0  0  0  0
 18 35  1  0  0  0  0
 19 20  2  0  0  0  0
 19 21  1  0  0  0  0
 21 36  1  0  0  0  0
 21 37  1  0  0  0  0
 21 38  1  0  0  0  0
 22 39  1  0  0  0  0
 22 40  1  0  0  0  0
 22 41  1  0  0  0  0
 22 45  1  0  0  0  0
 23 42  1  0  0  0  0
 23 43  1  0  0  0  0
 23 44  1  0  0  0  0
 23 45  1  0  0  0  0
 45 46  1  0  0  0  0
M  CHG  1  45   1
M  END
$$$$
