ZINC02041360
 OpenBabel08292219463D

 33 34  0  0  1  0  0  0  0  0999 V2000
   -0.0187    1.5258    0.0104 C   0  0  0  0  0  0  0  0  0  0  0  0
    0.0021   -0.0041    0.0020 C   0  0  1  0  0  0  0  0  0  0  0  0
    0.5678   -0.4612   -1.3293 C   0  0  0  0  0  0  0  0  0  0  0  0
    0.0486   -0.1399   -2.3766 O   0  0  0  0  0  0  0  0  0  0  0  0
    1.6706   -1.2393   -1.3044 N   0  0  0  0  0  0  0  0  0  0  0  0
    2.2552   -1.6030   -0.1572 C   0  0  0  0  0  0  0  0  0  0  0  0
    1.8301   -1.2502    1.0613 N   0  0  0  0  0  0  0  0  0  0  0  0
    0.7412   -0.4729    1.2411 C   0  0  0  0  0  0  0  0  0  0  0  0
    0.3674   -0.1615    2.3515 O   0  0  0  0  0  0  0  0  0  0  0  0
    2.5683   -1.7218    2.2356 C   0  0  0  0  0  0  0  0  0  0  0  0
    3.2441   -2.3053   -0.2271 O   0  0  0  0  0  0  0  0  0  0  0  0
   -1.4216   -0.4896    0.0934 C   0  0  0  0  0  0  0  0  0  0  0  0
   -1.7477   -1.2266    1.1063 C   0  0  0  0  0  0  0  0  0  0  0  0
   -3.1202   -1.7918    1.3278 C   0  0  0  0  0  0  0  0  0  0  0  0
   -4.1417   -1.0493    0.4635 C   0  0  0  0  0  0  0  0  0  0  0  0
   -3.6093   -0.9901   -0.9739 C   0  0  0  0  0  0  0  0  0  0  0  0
   -2.3746   -0.0836   -0.9925 C   0  0  0  0  0  0  0  0  0  0  0  0
    1.0039    1.9031    0.0027 H   0  0  0  0  0  0  0  0  0  0  0  0
   -0.5459    1.8868   -0.8726 H   0  0  0  0  0  0  0  0  0  0  0  0
   -0.5289    1.8773    0.9072 H   0  0  0  0  0  0  0  0  0  0  0  0
    3.4119   -2.3322    1.9134 H   0  0  0  0  0  0  0  0  0  0  0  0
    2.9346   -0.8658    2.8024 H   0  0  0  0  0  0  0  0  0  0  0  0
    1.9075   -2.3183    2.8646 H   0  0  0  0  0  0  0  0  0  0  0  0
   -0.9845   -1.4489    1.8374 H   0  0  0  0  0  0  0  0  0  0  0  0
   -3.1227   -2.8489    1.0623 H   0  0  0  0  0  0  0  0  0  0  0  0
   -3.3899   -1.6845    2.3784 H   0  0  0  0  0  0  0  0  0  0  0  0
   -5.0923   -1.5823    0.4804 H   0  0  0  0  0  0  0  0  0  0  0  0
   -4.2785   -0.0377    0.8455 H   0  0  0  0  0  0  0  0  0  0  0  0
   -3.3375   -1.9922   -1.3055 H   0  0  0  0  0  0  0  0  0  0  0  0
   -4.3748   -0.5783   -1.6315 H   0  0  0  0  0  0  0  0  0  0  0  0
   -2.6794    0.9513   -0.8374 H   0  0  0  0  0  0  0  0  0  0  0  0
   -1.8791   -0.1712   -1.9594 H   0  0  0  0  0  0  0  0  0  0  0  0
    2.0504   -1.5442   -2.1433 H   0  0  0  0  0  0  0  0  0  0  0  0
  1 18  1  0  0  0  0
  1 19  1  0  0  0  0
  1 20  1  0  0  0  0
  2  1  1  1  0  0  0
  2  8  1  0  0  0  0
  2  3  1  0  0  0  0
  2 12  1  0  0  0  0
  3  4  2  0  0  0  0
  3  5  1  0  0  0  0
  5  6  1  0  0  0  0
  5 33  1  0  0  0  0
  6  7  1  0  0  0  0
  6 11  2  0  0  0  0
  7  8  1  0  0  0  0
  7 10  1  0  0  0  0
  8  9  2  0  0  0  0
 10 21  1  0  0  0  0
 10 22  1  0  0  0  0
 10 23  1  0  0  0  0
 12 17  1  0  0  0  0
 12 13  2  0  0  0  0
 13 14  1  0  0  0  0
 13 24  1  0  0  0  0
 14 15  1  0  0  0  0
 14 25  1  0  0  0  0
 14 26  1  0  0  0  0
 15 16  1  0  0  0  0
 15 27  1  0  0  0  0
 15 28  1  0  0  0  0
 16 17  1  0  0  0  0
 16 29  1  0  0  0  0
 16 30  1  0  0  0  0
 17 31  1  0  0  0  0
 17 32  1  0  0  0  0
M  END
$$$$
