ZINC04468778
 OpenBabel08292219463D

 43 45  0  0  1  0  0  0  0  0999 V2000
    0.0091    1.1842    0.2326 C   0  0  0  0  0  0  0  0  0  0  0  0
    0.0377   -0.1499    0.1823 C   0  0  0  0  0  0  0  0  0  0  0  0
    1.3184   -0.8519    0.1311 C   0  0  0  0  0  0  0  0  0  0  0  0
    1.2618   -2.1967    0.1940 C   0  0  0  0  0  0  0  0  0  0  0  0
    2.4310   -2.9644    0.0757 N   0  0  0  0  0  0  0  0  0  0  0  0
    3.8311   -2.4943    0.2339 C   0  0  1  0  0  0  0  0  0  0  0  0
    4.2010   -2.4626    1.2588 H   0  0  0  0  0  0  0  0  0  0  0  0
    4.2300   -3.7244   -0.5530 C   0  0  1  0  0  0  0  0  0  0  0  0
    5.0031   -4.3261   -0.0751 H   0  0  0  0  0  0  0  0  0  0  0  0
    2.8277   -4.1834   -0.2605 C   0  0  0  0  0  0  0  0  0  0  0  0
    2.2714   -5.2600   -0.3122 O   0  0  0  0  0  0  0  0  0  0  0  0
    4.4942   -3.4666   -1.9707 N   0  0  0  0  0  0  0  0  0  0  0  0
    5.3100   -4.2854   -2.6639 C   0  0  0  0  0  0  0  0  0  0  0  0
    5.7499   -5.2901   -2.1408 O   0  0  0  0  0  0  0  0  0  0  0  0
    5.6706   -3.9604   -4.0640 C   0  0  0  0  0  0  0  0  0  0  0  0
    6.5422   -4.6917   -4.6987 N   0  0  0  0  0  0  0  0  0  0  0  0
    7.0637   -5.8593   -4.0906 O   0  0  0  0  0  0  0  0  0  0  0  0
    8.0087   -6.5632   -4.8991 C   0  0  0  0  0  0  0  0  0  0  0  0
    8.4954   -7.7814   -4.1575 C   0  0  0  0  0  0  0  0  0  0  0  0
    8.0723   -8.0244   -3.0401 O   0  0  0  0  0  0  0  0  0  0  0  0
    9.3123   -8.5241   -4.6748 O   0  0  0  0  0  1  0  0  0  0  0  0
    5.0411   -2.8061   -4.7407 C   0  0  0  0  0  0  0  0  0  0  0  0
    5.2790   -2.5663   -6.0678 C   0  0  0  0  0  0  0  0  0  0  0  0
    4.2903   -1.0990   -6.3241 S   0  0  0  0  0  0  0  0  0  0  0  0
    3.6652   -0.9526   -4.6563 C   0  0  0  0  0  0  0  0  0  0  0  0
    4.2310   -1.9896   -4.0683 N   0  0  0  0  0  0  0  0  0  0  0  0
    2.8091   -0.0039   -4.1228 N   0  0  0  0  0  0  0  0  0  0  0  0
    3.9407   -0.8995   -0.6467 S   0  0  0  0  0  0  0  0  0  0  0  0
    2.5360    0.0063    0.0091 C   0  0  0  0  0  0  0  0  0  0  0  0
   -0.0279   -2.8618    0.3875 C   0  0  0  0  0  0  0  0  0  0  0  0
   -0.6606   -3.2646   -0.5807 O   0  0  0  0  0  0  0  0  0  0  0  0
   -0.4743   -3.0153    1.5177 O   0  0  0  0  0  1  0  0  0  0  0  0
    0.9325    1.7443    0.2353 H   0  0  0  0  0  0  0  0  0  0  0  0
   -0.9374    1.7031    0.2659 H   0  0  0  0  0  0  0  0  0  0  0  0
   -0.8856   -0.7101    0.1796 H   0  0  0  0  0  0  0  0  0  0  0  0
    4.0820   -2.7067   -2.4105 H   0  0  0  0  0  0  0  0  0  0  0  0
    7.5325   -6.8707   -5.8301 H   0  0  0  0  0  0  0  0  0  0  0  0
    8.8536   -5.9114   -5.1212 H   0  0  0  0  0  0  0  0  0  0  0  0
    5.8946   -3.1128   -6.7669 H   0  0  0  0  0  0  0  0  0  0  0  0
    2.4646    0.7085   -4.6837 H   0  0  0  0  0  0  0  0  0  0  0  0
    2.5538   -0.0518   -3.1882 H   0  0  0  0  0  0  0  0  0  0  0  0
    2.3122    0.8496   -0.6442 H   0  0  0  0  0  0  0  0  0  0  0  0
    2.8042    0.3845    0.9956 H   0  0  0  0  0  0  0  0  0  0  0  0
  1  2  2  0  0  0  0
  1 33  1  0  0  0  0
  1 34  1  0  0  0  0
  2  3  1  0  0  0  0
  2 35  1  0  0  0  0
  3 29  1  0  0  0  0
  3  4  2  0  0  0  0
  4  5  1  0  0  0  0
  4 30  1  0  0  0  0
  5 10  1  0  0  0  0
  5  6  1  0  0  0  0
  6  7  1  1  0  0  0
  6  8  1  0  0  0  0
  6 28  1  0  0  0  0
  8  9  1  1  0  0  0
  8 10  1  0  0  0  0
  8 12  1  0  0  0  0
 10 11  2  0  0  0  0
 12 13  1  0  0  0  0
 12 36  1  0  0  0  0
 13 14  2  0  0  0  0
 13 15  1  0  0  0  0
 15 16  2  0  0  0  0
 15 22  1  0  0  0  0
 16 17  1  0  0  0  0
 17 18  1  0  0  0  0
 18 19  1  0  0  0  0
 18 37  1  0  0  0  0
 18 38  1  0  0  0  0
 19 20  2  0  0  0  0
 19 21  1  0  0  0  0
 22 26  1  0  0  0  0
 22 23  2  0  0  0  0
 23 24  1  0  0  0  0
 23 39  1  0  0  0  0
 24 25  1  0  0  0  0
 25 26  2  0  0  0  0
 25 27  1  0  0  0  0
 27 40  1  0  0  0  0
 27 41  1  0  0  0  0
 28 29  1  0  0  0  0
 29 42  1  0  0  0  0
 29 43  1  0  0  0  0
 30 31  2  0  0  0  0
 30 32  1  0  0  0  0
M  END
$$$$
