ZINC01481877
 OpenBabel08292219463D

 46 49  0  0  1  0  0  0  0  0999 V2000
    3.9130    1.7146    3.0549 C   0  0  0  0  0  0  0  0  0  0  0  0
    4.0575    0.3154    2.6315 N   0  3  2  0  0  0  0  0  0  0  0  0
    4.5769    0.2721    1.2593 C   0  0  0  0  0  0  0  0  0  0  0  0
    4.8059   -1.1823    0.8423 C   0  0  0  0  0  0  0  0  0  0  0  0
    3.4784   -1.9426    0.9116 C   0  0  0  0  0  0  0  0  0  0  0  0
    2.9091   -1.8279    2.3286 C   0  0  1  0  0  0  0  0  0  0  0  0
    3.5900   -2.3043    3.0340 H   0  0  0  0  0  0  0  0  0  0  0  0
    2.7504   -0.3497    2.6906 C   0  0  0  0  0  0  0  0  0  0  0  0
    1.5454   -2.5189    2.3888 C   0  0  0  0  0  0  0  0  0  0  0  0
    1.7244   -4.0213    2.1614 C   0  0  0  0  0  0  0  0  0  0  0  0
    0.3789   -4.6166    1.9120 C   0  0  0  0  0  0  0  0  0  0  0  0
   -0.0887   -4.6293    0.6013 C   0  0  0  0  0  0  0  0  0  0  0  0
   -1.3301   -5.1469    0.2986 C   0  0  0  0  0  0  0  0  0  0  0  0
   -2.1324   -5.6614    1.3011 C   0  0  0  0  0  0  0  0  0  0  0  0
   -1.6781   -5.6607    2.6033 C   0  0  0  0  0  0  0  0  0  0  0  0
   -0.4203   -5.1467    2.9090 C   0  0  0  0  0  0  0  0  0  0  0  0
    0.1385   -5.2059    4.5778 S   0  0  0  0  0  0  0  0  0  0  0  0
    1.8916   -5.1152    4.4418 C   0  0  0  0  0  0  0  0  0  0  0  0
    2.4893   -4.5776    3.3160 C   0  0  0  0  0  0  0  0  0  0  0  0
    3.8786   -4.5446    3.2463 C   0  0  0  0  0  0  0  0  0  0  0  0
    4.6502   -5.0273    4.2821 C   0  0  0  0  0  0  0  0  0  0  0  0
    4.0482   -5.5528    5.4111 C   0  0  0  0  0  0  0  0  0  0  0  0
    2.6722   -5.5972    5.4900 C   0  0  0  0  0  0  0  0  0  0  0  0
    3.5336    1.7479    4.0762 H   0  0  0  0  0  0  0  0  0  0  0  0
    4.8832    2.2095    3.0114 H   0  0  0  0  0  0  0  0  0  0  0  0
    3.2149    2.2247    2.3912 H   0  0  0  0  0  0  0  0  0  0  0  0
    3.8568    0.7341    0.5840 H   0  0  0  0  0  0  0  0  0  0  0  0
    5.5201    0.8163    1.2110 H   0  0  0  0  0  0  0  0  0  0  0  0
    5.1898   -1.2124   -0.1774 H   0  0  0  0  0  0  0  0  0  0  0  0
    5.5262   -1.6453    1.5169 H   0  0  0  0  0  0  0  0  0  0  0  0
    2.7741   -1.5118    0.1999 H   0  0  0  0  0  0  0  0  0  0  0  0
    3.6464   -2.9921    0.6701 H   0  0  0  0  0  0  0  0  0  0  0  0
    2.3451   -0.2645    3.6988 H   0  0  0  0  0  0  0  0  0  0  0  0
    2.0692    0.1256    1.9848 H   0  0  0  0  0  0  0  0  0  0  0  0
    1.0957   -2.3506    3.3673 H   0  0  0  0  0  0  0  0  0  0  0  0
    0.8960   -2.1092    1.6152 H   0  0  0  0  0  0  0  0  0  0  0  0
    2.3238   -4.1564    1.2611 H   0  0  0  0  0  0  0  0  0  0  0  0
    0.5288   -4.2282   -0.1889 H   0  0  0  0  0  0  0  0  0  0  0  0
   -1.6774   -5.1503   -0.7241 H   0  0  0  0  0  0  0  0  0  0  0  0
   -3.1079   -6.0605    1.0657 H   0  0  0  0  0  0  0  0  0  0  0  0
   -2.3009   -6.0604    3.3898 H   0  0  0  0  0  0  0  0  0  0  0  0
    4.3588   -4.1352    2.3698 H   0  0  0  0  0  0  0  0  0  0  0  0
    5.7274   -4.9952    4.2115 H   0  0  0  0  0  0  0  0  0  0  0  0
    4.6518   -5.9253    6.2256 H   0  0  0  0  0  0  0  0  0  0  0  0
    2.1973   -6.0076    6.3689 H   0  0  0  0  0  0  0  0  0  0  0  0
    4.7020   -0.1566    3.2480 H   0  0  0  0  0  0  0  0  0  0  0  0
  1  2  1  0  0  0  0
  1 24  1  0  0  0  0
  1 25  1  0  0  0  0
  1 26  1  0  0  0  0
  2  8  1  0  0  0  0
  2  3  1  0  0  0  0
  2 46  1  1  0  0  0
  3  4  1  0  0  0  0
  3 27  1  0  0  0  0
  3 28  1  0  0  0  0
  4  5  1  0  0  0  0
  4 29  1  0  0  0  0
  4 30  1  0  0  0  0
  5  6  1  0  0  0  0
  5 31  1  0  0  0  0
  5 32  1  0  0  0  0
  6  7  1  1  0  0  0
  6  8  1  0  0  0  0
  6  9  1  0  0  0  0
  8 33  1  0  0  0  0
  8 34  1  0  0  0  0
  9 10  1  0  0  0  0
  9 35  1  0  0  0  0
  9 36  1  0  0  0  0
 10 19  1  0  0  0  0
 10 11  1  0  0  0  0
 10 37  1  0  0  0  0
 11 16  2  0  0  0  0
 11 12  1  0  0  0  0
 12 13  2  0  0  0  0
 12 38  1  0  0  0  0
 13 14  1  0  0  0  0
 13 39  1  0  0  0  0
 14 15  2  0  0  0  0
 14 40  1  0  0  0  0
 15 16  1  0  0  0  0
 15 41  1  0  0  0  0
 16 17  1  0  0  0  0
 17 18  1  0  0  0  0
 18 23  2  0  0  0  0
 18 19  1  0  0  0  0
 19 20  2  0  0  0  0
 20 21  1  0  0  0  0
 20 42  1  0  0  0  0
 21 22  2  0  0  0  0
 21 43  1  0  0  0  0
 22 23  1  0  0  0  0
 22 44  1  0  0  0  0
 23 45  1  0  0  0  0
M  CHG  1   2   1
M  END
$$$$
