ZINC03806063
 OpenBabel08292219463D

 68 70  0  0  1  0  0  0  0  0999 V2000
    0.2428   -0.0809    2.7850 C   0  0  0  0  0  0  0  0  0  0  0  0
    0.2855    1.3868    2.3548 C   0  0  2  0  0  0  0  0  0  0  0  0
    1.3054    1.6549    2.0788 H   0  0  0  0  0  0  0  0  0  0  0  0
   -0.1786    2.2716    3.5135 C   0  0  0  0  0  0  0  0  0  0  0  0
   -0.0085    3.7211    3.1380 C   0  0  0  0  0  0  0  0  0  0  0  0
    1.2151    4.3457    3.3254 C   0  0  0  0  0  0  0  0  0  0  0  0
    1.3830    5.6690    2.9810 C   0  0  0  0  0  0  0  0  0  0  0  0
    0.3259    6.4027    2.4546 C   0  0  0  0  0  0  0  0  0  0  0  0
   -0.9171    5.7684    2.2678 C   0  0  0  0  0  0  0  0  0  0  0  0
   -1.0704    4.4251    2.6145 C   0  0  0  0  0  0  0  0  0  0  0  0
   -2.0538    6.5211    1.7067 C   0  0  0  0  0  0  0  0  0  0  0  0
   -1.8920    7.6577    1.3059 O   0  0  0  0  0  0  0  0  0  0  0  0
   -3.2724    5.9494    1.6379 N   0  0  0  0  0  0  0  0  0  0  0  0
    0.7065    7.7169    2.1983 N   0  0  0  0  0  0  0  0  0  0  0  0
    2.1839    7.7637    2.1496 C   0  0  0  0  0  0  0  0  0  0  0  0
    2.5888    6.5844    3.0639 C   0  0  0  0  0  0  0  0  0  0  0  0
    0.1845    8.6263    3.2271 C   0  0  0  0  0  0  0  0  0  0  0  0
    0.4051   10.0749    2.7867 C   0  0  0  0  0  0  0  0  0  0  0  0
   -0.1385   11.0221    3.8583 C   0  0  0  0  0  0  0  0  0  0  0  0
    0.0675   12.3750    3.4470 O   0  0  0  0  0  0  0  0  0  0  0  0
    0.0684    1.2074   -0.0501 C   0  0  0  0  0  0  0  0  0  0  0  0
   -0.8339    1.5523   -1.2365 C   0  0  0  0  0  0  0  0  0  0  0  0
   -2.0211    0.7590   -1.1785 O   0  0  0  0  0  0  0  0  0  0  0  0
   -2.8894    0.8702   -2.2192 C   0  0  0  0  0  0  0  0  0  0  0  0
   -2.6599    1.8023   -3.2185 C   0  0  0  0  0  0  0  0  0  0  0  0
   -3.5408    1.9103   -4.2785 C   0  0  0  0  0  0  0  0  0  0  0  0
   -4.6572    1.0971   -4.3391 C   0  0  0  0  0  0  0  0  0  0  0  0
   -4.8950    0.1690   -3.3426 C   0  0  0  0  0  0  0  0  0  0  0  0
   -4.0133    0.0519   -2.2801 C   0  0  0  0  0  0  0  0  0  0  0  0
   -4.2461   -0.8602   -1.2986 O   0  0  0  0  0  0  0  0  0  0  0  0
   -5.3569   -1.7405   -1.4813 C   0  0  0  0  0  0  0  0  0  0  0  0
   -5.5155   -2.6252   -0.2431 C   0  0  0  0  0  0  0  0  0  0  0  0
   -5.8458   -1.8295    0.8592 F   0  0  0  0  0  0  0  0  0  0  0  0
   -6.5325   -3.5599   -0.4650 F   0  0  0  0  0  0  0  0  0  0  0  0
   -4.3134   -3.2950    0.0087 F   0  0  0  0  0  0  0  0  0  0  0  0
    0.5735   -0.7112    1.9595 H   0  0  0  0  0  0  0  0  0  0  0  0
    0.9014   -0.2279    3.6409 H   0  0  0  0  0  0  0  0  0  0  0  0
   -0.7770   -0.3490    3.0610 H   0  0  0  0  0  0  0  0  0  0  0  0
   -1.2291    2.0719    3.7249 H   0  0  0  0  0  0  0  0  0  0  0  0
    0.4181    2.0532    4.3991 H   0  0  0  0  0  0  0  0  0  0  0  0
    2.0431    3.7900    3.7401 H   0  0  0  0  0  0  0  0  0  0  0  0
   -2.0231    3.9369    2.4719 H   0  0  0  0  0  0  0  0  0  0  0  0
   -3.4015    5.0427    1.9576 H   0  0  0  0  0  0  0  0  0  0  0  0
   -4.0203    6.4446    1.2687 H   0  0  0  0  0  0  0  0  0  0  0  0
    2.5544    8.7078    2.5491 H   0  0  0  0  0  0  0  0  0  0  0  0
    2.5427    7.6056    1.1325 H   0  0  0  0  0  0  0  0  0  0  0  0
    2.7457    6.9250    4.0873 H   0  0  0  0  0  0  0  0  0  0  0  0
    3.4792    6.0862    2.6804 H   0  0  0  0  0  0  0  0  0  0  0  0
   -0.8818    8.4465    3.3639 H   0  0  0  0  0  0  0  0  0  0  0  0
    0.7065    8.4490    4.1674 H   0  0  0  0  0  0  0  0  0  0  0  0
    1.4714   10.2547    2.6500 H   0  0  0  0  0  0  0  0  0  0  0  0
   -0.1168   10.2523    1.8464 H   0  0  0  0  0  0  0  0  0  0  0  0
   -1.2048   10.8423    3.9951 H   0  0  0  0  0  0  0  0  0  0  0  0
    0.3834   10.8447    4.7986 H   0  0  0  0  0  0  0  0  0  0  0  0
   -0.2537   13.0318    4.0799 H   0  0  0  0  0  0  0  0  0  0  0  0
    0.2692    0.1361   -0.0457 H   0  0  0  0  0  0  0  0  0  0  0  0
    1.0081    1.7528   -0.1376 H   0  0  0  0  0  0  0  0  0  0  0  0
   -1.1003    2.6085   -1.1954 H   0  0  0  0  0  0  0  0  0  0  0  0
   -0.3049    1.3470   -2.1671 H   0  0  0  0  0  0  0  0  0  0  0  0
   -1.7909    2.4418   -3.1711 H   0  0  0  0  0  0  0  0  0  0  0  0
   -3.3586    2.6344   -5.0588 H   0  0  0  0  0  0  0  0  0  0  0  0
   -5.3451    1.1873   -5.1667 H   0  0  0  0  0  0  0  0  0  0  0  0
   -5.7682   -0.4646   -3.3920 H   0  0  0  0  0  0  0  0  0  0  0  0
   -6.2643   -1.1548   -1.6281 H   0  0  0  0  0  0  0  0  0  0  0  0
   -5.1836   -2.3675   -2.3560 H   0  0  0  0  0  0  0  0  0  0  0  0
   -0.6122    1.5887    1.2018 N   0  3  0  0  0  0  0  0  0  0  0  0
   -0.8828    2.5780    1.1525 H   0  0  0  0  0  0  0  0  0  0  0  0
   -1.4517    1.0098    1.3208 H   0  0  0  0  0  0  0  0  0  0  0  0
  1  2  1  0  0  0  0
  1 36  1  0  0  0  0
  1 37  1  0  0  0  0
  1 38  1  0  0  0  0
  2  3  1  6  0  0  0
  2  4  1  0  0  0  0
  2 66  1  0  0  0  0
  4  5  1  0  0  0  0
  4 39  1  0  0  0  0
  4 40  1  0  0  0  0
  5 10  2  0  0  0  0
  5  6  1  0  0  0  0
  6  7  2  0  0  0  0
  6 41  1  0  0  0  0
  7 16  1  0  0  0  0
  7  8  1  0  0  0  0
  8  9  2  0  0  0  0
  8 14  1  0  0  0  0
  9 10  1  0  0  0  0
  9 11  1  0  0  0  0
 10 42  1  0  0  0  0
 11 12  2  0  0  0  0
 11 13  1  0  0  0  0
 13 43  1  0  0  0  0
 13 44  1  0  0  0  0
 14 15  1  0  0  0  0
 14 17  1  0  0  0  0
 15 16  1  0  0  0  0
 15 45  1  0  0  0  0
 15 46  1  0  0  0  0
 16 47  1  0  0  0  0
 16 48  1  0  0  0  0
 17 18  1  0  0  0  0
 17 49  1  0  0  0  0
 17 50  1  0  0  0  0
 18 19  1  0  0  0  0
 18 51  1  0  0  0  0
 18 52  1  0  0  0  0
 19 20  1  0  0  0  0
 19 53  1  0  0  0  0
 19 54  1  0  0  0  0
 20 55  1  0  0  0  0
 21 22  1  0  0  0  0
 21 56  1  0  0  0  0
 21 57  1  0  0  0  0
 21 66  1  0  0  0  0
 22 23  1  0  0  0  0
 22 58  1  0  0  0  0
 22 59  1  0  0  0  0
 23 24  1  0  0  0  0
 24 29  2  0  0  0  0
 24 25  1  0  0  0  0
 25 26  2  0  0  0  0
 25 60  1  0  0  0  0
 26 27  1  0  0  0  0
 26 61  1  0  0  0  0
 27 28  2  0  0  0  0
 27 62  1  0  0  0  0
 28 29  1  0  0  0  0
 28 63  1  0  0  0  0
 29 30  1  0  0  0  0
 30 31  1  0  0  0  0
 31 32  1  0  0  0  0
 31 64  1  0  0  0  0
 31 65  1  0  0  0  0
 32 33  1  0  0  0  0
 32 34  1  0  0  0  0
 32 35  1  0  0  0  0
 66 67  1  0  0  0  0
 66 68  1  0  0  0  0
M  CHG  1  66   1
M  END
$$$$
