ZINC01554274
 OpenBabel08292219463D

 46 48  0  0  0  0  0  0  0  0999 V2000
    0.2827    6.3692   -2.4116 C   0  0  0  0  0  0  0  0  0  0  0  0
    0.7052    5.6451   -1.1592 C   0  0  0  0  0  0  0  0  0  0  0  0
    0.7523    4.2698   -1.1435 C   0  0  0  0  0  0  0  0  0  0  0  0
    1.1453    3.5982    0.0202 C   0  0  0  0  0  0  0  0  0  0  0  0
    1.4838    4.3294    1.1650 C   0  0  0  0  0  0  0  0  0  0  0  0
    1.4390    5.7046    1.1389 C   0  0  0  0  0  0  0  0  0  0  0  0
    1.0477    6.3683   -0.0203 C   0  0  0  0  0  0  0  0  0  0  0  0
    0.9990    7.7609   -0.0409 N   0  0  0  0  0  0  0  0  0  0  0  0
   -0.2251    8.4120   -0.0311 C   0  0  0  0  0  0  0  0  0  0  0  0
   -1.4158    7.6822   -0.0097 C   0  0  0  0  0  0  0  0  0  0  0  0
   -2.6118    8.3731   -0.0006 C   0  0  0  0  0  0  0  0  0  0  0  0
   -2.5952    9.6979   -0.0124 N   0  0  0  0  0  0  0  0  0  0  0  0
   -1.4506   10.3644   -0.0327 C   0  0  0  0  0  0  0  0  0  0  0  0
   -0.2826    9.7398   -0.0364 N   0  0  0  0  0  0  0  0  0  0  0  0
   -1.4758   11.7497   -0.0449 N   0  0  0  0  0  0  0  0  0  0  0  0
   -2.6910   12.4236   -0.1525 C   0  0  0  0  0  0  0  0  0  0  0  0
   -2.8635   13.6495    0.4830 C   0  0  0  0  0  0  0  0  0  0  0  0
   -4.0608   14.3202    0.3748 C   0  0  0  0  0  0  0  0  0  0  0  0
   -5.1076   13.7633   -0.3657 C   0  0  0  0  0  0  0  0  0  0  0  0
   -4.9326   12.5291   -0.9984 C   0  0  0  0  0  0  0  0  0  0  0  0
   -3.7308   11.8663   -0.8904 C   0  0  0  0  0  0  0  0  0  0  0  0
   -6.3565   14.4553   -0.4755 C   0  0  0  0  0  0  0  0  0  0  0  0
   -7.3472   15.0043   -0.5626 N   0  0  0  0  0  0  0  0  0  0  0  0
    1.8087    6.4929    2.3689 C   0  0  0  0  0  0  0  0  0  0  0  0
    1.1966    2.1293    0.0419 C   0  0  0  0  0  0  0  0  0  0  0  0
    1.5759    1.4837    1.1651 C   0  0  0  0  0  0  0  0  0  0  0  0
    1.6259    0.0527    1.1862 C   0  0  0  0  0  0  0  0  0  0  0  0
    1.6655   -1.0825    1.2029 N   0  0  0  0  0  0  0  0  0  0  0  0
   -0.8027    6.4677   -2.4256 H   0  0  0  0  0  0  0  0  0  0  0  0
    0.7377    7.3595   -2.4297 H   0  0  0  0  0  0  0  0  0  0  0  0
    0.6076    5.8040   -3.2851 H   0  0  0  0  0  0  0  0  0  0  0  0
    0.4868    3.7094   -2.0277 H   0  0  0  0  0  0  0  0  0  0  0  0
    1.7836    3.8150    2.0661 H   0  0  0  0  0  0  0  0  0  0  0  0
    1.8215    8.2747   -0.0620 H   0  0  0  0  0  0  0  0  0  0  0  0
   -1.4017    6.6024   -0.0001 H   0  0  0  0  0  0  0  0  0  0  0  0
   -3.5504    7.8391    0.0155 H   0  0  0  0  0  0  0  0  0  0  0  0
   -0.6477   12.2505    0.0214 H   0  0  0  0  0  0  0  0  0  0  0  0
   -2.0557   14.0772    1.0583 H   0  0  0  0  0  0  0  0  0  0  0  0
   -4.1925   15.2737    0.8646 H   0  0  0  0  0  0  0  0  0  0  0  0
   -5.7393   12.0958   -1.5710 H   0  0  0  0  0  0  0  0  0  0  0  0
   -3.5948   10.9130   -1.3793 H   0  0  0  0  0  0  0  0  0  0  0  0
    0.9373    6.5842    3.0174 H   0  0  0  0  0  0  0  0  0  0  0  0
    2.6073    5.9787    2.9036 H   0  0  0  0  0  0  0  0  0  0  0  0
    2.1487    7.4860    2.0753 H   0  0  0  0  0  0  0  0  0  0  0  0
    0.9309    1.5666   -0.8408 H   0  0  0  0  0  0  0  0  0  0  0  0
    1.8374    2.0462    2.0492 H   0  0  0  0  0  0  0  0  0  0  0  0
  1  2  1  0  0  0  0
  1 29  1  0  0  0  0
  1 30  1  0  0  0  0
  1 31  1  0  0  0  0
  2  7  2  0  0  0  0
  2  3  1  0  0  0  0
  3  4  2  0  0  0  0
  3 32  1  0  0  0  0
  4  5  1  0  0  0  0
  4 25  1  0  0  0  0
  5  6  2  0  0  0  0
  5 33  1  0  0  0  0
  6  7  1  0  0  0  0
  6 24  1  0  0  0  0
  7  8  1  0  0  0  0
  8  9  1  0  0  0  0
  8 34  1  0  0  0  0
  9 14  2  0  0  0  0
  9 10  1  0  0  0  0
 10 11  2  0  0  0  0
 10 35  1  0  0  0  0
 11 12  1  0  0  0  0
 11 36  1  0  0  0  0
 12 13  2  0  0  0  0
 13 14  1  0  0  0  0
 13 15  1  0  0  0  0
 15 16  1  0  0  0  0
 15 37  1  0  0  0  0
 16 21  2  0  0  0  0
 16 17  1  0  0  0  0
 17 18  2  0  0  0  0
 17 38  1  0  0  0  0
 18 19  1  0  0  0  0
 18 39  1  0  0  0  0
 19 20  2  0  0  0  0
 19 22  1  0  0  0  0
 20 21  1  0  0  0  0
 20 40  1  0  0  0  0
 21 41  1  0  0  0  0
 22 23  3  0  0  0  0
 24 42  1  0  0  0  0
 24 43  1  0  0  0  0
 24 44  1  0  0  0  0
 25 26  2  0  0  0  0
 25 45  1  0  0  0  0
 26 27  1  0  0  0  0
 26 46  1  0  0  0  0
 27 28  3  0  0  0  0
M  END
$$$$
