ZINC03787060
 OpenBabel08292219463D

 31 33  0  0  1  0  0  0  0  0999 V2000
   -0.0187    1.5258    0.0104 C   0  0  0  0  0  0  0  0  0  0  0  0
    0.0021   -0.0041    0.0020 C   0  0  2  0  0  0  0  0  0  0  0  0
   -1.4146   -0.5970    0.2500 C   0  0  1  0  0  0  0  0  0  0  0  0
   -1.4407   -1.6244   -0.1133 H   0  0  0  0  0  0  0  0  0  0  0  0
   -1.7530   -0.5827    1.6766 N   0  0  0  0  0  0  0  0  0  0  0  0
   -0.6219   -0.6803    2.6091 C   0  0  2  0  0  0  0  0  0  0  0  0
   -0.5972    0.0495    3.4183 H   0  0  0  0  0  0  0  0  0  0  0  0
    0.8474   -0.6813    1.5011 S   0  0  0  0  0  0  0  0  0  0  0  0
    1.7963    0.2643    1.9751 O   0  0  0  0  0  0  0  0  0  0  0  0
    1.2489   -2.0213    1.2512 O   0  0  0  0  0  0  0  0  0  0  0  0
   -1.1211   -2.0644    2.9842 C   0  0  0  0  0  0  0  0  0  0  0  0
   -2.3389   -1.6771    2.1994 C   0  0  0  0  0  0  0  0  0  0  0  0
   -3.4416   -2.1674    2.0796 O   0  0  0  0  0  0  0  0  0  0  0  0
   -2.4313    0.2197   -0.5052 C   0  0  0  0  0  0  0  0  0  0  0  0
   -2.7256   -0.0801   -1.6498 O   0  0  0  0  0  0  0  0  0  0  0  0
   -2.9595    1.1804    0.0283 O   0  0  0  0  0  1  0  0  0  0  0  0
    0.6227   -0.5460   -1.2872 C   0  0  0  0  0  0  0  0  0  0  0  0
    1.9493    0.0459   -1.4769 N   0  0  0  0  0  0  0  0  0  0  0  0
    3.1037   -0.6368   -1.6565 C   0  0  0  0  0  0  0  0  0  0  0  0
    4.0762    0.2952   -1.7894 C   0  0  0  0  0  0  0  0  0  0  0  0
    3.4770    1.4867   -1.6860 N   0  0  0  0  0  0  0  0  0  0  0  0
    2.2163    1.3047   -1.5068 N   0  0  0  0  0  0  0  0  0  0  0  0
    1.0039    1.9031    0.0027 H   0  0  0  0  0  0  0  0  0  0  0  0
   -0.5459    1.8868   -0.8726 H   0  0  0  0  0  0  0  0  0  0  0  0
   -0.5289    1.8773    0.9072 H   0  0  0  0  0  0  0  0  0  0  0  0
   -0.5476   -2.8786    2.5411 H   0  0  0  0  0  0  0  0  0  0  0  0
   -1.3036   -2.1968    4.0507 H   0  0  0  0  0  0  0  0  0  0  0  0
    0.7149   -1.6299   -1.2184 H   0  0  0  0  0  0  0  0  0  0  0  0
   -0.0144   -0.2885   -2.1333 H   0  0  0  0  0  0  0  0  0  0  0  0
    3.2248   -1.7096   -1.6872 H   0  0  0  0  0  0  0  0  0  0  0  0
    5.1289    0.1127   -1.9476 H   0  0  0  0  0  0  0  0  0  0  0  0
  1 23  1  0  0  0  0
  1 24  1  0  0  0  0
  1 25  1  0  0  0  0
  2  1  1  1  0  0  0
  2  8  1  0  0  0  0
  2  3  1  0  0  0  0
  2 17  1  0  0  0  0
  3  4  1  6  0  0  0
  3  5  1  0  0  0  0
  3 14  1  0  0  0  0
  5 12  1  0  0  0  0
  5  6  1  0  0  0  0
  6  7  1  1  0  0  0
  6  8  1  0  0  0  0
  6 11  1  0  0  0  0
  8  9  2  0  0  0  0
  8 10  2  0  0  0  0
 11 12  1  0  0  0  0
 11 26  1  0  0  0  0
 11 27  1  0  0  0  0
 12 13  2  0  0  0  0
 14 15  2  0  0  0  0
 14 16  1  0  0  0  0
 17 18  1  0  0  0  0
 17 28  1  0  0  0  0
 17 29  1  0  0  0  0
 18 22  1  0  0  0  0
 18 19  1  0  0  0  0
 19 20  2  0  0  0  0
 19 30  1  0  0  0  0
 20 21  1  0  0  0  0
 20 31  1  0  0  0  0
 21 22  2  0  0  0  0
M  END
$$$$
