ZINC05456939
 OpenBabel08292219463D

 49 49  0  0  0  0  0  0  0  0999 V2000
    2.3314    3.7232    1.3741 C   0  0  0  0  0  0  0  0  0  0  0  0
    1.5328    2.7434    0.5535 C   0  0  0  0  0  0  0  0  0  0  0  0
    0.6730    3.2237   -0.3289 C   0  0  0  0  0  0  0  0  0  0  0  0
   -0.1953    2.3628   -1.1995 C   0  0  0  0  0  0  0  0  0  0  0  0
    0.3461    0.9321   -1.2325 C   0  0  0  0  0  0  0  0  0  0  0  0
    0.5903    0.4701    0.2093 C   0  0  0  0  0  0  0  0  0  0  0  0
    1.7540    1.2774    0.7881 C   0  0  0  0  0  0  0  0  0  0  0  0
   -0.2120    2.9316   -2.6198 C   0  0  0  0  0  0  0  0  0  0  0  0
   -1.6193    2.3535   -0.6401 C   0  0  0  0  0  0  0  0  0  0  0  0
    0.5648    4.6314   -0.4596 C   0  0  0  0  0  0  0  0  0  0  0  0
    1.6600    5.3704   -0.7757 C   0  0  0  0  0  0  0  0  0  0  0  0
    1.5360    6.7547   -0.9913 C   0  0  0  0  0  0  0  0  0  0  0  0
    2.6357    7.4967   -1.3087 C   0  0  0  0  0  0  0  0  0  0  0  0
    2.5120    8.8776   -1.5238 C   0  0  0  0  0  0  0  0  0  0  0  0
    3.5899    9.6022   -1.9454 C   0  0  0  0  0  0  0  0  0  0  0  0
    4.7884    8.9507   -2.2726 C   0  0  0  0  0  0  0  0  0  0  0  0
    5.9071    9.1634   -1.5219 C   0  0  0  0  0  0  0  0  0  0  0  0
    5.8322    9.9449   -0.3511 C   0  0  0  0  0  0  0  0  0  0  0  0
    4.7533   10.3477    0.0440 O   0  0  0  0  0  0  0  0  0  0  0  0
    4.8399    8.0160   -3.4535 C   0  0  0  0  0  0  0  0  0  0  0  0
    0.1882    7.4181   -0.8719 C   0  0  0  0  0  0  0  0  0  0  0  0
    2.9179    3.1821    2.1166 H   0  0  0  0  0  0  0  0  0  0  0  0
    3.0001    4.2839    0.7211 H   0  0  0  0  0  0  0  0  0  0  0  0
    1.6537    4.4121    1.8782 H   0  0  0  0  0  0  0  0  0  0  0  0
    1.2833    0.9079   -1.7884 H   0  0  0  0  0  0  0  0  0  0  0  0
   -0.3798    0.2738   -1.7099 H   0  0  0  0  0  0  0  0  0  0  0  0
    0.8413   -0.5906    0.2163 H   0  0  0  0  0  0  0  0  0  0  0  0
   -0.3061    0.6410    0.8054 H   0  0  0  0  0  0  0  0  0  0  0  0
    2.6820    0.9702    0.3059 H   0  0  0  0  0  0  0  0  0  0  0  0
    1.8264    1.0898    1.8594 H   0  0  0  0  0  0  0  0  0  0  0  0
   -0.9176    2.3668   -3.2291 H   0  0  0  0  0  0  0  0  0  0  0  0
   -0.5153    3.9780   -2.5885 H   0  0  0  0  0  0  0  0  0  0  0  0
    0.7851    2.8551   -3.0536 H   0  0  0  0  0  0  0  0  0  0  0  0
   -1.6101    1.9442    0.3701 H   0  0  0  0  0  0  0  0  0  0  0  0
   -2.0067    3.3721   -0.6158 H   0  0  0  0  0  0  0  0  0  0  0  0
   -2.2555    1.7379   -1.2759 H   0  0  0  0  0  0  0  0  0  0  0  0
   -0.3884    5.1161   -0.3080 H   0  0  0  0  0  0  0  0  0  0  0  0
    2.6260    4.8950   -0.8613 H   0  0  0  0  0  0  0  0  0  0  0  0
    3.6016    7.0213   -1.3943 H   0  0  0  0  0  0  0  0  0  0  0  0
    1.5642    9.3675   -1.3559 H   0  0  0  0  0  0  0  0  0  0  0  0
    3.5197   10.6768   -2.0270 H   0  0  0  0  0  0  0  0  0  0  0  0
    6.8503    8.7330   -1.8245 H   0  0  0  0  0  0  0  0  0  0  0  0
    5.1991    8.5564   -4.3293 H   0  0  0  0  0  0  0  0  0  0  0  0
    5.5162    7.1898   -3.2338 H   0  0  0  0  0  0  0  0  0  0  0  0
    3.8417    7.6255   -3.6517 H   0  0  0  0  0  0  0  0  0  0  0  0
    0.0359    7.7491    0.1555 H   0  0  0  0  0  0  0  0  0  0  0  0
    0.1458    8.2778   -1.5406 H   0  0  0  0  0  0  0  0  0  0  0  0
   -0.5921    6.7073   -1.1440 H   0  0  0  0  0  0  0  0  0  0  0  0
    6.9572   10.2469    0.3323 O   0  0  0  0  0  1  0  0  0  0  0  0
  1  2  1  0  0  0  0
  1 22  1  0  0  0  0
  1 23  1  0  0  0  0
  1 24  1  0  0  0  0
  2  7  1  0  0  0  0
  2  3  2  0  0  0  0
  3  4  1  0  0  0  0
  3 10  1  0  0  0  0
  4  5  1  0  0  0  0
  4  8  1  0  0  0  0
  4  9  1  0  0  0  0
  5  6  1  0  0  0  0
  5 25  1  0  0  0  0
  5 26  1  0  0  0  0
  6  7  1  0  0  0  0
  6 27  1  0  0  0  0
  6 28  1  0  0  0  0
  7 29  1  0  0  0  0
  7 30  1  0  0  0  0
  8 31  1  0  0  0  0
  8 32  1  0  0  0  0
  8 33  1  0  0  0  0
  9 34  1  0  0  0  0
  9 35  1  0  0  0  0
  9 36  1  0  0  0  0
 10 11  2  0  0  0  0
 10 37  1  0  0  0  0
 11 12  1  0  0  0  0
 11 38  1  0  0  0  0
 12 13  2  0  0  0  0
 12 21  1  0  0  0  0
 13 14  1  0  0  0  0
 13 39  1  0  0  0  0
 14 15  2  0  0  0  0
 14 40  1  0  0  0  0
 15 16  1  0  0  0  0
 15 41  1  0  0  0  0
 16 17  2  0  0  0  0
 16 20  1  0  0  0  0
 17 18  1  0  0  0  0
 17 42  1  0  0  0  0
 18 19  2  0  0  0  0
 18 49  1  0  0  0  0
 20 43  1  0  0  0  0
 20 44  1  0  0  0  0
 20 45  1  0  0  0  0
 21 46  1  0  0  0  0
 21 47  1  0  0  0  0
 21 48  1  0  0  0  0
M  END
$$$$
