ZINC00000565
 OpenBabel08292219463D

 44 45  0  0  1  0  0  0  0  0999 V2000
   -0.3761    0.8526   -0.2127 C   0  0  0  0  0  0  0  0  0  0  0  0
   -0.1299   -0.6001    0.1039 C   0  0  0  0  0  0  0  0  0  0  0  0
   -0.1948   -1.5473   -0.9011 C   0  0  0  0  0  0  0  0  0  0  0  0
    0.0310   -2.8796   -0.6106 C   0  0  0  0  0  0  0  0  0  0  0  0
    0.3221   -3.2650    0.6848 C   0  0  0  0  0  0  0  0  0  0  0  0
    0.3879   -2.3179    1.6893 C   0  0  0  0  0  0  0  0  0  0  0  0
    0.1663   -0.9847    1.3980 C   0  0  0  0  0  0  0  0  0  0  0  0
    0.2431    0.0486    2.4923 C   0  0  1  0  0  0  0  0  0  0  0  0
    0.6273    0.9831    2.0833 H   0  0  0  0  0  0  0  0  0  0  0  0
   -1.1322    0.2782    3.0639 C   0  0  0  0  0  0  0  0  0  0  0  0
   -1.6888   -0.6527    3.9209 C   0  0  0  0  0  0  0  0  0  0  0  0
   -2.9504   -0.4421    4.4452 C   0  0  0  0  0  0  0  0  0  0  0  0
   -3.6552    0.6997    4.1129 C   0  0  0  0  0  0  0  0  0  0  0  0
   -3.0982    1.6311    3.2566 C   0  0  0  0  0  0  0  0  0  0  0  0
   -1.8349    1.4225    2.7357 C   0  0  0  0  0  0  0  0  0  0  0  0
    1.1166   -0.4144    3.5242 O   0  0  0  0  0  0  0  0  0  0  0  0
    1.7944    0.6307    4.2244 C   0  0  0  0  0  0  0  0  0  0  0  0
    2.6968    0.0224    5.2997 C   0  0  0  0  0  0  0  0  0  0  0  0
    3.7570   -0.7678    4.6597 N   0  3  0  0  0  0  0  0  0  0  0  0
    4.6275    0.1219    3.8796 C   0  0  0  0  0  0  0  0  0  0  0  0
    4.5509   -1.4485    5.6914 C   0  0  0  0  0  0  0  0  0  0  0  0
    0.5767    1.3539   -0.3827 H   0  0  0  0  0  0  0  0  0  0  0  0
   -0.9922    0.9298   -1.1086 H   0  0  0  0  0  0  0  0  0  0  0  0
   -0.8910    1.3247    0.6240 H   0  0  0  0  0  0  0  0  0  0  0  0
   -0.4223   -1.2462   -1.9130 H   0  0  0  0  0  0  0  0  0  0  0  0
   -0.0204   -3.6196   -1.3956 H   0  0  0  0  0  0  0  0  0  0  0  0
    0.4979   -4.3061    0.9119 H   0  0  0  0  0  0  0  0  0  0  0  0
    0.6150   -2.6190    2.7013 H   0  0  0  0  0  0  0  0  0  0  0  0
   -1.1382   -1.5448    4.1805 H   0  0  0  0  0  0  0  0  0  0  0  0
   -3.3856   -1.1698    5.1141 H   0  0  0  0  0  0  0  0  0  0  0  0
   -4.6412    0.8639    4.5220 H   0  0  0  0  0  0  0  0  0  0  0  0
   -3.6490    2.5230    2.9968 H   0  0  0  0  0  0  0  0  0  0  0  0
   -1.3982    2.1520    2.0697 H   0  0  0  0  0  0  0  0  0  0  0  0
    2.4006    1.2042    3.5231 H   0  0  0  0  0  0  0  0  0  0  0  0
    1.0622    1.2879    4.6936 H   0  0  0  0  0  0  0  0  0  0  0  0
    3.1453    0.8202    5.8917 H   0  0  0  0  0  0  0  0  0  0  0  0
    2.1045   -0.6226    5.9488 H   0  0  0  0  0  0  0  0  0  0  0  0
    5.4142   -0.4644    3.4047 H   0  0  0  0  0  0  0  0  0  0  0  0
    4.0385    0.6270    3.1141 H   0  0  0  0  0  0  0  0  0  0  0  0
    5.0759    0.8632    4.5411 H   0  0  0  0  0  0  0  0  0  0  0  0
    3.9050   -2.1086    6.2702 H   0  0  0  0  0  0  0  0  0  0  0  0
    5.3376   -2.0348    5.2165 H   0  0  0  0  0  0  0  0  0  0  0  0
    4.9993   -0.7072    6.3529 H   0  0  0  0  0  0  0  0  0  0  0  0
    3.3420   -1.4540    4.0474 H   0  0  0  0  0  0  0  0  0  0  0  0
  1  2  1  0  0  0  0
  1 22  1  0  0  0  0
  1 23  1  0  0  0  0
  1 24  1  0  0  0  0
  2  7  2  0  0  0  0
  2  3  1  0  0  0  0
  3  4  2  0  0  0  0
  3 25  1  0  0  0  0
  4  5  1  0  0  0  0
  4 26  1  0  0  0  0
  5  6  2  0  0  0  0
  5 27  1  0  0  0  0
  6  7  1  0  0  0  0
  6 28  1  0  0  0  0
  7  8  1  0  0  0  0
  8  9  1  6  0  0  0
  8 10  1  0  0  0  0
  8 16  1  0  0  0  0
 10 15  2  0  0  0  0
 10 11  1  0  0  0  0
 11 12  2  0  0  0  0
 11 29  1  0  0  0  0
 12 13  1  0  0  0  0
 12 30  1  0  0  0  0
 13 14  2  0  0  0  0
 13 31  1  0  0  0  0
 14 15  1  0  0  0  0
 14 32  1  0  0  0  0
 15 33  1  0  0  0  0
 16 17  1  0  0  0  0
 17 18  1  0  0  0  0
 17 34  1  0  0  0  0
 17 35  1  0  0  0  0
 18 19  1  0  0  0  0
 18 36  1  0  0  0  0
 18 37  1  0  0  0  0
 19 20  1  0  0  0  0
 19 21  1  0  0  0  0
 19 44  1  0  0  0  0
 20 38  1  0  0  0  0
 20 39  1  0  0  0  0
 20 40  1  0  0  0  0
 21 41  1  0  0  0  0
 21 42  1  0  0  0  0
 21 43  1  0  0  0  0
M  CHG  1  19   1
M  END
$$$$
