ZINC03978083
 OpenBabel08292219463D

 87 93  0  0  1  0  0  0  0  0999 V2000
   -0.0415   12.4502    3.6774 C   0  0  0  0  0  0  0  0  0  0  0  0
    1.2201   13.6546    2.0577 C   0  0  0  0  0  0  0  0  0  0  0  0
    2.6133   14.0835    1.6120 C   0  0  0  0  0  0  0  0  0  0  0  0
    3.5806   12.9382    1.5903 C   0  0  0  0  0  0  0  0  0  0  0  0
    4.8518   13.1407    1.0756 C   0  0  0  0  0  0  0  0  0  0  0  0
    5.7437   12.0981    0.9846 C   0  0  0  0  0  0  0  0  0  0  0  0
    5.3950   10.8016    1.4174 C   0  0  0  0  0  0  0  0  0  0  0  0
    4.1325   10.6176    1.9562 C   0  0  0  0  0  0  0  0  0  0  0  0
    3.2399   11.6760    2.0415 C   0  0  0  0  0  0  0  0  0  0  0  0
    1.8694   11.4386    2.6194 C   0  0  2  0  0  0  0  0  0  0  0  0
    1.9514   10.7054    3.4188 H   0  0  0  0  0  0  0  0  0  0  0  0
    0.9415   10.9363    1.5188 C   0  0  0  0  0  0  0  0  0  0  0  0
    1.4395    9.5679    1.1030 C   0  0  0  0  0  0  0  0  0  0  0  0
    1.6612    8.6147    2.0807 C   0  0  0  0  0  0  0  0  0  0  0  0
    2.1859    7.3881    1.7356 C   0  0  0  0  0  0  0  0  0  0  0  0
    2.4903    7.1165    0.4091 C   0  0  0  0  0  0  0  0  0  0  0  0
    2.2208    8.0713   -0.5713 C   0  0  0  0  0  0  0  0  0  0  0  0
    1.6970    9.2966   -0.2230 C   0  0  0  0  0  0  0  0  0  0  0  0
    3.0155    5.9593    0.0298 O   0  0  0  0  0  0  0  0  0  0  0  0
    2.6574    4.6904    0.1608 C   0  0  0  0  0  0  0  0  0  0  0  0
    3.7110    3.7568    0.1819 C   0  0  0  0  0  0  0  0  0  0  0  0
    3.4071    2.4185    0.2130 C   0  0  0  0  0  0  0  0  0  0  0  0
    2.1001    1.9831    0.3321 C   0  0  0  0  0  0  0  0  0  0  0  0
    1.0651    2.9016    0.3646 C   0  0  0  0  0  0  0  0  0  0  0  0
    1.3506    4.2591    0.2443 C   0  0  0  0  0  0  0  0  0  0  0  0
    0.3313    5.1617    0.2066 O   0  0  0  0  0  0  0  0  0  0  0  0
   -0.2185    2.4800    0.4909 O   0  0  0  0  0  0  0  0  0  0  0  0
   -0.4302    1.0718    0.6095 C   0  0  0  0  0  0  0  0  0  0  0  0
    4.5277    1.4111    0.1175 C   0  0  0  0  0  0  0  0  0  0  0  0
    5.6246    2.0740   -0.7194 C   0  0  0  0  0  0  0  0  0  0  0  0
    6.1286    3.2693   -0.0253 N   0  3  0  0  0  0  0  0  0  0  0  0
    5.1305    4.2919    0.1698 C   0  0  2  0  0  0  0  0  0  0  0  0
    5.1932    5.0047   -0.6783 H   0  0  0  0  0  0  0  0  0  0  0  0
    5.2956    5.1019    1.4499 C   0  0  0  0  0  0  0  0  0  0  0  0
    6.2873    6.2304    1.3733 C   0  0  0  0  0  0  0  0  0  0  0  0
    7.6471    6.0008    1.3989 C   0  0  0  0  0  0  0  0  0  0  0  0
    8.5309    7.0670    1.3243 C   0  0  0  0  0  0  0  0  0  0  0  0
    8.0586    8.3600    1.2646 C   0  0  0  0  0  0  0  0  0  0  0  0
    6.6692    8.6168    1.2884 C   0  0  0  0  0  0  0  0  0  0  0  0
    5.8097    7.5340    1.3189 C   0  0  0  0  0  0  0  0  0  0  0  0
    6.3087    9.8770    1.2673 O   0  0  0  0  0  0  0  0  0  0  0  0
    8.9309    9.4025    1.1894 O   0  0  0  0  0  0  0  0  0  0  0  0
    7.1920    3.8283   -0.8987 C   0  0  0  0  0  0  0  0  0  0  0  0
    6.7691    2.8246    1.2181 C   0  0  0  0  0  0  0  0  0  0  0  0
    6.9903   12.3135    0.4769 O   0  0  0  0  0  0  0  0  0  0  0  0
    7.3000   13.6448    0.0602 C   0  0  0  0  0  0  0  0  0  0  0  0
   -0.0382   11.6480    4.4153 H   0  0  0  0  0  0  0  0  0  0  0  0
   -0.4556   13.3538    4.1249 H   0  0  0  0  0  0  0  0  0  0  0  0
   -0.6510   12.1556    2.8232 H   0  0  0  0  0  0  0  0  0  0  0  0
    0.6645   14.5235    2.4119 H   0  0  0  0  0  0  0  0  0  0  0  0
    0.6859   13.1667    1.2604 H   0  0  0  0  0  0  0  0  0  0  0  0
    2.9809   14.8513    2.2939 H   0  0  0  0  0  0  0  0  0  0  0  0
    2.5467   14.5057    0.6088 H   0  0  0  0  0  0  0  0  0  0  0  0
    5.1406   14.1252    0.7431 H   0  0  0  0  0  0  0  0  0  0  0  0
    3.8369    9.6386    2.3013 H   0  0  0  0  0  0  0  0  0  0  0  0
    0.9997   11.5922    0.6473 H   0  0  0  0  0  0  0  0  0  0  0  0
   -0.0855   10.8256    1.8409 H   0  0  0  0  0  0  0  0  0  0  0  0
    1.4294    8.8332    3.1118 H   0  0  0  0  0  0  0  0  0  0  0  0
    2.3611    6.6403    2.4958 H   0  0  0  0  0  0  0  0  0  0  0  0
    2.4152    7.8498   -1.6103 H   0  0  0  0  0  0  0  0  0  0  0  0
    1.5062   10.0362   -0.9843 H   0  0  0  0  0  0  0  0  0  0  0  0
    1.8840    0.9220    0.3975 H   0  0  0  0  0  0  0  0  0  0  0  0
    0.0676    5.4939    1.0756 H   0  0  0  0  0  0  0  0  0  0  0  0
    0.0886    0.6995    1.4928 H   0  0  0  0  0  0  0  0  0  0  0  0
   -1.4975    0.8714    0.7035 H   0  0  0  0  0  0  0  0  0  0  0  0
   -0.0431    0.5703   -0.2775 H   0  0  0  0  0  0  0  0  0  0  0  0
    4.1636    0.5237   -0.4060 H   0  0  0  0  0  0  0  0  0  0  0  0
    4.8712    1.1299    1.1008 H   0  0  0  0  0  0  0  0  0  0  0  0
    5.2237    2.3646   -1.6920 H   0  0  0  0  0  0  0  0  0  0  0  0
    6.4495    1.3705   -0.8644 H   0  0  0  0  0  0  0  0  0  0  0  0
    5.4652    4.5011    2.3330 H   0  0  0  0  0  0  0  0  0  0  0  0
    4.3097    5.5855    1.6516 H   0  0  0  0  0  0  0  0  0  0  0  0
    8.0538    5.0057    1.4738 H   0  0  0  0  0  0  0  0  0  0  0  0
    9.5968    6.8741    1.3104 H   0  0  0  0  0  0  0  0  0  0  0  0
    4.7440    7.7029    1.3064 H   0  0  0  0  0  0  0  0  0  0  0  0
    9.2062    9.7479    2.0496 H   0  0  0  0  0  0  0  0  0  0  0  0
    7.6352    4.7008   -0.4185 H   0  0  0  0  0  0  0  0  0  0  0  0
    7.9614    3.0739   -1.0627 H   0  0  0  0  0  0  0  0  0  0  0  0
    6.7599    4.1206   -1.8557 H   0  0  0  0  0  0  0  0  0  0  0  0
    6.0344    2.3186    1.8445 H   0  0  0  0  0  0  0  0  0  0  0  0
    7.5812    2.1366    0.9826 H   0  0  0  0  0  0  0  0  0  0  0  0
    7.1675    3.6882    1.7506 H   0  0  0  0  0  0  0  0  0  0  0  0
    8.3200   13.6777   -0.3226 H   0  0  0  0  0  0  0  0  0  0  0  0
    6.6075   13.9504   -0.7242 H   0  0  0  0  0  0  0  0  0  0  0  0
    7.2086   14.3219    0.9095 H   0  0  0  0  0  0  0  0  0  0  0  0
    1.3268   12.6990    3.1646 N   0  3  2  0  0  0  0  0  0  0  0  0
    1.9331   13.0640    3.9086 H   0  0  0  0  0  0  0  0  0  0  0  0
  1 47  1  0  0  0  0
  1 48  1  0  0  0  0
  1 49  1  0  0  0  0
  1 86  1  0  0  0  0
  2  3  1  0  0  0  0
  2 50  1  0  0  0  0
  2 51  1  0  0  0  0
  2 86  1  0  0  0  0
  3  4  1  0  0  0  0
  3 52  1  0  0  0  0
  3 53  1  0  0  0  0
  4  9  2  0  0  0  0
  4  5  1  0  0  0  0
  5  6  2  0  0  0  0
  5 54  1  0  0  0  0
  6  7  1  0  0  0  0
  6 45  1  0  0  0  0
  7 41  1  0  0  0  0
  7  8  2  0  0  0  0
  8  9  1  0  0  0  0
  8 55  1  0  0  0  0
  9 10  1  0  0  0  0
 10 11  1  1  0  0  0
 10 12  1  0  0  0  0
 10 86  1  0  0  0  0
 12 13  1  0  0  0  0
 12 56  1  0  0  0  0
 12 57  1  0  0  0  0
 13 18  2  0  0  0  0
 13 14  1  0  0  0  0
 14 15  2  0  0  0  0
 14 58  1  0  0  0  0
 15 16  1  0  0  0  0
 15 59  1  0  0  0  0
 16 17  2  0  0  0  0
 16 19  1  0  0  0  0
 17 18  1  0  0  0  0
 17 60  1  0  0  0  0
 18 61  1  0  0  0  0
 19 20  1  0  0  0  0
 20 25  2  0  0  0  0
 20 21  1  0  0  0  0
 21 32  1  0  0  0  0
 21 22  2  0  0  0  0
 22 23  1  0  0  0  0
 22 29  1  0  0  0  0
 23 24  2  0  0  0  0
 23 62  1  0  0  0  0
 24 25  1  0  0  0  0
 24 27  1  0  0  0  0
 25 26  1  0  0  0  0
 26 63  1  0  0  0  0
 27 28  1  0  0  0  0
 28 64  1  0  0  0  0
 28 65  1  0  0  0  0
 28 66  1  0  0  0  0
 29 30  1  0  0  0  0
 29 67  1  0  0  0  0
 29 68  1  0  0  0  0
 30 31  1  0  0  0  0
 30 69  1  0  0  0  0
 30 70  1  0  0  0  0
 31 32  1  0  0  0  0
 31 43  1  0  0  0  0
 31 44  1  0  0  0  0
 32 33  1  6  0  0  0
 32 34  1  0  0  0  0
 34 35  1  0  0  0  0
 34 71  1  0  0  0  0
 34 72  1  0  0  0  0
 35 40  2  0  0  0  0
 35 36  1  0  0  0  0
 36 37  2  0  0  0  0
 36 73  1  0  0  0  0
 37 38  1  0  0  0  0
 37 74  1  0  0  0  0
 38 39  2  0  0  0  0
 38 42  1  0  0  0  0
 39 40  1  0  0  0  0
 39 41  1  0  0  0  0
 40 75  1  0  0  0  0
 42 76  1  0  0  0  0
 43 77  1  0  0  0  0
 43 78  1  0  0  0  0
 43 79  1  0  0  0  0
 44 80  1  0  0  0  0
 44 81  1  0  0  0  0
 44 82  1  0  0  0  0
 45 46  1  0  0  0  0
 46 83  1  0  0  0  0
 46 84  1  0  0  0  0
 46 85  1  0  0  0  0
 86 87  1  1  0  0  0
M  CHG  2  31   1  86   1
M  END
$$$$
