ZINC00057407
 OpenBabel08292219463D

 33 33  0  0  1  0  0  0  0  0999 V2000
   -0.0187    1.5258    0.0104 C   0  0  0  0  0  0  0  0  0  0  0  0
    0.0021   -0.0041    0.0020 C   0  0  2  0  0  0  0  0  0  0  0  0
   -1.0205   -0.3814    0.0098 H   0  0  0  0  0  0  0  0  0  0  0  0
    0.7421   -0.5109    1.2415 C   0  0  1  0  0  0  0  0  0  0  0  0
    0.1838   -0.2350    2.1361 H   0  0  0  0  0  0  0  0  0  0  0  0
    0.8700   -2.0108    1.1719 C   0  0  0  0  0  0  0  0  0  0  0  0
    2.0200   -2.5832    0.6636 C   0  0  0  0  0  0  0  0  0  0  0  0
    2.1380   -3.9635    0.5999 C   0  0  0  0  0  0  0  0  0  0  0  0
    1.1011   -4.7695    1.0467 C   0  0  0  0  0  0  0  0  0  0  0  0
   -0.0486   -4.1973    1.5549 C   0  0  0  0  0  0  0  0  0  0  0  0
   -0.1644   -2.8167    1.6234 C   0  0  0  0  0  0  0  0  0  0  0  0
   -1.2941   -2.2534    2.1290 O   0  0  0  0  0  0  0  0  0  0  0  0
   -2.3190   -3.1435    2.5755 C   0  0  0  0  0  0  0  0  0  0  0  0
    3.2698   -4.5268    0.0991 O   0  0  0  0  0  0  0  0  0  0  0  0
    3.3229   -5.9544    0.0635 C   0  0  0  0  0  0  0  0  0  0  0  0
    2.0438    0.0763    1.2925 O   0  0  0  0  0  0  0  0  0  0  0  0
    0.6897   -0.4778   -1.2066 N   0  3  0  0  0  0  0  0  0  0  0  0
    1.0039    1.9031    0.0027 H   0  0  0  0  0  0  0  0  0  0  0  0
   -0.5459    1.8868   -0.8726 H   0  0  0  0  0  0  0  0  0  0  0  0
   -0.5289    1.8773    0.9072 H   0  0  0  0  0  0  0  0  0  0  0  0
    2.8271   -1.9556    0.3154 H   0  0  0  0  0  0  0  0  0  0  0  0
    1.1928   -5.8444    0.9968 H   0  0  0  0  0  0  0  0  0  0  0  0
   -0.8561   -4.8249    1.9020 H   0  0  0  0  0  0  0  0  0  0  0  0
   -3.1622   -2.5658    2.9543 H   0  0  0  0  0  0  0  0  0  0  0  0
   -2.6488   -3.7647    1.7429 H   0  0  0  0  0  0  0  0  0  0  0  0
   -1.9276   -3.7788    3.3701 H   0  0  0  0  0  0  0  0  0  0  0  0
    3.2233   -6.3470    1.0754 H   0  0  0  0  0  0  0  0  0  0  0  0
    2.5090   -6.3329   -0.5549 H   0  0  0  0  0  0  0  0  0  0  0  0
    4.2769   -6.2720   -0.3573 H   0  0  0  0  0  0  0  0  0  0  0  0
    2.5708   -0.2008    2.0544 H   0  0  0  0  0  0  0  0  0  0  0  0
    1.6363   -0.1286   -1.2138 H   0  0  0  0  0  0  0  0  0  0  0  0
    0.7033   -1.4867   -1.2121 H   0  0  0  0  0  0  0  0  0  0  0  0
    0.2017   -0.1436   -2.0240 H   0  0  0  0  0  0  0  0  0  0  0  0
  1  2  1  0  0  0  0
  1 18  1  0  0  0  0
  1 19  1  0  0  0  0
  1 20  1  0  0  0  0
  2  3  1  1  0  0  0
  2  4  1  0  0  0  0
  2 17  1  0  0  0  0
  4  5  1  1  0  0  0
  4  6  1  0  0  0  0
  4 16  1  0  0  0  0
  6 11  2  0  0  0  0
  6  7  1  0  0  0  0
  7  8  2  0  0  0  0
  7 21  1  0  0  0  0
  8  9  1  0  0  0  0
  8 14  1  0  0  0  0
  9 10  2  0  0  0  0
  9 22  1  0  0  0  0
 10 11  1  0  0  0  0
 10 23  1  0  0  0  0
 11 12  1  0  0  0  0
 12 13  1  0  0  0  0
 13 24  1  0  0  0  0
 13 25  1  0  0  0  0
 13 26  1  0  0  0  0
 14 15  1  0  0  0  0
 15 27  1  0  0  0  0
 15 28  1  0  0  0  0
 15 29  1  0  0  0  0
 16 30  1  0  0  0  0
 17 31  1  0  0  0  0
 17 32  1  0  0  0  0
 17 33  1  0  0  0  0
M  CHG  1  17   1
M  END
$$$$
