ZINC22446685
 OpenBabel08292219463D

 61 64  0  0  0  0  0  0  0  0999 V2000
   -1.0423  -10.6801   -4.2268 C   0  0  0  0  0  0  0  0  0  0  0  0
   -0.4163   -9.4952   -3.6248 N   0  3  0  0  0  0  0  0  0  0  0  0
   -1.4329   -8.7178   -2.9039 C   0  0  0  0  0  0  0  0  0  0  0  0
   -0.7850   -7.4735   -2.2926 C   0  0  0  0  0  0  0  0  0  0  0  0
    0.2858   -7.8838   -1.3733 N   0  0  0  0  0  0  0  0  0  0  0  0
    1.2986   -8.6844   -2.0758 C   0  0  0  0  0  0  0  0  0  0  0  0
    0.6336   -9.9186   -2.6889 C   0  0  0  0  0  0  0  0  0  0  0  0
    0.8960   -6.7171   -0.7217 C   0  0  0  0  0  0  0  0  0  0  0  0
    1.8235   -7.1870    0.4008 C   0  0  0  0  0  0  0  0  0  0  0  0
    2.4590   -5.9719    1.0794 C   0  0  0  0  0  0  0  0  0  0  0  0
    3.3471   -6.4217    2.1542 N   0  0  0  0  0  0  0  0  0  0  0  0
    4.6794   -6.6626    1.8293 C   0  0  0  0  0  0  0  0  0  0  0  0
    5.0051   -6.9572    0.5093 C   0  0  0  0  0  0  0  0  0  0  0  0
    6.3180   -7.1957    0.1506 C   0  0  0  0  0  0  0  0  0  0  0  0
    7.3194   -7.1439    1.1016 C   0  0  0  0  0  0  0  0  0  0  0  0
    7.0072   -6.8540    2.4172 C   0  0  0  0  0  0  0  0  0  0  0  0
    5.6907   -6.6150    2.7848 C   0  0  0  0  0  0  0  0  0  0  0  0
    5.3109   -6.2570    4.4671 S   0  0  0  0  0  0  0  0  0  0  0  0
    3.5727   -6.5199    4.5765 C   0  0  0  0  0  0  0  0  0  0  0  0
    2.7960   -6.5705    3.4241 C   0  0  0  0  0  0  0  0  0  0  0  0
    1.4259   -6.7794    3.5403 C   0  0  0  0  0  0  0  0  0  0  0  0
    0.8448   -6.9255    4.7859 C   0  0  0  0  0  0  0  0  0  0  0  0
    1.6215   -6.8659    5.9269 C   0  0  0  0  0  0  0  0  0  0  0  0
    2.9816   -6.6716    5.8223 C   0  0  0  0  0  0  0  0  0  0  0  0
   -0.8924   -7.1882    4.9190 S   0  0  0  0  0  0  0  0  0  0  0  0
   -1.2712   -6.7496    6.2164 O   0  0  0  0  0  0  0  0  0  0  0  0
   -1.4749   -6.6593    3.7357 O   0  0  0  0  0  0  0  0  0  0  0  0
   -1.1445   -8.8245    4.8801 N   0  0  0  0  0  0  0  0  0  0  0  0
   -1.1523   -9.5942    6.1266 C   0  0  0  0  0  0  0  0  0  0  0  0
   -1.3598   -9.5022    3.5993 C   0  0  0  0  0  0  0  0  0  0  0  0
   -1.4815  -11.2968   -3.4427 H   0  0  0  0  0  0  0  0  0  0  0  0
   -1.8214  -10.3661   -4.9213 H   0  0  0  0  0  0  0  0  0  0  0  0
   -0.2883  -11.2565   -4.7629 H   0  0  0  0  0  0  0  0  0  0  0  0
   -2.2180   -8.4153   -3.5969 H   0  0  0  0  0  0  0  0  0  0  0  0
   -1.8638   -9.3296   -2.1114 H   0  0  0  0  0  0  0  0  0  0  0  0
   -0.3659   -6.8546   -3.0859 H   0  0  0  0  0  0  0  0  0  0  0  0
   -1.5361   -6.9042   -1.7450 H   0  0  0  0  0  0  0  0  0  0  0  0
    1.7520   -8.0854   -2.8656 H   0  0  0  0  0  0  0  0  0  0  0  0
    2.0677   -8.9984   -1.3700 H   0  0  0  0  0  0  0  0  0  0  0  0
    0.1921  -10.5244   -1.8975 H   0  0  0  0  0  0  0  0  0  0  0  0
    1.3805  -10.5064   -3.2225 H   0  0  0  0  0  0  0  0  0  0  0  0
    1.4706   -6.1508   -1.4546 H   0  0  0  0  0  0  0  0  0  0  0  0
    0.1134   -6.0831   -0.3049 H   0  0  0  0  0  0  0  0  0  0  0  0
    1.2489   -7.7533    1.1338 H   0  0  0  0  0  0  0  0  0  0  0  0
    2.6061   -7.8210   -0.0160 H   0  0  0  0  0  0  0  0  0  0  0  0
    3.0336   -5.4055    0.3465 H   0  0  0  0  0  0  0  0  0  0  0  0
    1.6764   -5.3378    1.4962 H   0  0  0  0  0  0  0  0  0  0  0  0
    4.2276   -7.0000   -0.2391 H   0  0  0  0  0  0  0  0  0  0  0  0
    6.5624   -7.4238   -0.8764 H   0  0  0  0  0  0  0  0  0  0  0  0
    8.3447   -7.3300    0.8178 H   0  0  0  0  0  0  0  0  0  0  0  0
    7.7899   -6.8134    3.1603 H   0  0  0  0  0  0  0  0  0  0  0  0
    0.8127   -6.8273    2.6525 H   0  0  0  0  0  0  0  0  0  0  0  0
    1.1640   -6.9787    6.8987 H   0  0  0  0  0  0  0  0  0  0  0  0
    3.5873   -6.6259    6.7152 H   0  0  0  0  0  0  0  0  0  0  0  0
   -2.1664   -9.6312    6.5244 H   0  0  0  0  0  0  0  0  0  0  0  0
   -0.8019  -10.6075    5.9300 H   0  0  0  0  0  0  0  0  0  0  0  0
   -0.4944   -9.1167    6.8526 H   0  0  0  0  0  0  0  0  0  0  0  0
   -1.3198   -8.7723    2.7907 H   0  0  0  0  0  0  0  0  0  0  0  0
   -0.5834  -10.2526    3.4502 H   0  0  0  0  0  0  0  0  0  0  0  0
   -2.3366   -9.9860    3.6039 H   0  0  0  0  0  0  0  0  0  0  0  0
   -0.0094   -8.9247   -4.3508 H   0  0  0  0  0  0  0  0  0  0  0  0
  1  2  1  0  0  0  0
  1 31  1  0  0  0  0
  1 32  1  0  0  0  0
  1 33  1  0  0  0  0
  2  7  1  0  0  0  0
  2  3  1  0  0  0  0
  2 61  1  0  0  0  0
  3  4  1  0  0  0  0
  3 34  1  0  0  0  0
  3 35  1  0  0  0  0
  4  5  1  0  0  0  0
  4 36  1  0  0  0  0
  4 37  1  0  0  0  0
  5  6  1  0  0  0  0
  5  8  1  0  0  0  0
  6  7  1  0  0  0  0
  6 38  1  0  0  0  0
  6 39  1  0  0  0  0
  7 40  1  0  0  0  0
  7 41  1  0  0  0  0
  8  9  1  0  0  0  0
  8 42  1  0  0  0  0
  8 43  1  0  0  0  0
  9 10  1  0  0  0  0
  9 44  1  0  0  0  0
  9 45  1  0  0  0  0
 10 11  1  0  0  0  0
 10 46  1  0  0  0  0
 10 47  1  0  0  0  0
 11 20  1  0  0  0  0
 11 12  1  0  0  0  0
 12 17  2  0  0  0  0
 12 13  1  0  0  0  0
 13 14  2  0  0  0  0
 13 48  1  0  0  0  0
 14 15  1  0  0  0  0
 14 49  1  0  0  0  0
 15 16  2  0  0  0  0
 15 50  1  0  0  0  0
 16 17  1  0  0  0  0
 16 51  1  0  0  0  0
 17 18  1  0  0  0  0
 18 19  1  0  0  0  0
 19 24  2  0  0  0  0
 19 20  1  0  0  0  0
 20 21  2  0  0  0  0
 21 22  1  0  0  0  0
 21 52  1  0  0  0  0
 22 23  2  0  0  0  0
 22 25  1  0  0  0  0
 23 24  1  0  0  0  0
 23 53  1  0  0  0  0
 24 54  1  0  0  0  0
 25 26  2  0  0  0  0
 25 27  2  0  0  0  0
 25 28  1  0  0  0  0
 28 29  1  0  0  0  0
 28 30  1  0  0  0  0
 29 55  1  0  0  0  0
 29 56  1  0  0  0  0
 29 57  1  0  0  0  0
 30 58  1  0  0  0  0
 30 59  1  0  0  0  0
 30 60  1  0  0  0  0
M  CHG  1   2   1
M  END
$$$$
