ZINC00531272
 OpenBabel08292219463D

 46 47  0  0  1  0  0  0  0  0999 V2000
   -0.4041    2.0954    0.0722 C   0  0  0  0  0  0  0  0  0  0  0  0
   -0.0348    0.6756    0.5066 C   0  0  0  0  0  0  0  0  0  0  0  0
   -1.2179    0.0435    1.2427 C   0  0  0  0  0  0  0  0  0  0  0  0
    0.3051   -0.1630   -0.7272 C   0  0  0  0  0  0  0  0  0  0  0  0
    1.8184   -0.1485   -0.9525 C   0  0  1  0  0  0  0  0  0  0  0  0
    2.3242   -0.4733   -0.0433 H   0  0  0  0  0  0  0  0  0  0  0  0
    2.1723   -1.0969   -2.0997 C   0  0  0  0  0  0  0  0  0  0  0  0
    1.2043   -1.0103   -3.2915 C   0  0  0  0  0  0  0  0  0  0  0  0
    1.3108   -2.5413   -3.3883 C   0  0  0  0  0  0  0  0  0  0  0  0
    1.6627   -2.5328   -1.8913 C   0  0  0  0  0  0  0  0  0  0  0  0
    3.6252   -1.0231   -2.4930 C   0  0  0  0  0  0  0  0  0  0  0  0
    4.6045   -1.4020   -1.5939 C   0  0  0  0  0  0  0  0  0  0  0  0
    5.9372   -1.3345   -1.9541 C   0  0  0  0  0  0  0  0  0  0  0  0
    6.2910   -0.8875   -3.2147 C   0  0  0  0  0  0  0  0  0  0  0  0
    5.3104   -0.5084   -4.1141 C   0  0  0  0  0  0  0  0  0  0  0  0
    3.9778   -0.5817   -3.7547 C   0  0  0  0  0  0  0  0  0  0  0  0
    7.9647   -0.8019   -3.6676 Cl  0  0  0  0  0  0  0  0  0  0  0  0
    2.2497    1.2139   -1.2928 N   0  3  0  0  0  0  0  0  0  0  0  0
    3.7168    1.2631   -1.3502 C   0  0  0  0  0  0  0  0  0  0  0  0
    1.6956    1.5909   -2.6000 C   0  0  0  0  0  0  0  0  0  0  0  0
    0.4847    2.6039   -0.3013 H   0  0  0  0  0  0  0  0  0  0  0  0
   -1.1553    2.0504   -0.7164 H   0  0  0  0  0  0  0  0  0  0  0  0
   -0.8049    2.6436    0.9249 H   0  0  0  0  0  0  0  0  0  0  0  0
    0.8288    0.7118    1.1705 H   0  0  0  0  0  0  0  0  0  0  0  0
   -2.0815    0.0073    0.5787 H   0  0  0  0  0  0  0  0  0  0  0  0
   -0.9548   -0.9680    1.5521 H   0  0  0  0  0  0  0  0  0  0  0  0
   -1.4601    0.6410    2.1216 H   0  0  0  0  0  0  0  0  0  0  0  0
   -0.0294   -1.1888   -0.5727 H   0  0  0  0  0  0  0  0  0  0  0  0
   -0.1962    0.2551   -1.6001 H   0  0  0  0  0  0  0  0  0  0  0  0
    0.2089   -0.6581   -3.0209 H   0  0  0  0  0  0  0  0  0  0  0  0
    1.6192   -0.4884   -4.1539 H   0  0  0  0  0  0  0  0  0  0  0  0
    0.3633   -3.0317   -3.6113 H   0  0  0  0  0  0  0  0  0  0  0  0
    2.1258   -2.8829   -4.0265 H   0  0  0  0  0  0  0  0  0  0  0  0
    2.4476   -3.2401   -1.6233 H   0  0  0  0  0  0  0  0  0  0  0  0
    0.7927   -2.5968   -1.2379 H   0  0  0  0  0  0  0  0  0  0  0  0
    4.3282   -1.7506   -0.6098 H   0  0  0  0  0  0  0  0  0  0  0  0
    6.7022   -1.6303   -1.2515 H   0  0  0  0  0  0  0  0  0  0  0  0
    5.5861   -0.1591   -5.0982 H   0  0  0  0  0  0  0  0  0  0  0  0
    3.2121   -0.2903   -4.4584 H   0  0  0  0  0  0  0  0  0  0  0  0
    4.0505    2.2944   -1.2359 H   0  0  0  0  0  0  0  0  0  0  0  0
    4.1324    0.6555   -0.5463 H   0  0  0  0  0  0  0  0  0  0  0  0
    4.0560    0.8758   -2.3109 H   0  0  0  0  0  0  0  0  0  0  0  0
    0.6208    1.4096   -2.6050 H   0  0  0  0  0  0  0  0  0  0  0  0
    1.8866    2.6480   -2.7844 H   0  0  0  0  0  0  0  0  0  0  0  0
    2.1683    0.9947   -3.3806 H   0  0  0  0  0  0  0  0  0  0  0  0
    1.9189    1.8571   -0.5892 H   0  0  0  0  0  0  0  0  0  0  0  0
  1  2  1  0  0  0  0
  1 21  1  0  0  0  0
  1 22  1  0  0  0  0
  1 23  1  0  0  0  0
  2  3  1  0  0  0  0
  2  4  1  0  0  0  0
  2 24  1  0  0  0  0
  3 25  1  0  0  0  0
  3 26  1  0  0  0  0
  3 27  1  0  0  0  0
  4  5  1  0  0  0  0
  4 28  1  0  0  0  0
  4 29  1  0  0  0  0
  5  6  1  1  0  0  0
  5  7  1  0  0  0  0
  5 18  1  0  0  0  0
  7 10  1  0  0  0  0
  7  8  1  0  0  0  0
  7 11  1  0  0  0  0
  8  9  1  0  0  0  0
  8 30  1  0  0  0  0
  8 31  1  0  0  0  0
  9 10  1  0  0  0  0
  9 32  1  0  0  0  0
  9 33  1  0  0  0  0
 10 34  1  0  0  0  0
 10 35  1  0  0  0  0
 11 16  2  0  0  0  0
 11 12  1  0  0  0  0
 12 13  2  0  0  0  0
 12 36  1  0  0  0  0
 13 14  1  0  0  0  0
 13 37  1  0  0  0  0
 14 15  2  0  0  0  0
 14 17  1  0  0  0  0
 15 16  1  0  0  0  0
 15 38  1  0  0  0  0
 16 39  1  0  0  0  0
 18 19  1  0  0  0  0
 18 20  1  0  0  0  0
 18 46  1  0  0  0  0
 19 40  1  0  0  0  0
 19 41  1  0  0  0  0
 19 42  1  0  0  0  0
 20 43  1  0  0  0  0
 20 44  1  0  0  0  0
 20 45  1  0  0  0  0
M  CHG  1  18   1
M  END
$$$$
