ZINC12504271
 OpenBabel08292219463D

 44 47  0  0  1  0  0  0  0  0999 V2000
   -0.0089    0.3276    3.7249 C   0  0  0  0  0  0  0  0  0  0  0  0
    1.1663    0.8632    4.2157 C   0  0  0  0  0  0  0  0  0  0  0  0
    2.3807    0.2487    3.9540 C   0  0  0  0  0  0  0  0  0  0  0  0
    2.4159   -0.9141    3.1928 C   0  0  0  0  0  0  0  0  0  0  0  0
    1.2197   -1.4592    2.6934 C   0  0  0  0  0  0  0  0  0  0  0  0
    0.0108   -0.8316    2.9642 C   0  0  0  0  0  0  0  0  0  0  0  0
    1.2660   -2.6979    1.8842 C   0  0  0  0  0  0  0  0  0  0  0  0
    0.2379   -3.1778    1.4470 O   0  0  0  0  0  0  0  0  0  0  0  0
    2.5522   -3.3452    1.6101 C   0  0  0  0  0  0  0  0  0  0  0  0
    3.7038   -2.8284    2.0861 C   0  0  0  0  0  0  0  0  0  0  0  0
    3.6980   -1.5895    2.8996 C   0  0  0  0  0  0  0  0  0  0  0  0
    4.7401   -1.1319    3.3228 O   0  0  0  0  0  0  0  0  0  0  0  0
    4.8768   -3.4478    1.8180 O   0  5  0  0  0  0  0  0  0  0  0  0
    2.5887   -4.6059    0.7852 C   0  0  2  0  0  0  0  0  0  0  0  0
    2.0061   -4.3252   -0.6014 C   0  0  0  0  0  0  0  0  0  0  0  0
    0.5586   -3.8500   -0.4598 C   0  0  0  0  0  0  0  0  0  0  0  0
   -0.2692   -4.9355    0.2310 C   0  0  1  0  0  0  0  0  0  0  0  0
    0.3133   -5.2162    1.6177 C   0  0  0  0  0  0  0  0  0  0  0  0
    1.7608   -5.6914    1.4761 C   0  0  0  0  0  0  0  0  0  0  0  0
   -1.6949   -4.4674    0.3705 C   0  0  0  0  0  0  0  0  0  0  0  0
   -1.9903   -3.1192    0.2925 C   0  0  0  0  0  0  0  0  0  0  0  0
   -3.2976   -2.6893    0.4203 C   0  0  0  0  0  0  0  0  0  0  0  0
   -4.3108   -3.6086    0.6264 C   0  0  0  0  0  0  0  0  0  0  0  0
   -4.0146   -4.9578    0.7044 C   0  0  0  0  0  0  0  0  0  0  0  0
   -2.7075   -5.3870    0.5708 C   0  0  0  0  0  0  0  0  0  0  0  0
   -5.9530   -3.0694    0.7876 Cl  0  0  0  0  0  0  0  0  0  0  0  0
   -0.9498    0.8126    3.9390 H   0  0  0  0  0  0  0  0  0  0  0  0
    1.1385    1.7668    4.8066 H   0  0  0  0  0  0  0  0  0  0  0  0
    3.2965    0.6718    4.3397 H   0  0  0  0  0  0  0  0  0  0  0  0
   -0.9113   -1.2453    2.5835 H   0  0  0  0  0  0  0  0  0  0  0  0
    3.6198   -4.9444    0.6844 H   0  0  0  0  0  0  0  0  0  0  0  0
    2.5959   -3.5518   -1.0935 H   0  0  0  0  0  0  0  0  0  0  0  0
    2.0324   -5.2370   -1.1979 H   0  0  0  0  0  0  0  0  0  0  0  0
    0.5323   -2.9381    0.1368 H   0  0  0  0  0  0  0  0  0  0  0  0
    0.1436   -3.6500   -1.4476 H   0  0  0  0  0  0  0  0  0  0  0  0
   -0.2429   -5.8473   -0.3655 H   0  0  0  0  0  0  0  0  0  0  0  0
    0.2870   -4.3043    2.2142 H   0  0  0  0  0  0  0  0  0  0  0  0
   -0.2765   -5.9895    2.1098 H   0  0  0  0  0  0  0  0  0  0  0  0
    1.7871   -6.6032    0.8795 H   0  0  0  0  0  0  0  0  0  0  0  0
    2.1758   -5.8914    2.4639 H   0  0  0  0  0  0  0  0  0  0  0  0
   -1.1992   -2.4016    0.1319 H   0  0  0  0  0  0  0  0  0  0  0  0
   -3.5282   -1.6360    0.3597 H   0  0  0  0  0  0  0  0  0  0  0  0
   -4.8050   -5.6759    0.8656 H   0  0  0  0  0  0  0  0  0  0  0  0
   -2.4768   -6.4405    0.6269 H   0  0  0  0  0  0  0  0  0  0  0  0
  1  6  2  0  0  0  0
  1  2  1  0  0  0  0
  1 27  1  0  0  0  0
  2  3  2  0  0  0  0
  2 28  1  0  0  0  0
  3  4  1  0  0  0  0
  3 29  1  0  0  0  0
  4 11  1  0  0  0  0
  4  5  2  0  0  0  0
  5  6  1  0  0  0  0
  5  7  1  0  0  0  0
  6 30  1  0  0  0  0
  7  8  2  0  0  0  0
  7  9  1  0  0  0  0
  9 10  2  0  0  0  0
  9 14  1  0  0  0  0
 10 11  1  0  0  0  0
 10 13  1  0  0  0  0
 11 12  2  0  0  0  0
 14 19  1  0  0  0  0
 14 15  1  0  0  0  0
 14 31  1  6  0  0  0
 15 16  1  0  0  0  0
 15 32  1  0  0  0  0
 15 33  1  0  0  0  0
 16 17  1  0  0  0  0
 16 34  1  0  0  0  0
 16 35  1  0  0  0  0
 17 18  1  0  0  0  0
 17 20  1  0  0  0  0
 17 36  1  6  0  0  0
 18 19  1  0  0  0  0
 18 37  1  0  0  0  0
 18 38  1  0  0  0  0
 19 39  1  0  0  0  0
 19 40  1  0  0  0  0
 20 25  2  0  0  0  0
 20 21  1  0  0  0  0
 21 22  2  0  0  0  0
 21 41  1  0  0  0  0
 22 23  1  0  0  0  0
 22 42  1  0  0  0  0
 23 24  2  0  0  0  0
 23 26  1  0  0  0  0
 24 25  1  0  0  0  0
 24 43  1  0  0  0  0
 25 44  1  0  0  0  0
M  CHG  1  13  -1
M  END
$$$$
