ZINC03831041
 OpenBabel08292219463D

 53 56  0  0  1  0  0  0  0  0999 V2000
    3.1768    3.9958    0.6573 C   0  0  0  0  0  0  0  0  0  0  0  0
    2.2593    3.2864   -0.2444 N   0  3  1  0  0  0  0  0  0  0  0  0
    2.9880    2.8603   -1.4453 C   0  0  0  0  0  0  0  0  0  0  0  0
    2.0196    2.1923   -2.4238 C   0  0  0  0  0  0  0  0  0  0  0  0
    1.3833    0.9725   -1.7512 C   0  0  0  0  0  0  0  0  0  0  0  0
    0.6893    1.4176   -0.4607 C   0  0  0  0  0  0  0  0  0  0  0  0
    1.7069    2.1143    0.4451 C   0  0  2  0  0  0  0  0  0  0  0  0
    2.5131    1.4212    0.6854 H   0  0  0  0  0  0  0  0  0  0  0  0
    1.0179    2.5607    1.7362 C   0  0  0  0  0  0  0  0  0  0  0  0
    0.5179    1.3320    2.4986 C   0  0  0  0  0  0  0  0  0  0  0  0
   -0.2067    1.7623    3.6969 N   0  0  0  0  0  0  0  0  0  0  0  0
   -1.5768    1.9796    3.5768 C   0  0  0  0  0  0  0  0  0  0  0  0
   -2.1020    2.2720    2.3221 C   0  0  0  0  0  0  0  0  0  0  0  0
   -3.4579    2.4874    2.1657 C   0  0  0  0  0  0  0  0  0  0  0  0
   -4.3042    2.4143    3.2558 C   0  0  0  0  0  0  0  0  0  0  0  0
   -3.7931    2.1263    4.5080 C   0  0  0  0  0  0  0  0  0  0  0  0
   -2.4323    1.9106    4.6727 C   0  0  0  0  0  0  0  0  0  0  0  0
   -1.7982    1.5547    6.2770 S   0  0  0  0  0  0  0  0  0  0  0  0
   -0.0682    1.8492    6.1262 C   0  0  0  0  0  0  0  0  0  0  0  0
    0.5259    1.9175    4.8706 C   0  0  0  0  0  0  0  0  0  0  0  0
    1.8940    2.1512    4.7813 C   0  0  0  0  0  0  0  0  0  0  0  0
    2.6526    2.3044    5.9265 C   0  0  0  0  0  0  0  0  0  0  0  0
    2.0570    2.2271    7.1707 C   0  0  0  0  0  0  0  0  0  0  0  0
    0.7003    2.0081    7.2700 C   0  0  0  0  0  0  0  0  0  0  0  0
    4.3852    2.5986    5.7991 S   0  0  1  0  0  0  0  0  0  0  0  0
    4.7350    2.0506    4.5356 O   0  0  0  0  0  0  0  0  0  0  0  0
    4.5195    4.4064    5.7323 C   0  0  0  0  0  0  0  0  0  0  0  0
    3.9116    3.2947    1.0530 H   0  0  0  0  0  0  0  0  0  0  0  0
    3.6880    4.7860    0.1074 H   0  0  0  0  0  0  0  0  0  0  0  0
    2.6116    4.4329    1.4804 H   0  0  0  0  0  0  0  0  0  0  0  0
    3.4429    3.7291   -1.9211 H   0  0  0  0  0  0  0  0  0  0  0  0
    3.7669    2.1513   -1.1647 H   0  0  0  0  0  0  0  0  0  0  0  0
    1.2403    2.9006   -2.7053 H   0  0  0  0  0  0  0  0  0  0  0  0
    2.5628    1.8751   -3.3140 H   0  0  0  0  0  0  0  0  0  0  0  0
    0.6508    0.5262   -2.4238 H   0  0  0  0  0  0  0  0  0  0  0  0
    2.1566    0.2414   -1.5157 H   0  0  0  0  0  0  0  0  0  0  0  0
   -0.1176    2.1098   -0.7015 H   0  0  0  0  0  0  0  0  0  0  0  0
    0.2816    0.5466    0.0523 H   0  0  0  0  0  0  0  0  0  0  0  0
    1.7276    3.1088    2.3559 H   0  0  0  0  0  0  0  0  0  0  0  0
    0.1737    3.2059    1.4932 H   0  0  0  0  0  0  0  0  0  0  0  0
   -0.1488    0.7539    1.8588 H   0  0  0  0  0  0  0  0  0  0  0  0
    1.3676    0.7146    2.7900 H   0  0  0  0  0  0  0  0  0  0  0  0
   -1.4464    2.3312    1.4659 H   0  0  0  0  0  0  0  0  0  0  0  0
   -3.8575    2.7139    1.1883 H   0  0  0  0  0  0  0  0  0  0  0  0
   -5.3636    2.5824    3.1299 H   0  0  0  0  0  0  0  0  0  0  0  0
   -4.4546    2.0692    5.3598 H   0  0  0  0  0  0  0  0  0  0  0  0
    2.3662    2.2130    3.8119 H   0  0  0  0  0  0  0  0  0  0  0  0
    2.6530    2.3455    8.0636 H   0  0  0  0  0  0  0  0  0  0  0  0
    0.2363    1.9486    8.2434 H   0  0  0  0  0  0  0  0  0  0  0  0
    4.0956    4.8360    6.6399 H   0  0  0  0  0  0  0  0  0  0  0  0
    5.5689    4.6900    5.6518 H   0  0  0  0  0  0  0  0  0  0  0  0
    3.9748    4.7794    4.8650 H   0  0  0  0  0  0  0  0  0  0  0  0
    1.5073    3.9039   -0.5112 H   0  0  0  0  0  0  0  0  0  0  0  0
  1  2  1  0  0  0  0
  1 28  1  0  0  0  0
  1 29  1  0  0  0  0
  1 30  1  0  0  0  0
  2  7  1  0  0  0  0
  2  3  1  0  0  0  0
  2 53  1  6  0  0  0
  3  4  1  0  0  0  0
  3 31  1  0  0  0  0
  3 32  1  0  0  0  0
  4  5  1  0  0  0  0
  4 33  1  0  0  0  0
  4 34  1  0  0  0  0
  5  6  1  0  0  0  0
  5 35  1  0  0  0  0
  5 36  1  0  0  0  0
  6  7  1  0  0  0  0
  6 37  1  0  0  0  0
  6 38  1  0  0  0  0
  7  8  1  1  0  0  0
  7  9  1  0  0  0  0
  9 10  1  0  0  0  0
  9 39  1  0  0  0  0
  9 40  1  0  0  0  0
 10 11  1  0  0  0  0
 10 41  1  0  0  0  0
 10 42  1  0  0  0  0
 11 20  1  0  0  0  0
 11 12  1  0  0  0  0
 12 17  2  0  0  0  0
 12 13  1  0  0  0  0
 13 14  2  0  0  0  0
 13 43  1  0  0  0  0
 14 15  1  0  0  0  0
 14 44  1  0  0  0  0
 15 16  2  0  0  0  0
 15 45  1  0  0  0  0
 16 17  1  0  0  0  0
 16 46  1  0  0  0  0
 17 18  1  0  0  0  0
 18 19  1  0  0  0  0
 19 24  2  0  0  0  0
 19 20  1  0  0  0  0
 20 21  2  0  0  0  0
 21 22  1  0  0  0  0
 21 47  1  0  0  0  0
 22 23  2  0  0  0  0
 22 25  1  0  0  0  0
 23 24  1  0  0  0  0
 23 48  1  0  0  0  0
 24 49  1  0  0  0  0
 25 26  2  6  0  0  0
 25 27  1  0  0  0  0
 27 50  1  0  0  0  0
 27 51  1  0  0  0  0
 27 52  1  0  0  0  0
M  CHG  1   2   1
M  END
$$$$
