ZINC00001300
 OpenBabel08292219463D

 32 33  0  0  0  0  0  0  0  0999 V2000
    3.8509   -1.6546    0.9721 C   0  0  0  0  0  0  0  0  0  0  0  0
    3.6566   -0.6635   -0.0891 N   0  0  0  0  0  0  0  0  0  0  0  0
    2.4554    0.0526   -0.1672 C   0  0  0  0  0  0  0  0  0  0  0  0
    1.2477   -0.6255   -0.2672 C   0  0  0  0  0  0  0  0  0  0  0  0
    0.0639    0.0809   -0.3436 C   0  0  0  0  0  0  0  0  0  0  0  0
    0.0808    1.4681   -0.3205 C   0  0  0  0  0  0  0  0  0  0  0  0
    1.2871    2.1462   -0.2206 C   0  0  0  0  0  0  0  0  0  0  0  0
    2.4716    1.4409   -0.1441 C   0  0  0  0  0  0  0  0  0  0  0  0
   -1.0849    2.1633   -0.4015 O   0  0  0  0  0  0  0  0  0  0  0  0
   -1.9385    2.0506    0.6369 C   0  0  0  0  0  0  0  0  0  0  0  0
   -1.6907    1.2829    1.5473 O   0  0  0  0  0  0  0  0  0  0  0  0
   -3.1636    2.8526    0.6681 C   0  0  0  0  0  0  0  0  0  0  0  0
   -4.1093    2.8362    1.6542 C   0  0  0  0  0  0  0  0  0  0  0  0
   -5.1020    3.7530    1.2763 C   0  0  0  0  0  0  0  0  0  0  0  0
   -4.7244    4.2825    0.0914 C   0  0  0  0  0  0  0  0  0  0  0  0
   -3.5536    3.7415   -0.2692 O   0  0  0  0  0  0  0  0  0  0  0  0
    4.6337   -0.4407   -0.9903 C   0  0  0  0  0  0  0  0  0  0  0  0
    4.5174    0.4525   -1.8026 O   0  0  0  0  0  0  0  0  0  0  0  0
    5.8707   -1.3015   -0.9888 C   0  0  0  0  0  0  0  0  0  0  0  0
    5.3960   -3.0361   -1.1187 Cl  0  0  0  0  0  0  0  0  0  0  0  0
    6.9138   -0.8572   -2.3907 Cl  0  0  0  0  0  0  0  0  0  0  0  0
    3.5044   -2.6288    0.6273 H   0  0  0  0  0  0  0  0  0  0  0  0
    4.9097   -1.7140    1.2244 H   0  0  0  0  0  0  0  0  0  0  0  0
    3.2833   -1.3584    1.8542 H   0  0  0  0  0  0  0  0  0  0  0  0
    1.2344   -1.7053   -0.2848 H   0  0  0  0  0  0  0  0  0  0  0  0
   -0.8755   -0.4464   -0.4211 H   0  0  0  0  0  0  0  0  0  0  0  0
    1.2996    3.2260   -0.2027 H   0  0  0  0  0  0  0  0  0  0  0  0
    3.4105    1.9689   -0.0660 H   0  0  0  0  0  0  0  0  0  0  0  0
   -4.0956    2.2340    2.5507 H   0  0  0  0  0  0  0  0  0  0  0  0
   -5.9993    3.9906    1.8283 H   0  0  0  0  0  0  0  0  0  0  0  0
   -5.2744    5.0232   -0.4702 H   0  0  0  0  0  0  0  0  0  0  0  0
    6.4217   -1.1441   -0.0616 H   0  0  0  0  0  0  0  0  0  0  0  0
  1  2  1  0  0  0  0
  1 22  1  0  0  0  0
  1 23  1  0  0  0  0
  1 24  1  0  0  0  0
  2  3  1  0  0  0  0
  2 17  1  0  0  0  0
  3  8  2  0  0  0  0
  3  4  1  0  0  0  0
  4  5  2  0  0  0  0
  4 25  1  0  0  0  0
  5  6  1  0  0  0  0
  5 26  1  0  0  0  0
  6  7  2  0  0  0  0
  6  9  1  0  0  0  0
  7  8  1  0  0  0  0
  7 27  1  0  0  0  0
  8 28  1  0  0  0  0
  9 10  1  0  0  0  0
 10 11  2  0  0  0  0
 10 12  1  0  0  0  0
 12 16  1  0  0  0  0
 12 13  2  0  0  0  0
 13 14  1  0  0  0  0
 13 29  1  0  0  0  0
 14 15  2  0  0  0  0
 14 30  1  0  0  0  0
 15 16  1  0  0  0  0
 15 31  1  0  0  0  0
 17 18  2  0  0  0  0
 17 19  1  0  0  0  0
 19 20  1  0  0  0  0
 19 21  1  0  0  0  0
 19 32  1  0  0  0  0
M  END
$$$$
