ZINC00538159
 OpenBabel08292219463D

 50 53  0  0  1  0  0  0  0  0999 V2000
    3.4448   -4.9754    0.0380 C   0  0  0  0  0  0  0  0  0  0  0  0
    4.3831   -4.5773    0.9715 C   0  0  0  0  0  0  0  0  0  0  0  0
    4.2731   -3.3382    1.5753 C   0  0  0  0  0  0  0  0  0  0  0  0
    3.2213   -2.4942    1.2481 C   0  0  0  0  0  0  0  0  0  0  0  0
    2.2716   -2.8931    0.3118 C   0  0  0  0  0  0  0  0  0  0  0  0
    2.3948   -4.1403   -0.2925 C   0  0  0  0  0  0  0  0  0  0  0  0
    1.1944   -2.0824   -0.0350 N   0  0  0  0  0  0  0  0  0  0  0  0
    1.1704   -0.6950    0.0856 C   0  0  0  0  0  0  0  0  0  0  0  0
    0.3084    0.0298   -0.7232 C   0  0  0  0  0  0  0  0  0  0  0  0
    0.2556    1.4228   -0.6247 C   0  0  0  0  0  0  0  0  0  0  0  0
    1.0738    2.0876    0.2925 C   0  0  0  0  0  0  0  0  0  0  0  0
    1.9306    1.3657    1.0939 C   0  0  0  0  0  0  0  0  0  0  0  0
    1.9863   -0.0207    0.9948 C   0  0  0  0  0  0  0  0  0  0  0  0
    3.1004   -0.9175    2.0238 S   0  0  0  0  0  0  0  0  0  0  0  0
   -0.6350    2.1679   -1.4627 C   0  0  0  0  0  0  0  0  0  0  0  0
   -1.3416    2.7589   -2.1275 N   0  0  0  0  0  0  0  0  0  0  0  0
   -0.0033   -2.7373   -0.5670 C   0  0  0  0  0  0  0  0  0  0  0  0
    0.1059   -2.8410   -2.0896 C   0  0  0  0  0  0  0  0  0  0  0  0
   -1.1448   -3.5250   -2.6452 C   0  0  0  0  0  0  0  0  0  0  0  0
   -1.0400   -3.6246   -4.1070 N   0  3  2  0  0  0  0  0  0  0  0  0
   -1.0334   -2.2769   -4.6886 C   0  0  0  0  0  0  0  0  0  0  0  0
   -0.8430   -2.3720   -6.2039 C   0  0  0  0  0  0  0  0  0  0  0  0
   -1.9923   -3.1845   -6.8073 C   0  0  2  0  0  0  0  0  0  0  0  0
   -2.0358   -4.5623   -6.1402 C   0  0  0  0  0  0  0  0  0  0  0  0
   -2.1820   -4.3860   -4.6272 C   0  0  0  0  0  0  0  0  0  0  0  0
   -1.7814   -3.3402   -8.2120 O   0  0  0  0  0  0  0  0  0  0  0  0
    3.5351   -5.9406   -0.4380 H   0  0  0  0  0  0  0  0  0  0  0  0
    5.2012   -5.2335    1.2294 H   0  0  0  0  0  0  0  0  0  0  0  0
    5.0074   -3.0267    2.3035 H   0  0  0  0  0  0  0  0  0  0  0  0
    1.6656   -4.4575   -1.0233 H   0  0  0  0  0  0  0  0  0  0  0  0
   -0.3242   -0.4839   -1.4319 H   0  0  0  0  0  0  0  0  0  0  0  0
    1.0348    3.1639    0.3726 H   0  0  0  0  0  0  0  0  0  0  0  0
    2.5632    1.8791    1.8028 H   0  0  0  0  0  0  0  0  0  0  0  0
   -0.0910   -3.7364   -0.1401 H   0  0  0  0  0  0  0  0  0  0  0  0
   -0.8844   -2.1516   -0.3050 H   0  0  0  0  0  0  0  0  0  0  0  0
    0.1936   -1.8419   -2.5165 H   0  0  0  0  0  0  0  0  0  0  0  0
    0.9871   -3.4267   -2.3516 H   0  0  0  0  0  0  0  0  0  0  0  0
   -1.2326   -4.5241   -2.2183 H   0  0  0  0  0  0  0  0  0  0  0  0
   -2.0260   -2.9393   -2.3831 H   0  0  0  0  0  0  0  0  0  0  0  0
   -1.9811   -1.7837   -4.4722 H   0  0  0  0  0  0  0  0  0  0  0  0
   -0.2169   -1.6989   -4.2558 H   0  0  0  0  0  0  0  0  0  0  0  0
   -0.8402   -1.3705   -6.6339 H   0  0  0  0  0  0  0  0  0  0  0  0
    0.1046   -2.8649   -6.4214 H   0  0  0  0  0  0  0  0  0  0  0  0
   -2.9353   -2.6659   -6.6344 H   0  0  0  0  0  0  0  0  0  0  0  0
   -2.8856   -5.1262   -6.5247 H   0  0  0  0  0  0  0  0  0  0  0  0
   -1.1130   -5.1006   -6.3564 H   0  0  0  0  0  0  0  0  0  0  0  0
   -2.2135   -5.3650   -4.1492 H   0  0  0  0  0  0  0  0  0  0  0  0
   -3.1052   -3.8478   -4.4122 H   0  0  0  0  0  0  0  0  0  0  0  0
   -2.4732   -3.8462   -8.6599 H   0  0  0  0  0  0  0  0  0  0  0  0
   -0.1827   -4.0978   -4.3503 H   0  0  0  0  0  0  0  0  0  0  0  0
  1  6  2  0  0  0  0
  1  2  1  0  0  0  0
  1 27  1  0  0  0  0
  2  3  2  0  0  0  0
  2 28  1  0  0  0  0
  3  4  1  0  0  0  0
  3 29  1  0  0  0  0
  4 14  1  0  0  0  0
  4  5  2  0  0  0  0
  5  6  1  0  0  0  0
  5  7  1  0  0  0  0
  6 30  1  0  0  0  0
  7  8  1  0  0  0  0
  7 17  1  0  0  0  0
  8 13  2  0  0  0  0
  8  9  1  0  0  0  0
  9 10  2  0  0  0  0
  9 31  1  0  0  0  0
 10 11  1  0  0  0  0
 10 15  1  0  0  0  0
 11 12  2  0  0  0  0
 11 32  1  0  0  0  0
 12 13  1  0  0  0  0
 12 33  1  0  0  0  0
 13 14  1  0  0  0  0
 15 16  3  0  0  0  0
 17 18  1  0  0  0  0
 17 34  1  0  0  0  0
 17 35  1  0  0  0  0
 18 19  1  0  0  0  0
 18 36  1  0  0  0  0
 18 37  1  0  0  0  0
 19 20  1  0  0  0  0
 19 38  1  0  0  0  0
 19 39  1  0  0  0  0
 20 25  1  0  0  0  0
 20 21  1  0  0  0  0
 20 50  1  6  0  0  0
 21 22  1  0  0  0  0
 21 40  1  0  0  0  0
 21 41  1  0  0  0  0
 22 23  1  0  0  0  0
 22 42  1  0  0  0  0
 22 43  1  0  0  0  0
 23 24  1  0  0  0  0
 23 26  1  0  0  0  0
 23 44  1  1  0  0  0
 24 25  1  0  0  0  0
 24 45  1  0  0  0  0
 24 46  1  0  0  0  0
 25 47  1  0  0  0  0
 25 48  1  0  0  0  0
 26 49  1  0  0  0  0
M  CHG  1  20   1
M  END
$$$$
