ZINC03831511
 OpenBabel08292219463D

 77 80  0  0  1  0  0  0  0  0999 V2000
    8.5157   -0.1133    0.5257 C   0  0  0  0  0  0  0  0  0  0  0  0
    8.2329   -1.6122    0.4070 C   0  0  0  0  0  0  0  0  0  0  0  0
    9.4003   -2.4003    1.0044 C   0  0  0  0  0  0  0  0  0  0  0  0
    6.9480   -1.9504    1.1657 C   0  0  0  0  0  0  0  0  0  0  0  0
    8.0700   -1.9792   -1.0455 C   0  0  0  0  0  0  0  0  0  0  0  0
    6.8812   -2.5261   -1.4911 C   0  0  0  0  0  0  0  0  0  0  0  0
    6.7318   -2.8628   -2.8235 C   0  0  0  0  0  0  0  0  0  0  0  0
    7.7711   -2.6522   -3.7103 C   0  0  0  0  0  0  0  0  0  0  0  0
    8.9595   -2.1045   -3.2649 C   0  0  0  0  0  0  0  0  0  0  0  0
    9.1074   -1.7638   -1.9334 C   0  0  0  0  0  0  0  0  0  0  0  0
    7.6085   -3.0201   -5.1627 C   0  0  1  0  0  0  0  0  0  0  0  0
    6.7941   -3.7370   -5.2669 H   0  0  0  0  0  0  0  0  0  0  0  0
    7.2888   -1.7633   -5.9745 C   0  0  0  0  0  0  0  0  0  0  0  0
    7.0011   -2.1531   -7.4258 C   0  0  0  0  0  0  0  0  0  0  0  0
    6.6814   -0.8963   -8.2376 C   0  0  0  0  0  0  0  0  0  0  0  0
    6.4052   -1.2705   -9.6310 N   0  3  1  0  0  0  0  0  0  0  0  0
    5.1925   -2.0957   -9.6833 C   0  0  0  0  0  0  0  0  0  0  0  0
    4.9455   -2.5556  -11.1217 C   0  0  0  0  0  0  0  0  0  0  0  0
    4.7691   -1.3287  -12.0210 C   0  0  1  0  0  0  0  0  0  0  0  0
    6.0089   -0.4378  -11.9013 C   0  0  0  0  0  0  0  0  0  0  0  0
    6.2165   -0.0564  -10.4340 C   0  0  0  0  0  0  0  0  0  0  0  0
    4.6009   -1.7789  -13.4735 C   0  0  0  0  0  0  0  0  0  0  0  0
    3.3927   -2.6726  -13.5857 C   0  0  0  0  0  0  0  0  0  0  0  0
    2.1799   -2.2641  -13.0630 C   0  0  0  0  0  0  0  0  0  0  0  0
    1.0716   -3.0839  -13.1659 C   0  0  0  0  0  0  0  0  0  0  0  0
    1.1760   -4.3120  -13.7919 C   0  0  0  0  0  0  0  0  0  0  0  0
    2.3886   -4.7200  -14.3155 C   0  0  0  0  0  0  0  0  0  0  0  0
    3.4958   -3.8984  -14.2163 C   0  0  0  0  0  0  0  0  0  0  0  0
    4.4159   -0.5710  -14.3556 C   0  0  0  0  0  0  0  0  0  0  0  0
    3.4639    0.3789  -14.0360 C   0  0  0  0  0  0  0  0  0  0  0  0
    3.2942    1.4868  -14.8450 C   0  0  0  0  0  0  0  0  0  0  0  0
    4.0769    1.6450  -15.9735 C   0  0  0  0  0  0  0  0  0  0  0  0
    5.0295    0.6955  -16.2925 C   0  0  0  0  0  0  0  0  0  0  0  0
    5.2021   -0.4102  -15.4811 C   0  0  0  0  0  0  0  0  0  0  0  0
    5.7648   -2.4972  -13.8874 O   0  0  0  0  0  0  0  0  0  0  0  0
    8.8208   -3.6031   -5.6449 O   0  0  0  0  0  0  0  0  0  0  0  0
    9.4311    0.1277   -0.0148 H   0  0  0  0  0  0  0  0  0  0  0  0
    7.6840    0.4482    0.1001 H   0  0  0  0  0  0  0  0  0  0  0  0
    8.6335    0.1522    1.5763 H   0  0  0  0  0  0  0  0  0  0  0  0
    9.5181   -2.1349    2.0550 H   0  0  0  0  0  0  0  0  0  0  0  0
    9.1989   -3.4682    0.9199 H   0  0  0  0  0  0  0  0  0  0  0  0
   10.3157   -2.1594    0.4639 H   0  0  0  0  0  0  0  0  0  0  0  0
    6.1163   -1.3889    0.7401 H   0  0  0  0  0  0  0  0  0  0  0  0
    6.7465   -3.0183    1.0812 H   0  0  0  0  0  0  0  0  0  0  0  0
    7.0658   -1.6849    2.2163 H   0  0  0  0  0  0  0  0  0  0  0  0
    6.0693   -2.6907   -0.7982 H   0  0  0  0  0  0  0  0  0  0  0  0
    5.8033   -3.2907   -3.1715 H   0  0  0  0  0  0  0  0  0  0  0  0
    9.7716   -1.9402   -3.9577 H   0  0  0  0  0  0  0  0  0  0  0  0
   10.0346   -1.3325   -1.5861 H   0  0  0  0  0  0  0  0  0  0  0  0
    6.4142   -1.2698   -5.5507 H   0  0  0  0  0  0  0  0  0  0  0  0
    8.1405   -1.0838   -5.9427 H   0  0  0  0  0  0  0  0  0  0  0  0
    7.8757   -2.6466   -7.8496 H   0  0  0  0  0  0  0  0  0  0  0  0
    6.1495   -2.8326   -7.4575 H   0  0  0  0  0  0  0  0  0  0  0  0
    5.8068   -0.4027   -7.8138 H   0  0  0  0  0  0  0  0  0  0  0  0
    7.5331   -0.2168   -8.2059 H   0  0  0  0  0  0  0  0  0  0  0  0
    5.3183   -2.9669   -9.0404 H   0  0  0  0  0  0  0  0  0  0  0  0
    4.3402   -1.5105   -9.3380 H   0  0  0  0  0  0  0  0  0  0  0  0
    5.7972   -3.1412  -11.4679 H   0  0  0  0  0  0  0  0  0  0  0  0
    4.0437   -3.1667  -11.1587 H   0  0  0  0  0  0  0  0  0  0  0  0
    3.8873   -0.7703  -11.7068 H   0  0  0  0  0  0  0  0  0  0  0  0
    6.8827   -0.9794  -12.2637 H   0  0  0  0  0  0  0  0  0  0  0  0
    5.8672    0.4650  -12.4955 H   0  0  0  0  0  0  0  0  0  0  0  0
    5.3424    0.4854  -10.0727 H   0  0  0  0  0  0  0  0  0  0  0  0
    7.0983    0.5781  -10.3452 H   0  0  0  0  0  0  0  0  0  0  0  0
    2.0983   -1.3047  -12.5739 H   0  0  0  0  0  0  0  0  0  0  0  0
    0.1243   -2.7651  -12.7569 H   0  0  0  0  0  0  0  0  0  0  0  0
    0.3103   -4.9527  -13.8717 H   0  0  0  0  0  0  0  0  0  0  0  0
    2.4702   -5.6796  -14.8043 H   0  0  0  0  0  0  0  0  0  0  0  0
    4.4423   -4.2156  -14.6286 H   0  0  0  0  0  0  0  0  0  0  0  0
    2.8524    0.2553  -13.1544 H   0  0  0  0  0  0  0  0  0  0  0  0
    2.5499    2.2287  -14.5958 H   0  0  0  0  0  0  0  0  0  0  0  0
    3.9438    2.5103  -16.6060 H   0  0  0  0  0  0  0  0  0  0  0  0
    5.6408    0.8189  -17.1743 H   0  0  0  0  0  0  0  0  0  0  0  0
    5.9489   -1.1502  -15.7284 H   0  0  0  0  0  0  0  0  0  0  0  0
    5.9458   -3.2889  -13.3624 H   0  0  0  0  0  0  0  0  0  0  0  0
    9.5897   -3.0199   -5.5826 H   0  0  0  0  0  0  0  0  0  0  0  0
    7.1840   -1.7972   -9.9974 H   0  0  0  0  0  0  0  0  0  0  0  0
  1  2  1  0  0  0  0
  1 37  1  0  0  0  0
  1 38  1  0  0  0  0
  1 39  1  0  0  0  0
  2  3  1  0  0  0  0
  2  4  1  0  0  0  0
  2  5  1  0  0  0  0
  3 40  1  0  0  0  0
  3 41  1  0  0  0  0
  3 42  1  0  0  0  0
  4 43  1  0  0  0  0
  4 44  1  0  0  0  0
  4 45  1  0  0  0  0
  5 10  2  0  0  0  0
  5  6  1  0  0  0  0
  6  7  2  0  0  0  0
  6 46  1  0  0  0  0
  7  8  1  0  0  0  0
  7 47  1  0  0  0  0
  8  9  2  0  0  0  0
  8 11  1  0  0  0  0
  9 10  1  0  0  0  0
  9 48  1  0  0  0  0
 10 49  1  0  0  0  0
 11 12  1  6  0  0  0
 11 13  1  0  0  0  0
 11 36  1  0  0  0  0
 13 14  1  0  0  0  0
 13 50  1  0  0  0  0
 13 51  1  0  0  0  0
 14 15  1  0  0  0  0
 14 52  1  0  0  0  0
 14 53  1  0  0  0  0
 15 16  1  0  0  0  0
 15 54  1  0  0  0  0
 15 55  1  0  0  0  0
 16 21  1  0  0  0  0
 16 17  1  0  0  0  0
 16 77  1  6  0  0  0
 17 18  1  0  0  0  0
 17 56  1  0  0  0  0
 17 57  1  0  0  0  0
 18 19  1  0  0  0  0
 18 58  1  0  0  0  0
 18 59  1  0  0  0  0
 19 20  1  0  0  0  0
 19 22  1  0  0  0  0
 19 60  1  1  0  0  0
 20 21  1  0  0  0  0
 20 61  1  0  0  0  0
 20 62  1  0  0  0  0
 21 63  1  0  0  0  0
 21 64  1  0  0  0  0
 22 23  1  0  0  0  0
 22 29  1  0  0  0  0
 22 35  1  0  0  0  0
 23 28  2  0  0  0  0
 23 24  1  0  0  0  0
 24 25  2  0  0  0  0
 24 65  1  0  0  0  0
 25 26  1  0  0  0  0
 25 66  1  0  0  0  0
 26 27  2  0  0  0  0
 26 67  1  0  0  0  0
 27 28  1  0  0  0  0
 27 68  1  0  0  0  0
 28 69  1  0  0  0  0
 29 34  2  0  0  0  0
 29 30  1  0  0  0  0
 30 31  2  0  0  0  0
 30 70  1  0  0  0  0
 31 32  1  0  0  0  0
 31 71  1  0  0  0  0
 32 33  2  0  0  0  0
 32 72  1  0  0  0  0
 33 34  1  0  0  0  0
 33 73  1  0  0  0  0
 34 74  1  0  0  0  0
 35 75  1  0  0  0  0
 36 76  1  0  0  0  0
M  CHG  1  16   1
M  END
$$$$
