ZINC03875560
 OpenBabel08292219463D

 57 60  0  0  1  0  0  0  0  0999 V2000
    0.6007    0.5909   -0.1909 C   0  0  0  0  0  0  0  0  0  0  0  0
    0.6285   -0.9323   -0.0491 C   0  0  1  0  0  0  0  0  0  0  0  0
   -0.3905   -1.3157    0.0024 H   0  0  0  0  0  0  0  0  0  0  0  0
    1.3540   -1.5505   -1.2485 C   0  0  0  0  0  0  0  0  0  0  0  0
    1.4931   -3.0599   -1.0423 C   0  0  1  0  0  0  0  0  0  0  0  0
    0.5087   -3.5016   -0.8877 H   0  0  0  0  0  0  0  0  0  0  0  0
    2.1509   -3.6888   -2.2570 C   0  0  2  0  0  0  0  0  0  0  0  0
    3.1625   -3.3032   -2.3831 H   0  0  0  0  0  0  0  0  0  0  0  0
    1.3677   -3.5748   -3.5700 C   0  0  0  0  0  0  0  0  0  0  0  0
    1.9320   -4.7494   -4.4149 C   0  0  0  0  0  0  0  0  0  0  0  0
    2.4921   -5.7836   -3.4067 C   0  0  1  0  0  0  0  0  0  0  0  0
    2.1795   -5.2225   -2.0175 C   0  0  1  0  0  0  0  0  0  0  0  0
    3.1883   -5.4848   -0.9161 C   0  0  0  0  0  0  0  0  0  0  0  0
    2.6451   -4.8273    0.3625 C   0  0  1  0  0  0  0  0  0  0  0  0
    3.3661   -4.9670    1.1680 H   0  0  0  0  0  0  0  0  0  0  0  0
    2.3818   -3.3339    0.1811 C   0  0  2  0  0  0  0  0  0  0  0  0
    3.3377   -2.8263    0.0514 H   0  0  0  0  0  0  0  0  0  0  0  0
    1.6966   -2.7668    1.4282 C   0  0  2  0  0  0  0  0  0  0  0  0
    1.3844   -1.3159    1.2092 C   0  0  0  0  0  0  0  0  0  0  0  0
    1.7367   -0.3636    2.0618 C   0  0  0  0  0  0  0  0  0  0  0  0
    2.4883   -0.6937    3.2826 C   0  0  0  0  0  0  0  0  0  0  0  0
    2.7789    0.1715    4.0874 O   0  0  0  0  0  0  0  0  0  0  0  0
    2.8805   -2.0950    3.5089 C   0  0  0  0  0  0  0  0  0  0  0  0
    2.5145   -3.0303    2.6458 C   0  0  0  0  0  0  0  0  0  0  0  0
    0.3603   -3.4927    1.5959 C   0  0  0  0  0  0  0  0  0  0  0  0
    1.4149   -5.4579    0.7243 O   0  0  0  0  0  0  0  0  0  0  0  0
    0.7949   -5.7044   -1.5799 C   0  0  0  0  0  0  0  0  0  0  0  0
    1.8238   -7.1198   -3.6039 C   0  0  0  0  0  0  0  0  0  0  0  0
    0.7260   -7.1780   -4.1035 O   0  0  0  0  0  0  0  0  0  0  0  0
    2.5256   -8.3835   -3.1776 C   0  0  0  0  0  0  0  0  0  0  0  0
    1.6953   -9.5101   -3.4664 O   0  0  0  0  0  0  0  0  0  0  0  0
    3.9072   -5.9091   -3.5609 O   0  0  0  0  0  0  0  0  0  0  0  0
    1.6214    0.9697   -0.2420 H   0  0  0  0  0  0  0  0  0  0  0  0
    0.0668    0.8612   -1.1020 H   0  0  0  0  0  0  0  0  0  0  0  0
    0.0939    1.0268    0.6700 H   0  0  0  0  0  0  0  0  0  0  0  0
    0.7821   -1.3594   -2.1565 H   0  0  0  0  0  0  0  0  0  0  0  0
    2.3441   -1.1044   -1.3431 H   0  0  0  0  0  0  0  0  0  0  0  0
    0.2997   -3.7043   -3.3945 H   0  0  0  0  0  0  0  0  0  0  0  0
    1.5667   -2.6197   -4.0561 H   0  0  0  0  0  0  0  0  0  0  0  0
    1.1364   -5.1991   -5.0089 H   0  0  0  0  0  0  0  0  0  0  0  0
    2.7296   -4.3922   -5.0664 H   0  0  0  0  0  0  0  0  0  0  0  0
    3.3001   -6.5582   -0.7629 H   0  0  0  0  0  0  0  0  0  0  0  0
    4.1497   -5.0443   -1.1805 H   0  0  0  0  0  0  0  0  0  0  0  0
    1.4693    0.6628    1.8586 H   0  0  0  0  0  0  0  0  0  0  0  0
    3.4677   -2.3592    4.3760 H   0  0  0  0  0  0  0  0  0  0  0  0
    2.8247   -4.0468    2.8377 H   0  0  0  0  0  0  0  0  0  0  0  0
    0.5337   -4.4778    2.0289 H   0  0  0  0  0  0  0  0  0  0  0  0
   -0.2869   -2.9147    2.2557 H   0  0  0  0  0  0  0  0  0  0  0  0
   -0.1181   -3.6026    0.6227 H   0  0  0  0  0  0  0  0  0  0  0  0
    1.4950   -6.4058    0.8980 H   0  0  0  0  0  0  0  0  0  0  0  0
    0.1167   -5.6841   -2.4329 H   0  0  0  0  0  0  0  0  0  0  0  0
    0.8685   -6.7228   -1.1984 H   0  0  0  0  0  0  0  0  0  0  0  0
    0.4131   -5.0497   -0.7965 H   0  0  0  0  0  0  0  0  0  0  0  0
    3.4665   -8.4771   -3.7197 H   0  0  0  0  0  0  0  0  0  0  0  0
    2.7255   -8.3445   -2.1068 H   0  0  0  0  0  0  0  0  0  0  0  0
    2.0845  -10.3596   -3.2177 H   0  0  0  0  0  0  0  0  0  0  0  0
    4.1815   -6.2224   -4.4337 H   0  0  0  0  0  0  0  0  0  0  0  0
  1  2  1  0  0  0  0
  1 33  1  0  0  0  0
  1 34  1  0  0  0  0
  1 35  1  0  0  0  0
  2  3  1  1  0  0  0
  2 19  1  0  0  0  0
  2  4  1  0  0  0  0
  4  5  1  0  0  0  0
  4 36  1  0  0  0  0
  4 37  1  0  0  0  0
  5  6  1  1  0  0  0
  5 16  1  0  0  0  0
  5  7  1  0  0  0  0
  7  8  1  6  0  0  0
  7 12  1  0  0  0  0
  7  9  1  0  0  0  0
  9 10  1  0  0  0  0
  9 38  1  0  0  0  0
  9 39  1  0  0  0  0
 10 11  1  0  0  0  0
 10 40  1  0  0  0  0
 10 41  1  0  0  0  0
 11 12  1  0  0  0  0
 11 28  1  6  0  0  0
 11 32  1  0  0  0  0
 12 13  1  0  0  0  0
 12 27  1  1  0  0  0
 13 14  1  0  0  0  0
 13 42  1  0  0  0  0
 13 43  1  0  0  0  0
 14 15  1  1  0  0  0
 14 16  1  0  0  0  0
 14 26  1  0  0  0  0
 16 17  1  6  0  0  0
 16 18  1  0  0  0  0
 18 24  1  0  0  0  0
 18 19  1  0  0  0  0
 18 25  1  1  0  0  0
 19 20  2  0  0  0  0
 20 21  1  0  0  0  0
 20 44  1  0  0  0  0
 21 22  2  0  0  0  0
 21 23  1  0  0  0  0
 23 24  2  0  0  0  0
 23 45  1  0  0  0  0
 24 46  1  0  0  0  0
 25 47  1  0  0  0  0
 25 48  1  0  0  0  0
 25 49  1  0  0  0  0
 26 50  1  0  0  0  0
 27 51  1  0  0  0  0
 27 52  1  0  0  0  0
 27 53  1  0  0  0  0
 28 29  2  0  0  0  0
 28 30  1  0  0  0  0
 30 31  1  0  0  0  0
 30 54  1  0  0  0  0
 30 55  1  0  0  0  0
 31 56  1  0  0  0  0
 32 57  1  0  0  0  0
M  END
$$$$
