ZINC13818943
 OpenBabel08292219463D

 46 49  0  0  1  0  0  0  0  0999 V2000
    7.0694   -2.9032  -10.0595 C   0  0  0  0  0  0  0  0  0  0  0  0
    6.2717   -2.4043   -8.9366 N   0  0  0  0  0  0  0  0  0  0  0  0
    6.8778   -2.0354   -7.7907 C   0  0  0  0  0  0  0  0  0  0  0  0
    8.0868   -2.1168   -7.6889 O   0  0  0  0  0  0  0  0  0  0  0  0
    6.0750   -1.5334   -6.6607 C   0  0  0  0  0  0  0  0  0  0  0  0
    4.6692   -1.3839   -6.6310 C   0  0  0  0  0  0  0  0  0  0  0  0
    4.3362   -0.9185   -5.4590 N   0  0  0  0  0  0  0  0  0  0  0  0
    5.4952   -0.7412   -4.6952 N   0  0  0  0  0  0  0  0  0  0  0  0
    6.5549   -1.1219   -5.4343 C   0  0  0  0  0  0  0  0  0  0  0  0
    5.5443   -0.2576   -3.3872 C   0  0  0  0  0  0  0  0  0  0  0  0
    6.7224   -0.1505   -2.7887 N   0  0  0  0  0  0  0  0  0  0  0  0
    6.8221    0.3045   -1.5451 C   0  0  0  0  0  0  0  0  0  0  0  0
    5.6461    0.6738   -0.8687 C   0  0  0  0  0  0  0  0  0  0  0  0
    4.4205    0.5370   -1.5419 C   0  0  0  0  0  0  0  0  0  0  0  0
    4.4149    0.0778   -2.7889 N   0  0  0  0  0  0  0  0  0  0  0  0
    3.4569    0.9668   -0.6647 N   0  0  0  0  0  0  0  0  0  0  0  0
    4.0876    1.3348    0.4870 C   0  0  0  0  0  0  0  0  0  0  0  0
    5.3716    1.1621    0.3651 N   0  0  0  0  0  0  0  0  0  0  0  0
    2.0146    1.0153   -0.9168 C   0  0  1  0  0  0  0  0  0  0  0  0
    1.8201    1.3123   -1.9474 H   0  0  0  0  0  0  0  0  0  0  0  0
    1.3706   -0.3575   -0.6221 C   0  0  1  0  0  0  0  0  0  0  0  0
    1.9790   -0.9208    0.0855 H   0  0  0  0  0  0  0  0  0  0  0  0
    0.0021   -0.0041    0.0020 C   0  0  1  0  0  0  0  0  0  0  0  0
   -0.0661   -0.3925    1.0182 H   0  0  0  0  0  0  0  0  0  0  0  0
   -0.0189    1.5406    0.0105 C   0  0  2  0  0  0  0  0  0  0  0  0
   -0.5253    1.9181   -0.8778 H   0  0  0  0  0  0  0  0  0  0  0  0
    1.3722    1.9285   -0.0007 O   0  0  0  0  0  0  0  0  0  0  0  0
   -0.7057    2.0570    1.2764 C   0  0  0  0  0  0  0  0  0  0  0  0
   -0.8186    3.4800    1.2104 O   0  0  0  0  0  0  0  0  0  0  0  0
   -1.0642   -0.5149   -0.8005 O   0  0  0  0  0  0  0  0  0  0  0  0
    1.1932   -1.0974   -1.8317 O   0  0  0  0  0  0  0  0  0  0  0  0
    8.0561    0.4124   -0.9284 N   0  0  0  0  0  0  0  0  0  0  0  0
    7.7776   -2.1356  -10.3715 H   0  0  0  0  0  0  0  0  0  0  0  0
    7.6136   -3.7956   -9.7504 H   0  0  0  0  0  0  0  0  0  0  0  0
    6.4105   -3.1497  -10.8921 H   0  0  0  0  0  0  0  0  0  0  0  0
    5.3073   -2.3394   -9.0178 H   0  0  0  0  0  0  0  0  0  0  0  0
    3.9894   -1.6184   -7.4368 H   0  0  0  0  0  0  0  0  0  0  0  0
    7.5893   -1.1074   -5.1243 H   0  0  0  0  0  0  0  0  0  0  0  0
    3.5943    1.7134    1.3700 H   0  0  0  0  0  0  0  0  0  0  0  0
   -1.6997    1.6169    1.3558 H   0  0  0  0  0  0  0  0  0  0  0  0
   -0.1148    1.7795    2.1493 H   0  0  0  0  0  0  0  0  0  0  0  0
   -1.2456    3.8769    1.9819 H   0  0  0  0  0  0  0  0  0  0  0  0
   -1.9453   -0.2710   -0.4854 H   0  0  0  0  0  0  0  0  0  0  0  0
    0.7383   -1.9425   -1.7128 H   0  0  0  0  0  0  0  0  0  0  0  0
    8.2201    1.3659   -0.6756 H   0  0  0  0  0  0  0  0  0  0  0  0
    8.8607    0.1546   -1.4049 H   0  0  0  0  0  0  0  0  0  0  0  0
  1  2  1  0  0  0  0
  1 33  1  0  0  0  0
  1 34  1  0  0  0  0
  1 35  1  0  0  0  0
  2  3  1  0  0  0  0
  2 36  1  0  0  0  0
  3  4  2  0  0  0  0
  3  5  1  0  0  0  0
  5  9  2  0  0  0  0
  5  6  1  0  0  0  0
  6  7  2  0  0  0  0
  6 37  1  0  0  0  0
  7  8  1  0  0  0  0
  8  9  1  0  0  0  0
  8 10  1  0  0  0  0
  9 38  1  0  0  0  0
 10 15  2  0  0  0  0
 10 11  1  0  0  0  0
 11 12  2  0  0  0  0
 12 13  1  0  0  0  0
 12 32  1  0  0  0  0
 13 18  1  0  0  0  0
 13 14  2  0  0  0  0
 14 15  1  0  0  0  0
 14 16  1  0  0  0  0
 16 17  1  0  0  0  0
 16 19  1  0  0  0  0
 17 18  2  0  0  0  0
 17 39  1  0  0  0  0
 19 20  1  6  0  0  0
 19 27  1  0  0  0  0
 19 21  1  0  0  0  0
 21 22  1  1  0  0  0
 21 23  1  0  0  0  0
 21 31  1  0  0  0  0
 23 24  1  1  0  0  0
 23 25  1  0  0  0  0
 23 30  1  0  0  0  0
 25 26  1  6  0  0  0
 25 27  1  0  0  0  0
 25 28  1  0  0  0  0
 28 29  1  0  0  0  0
 28 40  1  0  0  0  0
 28 41  1  0  0  0  0
 29 42  1  0  0  0  0
 30 43  1  0  0  0  0
 31 44  1  0  0  0  0
 32 45  1  0  0  0  0
 32 46  1  0  0  0  0
M  END
$$$$
