ZINC01481833
 OpenBabel08292219463D

 30 33  0  0  1  0  0  0  0  0999 V2000
   -0.0126    1.0758    0.0080 C   0  0  0  0  0  0  0  0  0  0  0  0
    1.1918    1.7831    0.0003 C   0  0  0  0  0  0  0  0  0  0  0  0
    1.1984    3.0965    0.0072 N   0  0  0  0  0  0  0  0  0  0  0  0
    0.0401    3.7650    0.0224 C   0  0  0  0  0  0  0  0  0  0  0  0
    0.0125    5.1704    0.0335 C   0  0  0  0  0  0  0  0  0  0  0  0
   -1.1805    5.8238    0.0448 C   0  0  0  0  0  0  0  0  0  0  0  0
   -2.3856    5.1162    0.0469 C   0  0  0  0  0  0  0  0  0  0  0  0
   -2.3961    3.7559    0.0387 C   0  0  0  0  0  0  0  0  0  0  0  0
   -1.1823    3.0472    0.0280 C   0  0  0  0  0  0  0  0  0  0  0  0
   -1.1627    1.7099    0.0169 N   0  0  0  0  0  0  0  0  0  0  0  0
   -3.5341    6.1155    0.0591 C   0  0  2  0  0  0  0  0  0  0  0  0
   -4.4250    5.7502   -0.4518 H   0  0  0  0  0  0  0  0  0  0  0  0
   -2.9031    7.3764   -0.5983 C   0  0  0  0  0  0  0  0  0  0  0  0
   -1.4937    7.3136    0.0576 C   0  0  1  0  0  0  0  0  0  0  0  0
   -0.7414    7.9138   -0.4542 H   0  0  0  0  0  0  0  0  0  0  0  0
   -1.6899    7.7219    1.5301 C   0  0  0  0  0  0  0  0  0  0  0  0
   -3.7942    6.4872    1.5314 C   0  0  0  0  0  0  0  0  0  0  0  0
    0.0021   -0.0041    0.0020 H   0  0  0  0  0  0  0  0  0  0  0  0
    2.1277    1.2443   -0.0119 H   0  0  0  0  0  0  0  0  0  0  0  0
    0.9363    5.7299    0.0333 H   0  0  0  0  0  0  0  0  0  0  0  0
   -3.3348    3.2218    0.0415 H   0  0  0  0  0  0  0  0  0  0  0  0
   -3.4357    8.2839   -0.3139 H   0  0  0  0  0  0  0  0  0  0  0  0
   -2.8440    7.2746   -1.6819 H   0  0  0  0  0  0  0  0  0  0  0  0
   -0.7194    7.7941    2.0210 H   0  0  0  0  0  0  0  0  0  0  0  0
   -2.1966    8.6858    1.5770 H   0  0  0  0  0  0  0  0  0  0  0  0
   -4.3303    5.6756    2.0234 H   0  0  0  0  0  0  0  0  0  0  0  0
   -4.3883    7.3999    1.5779 H   0  0  0  0  0  0  0  0  0  0  0  0
   -2.5008    6.6942    2.2200 N   0  3  0  0  0  0  0  0  0  0  0  0
   -2.6789    6.9988    3.1842 H   0  0  0  0  0  0  0  0  0  0  0  0
   -1.9812    5.8087    2.2313 H   0  0  0  0  0  0  0  0  0  0  0  0
  1 10  2  0  0  0  0
  1  2  1  0  0  0  0
  1 18  1  0  0  0  0
  2  3  2  0  0  0  0
  2 19  1  0  0  0  0
  3  4  1  0  0  0  0
  4  9  2  0  0  0  0
  4  5  1  0  0  0  0
  5  6  2  0  0  0  0
  5 20  1  0  0  0  0
  6 14  1  0  0  0  0
  6  7  1  0  0  0  0
  7  8  2  0  0  0  0
  7 11  1  0  0  0  0
  8  9  1  0  0  0  0
  8 21  1  0  0  0  0
  9 10  1  0  0  0  0
 11 12  1  6  0  0  0
 11 17  1  0  0  0  0
 11 13  1  0  0  0  0
 13 14  1  0  0  0  0
 13 22  1  0  0  0  0
 13 23  1  0  0  0  0
 14 15  1  6  0  0  0
 14 16  1  0  0  0  0
 16 24  1  0  0  0  0
 16 25  1  0  0  0  0
 16 28  1  0  0  0  0
 17 26  1  0  0  0  0
 17 27  1  0  0  0  0
 17 28  1  0  0  0  0
 28 29  1  0  0  0  0
 28 30  1  0  0  0  0
M  CHG  1  28   1
M  END
$$$$
