ZINC03875999
 OpenBabel08292219463D

 40 42  0  0  1  0  0  0  0  0999 V2000
    0.4824    1.5643   -0.3887 C   0  0  0  0  0  0  0  0  0  0  0  0
    0.2933    0.0767   -0.2394 C   0  0  0  0  0  0  0  0  0  0  0  0
    0.2046   -0.4133    0.8607 O   0  0  0  0  0  0  0  0  0  0  0  0
    0.2151   -0.7995   -1.4630 C   0  0  0  0  0  0  0  0  0  0  0  0
    0.0229   -2.2561   -1.0359 C   0  0  1  0  0  0  0  0  0  0  0  0
    0.7889   -2.5255   -0.3087 H   0  0  0  0  0  0  0  0  0  0  0  0
   -1.3400   -2.4217   -0.4146 C   0  0  0  0  0  0  0  0  0  0  0  0
   -2.4718   -2.0738   -1.1280 C   0  0  0  0  0  0  0  0  0  0  0  0
   -3.7220   -2.2258   -0.5581 C   0  0  0  0  0  0  0  0  0  0  0  0
   -3.8405   -2.7260    0.7251 C   0  0  0  0  0  0  0  0  0  0  0  0
   -2.7088   -3.0747    1.4382 C   0  0  0  0  0  0  0  0  0  0  0  0
   -1.4588   -2.9268    0.8667 C   0  0  0  0  0  0  0  0  0  0  0  0
   -5.1791   -2.8878    1.3357 N   0  0  0  0  0  4  0  0  0  0  0  0
   -6.1689   -2.5824    0.7121 O   0  0  0  0  0  0  0  0  0  0  0  0
   -5.2827   -3.3252    2.4580 O   0  5  0  0  0  0  0  0  0  0  0  0
    0.1376   -3.1525   -2.2418 C   0  0  0  0  0  0  0  0  0  0  0  0
    0.0144   -2.6304   -3.4998 C   0  0  0  0  0  0  0  0  0  0  0  0
    0.1344   -3.5481   -4.6434 C   0  0  0  0  0  0  0  0  0  0  0  0
    0.0197   -3.0831   -5.9553 C   0  0  0  0  0  0  0  0  0  0  0  0
    0.1374   -3.9682   -7.0037 C   0  0  0  0  0  0  0  0  0  0  0  0
    0.3685   -5.3144   -6.7612 C   0  0  0  0  0  0  0  0  0  0  0  0
    0.4833   -5.7865   -5.4707 C   0  0  0  0  0  0  0  0  0  0  0  0
    0.3683   -4.9106   -4.3989 C   0  0  0  0  0  0  0  0  0  0  0  0
    0.4795   -5.3561   -3.1287 O   0  0  0  0  0  0  0  0  0  0  0  0
    0.3768   -4.5255   -2.0789 C   0  0  0  0  0  0  0  0  0  0  0  0
    0.4896   -4.9776   -0.9528 O   0  0  0  0  0  0  0  0  0  0  0  0
   -0.2113   -1.3100   -3.6869 O   0  5  0  0  0  0  0  0  0  0  0  0
    1.5474    1.7960   -0.3990 H   0  0  0  0  0  0  0  0  0  0  0  0
    0.0293    1.8962   -1.3229 H   0  0  0  0  0  0  0  0  0  0  0  0
    0.0071    2.0767    0.4477 H   0  0  0  0  0  0  0  0  0  0  0  0
   -0.6277   -0.4876   -2.0800 H   0  0  0  0  0  0  0  0  0  0  0  0
    1.1381   -0.7075   -2.0354 H   0  0  0  0  0  0  0  0  0  0  0  0
   -2.3792   -1.6830   -2.1306 H   0  0  0  0  0  0  0  0  0  0  0  0
   -4.6062   -1.9534   -1.1153 H   0  0  0  0  0  0  0  0  0  0  0  0
   -2.8013   -3.4651    2.4409 H   0  0  0  0  0  0  0  0  0  0  0  0
   -0.5749   -3.2027    1.4225 H   0  0  0  0  0  0  0  0  0  0  0  0
   -0.1606   -2.0355   -6.1464 H   0  0  0  0  0  0  0  0  0  0  0  0
    0.0490   -3.6126   -8.0197 H   0  0  0  0  0  0  0  0  0  0  0  0
    0.4591   -5.9994   -7.5912 H   0  0  0  0  0  0  0  0  0  0  0  0
    0.6625   -6.8367   -5.2934 H   0  0  0  0  0  0  0  0  0  0  0  0
  1  2  1  0  0  0  0
  1 28  1  0  0  0  0
  1 29  1  0  0  0  0
  1 30  1  0  0  0  0
  2  3  2  0  0  0  0
  2  4  1  0  0  0  0
  4  5  1  0  0  0  0
  4 31  1  0  0  0  0
  4 32  1  0  0  0  0
  5  6  1  1  0  0  0
  5  7  1  0  0  0  0
  5 16  1  0  0  0  0
  7 12  2  0  0  0  0
  7  8  1  0  0  0  0
  8  9  2  0  0  0  0
  8 33  1  0  0  0  0
  9 10  1  0  0  0  0
  9 34  1  0  0  0  0
 10 11  2  0  0  0  0
 10 13  1  0  0  0  0
 11 12  1  0  0  0  0
 11 35  1  0  0  0  0
 12 36  1  0  0  0  0
 13 14  2  0  0  0  0
 13 15  1  0  0  0  0
 16 25  1  0  0  0  0
 16 17  2  0  0  0  0
 17 18  1  0  0  0  0
 17 27  1  0  0  0  0
 18 23  2  0  0  0  0
 18 19  1  0  0  0  0
 19 20  2  0  0  0  0
 19 37  1  0  0  0  0
 20 21  1  0  0  0  0
 20 38  1  0  0  0  0
 21 22  2  0  0  0  0
 21 39  1  0  0  0  0
 22 23  1  0  0  0  0
 22 40  1  0  0  0  0
 23 24  1  0  0  0  0
 24 25  1  0  0  0  0
 25 26  2  0  0  0  0
M  CHG  2  15  -1  27  -1
M  END
$$$$
