ZINC03920719
 OpenBabel08292219463D

 75 78  0  0  1  0  0  0  0  0999 V2000
   -0.0291    1.0885    0.0221 C   0  0  0  0  0  0  0  0  0  0  0  0
   -0.7404    1.5920    1.2797 C   0  0  0  0  0  0  0  0  0  0  0  0
   -0.0014    1.0867    2.5205 C   0  0  0  0  0  0  0  0  0  0  0  0
   -0.7521    3.0989    1.2809 C   0  0  0  0  0  0  0  0  0  0  0  0
    0.3559    3.8992    1.2751 C   0  0  0  0  0  0  0  0  0  0  0  0
   -0.1353    5.2868    1.2756 C   0  0  0  0  0  0  0  0  0  0  0  0
   -1.5139    5.1979    1.2908 C   0  0  0  0  0  0  0  0  0  0  0  0
   -1.8559    3.8705    1.2937 N   0  0  0  0  0  0  0  0  0  0  0  0
   -3.2298    3.3622    1.3087 C   0  0  0  0  0  0  0  0  0  0  0  0
   -3.6921    3.1842    2.7563 C   0  0  0  0  0  0  0  0  0  0  0  0
   -5.1269    2.6533    2.7719 C   0  0  2  0  0  0  0  0  0  0  0  0
   -5.7663    3.3172    2.1900 H   0  0  0  0  0  0  0  0  0  0  0  0
   -5.6329    2.5933    4.2145 C   0  0  0  0  0  0  0  0  0  0  0  0
   -7.1065    2.1819    4.2215 C   0  0  2  0  0  0  0  0  0  0  0  0
   -7.6767    2.8622    3.5890 H   0  0  0  0  0  0  0  0  0  0  0  0
   -7.6461    2.2424    5.6519 C   0  0  0  0  0  0  0  0  0  0  0  0
   -9.1258    1.9568    5.6431 C   0  0  0  0  0  0  0  0  0  0  0  0
   -9.6908    1.7283    4.5998 O   0  0  0  0  0  0  0  0  0  0  0  0
   -7.2313    0.8491    3.7214 O   0  0  0  0  0  0  0  0  0  0  0  0
   -5.1564    1.3433    2.2019 O   0  0  0  0  0  0  0  0  0  0  0  0
   -2.4556    6.3354    1.3026 C   0  0  0  0  0  0  0  0  0  0  0  0
   -3.5671    6.3339    0.4570 C   0  0  0  0  0  0  0  0  0  0  0  0
   -4.4457    7.3967    0.4757 C   0  0  0  0  0  0  0  0  0  0  0  0
   -4.2216    8.4697    1.3238 C   0  0  0  0  0  0  0  0  0  0  0  0
   -3.1174    8.4790    2.1613 C   0  0  0  0  0  0  0  0  0  0  0  0
   -2.2349    7.4193    2.1550 C   0  0  0  0  0  0  0  0  0  0  0  0
   -5.0831    9.5103    1.3345 F   0  0  0  0  0  0  0  0  0  0  0  0
    0.6797    6.5226    1.2673 C   0  0  0  0  0  0  0  0  0  0  0  0
    0.6319    7.3859    0.1724 C   0  0  0  0  0  0  0  0  0  0  0  0
    1.3903    8.5385    0.1729 C   0  0  0  0  0  0  0  0  0  0  0  0
    2.2049    8.8336    1.2515 C   0  0  0  0  0  0  0  0  0  0  0  0
    2.2607    7.9789    2.3380 C   0  0  0  0  0  0  0  0  0  0  0  0
    1.5031    6.8258    2.3520 C   0  0  0  0  0  0  0  0  0  0  0  0
    1.7604    3.4609    1.2674 C   0  0  0  0  0  0  0  0  0  0  0  0
    2.3353    3.2799    0.2107 O   0  0  0  0  0  0  0  0  0  0  0  0
    2.4100    3.2598    2.4310 N   0  0  0  0  0  0  0  0  0  0  0  0
    3.7128    2.7511    2.4258 C   0  0  0  0  0  0  0  0  0  0  0  0
    4.1303    1.8966    3.4379 C   0  0  0  0  0  0  0  0  0  0  0  0
    5.4160    1.3922    3.4272 C   0  0  0  0  0  0  0  0  0  0  0  0
    6.2905    1.7455    2.4160 C   0  0  0  0  0  0  0  0  0  0  0  0
    5.8796    2.6003    1.4096 C   0  0  0  0  0  0  0  0  0  0  0  0
    4.5937    3.1040    1.4116 C   0  0  0  0  0  0  0  0  0  0  0  0
   -0.0207   -0.0015    0.0213 H   0  0  0  0  0  0  0  0  0  0  0  0
    0.9956    1.4598    0.0110 H   0  0  0  0  0  0  0  0  0  0  0  0
   -0.5556    1.4484   -0.8618 H   0  0  0  0  0  0  0  0  0  0  0  0
   -1.7651    1.2207    1.2909 H   0  0  0  0  0  0  0  0  0  0  0  0
    1.0234    1.4580    2.5093 H   0  0  0  0  0  0  0  0  0  0  0  0
   -0.5081    1.4454    3.4164 H   0  0  0  0  0  0  0  0  0  0  0  0
    0.0071   -0.0032    2.5196 H   0  0  0  0  0  0  0  0  0  0  0  0
   -3.8851    4.0711    0.8026 H   0  0  0  0  0  0  0  0  0  0  0  0
   -3.2675    2.4018    0.7946 H   0  0  0  0  0  0  0  0  0  0  0  0
   -3.0369    2.4752    3.2623 H   0  0  0  0  0  0  0  0  0  0  0  0
   -3.6544    4.1446    3.2704 H   0  0  0  0  0  0  0  0  0  0  0  0
   -5.0490    1.8626    4.7742 H   0  0  0  0  0  0  0  0  0  0  0  0
   -5.5274    3.5744    4.6777 H   0  0  0  0  0  0  0  0  0  0  0  0
   -7.1362    1.4988    6.2644 H   0  0  0  0  0  0  0  0  0  0  0  0
   -7.4703    3.2357    6.0648 H   0  0  0  0  0  0  0  0  0  0  0  0
   -6.7482    0.1887    4.2368 H   0  0  0  0  0  0  0  0  0  0  0  0
   -4.6084    0.6984    2.6698 H   0  0  0  0  0  0  0  0  0  0  0  0
   -3.7405    5.5002   -0.2073 H   0  0  0  0  0  0  0  0  0  0  0  0
   -5.3080    7.3946   -0.1745 H   0  0  0  0  0  0  0  0  0  0  0  0
   -2.9475    9.3179    2.8199 H   0  0  0  0  0  0  0  0  0  0  0  0
   -1.3746    7.4278    2.8079 H   0  0  0  0  0  0  0  0  0  0  0  0
   -0.0002    7.1544   -0.6721 H   0  0  0  0  0  0  0  0  0  0  0  0
    1.3511    9.2097   -0.6723 H   0  0  0  0  0  0  0  0  0  0  0  0
    2.7995    9.7352    1.2455 H   0  0  0  0  0  0  0  0  0  0  0  0
    2.8988    8.2146    3.1769 H   0  0  0  0  0  0  0  0  0  0  0  0
    1.5472    6.1596    3.2008 H   0  0  0  0  0  0  0  0  0  0  0  0
    1.9740    3.4680    3.2721 H   0  0  0  0  0  0  0  0  0  0  0  0
    3.4492    1.6238    4.2304 H   0  0  0  0  0  0  0  0  0  0  0  0
    5.7401    0.7247    4.2119 H   0  0  0  0  0  0  0  0  0  0  0  0
    7.2966    1.3527    2.4119 H   0  0  0  0  0  0  0  0  0  0  0  0
    6.5649    2.8740    0.6211 H   0  0  0  0  0  0  0  0  0  0  0  0
    4.2735    3.7718    0.6255 H   0  0  0  0  0  0  0  0  0  0  0  0
   -9.8161    1.9564    6.7942 O   0  0  0  0  0  1  0  0  0  0  0  0
  1  2  1  0  0  0  0
  1 43  1  0  0  0  0
  1 44  1  0  0  0  0
  1 45  1  0  0  0  0
  2  3  1  0  0  0  0
  2  4  1  0  0  0  0
  2 46  1  0  0  0  0
  3 47  1  0  0  0  0
  3 48  1  0  0  0  0
  3 49  1  0  0  0  0
  4  8  1  0  0  0  0
  4  5  2  0  0  0  0
  5  6  1  0  0  0  0
  5 34  1  0  0  0  0
  6  7  2  0  0  0  0
  6 28  1  0  0  0  0
  7  8  1  0  0  0  0
  7 21  1  0  0  0  0
  8  9  1  0  0  0  0
  9 10  1  0  0  0  0
  9 50  1  0  0  0  0
  9 51  1  0  0  0  0
 10 11  1  0  0  0  0
 10 52  1  0  0  0  0
 10 53  1  0  0  0  0
 11 12  1  6  0  0  0
 11 13  1  0  0  0  0
 11 20  1  0  0  0  0
 13 14  1  0  0  0  0
 13 54  1  0  0  0  0
 13 55  1  0  0  0  0
 14 15  1  6  0  0  0
 14 16  1  0  0  0  0
 14 19  1  0  0  0  0
 16 17  1  0  0  0  0
 16 56  1  0  0  0  0
 16 57  1  0  0  0  0
 17 18  2  0  0  0  0
 17 75  1  0  0  0  0
 19 58  1  0  0  0  0
 20 59  1  0  0  0  0
 21 26  2  0  0  0  0
 21 22  1  0  0  0  0
 22 23  2  0  0  0  0
 22 60  1  0  0  0  0
 23 24  1  0  0  0  0
 23 61  1  0  0  0  0
 24 25  2  0  0  0  0
 24 27  1  0  0  0  0
 25 26  1  0  0  0  0
 25 62  1  0  0  0  0
 26 63  1  0  0  0  0
 28 33  2  0  0  0  0
 28 29  1  0  0  0  0
 29 30  2  0  0  0  0
 29 64  1  0  0  0  0
 30 31  1  0  0  0  0
 30 65  1  0  0  0  0
 31 32  2  0  0  0  0
 31 66  1  0  0  0  0
 32 33  1  0  0  0  0
 32 67  1  0  0  0  0
 33 68  1  0  0  0  0
 34 35  2  0  0  0  0
 34 36  1  0  0  0  0
 36 37  1  0  0  0  0
 36 69  1  0  0  0  0
 37 42  2  0  0  0  0
 37 38  1  0  0  0  0
 38 39  2  0  0  0  0
 38 70  1  0  0  0  0
 39 40  1  0  0  0  0
 39 71  1  0  0  0  0
 40 41  2  0  0  0  0
 40 72  1  0  0  0  0
 41 42  1  0  0  0  0
 41 73  1  0  0  0  0
 42 74  1  0  0  0  0
M  END
$$$$
