ZINC00057534
 OpenBabel08292219463D

 43 44  0  0  0  0  0  0  0  0999 V2000
   -0.0184    1.5028    0.0103 C   0  0  0  0  0  0  0  0  0  0  0  0
    0.0021   -0.0041    0.0020 C   0  0  0  0  0  0  0  0  0  0  0  0
    0.0057   -0.6886   -1.1989 C   0  0  0  0  0  0  0  0  0  0  0  0
    0.0245   -2.0709   -1.2065 C   0  0  0  0  0  0  0  0  0  0  0  0
    0.0400   -2.7685   -0.0132 C   0  0  0  0  0  0  0  0  0  0  0  0
    0.0373   -2.0839    1.1877 C   0  0  0  0  0  0  0  0  0  0  0  0
    0.0229   -0.7016    1.1953 C   0  0  0  0  0  0  0  0  0  0  0  0
    0.0251    0.0448    2.5045 C   0  0  0  0  0  0  0  0  0  0  0  0
   -1.3947    0.2743    2.9543 C   0  0  0  0  0  0  0  0  0  0  0  0
   -2.0786    1.3407    2.6117 N   0  0  0  0  0  4  0  0  0  0  0  0
   -3.4228    1.2677    3.2067 C   0  0  0  0  0  0  0  0  0  0  0  0
   -3.3948   -0.0688    3.9769 C   0  0  0  0  0  0  0  0  0  0  0  0
   -2.0402   -0.5802    3.7129 N   0  0  0  0  0  0  0  0  0  0  0  0
    0.0537   -2.8444    2.4886 C   0  0  0  0  0  0  0  0  0  0  0  0
    0.0274   -2.8172   -2.5157 C   0  0  0  0  0  0  0  0  0  0  0  0
    1.2671   -2.4263   -3.3228 C   0  0  0  0  0  0  0  0  0  0  0  0
    0.0494   -4.3228   -2.2444 C   0  0  0  0  0  0  0  0  0  0  0  0
   -1.2311   -2.4602   -3.3091 C   0  0  0  0  0  0  0  0  0  0  0  0
    1.0042    1.8801    0.0026 H   0  0  0  0  0  0  0  0  0  0  0  0
   -0.5455    1.8639   -0.8728 H   0  0  0  0  0  0  0  0  0  0  0  0
   -0.5286    1.8543    0.9071 H   0  0  0  0  0  0  0  0  0  0  0  0
   -0.0064   -0.1436   -2.1312 H   0  0  0  0  0  0  0  0  0  0  0  0
    0.0540   -3.8484   -0.0191 H   0  0  0  0  0  0  0  0  0  0  0  0
    0.5541   -0.5413    3.2560 H   0  0  0  0  0  0  0  0  0  0  0  0
    0.5248    1.0048    2.3745 H   0  0  0  0  0  0  0  0  0  0  0  0
   -3.5873    2.1017    3.8891 H   0  0  0  0  0  0  0  0  0  0  0  0
   -4.1870    1.2483    2.4298 H   0  0  0  0  0  0  0  0  0  0  0  0
   -3.5454    0.0983    5.0434 H   0  0  0  0  0  0  0  0  0  0  0  0
   -4.1451   -0.7550    3.5841 H   0  0  0  0  0  0  0  0  0  0  0  0
   -1.6805   -1.4163    4.0484 H   0  0  0  0  0  0  0  0  0  0  0  0
    1.0852   -3.0145    2.7971 H   0  0  0  0  0  0  0  0  0  0  0  0
   -0.4637   -2.2661    3.2541 H   0  0  0  0  0  0  0  0  0  0  0  0
   -0.4485   -3.8026    2.3557 H   0  0  0  0  0  0  0  0  0  0  0  0
    2.1637   -2.6806   -2.7576 H   0  0  0  0  0  0  0  0  0  0  0  0
    1.2692   -2.9661   -4.2697 H   0  0  0  0  0  0  0  0  0  0  0  0
    1.2515   -1.3537   -3.5161 H   0  0  0  0  0  0  0  0  0  0  0  0
   -0.8337   -4.6013   -1.6694 H   0  0  0  0  0  0  0  0  0  0  0  0
    0.0516   -4.8626   -3.1914 H   0  0  0  0  0  0  0  0  0  0  0  0
    0.9460   -4.5771   -1.6792 H   0  0  0  0  0  0  0  0  0  0  0  0
   -1.2468   -1.3876   -3.5024 H   0  0  0  0  0  0  0  0  0  0  0  0
   -1.2290   -3.0000   -4.2561 H   0  0  0  0  0  0  0  0  0  0  0  0
   -2.1143   -2.7387   -2.7341 H   0  0  0  0  0  0  0  0  0  0  0  0
   -1.7498    2.0634    2.0546 H   0  0  0  0  0  0  0  0  0  0  0  0
  1  2  1  0  0  0  0
  1 19  1  0  0  0  0
  1 20  1  0  0  0  0
  1 21  1  0  0  0  0
  2  7  2  0  0  0  0
  2  3  1  0  0  0  0
  3  4  2  0  0  0  0
  3 22  1  0  0  0  0
  4  5  1  0  0  0  0
  4 15  1  0  0  0  0
  5  6  2  0  0  0  0
  5 23  1  0  0  0  0
  6  7  1  0  0  0  0
  6 14  1  0  0  0  0
  7  8  1  0  0  0  0
  8  9  1  0  0  0  0
  8 24  1  0  0  0  0
  8 25  1  0  0  0  0
  9 13  1  0  0  0  0
  9 10  2  0  0  0  0
 10 11  1  0  0  0  0
 10 43  1  0  0  0  0
 11 12  1  0  0  0  0
 11 26  1  0  0  0  0
 11 27  1  0  0  0  0
 12 13  1  0  0  0  0
 12 28  1  0  0  0  0
 12 29  1  0  0  0  0
 13 30  1  0  0  0  0
 14 31  1  0  0  0  0
 14 32  1  0  0  0  0
 14 33  1  0  0  0  0
 15 16  1  0  0  0  0
 15 17  1  0  0  0  0
 15 18  1  0  0  0  0
 16 34  1  0  0  0  0
 16 35  1  0  0  0  0
 16 36  1  0  0  0  0
 17 37  1  0  0  0  0
 17 38  1  0  0  0  0
 17 39  1  0  0  0  0
 18 40  1  0  0  0  0
 18 41  1  0  0  0  0
 18 42  1  0  0  0  0
M  END
$$$$
