ZINC00968305
 OpenBabel08292219463D

 40 41  0  0  1  0  0  0  0  0999 V2000
   -4.2503    5.1543   -1.4839 C   0  0  0  0  0  0  0  0  0  0  0  0
   -3.0534    4.2072   -1.5901 C   0  0  1  0  0  0  0  0  0  0  0  0
   -2.3627    4.5780   -2.3474 H   0  0  0  0  0  0  0  0  0  0  0  0
   -2.3386    4.1351   -0.2393 C   0  0  0  0  0  0  0  0  0  0  0  0
   -1.7518    5.4833    0.0911 C   0  0  0  0  0  0  0  0  0  0  0  0
   -0.5177    5.8433   -0.4172 C   0  0  0  0  0  0  0  0  0  0  0  0
    0.0227    7.0780   -0.1101 C   0  0  0  0  0  0  0  0  0  0  0  0
   -0.6756    7.9569    0.6965 C   0  0  0  0  0  0  0  0  0  0  0  0
   -1.9121    7.5990    1.2004 C   0  0  0  0  0  0  0  0  0  0  0  0
   -2.4502    6.3622    0.8977 C   0  0  0  0  0  0  0  0  0  0  0  0
   -2.4256    1.8906   -1.9098 C   0  0  0  0  0  0  0  0  0  0  0  0
   -4.1420    2.8827   -3.2999 C   0  0  0  0  0  0  0  0  0  0  0  0
   -4.8241    1.5628   -3.5518 C   0  0  0  0  0  0  0  0  0  0  0  0
   -4.1284    0.5279   -4.1483 C   0  0  0  0  0  0  0  0  0  0  0  0
   -4.7525   -0.6846   -4.3745 C   0  0  0  0  0  0  0  0  0  0  0  0
   -6.0756   -0.8587   -4.0141 C   0  0  0  0  0  0  0  0  0  0  0  0
   -6.7731    0.1780   -3.4227 C   0  0  0  0  0  0  0  0  0  0  0  0
   -6.1473    1.3887   -3.1914 C   0  0  0  0  0  0  0  0  0  0  0  0
   -4.7595    5.2057   -2.4462 H   0  0  0  0  0  0  0  0  0  0  0  0
   -4.9410    4.7835   -0.7266 H   0  0  0  0  0  0  0  0  0  0  0  0
   -3.9030    6.1486   -1.2031 H   0  0  0  0  0  0  0  0  0  0  0  0
   -1.5409    3.3940   -0.2894 H   0  0  0  0  0  0  0  0  0  0  0  0
   -3.0515    3.8497    0.5343 H   0  0  0  0  0  0  0  0  0  0  0  0
    0.0259    5.1583   -1.0510 H   0  0  0  0  0  0  0  0  0  0  0  0
    0.9886    7.3578   -0.5041 H   0  0  0  0  0  0  0  0  0  0  0  0
   -0.2554    8.9234    0.9327 H   0  0  0  0  0  0  0  0  0  0  0  0
   -2.4579    8.2858    1.8303 H   0  0  0  0  0  0  0  0  0  0  0  0
   -3.4164    6.0827    1.2911 H   0  0  0  0  0  0  0  0  0  0  0  0
   -2.1015    1.7699   -0.8762 H   0  0  0  0  0  0  0  0  0  0  0  0
   -2.7720    0.9321   -2.2963 H   0  0  0  0  0  0  0  0  0  0  0  0
   -1.5902    2.2453   -2.5135 H   0  0  0  0  0  0  0  0  0  0  0  0
   -4.8766    3.6865   -3.3490 H   0  0  0  0  0  0  0  0  0  0  0  0
   -3.3745    3.0453   -4.0566 H   0  0  0  0  0  0  0  0  0  0  0  0
   -3.0959    0.6654   -4.4339 H   0  0  0  0  0  0  0  0  0  0  0  0
   -4.2075   -1.4947   -4.8362 H   0  0  0  0  0  0  0  0  0  0  0  0
   -6.5644   -1.8048   -4.1942 H   0  0  0  0  0  0  0  0  0  0  0  0
   -7.8068    0.0420   -3.1412 H   0  0  0  0  0  0  0  0  0  0  0  0
   -6.6922    2.1986   -2.7294 H   0  0  0  0  0  0  0  0  0  0  0  0
   -3.5415    2.8591   -1.9495 N   0  3  2  0  0  0  0  0  0  0  0  0
   -4.2569    2.5716   -1.2714 H   0  0  0  0  0  0  0  0  0  0  0  0
  1  2  1  0  0  0  0
  1 19  1  0  0  0  0
  1 20  1  0  0  0  0
  1 21  1  0  0  0  0
  2  3  1  6  0  0  0
  2  4  1  0  0  0  0
  2 39  1  0  0  0  0
  4  5  1  0  0  0  0
  4 22  1  0  0  0  0
  4 23  1  0  0  0  0
  5 10  2  0  0  0  0
  5  6  1  0  0  0  0
  6  7  2  0  0  0  0
  6 24  1  0  0  0  0
  7  8  1  0  0  0  0
  7 25  1  0  0  0  0
  8  9  2  0  0  0  0
  8 26  1  0  0  0  0
  9 10  1  0  0  0  0
  9 27  1  0  0  0  0
 10 28  1  0  0  0  0
 11 29  1  0  0  0  0
 11 30  1  0  0  0  0
 11 31  1  0  0  0  0
 11 39  1  0  0  0  0
 12 13  1  0  0  0  0
 12 32  1  0  0  0  0
 12 33  1  0  0  0  0
 12 39  1  0  0  0  0
 13 18  2  0  0  0  0
 13 14  1  0  0  0  0
 14 15  2  0  0  0  0
 14 34  1  0  0  0  0
 15 16  1  0  0  0  0
 15 35  1  0  0  0  0
 16 17  2  0  0  0  0
 16 36  1  0  0  0  0
 17 18  1  0  0  0  0
 17 37  1  0  0  0  0
 18 38  1  0  0  0  0
 39 40  1  1  0  0  0
M  CHG  1  39   1
M  END
$$$$
