ZINC31284369
 OpenBabel08292219463D

 23 23  0  0  0  0  0  0  0  0999 V2000
   -0.0167    1.3778    0.0096 C   0  0  0  0  0  0  0  0  0  0  0  0
    1.1711    2.0855    0.0021 C   0  0  0  0  0  0  0  0  0  0  0  0
    2.3775    1.4112   -0.0130 C   0  0  0  0  0  0  0  0  0  0  0  0
    2.3969    0.0289   -0.0206 C   0  0  0  0  0  0  0  0  0  0  0  0
    1.2092   -0.6791   -0.0130 C   0  0  0  0  0  0  0  0  0  0  0  0
    0.0021   -0.0041    0.0020 C   0  0  0  0  0  0  0  0  0  0  0  0
    1.2381   -2.7739   -0.0252 I   0  0  0  0  0  0  0  0  0  0  0  0
    3.6719    2.1829   -0.0217 C   0  0  0  0  0  0  0  0  0  0  0  0
    4.1048    2.4260    1.3566 N   0  0  0  0  0  4  0  0  0  0  0  0
    5.2078    3.0810    1.5873 C   0  0  0  0  0  0  0  0  0  0  0  0
    5.9650    3.5438    0.5373 N   0  0  0  0  0  0  0  0  0  0  0  0
    5.6140    3.3092    2.8808 N   0  0  0  0  0  0  0  0  0  0  0  0
   -0.9591    1.9049    0.0259 H   0  0  0  0  0  0  0  0  0  0  0  0
    1.1562    3.1653    0.0076 H   0  0  0  0  0  0  0  0  0  0  0  0
    3.3396   -0.4980   -0.0327 H   0  0  0  0  0  0  0  0  0  0  0  0
   -0.9257   -0.5568    0.0082 H   0  0  0  0  0  0  0  0  0  0  0  0
    4.4347    1.6071   -0.5459 H   0  0  0  0  0  0  0  0  0  0  0  0
    3.5233    3.1359   -0.5294 H   0  0  0  0  0  0  0  0  0  0  0  0
    5.6784    3.3828   -0.3754 H   0  0  0  0  0  0  0  0  0  0  0  0
    6.7858    4.0312    0.7090 H   0  0  0  0  0  0  0  0  0  0  0  0
    5.0798    2.9828    3.6217 H   0  0  0  0  0  0  0  0  0  0  0  0
    6.4349    3.7967    3.0525 H   0  0  0  0  0  0  0  0  0  0  0  0
    3.5705    2.0995    2.0975 H   0  0  0  0  0  0  0  0  0  0  0  0
  1  6  2  0  0  0  0
  1  2  1  0  0  0  0
  1 13  1  0  0  0  0
  2  3  2  0  0  0  0
  2 14  1  0  0  0  0
  3  4  1  0  0  0  0
  3  8  1  0  0  0  0
  4  5  2  0  0  0  0
  4 15  1  0  0  0  0
  5  6  1  0  0  0  0
  5  7  1  0  0  0  0
  6 16  1  0  0  0  0
  8  9  1  0  0  0  0
  8 17  1  0  0  0  0
  8 18  1  0  0  0  0
  9 10  2  0  0  0  0
  9 23  1  0  0  0  0
 10 11  1  0  0  0  0
 10 12  1  0  0  0  0
 11 19  1  0  0  0  0
 11 20  1  0  0  0  0
 12 21  1  0  0  0  0
 12 22  1  0  0  0  0
M  END
$$$$
