ZINC00003642
 OpenBabel08292219463D

 41 43  0  0  1  0  0  0  0  0999 V2000
   -0.2773   -0.1796   -0.5034 C   0  0  0  0  0  0  0  0  0  0  0  0
   -0.3011   -1.6484   -0.0756 C   0  0  0  0  0  0  0  0  0  0  0  0
    0.5196   -1.8202    1.1766 C   0  0  0  0  0  0  0  0  0  0  0  0
    1.8402   -2.2032    1.0893 C   0  0  0  0  0  0  0  0  0  0  0  0
    2.6061   -2.3647    2.2354 C   0  0  0  0  0  0  0  0  0  0  0  0
    2.0633   -2.1468    3.4700 C   0  0  0  0  0  0  0  0  0  0  0  0
    0.7267   -1.7581    3.5841 C   0  0  0  0  0  0  0  0  0  0  0  0
   -0.0527   -1.5872    2.4220 C   0  0  0  0  0  0  0  0  0  0  0  0
   -1.3124   -1.1984    2.8265 N   0  0  0  0  0  0  0  0  0  0  0  0
   -2.0559   -1.0128    2.2318 H   0  0  0  0  0  0  0  0  0  0  0  0
   -1.3574   -1.1136    4.1863 C   0  0  0  0  0  0  0  0  0  0  0  0
   -0.1553   -1.4487    4.7006 C   0  0  0  0  0  0  0  0  0  0  0  0
    0.1425   -1.4580    6.1782 C   0  0  0  0  0  0  0  0  0  0  0  0
   -0.9838   -0.6917    6.8879 C   0  0  0  0  0  0  0  0  0  0  0  0
   -2.2494   -1.1452    6.3999 O   0  0  0  0  0  0  0  0  0  0  0  0
   -2.5346   -0.7277    5.0524 C   0  0  1  0  0  0  0  0  0  0  0  0
   -2.7473    0.7862    4.9903 C   0  0  0  0  0  0  0  0  0  0  0  0
   -3.9336    1.1713    5.8765 C   0  0  0  0  0  0  0  0  0  0  0  0
   -3.7932   -1.4476    4.5642 C   0  0  0  0  0  0  0  0  0  0  0  0
   -3.5844   -2.9377    4.6491 C   0  0  0  0  0  0  0  0  0  0  0  0
   -2.5725   -3.3832    5.1628 O   0  0  0  0  0  0  0  0  0  0  0  0
   -4.4275   -3.6977    4.2040 O   0  0  0  0  0  1  0  0  0  0  0  0
    0.7509    0.1256   -0.6980 H   0  0  0  0  0  0  0  0  0  0  0  0
   -0.8709   -0.0553   -1.4091 H   0  0  0  0  0  0  0  0  0  0  0  0
   -0.6949    0.4374    0.2923 H   0  0  0  0  0  0  0  0  0  0  0  0
   -1.3292   -1.9535    0.1191 H   0  0  0  0  0  0  0  0  0  0  0  0
    0.1166   -2.2653   -0.8712 H   0  0  0  0  0  0  0  0  0  0  0  0
    2.2833   -2.3797    0.1203 H   0  0  0  0  0  0  0  0  0  0  0  0
    3.6399   -2.6656    2.1506 H   0  0  0  0  0  0  0  0  0  0  0  0
    2.6667   -2.2752    4.3564 H   0  0  0  0  0  0  0  0  0  0  0  0
    0.1763   -2.4850    6.5417 H   0  0  0  0  0  0  0  0  0  0  0  0
    1.0977   -0.9675    6.3655 H   0  0  0  0  0  0  0  0  0  0  0  0
   -0.9236   -0.8691    7.9616 H   0  0  0  0  0  0  0  0  0  0  0  0
   -0.8788    0.3749    6.6893 H   0  0  0  0  0  0  0  0  0  0  0  0
   -1.8499    1.2940    5.3436 H   0  0  0  0  0  0  0  0  0  0  0  0
   -2.9512    1.0826    3.9613 H   0  0  0  0  0  0  0  0  0  0  0  0
   -3.7780    0.7802    6.8820 H   0  0  0  0  0  0  0  0  0  0  0  0
   -4.0187    2.2571    5.9181 H   0  0  0  0  0  0  0  0  0  0  0  0
   -4.8493    0.7507    5.4608 H   0  0  0  0  0  0  0  0  0  0  0  0
   -4.6399   -1.1632    5.1891 H   0  0  0  0  0  0  0  0  0  0  0  0
   -3.9943   -1.1672    3.5303 H   0  0  0  0  0  0  0  0  0  0  0  0
  1  2  1  0  0  0  0
  1 23  1  0  0  0  0
  1 24  1  0  0  0  0
  1 25  1  0  0  0  0
  2  3  1  0  0  0  0
  2 26  1  0  0  0  0
  2 27  1  0  0  0  0
  3  8  2  0  0  0  0
  3  4  1  0  0  0  0
  4  5  2  0  0  0  0
  4 28  1  0  0  0  0
  5  6  1  0  0  0  0
  5 29  1  0  0  0  0
  6  7  2  0  0  0  0
  6 30  1  0  0  0  0
  7 12  1  0  0  0  0
  7  8  1  0  0  0  0
  8  9  1  0  0  0  0
  9 10  1  0  0  0  0
  9 11  1  0  0  0  0
 11 16  1  0  0  0  0
 11 12  2  0  0  0  0
 12 13  1  0  0  0  0
 13 14  1  0  0  0  0
 13 31  1  0  0  0  0
 13 32  1  0  0  0  0
 14 15  1  0  0  0  0
 14 33  1  0  0  0  0
 14 34  1  0  0  0  0
 15 16  1  0  0  0  0
 16 17  1  6  0  0  0
 16 19  1  0  0  0  0
 17 18  1  0  0  0  0
 17 35  1  0  0  0  0
 17 36  1  0  0  0  0
 18 37  1  0  0  0  0
 18 38  1  0  0  0  0
 18 39  1  0  0  0  0
 19 20  1  0  0  0  0
 19 40  1  0  0  0  0
 19 41  1  0  0  0  0
 20 21  2  0  0  0  0
 20 22  1  0  0  0  0
M  END
$$$$
