ZINC00002235
 OpenBabel08292219463D

 26 26  0  0  0  0  0  0  0  0999 V2000
    1.1088    2.5579   -0.3763 C   0  0  0  0  0  0  0  0  0  0  0  0
    2.1455    1.6931   -0.2853 C   0  0  0  0  0  0  0  0  0  0  0  0
    1.8957    0.3010   -0.4197 C   0  0  0  0  0  0  0  0  0  0  0  0
    2.8116   -0.4980   -0.3426 O   0  0  0  0  0  0  0  0  0  0  0  0
    0.6354   -0.1274   -0.6337 N   0  0  0  0  0  0  0  0  0  0  0  0
    0.4523   -1.1058   -0.7292 H   0  0  0  0  0  0  0  0  0  0  0  0
   -0.3775    0.7544   -0.7195 C   0  0  0  0  0  0  0  0  0  0  0  0
   -1.5081    0.3502   -0.9129 O   0  0  0  0  0  0  0  0  0  0  0  0
   -0.1590    2.0759   -0.5951 N   0  0  0  0  0  0  0  0  0  0  0  0
   -0.9265    2.7134   -0.6625 H   0  0  0  0  0  0  0  0  0  0  0  0
    3.4515    2.1656   -0.0610 N   0  0  0  0  0  0  0  0  0  0  0  0
    4.0036    1.6159    1.1843 C   0  0  0  0  0  0  0  0  0  0  0  0
    3.3758    2.3335    2.3809 C   0  0  0  0  0  0  0  0  0  0  0  0
    4.1573    1.7622    3.9020 Cl  0  0  0  0  0  0  0  0  0  0  0  0
    4.3244    1.8622   -1.2029 C   0  0  0  0  0  0  0  0  0  0  0  0
    5.5914    2.7157   -1.1172 C   0  0  0  0  0  0  0  0  0  0  0  0
    6.6721    2.3283   -2.5075 Cl  0  0  0  0  0  0  0  0  0  0  0  0
    1.2769    3.6201   -0.2778 H   0  0  0  0  0  0  0  0  0  0  0  0
    3.7804    0.5506    1.2416 H   0  0  0  0  0  0  0  0  0  0  0  0
    5.0836    1.7622    1.1987 H   0  0  0  0  0  0  0  0  0  0  0  0
    3.5234    3.4086    2.2782 H   0  0  0  0  0  0  0  0  0  0  0  0
    2.3085    2.1151    2.4166 H   0  0  0  0  0  0  0  0  0  0  0  0
    4.5954    0.8066   -1.1827 H   0  0  0  0  0  0  0  0  0  0  0  0
    3.7986    2.0847   -2.1314 H   0  0  0  0  0  0  0  0  0  0  0  0
    5.3214    3.7712   -1.1500 H   0  0  0  0  0  0  0  0  0  0  0  0
    6.1107    2.5023   -0.1829 H   0  0  0  0  0  0  0  0  0  0  0  0
  1  9  1  0  0  0  0
  1  2  2  0  0  0  0
  1 18  1  0  0  0  0
  2  3  1  0  0  0  0
  2 11  1  0  0  0  0
  3  4  2  0  0  0  0
  3  5  1  0  0  0  0
  5  6  1  0  0  0  0
  5  7  1  0  0  0  0
  7  8  2  0  0  0  0
  7  9  1  0  0  0  0
  9 10  1  0  0  0  0
 11 12  1  0  0  0  0
 11 15  1  0  0  0  0
 12 13  1  0  0  0  0
 12 19  1  0  0  0  0
 12 20  1  0  0  0  0
 13 14  1  0  0  0  0
 13 21  1  0  0  0  0
 13 22  1  0  0  0  0
 15 16  1  0  0  0  0
 15 23  1  0  0  0  0
 15 24  1  0  0  0  0
 16 17  1  0  0  0  0
 16 25  1  0  0  0  0
 16 26  1  0  0  0  0
M  END
$$$$
