ZINC03869855
 OpenBabel08292219463D

 35 38  0  0  0  0  0  0  0  0999 V2000
   -0.0166    1.3729    0.0096 C   0  0  0  0  0  0  0  0  0  0  0  0
    1.1712    2.0895    0.0021 C   0  0  0  0  0  0  0  0  0  0  0  0
    2.3858    1.4368   -0.0134 C   0  0  0  0  0  0  0  0  0  0  0  0
    2.4270    0.0485   -0.0212 C   0  0  0  0  0  0  0  0  0  0  0  0
    1.2254   -0.6776   -0.0132 C   0  0  0  0  0  0  0  0  0  0  0  0
    0.0021   -0.0041    0.0020 C   0  0  0  0  0  0  0  0  0  0  0  0
    1.2825   -2.1476   -0.0216 C   0  0  0  0  0  0  0  0  0  0  0  0
    2.5139   -2.7424   -0.0371 C   0  0  0  0  0  0  0  0  0  0  0  0
    3.6703   -1.9476   -0.0443 C   0  0  0  0  0  0  0  0  0  0  0  0
    4.7616   -2.4898   -0.0581 O   0  0  0  0  0  0  0  0  0  0  0  0
    3.6080   -0.6065   -0.0368 O   0  0  0  0  0  0  0  0  0  0  0  0
    2.6284   -4.2450   -0.0458 C   0  0  0  0  0  0  0  0  0  0  0  0
    2.7757   -4.7293   -1.4653 C   0  0  0  0  0  0  0  0  0  0  0  0
    4.0187   -4.9640   -1.9853 C   0  0  0  0  0  0  0  0  0  0  0  0
    4.1079   -5.4358   -3.3759 C   0  0  0  0  0  0  0  0  0  0  0  0
    5.3446   -5.6956   -3.9704 C   0  0  0  0  0  0  0  0  0  0  0  0
    5.3936   -6.1367   -5.2741 C   0  0  0  0  0  0  0  0  0  0  0  0
    4.2230   -6.3223   -5.9951 C   0  0  0  0  0  0  0  0  0  0  0  0
    2.9955   -6.0693   -5.4199 C   0  0  0  0  0  0  0  0  0  0  0  0
    2.9237   -5.6242   -4.1061 C   0  0  0  0  0  0  0  0  0  0  0  0
    1.7298   -5.3726   -3.5272 O   0  0  0  0  0  0  0  0  0  0  0  0
    1.6380   -4.9470   -2.2571 C   0  0  0  0  0  0  0  0  0  0  0  0
    0.5359   -4.7390   -1.7804 O   0  0  0  0  0  0  0  0  0  0  0  0
    5.1325   -4.7677   -1.2435 O   0  5  0  0  0  0  0  0  0  0  0  0
    0.1511   -2.8887   -0.0139 O   0  5  0  0  0  0  0  0  0  0  0  0
   -0.9605    1.8975    0.0259 H   0  0  0  0  0  0  0  0  0  0  0  0
    1.1444    3.1692    0.0081 H   0  0  0  0  0  0  0  0  0  0  0  0
    3.3044    2.0047   -0.0198 H   0  0  0  0  0  0  0  0  0  0  0  0
   -0.9239   -0.5599    0.0075 H   0  0  0  0  0  0  0  0  0  0  0  0
    3.5013   -4.5462    0.5333 H   0  0  0  0  0  0  0  0  0  0  0  0
    1.7317   -4.6803    0.3954 H   0  0  0  0  0  0  0  0  0  0  0  0
    6.2572   -5.5512   -3.4112 H   0  0  0  0  0  0  0  0  0  0  0  0
    6.3479   -6.3389   -5.7375 H   0  0  0  0  0  0  0  0  0  0  0  0
    4.2736   -6.6679   -7.0171 H   0  0  0  0  0  0  0  0  0  0  0  0
    2.0906   -6.2169   -5.9907 H   0  0  0  0  0  0  0  0  0  0  0  0
  1  6  2  0  0  0  0
  1  2  1  0  0  0  0
  1 26  1  0  0  0  0
  2  3  2  0  0  0  0
  2 27  1  0  0  0  0
  3  4  1  0  0  0  0
  3 28  1  0  0  0  0
  4 11  1  0  0  0  0
  4  5  2  0  0  0  0
  5  6  1  0  0  0  0
  5  7  1  0  0  0  0
  6 29  1  0  0  0  0
  7  8  2  0  0  0  0
  7 25  1  0  0  0  0
  8  9  1  0  0  0  0
  8 12  1  0  0  0  0
  9 10  2  0  0  0  0
  9 11  1  0  0  0  0
 12 13  1  0  0  0  0
 12 30  1  0  0  0  0
 12 31  1  0  0  0  0
 13 22  1  0  0  0  0
 13 14  2  0  0  0  0
 14 15  1  0  0  0  0
 14 24  1  0  0  0  0
 15 20  2  0  0  0  0
 15 16  1  0  0  0  0
 16 17  2  0  0  0  0
 16 32  1  0  0  0  0
 17 18  1  0  0  0  0
 17 33  1  0  0  0  0
 18 19  2  0  0  0  0
 18 34  1  0  0  0  0
 19 20  1  0  0  0  0
 19 35  1  0  0  0  0
 20 21  1  0  0  0  0
 21 22  1  0  0  0  0
 22 23  2  0  0  0  0
M  CHG  2  24  -1  25  -1
M  END
$$$$
