ZINC01530570
 OpenBabel08292219463D

 55 55  0  0  1  0  0  0  0  0999 V2000
   -0.0187    1.5258    0.0104 C   0  0  0  0  0  0  0  0  0  0  0  0
    0.0021   -0.0041    0.0020 C   0  0  0  0  0  0  0  0  0  0  0  0
    0.7421   -0.5109    1.2415 C   0  0  0  0  0  0  0  0  0  0  0  0
   -1.3761   -0.5125    0.0124 N   0  3  0  0  0  0  0  0  0  0  0  0
   -2.0500   -0.1262   -1.2343 C   0  0  0  0  0  0  0  0  0  0  0  0
   -3.4854   -0.6557   -1.2235 C   0  0  2  0  0  0  0  0  0  0  0  0
   -3.4743   -1.7319   -1.0509 H   0  0  0  0  0  0  0  0  0  0  0  0
   -4.1475   -0.3621   -2.5712 C   0  0  0  0  0  0  0  0  0  0  0  0
   -5.4460   -0.9578   -2.6037 O   0  0  0  0  0  0  0  0  0  0  0  0
   -6.1735   -0.7901   -3.7393 C   0  0  0  0  0  0  0  0  0  0  0  0
   -5.6460   -0.0719   -4.8027 C   0  0  0  0  0  0  0  0  0  0  0  0
   -6.3873    0.0968   -5.9561 C   0  0  0  0  0  0  0  0  0  0  0  0
   -7.6541   -0.4490   -6.0512 C   0  0  0  0  0  0  0  0  0  0  0  0
   -8.1822   -1.1649   -4.9927 C   0  0  0  0  0  0  0  0  0  0  0  0
   -7.4425   -1.3416   -3.8394 C   0  0  0  0  0  0  0  0  0  0  0  0
   -8.4607   -0.2631   -7.3105 C   0  0  0  0  0  0  0  0  0  0  0  0
   -8.1896   -1.3374   -8.2129 O   0  0  0  0  0  0  0  0  0  0  0  0
   -8.9080   -1.2565   -9.4455 C   0  0  0  0  0  0  0  0  0  0  0  0
   -8.5419   -2.4511  -10.3285 C   0  0  0  0  0  0  0  0  0  0  0  0
   -8.9907   -3.6575   -9.7079 O   0  0  0  0  0  0  0  0  0  0  0  0
   -8.6970   -4.8396  -10.4551 C   0  0  0  0  0  0  0  0  0  0  0  0
   -8.5037   -6.0150   -9.4948 C   0  0  0  0  0  0  0  0  0  0  0  0
   -9.8565   -5.1432  -11.4060 C   0  0  0  0  0  0  0  0  0  0  0  0
   -4.2221   -0.0137   -0.1809 O   0  0  0  0  0  0  0  0  0  0  0  0
    1.0039    1.9031    0.0027 H   0  0  0  0  0  0  0  0  0  0  0  0
   -0.5459    1.8868   -0.8726 H   0  0  0  0  0  0  0  0  0  0  0  0
   -0.5289    1.8773    0.9072 H   0  0  0  0  0  0  0  0  0  0  0  0
    0.5123   -0.3556   -0.8948 H   0  0  0  0  0  0  0  0  0  0  0  0
    0.2319   -0.1594    2.1383 H   0  0  0  0  0  0  0  0  0  0  0  0
    0.7568   -1.6008    1.2356 H   0  0  0  0  0  0  0  0  0  0  0  0
    1.7647   -0.1336    1.2338 H   0  0  0  0  0  0  0  0  0  0  0  0
   -1.3629   -1.5185    0.0898 H   0  0  0  0  0  0  0  0  0  0  0  0
   -2.0643    0.9605   -1.3179 H   0  0  0  0  0  0  0  0  0  0  0  0
   -1.5132   -0.5489   -2.0836 H   0  0  0  0  0  0  0  0  0  0  0  0
   -4.2389    0.7159   -2.7039 H   0  0  0  0  0  0  0  0  0  0  0  0
   -3.5374   -0.7766   -3.3737 H   0  0  0  0  0  0  0  0  0  0  0  0
   -4.6569    0.3553   -4.7286 H   0  0  0  0  0  0  0  0  0  0  0  0
   -5.9771    0.6558   -6.7841 H   0  0  0  0  0  0  0  0  0  0  0  0
   -9.1721   -1.5900   -5.0693 H   0  0  0  0  0  0  0  0  0  0  0  0
   -7.8537   -1.9046   -3.0146 H   0  0  0  0  0  0  0  0  0  0  0  0
   -9.5225   -0.2548   -7.0640 H   0  0  0  0  0  0  0  0  0  0  0  0
   -8.1893    0.6827   -7.7795 H   0  0  0  0  0  0  0  0  0  0  0  0
   -9.9790   -1.2688   -9.2433 H   0  0  0  0  0  0  0  0  0  0  0  0
   -8.6458   -0.3313   -9.9588 H   0  0  0  0  0  0  0  0  0  0  0  0
   -9.0204   -2.3435  -11.3020 H   0  0  0  0  0  0  0  0  0  0  0  0
   -7.4603   -2.4895  -10.4576 H   0  0  0  0  0  0  0  0  0  0  0  0
   -7.7845   -4.6877  -11.0316 H   0  0  0  0  0  0  0  0  0  0  0  0
   -9.4162   -6.1670   -8.9183 H   0  0  0  0  0  0  0  0  0  0  0  0
   -8.2797   -6.9167  -10.0648 H   0  0  0  0  0  0  0  0  0  0  0  0
   -7.6777   -5.7988   -8.8174 H   0  0  0  0  0  0  0  0  0  0  0  0
  -10.7690   -5.2952  -10.8294 H   0  0  0  0  0  0  0  0  0  0  0  0
   -9.9942   -4.3058  -12.0900 H   0  0  0  0  0  0  0  0  0  0  0  0
   -9.6325   -6.0449  -11.9759 H   0  0  0  0  0  0  0  0  0  0  0  0
   -4.2734    0.9478   -0.2701 H   0  0  0  0  0  0  0  0  0  0  0  0
   -1.8730   -0.1212    0.7986 H   0  0  0  0  0  0  0  0  0  0  0  0
  1  2  1  0  0  0  0
  1 25  1  0  0  0  0
  1 26  1  0  0  0  0
  1 27  1  0  0  0  0
  2  3  1  0  0  0  0
  2  4  1  0  0  0  0
  2 28  1  0  0  0  0
  3 29  1  0  0  0  0
  3 30  1  0  0  0  0
  3 31  1  0  0  0  0
  4  5  1  0  0  0  0
  4 32  1  0  0  0  0
  4 55  1  0  0  0  0
  5  6  1  0  0  0  0
  5 33  1  0  0  0  0
  5 34  1  0  0  0  0
  6  7  1  1  0  0  0
  6  8  1  0  0  0  0
  6 24  1  0  0  0  0
  8  9  1  0  0  0  0
  8 35  1  0  0  0  0
  8 36  1  0  0  0  0
  9 10  1  0  0  0  0
 10 15  2  0  0  0  0
 10 11  1  0  0  0  0
 11 12  2  0  0  0  0
 11 37  1  0  0  0  0
 12 13  1  0  0  0  0
 12 38  1  0  0  0  0
 13 14  2  0  0  0  0
 13 16  1  0  0  0  0
 14 15  1  0  0  0  0
 14 39  1  0  0  0  0
 15 40  1  0  0  0  0
 16 17  1  0  0  0  0
 16 41  1  0  0  0  0
 16 42  1  0  0  0  0
 17 18  1  0  0  0  0
 18 19  1  0  0  0  0
 18 43  1  0  0  0  0
 18 44  1  0  0  0  0
 19 20  1  0  0  0  0
 19 45  1  0  0  0  0
 19 46  1  0  0  0  0
 20 21  1  0  0  0  0
 21 22  1  0  0  0  0
 21 23  1  0  0  0  0
 21 47  1  0  0  0  0
 22 48  1  0  0  0  0
 22 49  1  0  0  0  0
 22 50  1  0  0  0  0
 23 51  1  0  0  0  0
 23 52  1  0  0  0  0
 23 53  1  0  0  0  0
 24 54  1  0  0  0  0
M  CHG  1   4   1
M  END
$$$$
