ZINC00004413
 OpenBabel08292219463D

 41 41  0  0  1  0  0  0  0  0999 V2000
    4.4626    0.9331   -2.8658 C   0  0  0  0  0  0  0  0  0  0  0  0
    3.0922    1.3370   -2.3184 C   0  0  0  0  0  0  0  0  0  0  0  0
    2.1977    0.1769   -2.3368 N   0  0  0  0  0  0  0  0  0  0  0  0
    2.1273   -0.7122   -1.1746 C   0  0  0  0  0  0  0  0  0  0  0  0
    1.4396   -0.0723   -3.4229 C   0  0  0  0  0  0  0  0  0  0  0  0
    1.4980    0.6652   -4.3869 O   0  0  0  0  0  0  0  0  0  0  0  0
    0.6173   -1.1388   -3.4398 O   0  0  0  0  0  0  0  0  0  0  0  0
   -0.2031   -1.2952   -4.5123 C   0  0  0  0  0  0  0  0  0  0  0  0
   -1.5478   -0.9685   -4.4120 C   0  0  0  0  0  0  0  0  0  0  0  0
   -2.3794   -1.1283   -5.5033 C   0  0  0  0  0  0  0  0  0  0  0  0
   -1.8728   -1.6139   -6.6949 C   0  0  0  0  0  0  0  0  0  0  0  0
   -0.5334   -1.9405   -6.7972 C   0  0  0  0  0  0  0  0  0  0  0  0
    0.3039   -1.7762   -5.7104 C   0  0  0  0  0  0  0  0  0  0  0  0
    0.0152   -2.4704   -8.0969 C   0  0  2  0  0  0  0  0  0  0  0  0
    0.9527   -2.9938   -7.9091 H   0  0  0  0  0  0  0  0  0  0  0  0
    0.2648   -1.3060   -9.0576 C   0  0  0  0  0  0  0  0  0  0  0  0
   -0.9531   -3.3994   -8.6947 N   0  3  0  0  0  0  0  0  0  0  0  0
   -0.4184   -3.9159   -9.9616 C   0  0  0  0  0  0  0  0  0  0  0  0
   -1.1928   -4.5173   -7.7723 C   0  0  0  0  0  0  0  0  0  0  0  0
    4.8824    0.1408   -2.2460 H   0  0  0  0  0  0  0  0  0  0  0  0
    4.3537    0.5745   -3.8894 H   0  0  0  0  0  0  0  0  0  0  0  0
    5.1281    1.7962   -2.8522 H   0  0  0  0  0  0  0  0  0  0  0  0
    3.2011    1.6957   -1.2949 H   0  0  0  0  0  0  0  0  0  0  0  0
    2.6725    2.1293   -2.9383 H   0  0  0  0  0  0  0  0  0  0  0  0
    1.3554   -0.3572   -0.4918 H   0  0  0  0  0  0  0  0  0  0  0  0
    1.8843   -1.7224   -1.5042 H   0  0  0  0  0  0  0  0  0  0  0  0
    3.0898   -0.7185   -0.6631 H   0  0  0  0  0  0  0  0  0  0  0  0
   -1.9440   -0.5899   -3.4814 H   0  0  0  0  0  0  0  0  0  0  0  0
   -3.4262   -0.8742   -5.4257 H   0  0  0  0  0  0  0  0  0  0  0  0
   -2.5247   -1.7385   -7.5469 H   0  0  0  0  0  0  0  0  0  0  0  0
    1.3512   -2.0270   -5.7923 H   0  0  0  0  0  0  0  0  0  0  0  0
    0.9833   -0.6167   -8.6140 H   0  0  0  0  0  0  0  0  0  0  0  0
    0.6616   -1.6892   -9.9977 H   0  0  0  0  0  0  0  0  0  0  0  0
   -0.6727   -0.7825   -9.2453 H   0  0  0  0  0  0  0  0  0  0  0  0
   -0.2406   -3.0863  -10.6460 H   0  0  0  0  0  0  0  0  0  0  0  0
    0.5191   -4.4393   -9.7738 H   0  0  0  0  0  0  0  0  0  0  0  0
   -1.1369   -4.6052  -10.4052 H   0  0  0  0  0  0  0  0  0  0  0  0
   -1.5895   -4.1341   -6.8322 H   0  0  0  0  0  0  0  0  0  0  0  0
   -1.9113   -5.2066   -8.2158 H   0  0  0  0  0  0  0  0  0  0  0  0
   -0.2553   -5.0408   -7.5845 H   0  0  0  0  0  0  0  0  0  0  0  0
   -1.8209   -2.9148   -8.8685 H   0  0  0  0  0  0  0  0  0  0  0  0
  1  2  1  0  0  0  0
  1 20  1  0  0  0  0
  1 21  1  0  0  0  0
  1 22  1  0  0  0  0
  2  3  1  0  0  0  0
  2 23  1  0  0  0  0
  2 24  1  0  0  0  0
  3  4  1  0  0  0  0
  3  5  1  0  0  0  0
  4 25  1  0  0  0  0
  4 26  1  0  0  0  0
  4 27  1  0  0  0  0
  5  6  2  0  0  0  0
  5  7  1  0  0  0  0
  7  8  1  0  0  0  0
  8 13  2  0  0  0  0
  8  9  1  0  0  0  0
  9 10  2  0  0  0  0
  9 28  1  0  0  0  0
 10 11  1  0  0  0  0
 10 29  1  0  0  0  0
 11 12  2  0  0  0  0
 11 30  1  0  0  0  0
 12 13  1  0  0  0  0
 12 14  1  0  0  0  0
 13 31  1  0  0  0  0
 14 15  1  1  0  0  0
 14 16  1  0  0  0  0
 14 17  1  0  0  0  0
 16 32  1  0  0  0  0
 16 33  1  0  0  0  0
 16 34  1  0  0  0  0
 17 18  1  0  0  0  0
 17 19  1  0  0  0  0
 17 41  1  0  0  0  0
 18 35  1  0  0  0  0
 18 36  1  0  0  0  0
 18 37  1  0  0  0  0
 19 38  1  0  0  0  0
 19 39  1  0  0  0  0
 19 40  1  0  0  0  0
M  CHG  1  17   1
M  END
$$$$
