ZINC84400879
 OpenBabel08292219463D

 65 67  0  0  1  0  0  0  0  0999 V2000
    0.2114    1.4969    0.1143 C   0  0  0  0  0  0  0  0  0  0  0  0
    0.1141   -0.0058    0.0546 C   0  0  0  0  0  0  0  0  0  0  0  0
   -1.0902   -0.5970    0.1389 C   0  0  0  0  0  0  0  0  0  0  0  0
   -1.2339   -2.0918    0.0931 C   0  0  1  0  0  0  0  0  0  0  0  0
   -2.0710   -2.3521   -0.5547 H   0  0  0  0  0  0  0  0  0  0  0  0
    0.0185   -2.7307   -0.4362 C   0  0  0  0  0  0  0  0  0  0  0  0
    1.1785   -2.0541   -0.4975 C   0  0  0  0  0  0  0  0  0  0  0  0
    1.2522   -0.7514   -0.0904 N   0  0  0  0  0  0  0  0  0  0  0  0
    2.4122   -2.7385   -1.0273 C   0  0  0  0  0  0  0  0  0  0  0  0
   -0.0236   -4.0730   -0.8791 C   0  0  0  0  0  0  0  0  0  0  0  0
   -0.4530   -4.3349   -1.9872 O   0  0  0  0  0  0  0  0  0  0  0  0
    0.4124   -5.0636   -0.0729 O   0  0  0  0  0  0  0  0  0  0  0  0
    0.3406   -6.3958   -0.5850 C   0  0  0  0  0  0  0  0  0  0  0  0
    0.8749   -7.3743    0.4628 C   0  0  0  0  0  0  0  0  0  0  0  0
   -0.0057   -7.3619    1.6385 N   0  3  1  0  0  0  0  0  0  0  0  0
   -1.3293   -7.8777    1.2643 C   0  0  0  0  0  0  0  0  0  0  0  0
    0.5705   -8.2095    2.6909 C   0  0  0  0  0  0  0  0  0  0  0  0
   -0.2674   -8.1003    3.9388 C   0  0  0  0  0  0  0  0  0  0  0  0
    0.0175   -7.1285    4.8796 C   0  0  0  0  0  0  0  0  0  0  0  0
   -0.7510   -7.0283    6.0243 C   0  0  0  0  0  0  0  0  0  0  0  0
   -1.8047   -7.8997    6.2278 C   0  0  0  0  0  0  0  0  0  0  0  0
   -2.0901   -8.8710    5.2865 C   0  0  0  0  0  0  0  0  0  0  0  0
   -1.3242   -8.9684    4.1399 C   0  0  0  0  0  0  0  0  0  0  0  0
   -1.5035   -2.6072    1.4833 C   0  0  0  0  0  0  0  0  0  0  0  0
   -0.5870   -2.3822    2.4938 C   0  0  0  0  0  0  0  0  0  0  0  0
   -0.8342   -2.8549    3.7688 C   0  0  0  0  0  0  0  0  0  0  0  0
   -1.9982   -3.5523    4.0340 C   0  0  0  0  0  0  0  0  0  0  0  0
   -2.9148   -3.7764    3.0241 C   0  0  0  0  0  0  0  0  0  0  0  0
   -2.6695   -3.2998    1.7496 C   0  0  0  0  0  0  0  0  0  0  0  0
   -4.1607   -4.5235    3.3078 N   0  0  0  0  0  4  0  0  0  0  0  0
   -4.3765   -4.9377    4.4229 O   0  0  0  0  0  0  0  0  0  0  0  0
   -4.9625   -4.7195    2.4244 O   0  5  0  0  0  0  0  0  0  0  0  0
   -2.2467    0.2054    0.2741 C   0  0  0  0  0  0  0  0  0  0  0  0
   -2.1453    1.4174    0.3130 O   0  0  0  0  0  0  0  0  0  0  0  0
   -3.4630   -0.3730    0.3600 O   0  0  0  0  0  0  0  0  0  0  0  0
   -4.5876    0.4983    0.4950 C   0  0  0  0  0  0  0  0  0  0  0  0
    1.2556    1.7971    0.0266 H   0  0  0  0  0  0  0  0  0  0  0  0
   -0.3615    1.9309   -0.7051 H   0  0  0  0  0  0  0  0  0  0  0  0
   -0.1894    1.8494    1.0646 H   0  0  0  0  0  0  0  0  0  0  0  0
    2.1166   -0.3551    0.1007 H   0  0  0  0  0  0  0  0  0  0  0  0
    2.4941   -2.5608   -2.0996 H   0  0  0  0  0  0  0  0  0  0  0  0
    3.2932   -2.3396   -0.5246 H   0  0  0  0  0  0  0  0  0  0  0  0
    2.3416   -3.8101   -0.8410 H   0  0  0  0  0  0  0  0  0  0  0  0
   -0.6960   -6.6409   -0.8159 H   0  0  0  0  0  0  0  0  0  0  0  0
    0.9420   -6.4696   -1.4911 H   0  0  0  0  0  0  0  0  0  0  0  0
    0.9034   -8.3789    0.0407 H   0  0  0  0  0  0  0  0  0  0  0  0
    1.8806   -7.0761    0.7590 H   0  0  0  0  0  0  0  0  0  0  0  0
   -1.7569   -7.2488    0.4834 H   0  0  0  0  0  0  0  0  0  0  0  0
   -1.2304   -8.8985    0.8951 H   0  0  0  0  0  0  0  0  0  0  0  0
   -1.9828   -7.8685    2.1366 H   0  0  0  0  0  0  0  0  0  0  0  0
    0.5872   -9.2460    2.3541 H   0  0  0  0  0  0  0  0  0  0  0  0
    1.5872   -7.8809    2.9060 H   0  0  0  0  0  0  0  0  0  0  0  0
    0.8406   -6.4477    4.7206 H   0  0  0  0  0  0  0  0  0  0  0  0
   -0.5281   -6.2695    6.7597 H   0  0  0  0  0  0  0  0  0  0  0  0
   -2.4047   -7.8219    7.1225 H   0  0  0  0  0  0  0  0  0  0  0  0
   -2.9130   -9.5520    5.4457 H   0  0  0  0  0  0  0  0  0  0  0  0
   -1.5495   -9.7248    3.4027 H   0  0  0  0  0  0  0  0  0  0  0  0
    0.3222   -1.8374    2.2867 H   0  0  0  0  0  0  0  0  0  0  0  0
   -0.1180   -2.6797    4.5580 H   0  0  0  0  0  0  0  0  0  0  0  0
   -2.1910   -3.9222    5.0301 H   0  0  0  0  0  0  0  0  0  0  0  0
   -3.3875   -3.4717    0.9613 H   0  0  0  0  0  0  0  0  0  0  0  0
   -5.5009   -0.0938    0.5533 H   0  0  0  0  0  0  0  0  0  0  0  0
   -4.4806    1.0915    1.4032 H   0  0  0  0  0  0  0  0  0  0  0  0
   -4.6391    1.1616   -0.3683 H   0  0  0  0  0  0  0  0  0  0  0  0
   -0.0973   -6.4170    1.9802 H   0  0  0  0  0  0  0  0  0  0  0  0
  1  2  1  0  0  0  0
  1 37  1  0  0  0  0
  1 38  1  0  0  0  0
  1 39  1  0  0  0  0
  2  8  1  0  0  0  0
  2  3  2  0  0  0  0
  3  4  1  0  0  0  0
  3 33  1  0  0  0  0
  4  5  1  6  0  0  0
  4  6  1  0  0  0  0
  4 24  1  0  0  0  0
  6  7  2  0  0  0  0
  6 10  1  0  0  0  0
  7  8  1  0  0  0  0
  7  9  1  0  0  0  0
  8 40  1  0  0  0  0
  9 41  1  0  0  0  0
  9 42  1  0  0  0  0
  9 43  1  0  0  0  0
 10 11  2  0  0  0  0
 10 12  1  0  0  0  0
 12 13  1  0  0  0  0
 13 14  1  0  0  0  0
 13 44  1  0  0  0  0
 13 45  1  0  0  0  0
 14 15  1  0  0  0  0
 14 46  1  0  0  0  0
 14 47  1  0  0  0  0
 15 16  1  0  0  0  0
 15 17  1  0  0  0  0
 15 65  1  1  0  0  0
 16 48  1  0  0  0  0
 16 49  1  0  0  0  0
 16 50  1  0  0  0  0
 17 18  1  0  0  0  0
 17 51  1  0  0  0  0
 17 52  1  0  0  0  0
 18 23  2  0  0  0  0
 18 19  1  0  0  0  0
 19 20  2  0  0  0  0
 19 53  1  0  0  0  0
 20 21  1  0  0  0  0
 20 54  1  0  0  0  0
 21 22  2  0  0  0  0
 21 55  1  0  0  0  0
 22 23  1  0  0  0  0
 22 56  1  0  0  0  0
 23 57  1  0  0  0  0
 24 29  2  0  0  0  0
 24 25  1  0  0  0  0
 25 26  2  0  0  0  0
 25 58  1  0  0  0  0
 26 27  1  0  0  0  0
 26 59  1  0  0  0  0
 27 28  2  0  0  0  0
 27 60  1  0  0  0  0
 28 29  1  0  0  0  0
 28 30  1  0  0  0  0
 29 61  1  0  0  0  0
 30 31  2  0  0  0  0
 30 32  1  0  0  0  0
 33 34  2  0  0  0  0
 33 35  1  0  0  0  0
 35 36  1  0  0  0  0
 36 62  1  0  0  0  0
 36 63  1  0  0  0  0
 36 64  1  0  0  0  0
M  CHG  2  15   1  32  -1
M  END
$$$$
