ZINC34676245
 OpenBabel08292219463D

 13 13  0  0  1  0  0  0  0  0999 V2000
   -0.0175    1.4383    0.0099 C   0  0  0  0  0  0  0  0  0  0  0  0
    1.4944    1.7690   -0.0027 C   0  0  2  0  0  0  0  0  0  0  0  0
    1.6946    2.6417   -0.6243 H   0  0  0  0  0  0  0  0  0  0  0  0
    2.0980    0.5202   -0.6168 C   0  0  0  0  0  0  0  0  0  0  0  0
    3.3506    0.4100   -1.1143 O   0  5  0  0  0  0  0  0  0  0  0  0
    1.2229   -0.4098   -0.5844 N   0  0  0  0  0  0  0  0  0  0  0  0
    0.0021   -0.0041    0.0020 O   0  0  0  0  0  0  0  0  0  0  0  0
    1.9943    1.9778    1.3627 N   0  3  0  0  0  0  0  0  0  0  0  0
   -0.4929    1.8177    0.9144 H   0  0  0  0  0  0  0  0  0  0  0  0
   -0.5101    1.8273   -0.8812 H   0  0  0  0  0  0  0  0  0  0  0  0
    1.8492    1.1399    1.9058 H   0  0  0  0  0  0  0  0  0  0  0  0
    2.9799    2.1917    1.3311 H   0  0  0  0  0  0  0  0  0  0  0  0
    1.4971    2.7453    1.7892 H   0  0  0  0  0  0  0  0  0  0  0  0
  1  7  1  0  0  0  0
  1  2  1  0  0  0  0
  1  9  1  0  0  0  0
  1 10  1  0  0  0  0
  2  3  1  6  0  0  0
  2  4  1  0  0  0  0
  2  8  1  0  0  0  0
  4  5  1  0  0  0  0
  4  6  2  0  0  0  0
  6  7  1  0  0  0  0
  8 11  1  0  0  0  0
  8 12  1  0  0  0  0
  8 13  1  0  0  0  0
M  CHG  2   5  -1   8   1
M  END
$$$$
