ZINC96006011
 OpenBabel08292219463D

 14 14  0  0  0  0  0  0  0  0999 V2000
   -0.0158    1.3169    0.0093 C   0  0  0  0  0  0  0  0  0  0  0  0
    1.1740    2.0310    0.0018 C   0  0  0  0  0  0  0  0  0  0  0  0
    2.3275    1.3941   -0.0131 N   0  0  0  0  0  0  0  0  0  0  0  0
    2.3511    0.0640   -0.0205 C   0  0  0  0  0  0  0  0  0  0  0  0
    1.1542   -0.6504   -0.0125 C   0  0  0  0  0  0  0  0  0  0  0  0
    0.0021   -0.0041    0.0020 N   0  0  0  0  0  0  0  0  0  0  0  0
    3.6458   -0.6559   -0.0378 C   0  0  0  0  0  0  0  0  0  0  0  0
    3.6654   -1.8709   -0.0445 O   0  0  0  0  0  0  0  0  0  0  0  0
    4.8020    0.0368   -0.0460 N   0  0  0  0  0  0  0  0  0  0  0  0
   -0.9592    1.8425    0.0256 H   0  0  0  0  0  0  0  0  0  0  0  0
    1.1546    3.1108    0.0078 H   0  0  0  0  0  0  0  0  0  0  0  0
    1.1686   -1.7303   -0.0184 H   0  0  0  0  0  0  0  0  0  0  0  0
    4.7863    1.0066   -0.0406 H   0  0  0  0  0  0  0  0  0  0  0  0
    5.6497   -0.4346   -0.0573 H   0  0  0  0  0  0  0  0  0  0  0  0
  1  6  2  0  0  0  0
  1  2  1  0  0  0  0
  1 10  1  0  0  0  0
  2  3  2  0  0  0  0
  2 11  1  0  0  0  0
  3  4  1  0  0  0  0
  4  5  2  0  0  0  0
  4  7  1  0  0  0  0
  5  6  1  0  0  0  0
  5 12  1  0  0  0  0
  7  8  2  0  0  0  0
  7  9  1  0  0  0  0
  9 13  1  0  0  0  0
  9 14  1  0  0  0  0
M  END
$$$$
