ZINC12504523
 OpenBabel08292219463D

 53 57  0  0  1  0  0  0  0  0999 V2000
    4.0808    0.3418   -2.3618 C   0  0  0  0  0  0  0  0  0  0  0  0
    2.9714    1.1928   -1.7996 C   0  0  0  0  0  0  0  0  0  0  0  0
    2.7067    2.2544   -2.3106 O   0  0  0  0  0  0  0  0  0  0  0  0
    2.1923    0.7189   -0.5999 C   0  0  1  0  0  0  0  0  0  0  0  0
    1.5523    1.9234    0.1347 C   0  0  0  0  0  0  0  0  0  0  0  0
    0.0230    1.6547    0.1669 C   0  0  0  0  0  0  0  0  0  0  0  0
   -0.0604    0.1299    0.0390 C   0  0  2  0  0  0  0  0  0  0  0  0
    0.2063   -0.3469    0.9823 H   0  0  0  0  0  0  0  0  0  0  0  0
    1.0215   -0.1520   -1.0406 C   0  0  2  0  0  0  0  0  0  0  0  0
    1.2438   -1.6440   -1.1083 C   0  0  0  0  0  0  0  0  0  0  0  0
   -0.0735   -2.3150   -1.5410 C   0  0  0  0  0  0  0  0  0  0  0  0
   -1.2029   -1.9475   -0.5884 C   0  0  1  0  0  0  0  0  0  0  0  0
   -0.9518   -2.3406    0.3967 H   0  0  0  0  0  0  0  0  0  0  0  0
   -1.3694   -0.4248   -0.4818 C   0  0  1  0  0  0  0  0  0  0  0  0
   -1.5477   -0.0289   -1.4816 H   0  0  0  0  0  0  0  0  0  0  0  0
   -2.5298   -0.0747    0.3922 C   0  0  0  0  0  0  0  0  0  0  0  0
   -3.5446   -0.9065    0.6193 C   0  0  0  0  0  0  0  0  0  0  0  0
   -3.5582   -2.2523    0.0211 C   0  0  0  0  0  0  0  0  0  0  0  0
   -4.4847   -3.1348    0.4401 C   0  0  0  0  0  0  0  0  0  0  0  0
   -4.5042   -4.4806    0.0472 C   0  0  0  0  0  0  0  0  0  0  0  0
   -5.4172   -5.2023    0.3949 O   0  0  0  0  0  0  0  0  0  0  0  0
   -3.3991   -5.0238   -0.8239 C   0  0  2  0  0  0  0  0  0  0  0  0
   -3.7482   -5.7866   -1.3682 H   0  0  0  0  0  0  0  0  0  0  0  0
   -1.9801   -4.9918   -0.2487 C   0  0  0  0  0  0  0  0  0  0  0  0
   -2.3815   -4.0191   -1.3573 C   0  0  2  0  0  0  0  0  0  0  0  0
   -1.9831   -4.2288   -2.3500 H   0  0  0  0  0  0  0  0  0  0  0  0
   -2.5307   -2.5526   -1.0308 C   0  0  2  0  0  0  0  0  0  0  0  0
   -2.9589   -1.8341   -2.3119 C   0  0  0  0  0  0  0  0  0  0  0  0
   -4.8625   -0.4004    1.6295 Cl  0  0  0  0  0  0  0  0  0  0  0  0
    0.5228    0.3293   -2.4046 C   0  0  0  0  0  0  0  0  0  0  0  0
    3.0443   -0.0087    0.2871 O   0  0  0  0  0  0  0  0  0  0  0  0
    3.7106   -0.5420   -2.6478 H   0  0  0  0  0  0  0  0  0  0  0  0
    4.5250    0.8448   -3.2207 H   0  0  0  0  0  0  0  0  0  0  0  0
    4.8425    0.1867   -1.5977 H   0  0  0  0  0  0  0  0  0  0  0  0
    1.7588    2.8456   -0.4085 H   0  0  0  0  0  0  0  0  0  0  0  0
    1.9416    1.9919    1.1506 H   0  0  0  0  0  0  0  0  0  0  0  0
   -0.4716    2.1399   -0.6746 H   0  0  0  0  0  0  0  0  0  0  0  0
   -0.4071    1.9865    1.1119 H   0  0  0  0  0  0  0  0  0  0  0  0
    1.5355   -2.0045   -0.1218 H   0  0  0  0  0  0  0  0  0  0  0  0
    2.0282   -1.8695   -1.8308 H   0  0  0  0  0  0  0  0  0  0  0  0
    0.0579   -3.3970   -1.5416 H   0  0  0  0  0  0  0  0  0  0  0  0
   -0.3309   -1.9848   -2.5474 H   0  0  0  0  0  0  0  0  0  0  0  0
   -2.5461    0.8978    0.8617 H   0  0  0  0  0  0  0  0  0  0  0  0
   -5.2333   -2.7950    1.1405 H   0  0  0  0  0  0  0  0  0  0  0  0
   -1.3104   -5.8097   -0.5145 H   0  0  0  0  0  0  0  0  0  0  0  0
   -1.8526   -4.5864    0.7551 H   0  0  0  0  0  0  0  0  0  0  0  0
   -3.0114   -0.7613   -2.1266 H   0  0  0  0  0  0  0  0  0  0  0  0
   -2.2319   -2.0317   -3.0996 H   0  0  0  0  0  0  0  0  0  0  0  0
   -3.9386   -2.1976   -2.6222 H   0  0  0  0  0  0  0  0  0  0  0  0
    0.2765    1.3896   -2.3480 H   0  0  0  0  0  0  0  0  0  0  0  0
    1.3023    0.1767   -3.1510 H   0  0  0  0  0  0  0  0  0  0  0  0
   -0.3658   -0.2355   -2.6866 H   0  0  0  0  0  0  0  0  0  0  0  0
    3.8076    0.4953    0.6010 H   0  0  0  0  0  0  0  0  0  0  0  0
  1  2  1  0  0  0  0
  1 32  1  0  0  0  0
  1 33  1  0  0  0  0
  1 34  1  0  0  0  0
  2  3  2  0  0  0  0
  4  2  1  6  0  0  0
  4  9  1  0  0  0  0
  4  5  1  0  0  0  0
  4 31  1  0  0  0  0
  5  6  1  0  0  0  0
  5 35  1  0  0  0  0
  5 36  1  0  0  0  0
  6  7  1  0  0  0  0
  6 37  1  0  0  0  0
  6 38  1  0  0  0  0
  7  8  1  1  0  0  0
  7 14  1  0  0  0  0
  7  9  1  0  0  0  0
  9 10  1  0  0  0  0
  9 30  1  6  0  0  0
 10 11  1  0  0  0  0
 10 39  1  0  0  0  0
 10 40  1  0  0  0  0
 11 12  1  0  0  0  0
 11 41  1  0  0  0  0
 11 42  1  0  0  0  0
 12 13  1  1  0  0  0
 12 27  1  0  0  0  0
 12 14  1  0  0  0  0
 14 15  1  6  0  0  0
 14 16  1  0  0  0  0
 16 17  2  0  0  0  0
 16 43  1  0  0  0  0
 17 18  1  0  0  0  0
 17 29  1  0  0  0  0
 18 27  1  0  0  0  0
 18 19  2  0  0  0  0
 19 20  1  0  0  0  0
 19 44  1  0  0  0  0
 20 21  2  0  0  0  0
 20 22  1  0  0  0  0
 22 23  1  6  0  0  0
 22 25  1  0  0  0  0
 22 24  1  0  0  0  0
 24 25  1  0  0  0  0
 24 45  1  0  0  0  0
 24 46  1  0  0  0  0
 25 26  1  6  0  0  0
 25 27  1  0  0  0  0
 27 28  1  6  0  0  0
 28 47  1  0  0  0  0
 28 48  1  0  0  0  0
 28 49  1  0  0  0  0
 30 50  1  0  0  0  0
 30 51  1  0  0  0  0
 30 52  1  0  0  0  0
 31 53  1  0  0  0  0
M  END
$$$$
