ZINC03875993
 OpenBabel08292219463D

 59 63  0  0  1  0  0  0  0  0999 V2000
    0.0048    1.5669    0.0180 C   0  0  0  0  0  0  0  0  0  0  0  0
    0.0122    0.0371   -0.0046 C   0  0  2  0  0  0  0  0  0  0  0  0
   -1.4014   -0.4804    0.1605 C   0  0  0  0  0  0  0  0  0  0  0  0
   -1.9701    0.1246    1.4583 C   0  0  0  0  0  0  0  0  0  0  0  0
   -1.0870   -0.2271    2.6467 C   0  0  2  0  0  0  0  0  0  0  0  0
   -1.0924   -1.3111    2.7612 H   0  0  0  0  0  0  0  0  0  0  0  0
   -1.6018    0.3758    3.9218 C   0  0  0  0  0  0  0  0  0  0  0  0
   -2.9751    0.5002    4.0831 C   0  0  0  0  0  0  0  0  0  0  0  0
   -3.5006    1.0381    5.2385 C   0  0  0  0  0  0  0  0  0  0  0  0
   -2.6484    1.4574    6.2500 C   0  0  0  0  0  0  0  0  0  0  0  0
   -1.2795    1.3371    6.0873 C   0  0  0  0  0  0  0  0  0  0  0  0
   -0.7507    0.8014    4.9204 C   0  0  0  0  0  0  0  0  0  0  0  0
    0.7488    0.7284    4.8031 C   0  0  0  0  0  0  0  0  0  0  0  0
    1.1734   -0.1857    3.6547 C   0  0  0  0  0  0  0  0  0  0  0  0
    0.3641    0.2176    2.4217 C   0  0  1  0  0  0  0  0  0  0  0  0
    0.4008    1.2980    2.2814 H   0  0  0  0  0  0  0  0  0  0  0  0
    0.8616   -0.4972    1.1823 C   0  0  2  0  0  0  0  0  0  0  0  0
    0.7302   -1.5735    1.2945 H   0  0  0  0  0  0  0  0  0  0  0  0
    2.2826   -0.1561    0.7205 C   0  0  0  0  0  0  0  0  0  0  0  0
    2.2571   -0.5258   -0.7878 C   0  0  0  0  0  0  0  0  0  0  0  0
    0.7742   -0.4525   -1.2305 C   0  0  1  0  0  0  0  0  0  0  0  0
    0.2947   -1.7855   -1.6304 C   0  0  0  0  0  0  0  0  0  0  0  0
   -0.0878   -2.8487   -1.9494 C   0  0  0  0  0  0  0  0  0  0  0  0
    0.6244    0.4730   -2.3090 O   0  0  0  0  0  0  0  0  0  0  0  0
   -3.1559    1.9844    7.3952 O   0  0  0  0  0  0  0  0  0  0  0  0
   -4.5770    1.9659    7.5439 C   0  0  0  0  0  0  0  0  0  0  0  0
   -5.1914    3.2300    6.9080 C   0  0  0  0  0  0  0  0  0  0  0  0
   -6.3594    3.6022    7.8547 C   0  0  0  0  0  0  0  0  0  0  0  0
   -5.7802    3.2807    9.2548 C   0  0  0  0  0  0  0  0  0  0  0  0
   -4.9514    1.9981    9.0360 C   0  0  0  0  0  0  0  0  0  0  0  0
    1.0306    1.9353    0.0148 H   0  0  0  0  0  0  0  0  0  0  0  0
   -0.5182    1.9408   -0.8622 H   0  0  0  0  0  0  0  0  0  0  0  0
   -0.5033    1.9146    0.9175 H   0  0  0  0  0  0  0  0  0  0  0  0
   -2.0100   -0.1714   -0.6893 H   0  0  0  0  0  0  0  0  0  0  0  0
   -1.3910   -1.5679    0.2329 H   0  0  0  0  0  0  0  0  0  0  0  0
   -2.0210    1.2087    1.3570 H   0  0  0  0  0  0  0  0  0  0  0  0
   -2.9731   -0.2672    1.6277 H   0  0  0  0  0  0  0  0  0  0  0  0
   -3.6380    0.1728    3.2959 H   0  0  0  0  0  0  0  0  0  0  0  0
   -4.5700    1.1329    5.3556 H   0  0  0  0  0  0  0  0  0  0  0  0
   -0.6163    1.6631    6.8749 H   0  0  0  0  0  0  0  0  0  0  0  0
    1.1419    1.7296    4.6260 H   0  0  0  0  0  0  0  0  0  0  0  0
    1.1614    0.3443    5.7360 H   0  0  0  0  0  0  0  0  0  0  0  0
    2.2376   -0.0574    3.4568 H   0  0  0  0  0  0  0  0  0  0  0  0
    0.9702   -1.2240    3.9168 H   0  0  0  0  0  0  0  0  0  0  0  0
    2.4867    0.9063    0.8537 H   0  0  0  0  0  0  0  0  0  0  0  0
    3.0167   -0.7606    1.2532 H   0  0  0  0  0  0  0  0  0  0  0  0
    2.8533    0.1868   -1.3578 H   0  0  0  0  0  0  0  0  0  0  0  0
    2.6411   -1.5356   -0.9321 H   0  0  0  0  0  0  0  0  0  0  0  0
   -0.4298   -3.7995   -2.2347 H   0  0  0  0  0  0  0  0  0  0  0  0
    1.0882    0.2138   -3.1170 H   0  0  0  0  0  0  0  0  0  0  0  0
   -4.9897    1.0728    7.0746 H   0  0  0  0  0  0  0  0  0  0  0  0
   -4.4572    4.0349    6.8733 H   0  0  0  0  0  0  0  0  0  0  0  0
   -5.5658    3.0106    5.9081 H   0  0  0  0  0  0  0  0  0  0  0  0
   -6.6020    4.6615    7.7709 H   0  0  0  0  0  0  0  0  0  0  0  0
   -7.2350    2.9867    7.6483 H   0  0  0  0  0  0  0  0  0  0  0  0
   -5.1411    4.0938    9.5991 H   0  0  0  0  0  0  0  0  0  0  0  0
   -6.5844    3.0983    9.9676 H   0  0  0  0  0  0  0  0  0  0  0  0
   -5.5465    1.1211    9.2907 H   0  0  0  0  0  0  0  0  0  0  0  0
   -4.0491    2.0279    9.6468 H   0  0  0  0  0  0  0  0  0  0  0  0
  1 31  1  0  0  0  0
  1 32  1  0  0  0  0
  1 33  1  0  0  0  0
  2  1  1  1  0  0  0
  2 17  1  0  0  0  0
  2 21  1  0  0  0  0
  2  3  1  0  0  0  0
  3  4  1  0  0  0  0
  3 34  1  0  0  0  0
  3 35  1  0  0  0  0
  4  5  1  0  0  0  0
  4 36  1  0  0  0  0
  4 37  1  0  0  0  0
  5  6  1  1  0  0  0
  5 15  1  0  0  0  0
  5  7  1  0  0  0  0
  7 12  2  0  0  0  0
  7  8  1  0  0  0  0
  8  9  2  0  0  0  0
  8 38  1  0  0  0  0
  9 10  1  0  0  0  0
  9 39  1  0  0  0  0
 10 11  2  0  0  0  0
 10 25  1  0  0  0  0
 11 12  1  0  0  0  0
 11 40  1  0  0  0  0
 12 13  1  0  0  0  0
 13 14  1  0  0  0  0
 13 41  1  0  0  0  0
 13 42  1  0  0  0  0
 14 15  1  0  0  0  0
 14 43  1  0  0  0  0
 14 44  1  0  0  0  0
 15 16  1  6  0  0  0
 15 17  1  0  0  0  0
 17 18  1  1  0  0  0
 17 19  1  0  0  0  0
 19 20  1  0  0  0  0
 19 45  1  0  0  0  0
 19 46  1  0  0  0  0
 20 21  1  0  0  0  0
 20 47  1  0  0  0  0
 20 48  1  0  0  0  0
 21 22  1  6  0  0  0
 21 24  1  0  0  0  0
 22 23  3  0  0  0  0
 23 49  1  0  0  0  0
 24 50  1  0  0  0  0
 25 26  1  0  0  0  0
 26 30  1  0  0  0  0
 26 27  1  0  0  0  0
 26 51  1  0  0  0  0
 27 28  1  0  0  0  0
 27 52  1  0  0  0  0
 27 53  1  0  0  0  0
 28 29  1  0  0  0  0
 28 54  1  0  0  0  0
 28 55  1  0  0  0  0
 29 30  1  0  0  0  0
 29 56  1  0  0  0  0
 29 57  1  0  0  0  0
 30 58  1  0  0  0  0
 30 59  1  0  0  0  0
M  END
$$$$
