ZINC89401131
 OpenBabel08292219463D

 35 37  0  0  0  0  0  0  0  0999 V2000
    0.6509    1.7579    0.0702 C   0  0  0  0  0  0  0  0  0  0  0  0
    0.3868    0.3559   -0.0115 O   0  0  0  0  0  0  0  0  0  0  0  0
    0.9173   -0.3075   -1.0606 C   0  0  0  0  0  0  0  0  0  0  0  0
    1.5865    0.2904   -1.8837 O   0  0  0  0  0  0  0  0  0  0  0  0
    0.7081   -1.6209   -1.1959 N   0  0  0  0  0  0  0  0  0  0  0  0
    1.1442   -2.2543   -2.2774 C   0  0  0  0  0  0  0  0  0  0  0  0
    0.8889   -3.5551   -2.5861 N   0  0  0  0  0  0  0  0  0  0  0  0
    0.3609   -4.1714   -2.0548 H   0  0  0  0  0  0  0  0  0  0  0  0
    1.5125   -3.8496   -3.7898 C   0  0  0  0  0  0  0  0  0  0  0  0
    1.5836   -5.0062   -4.5595 C   0  0  0  0  0  0  0  0  0  0  0  0
    2.2863   -5.0103   -5.7304 C   0  0  0  0  0  0  0  0  0  0  0  0
    2.9401   -3.8515   -6.1651 C   0  0  0  0  0  0  0  0  0  0  0  0
    2.8746   -2.6850   -5.3992 C   0  0  0  0  0  0  0  0  0  0  0  0
    2.1618   -2.6849   -4.2136 C   0  0  0  0  0  0  0  0  0  0  0  0
    1.9124   -1.7049   -3.2564 N   0  0  0  0  0  0  0  0  0  0  0  0
    2.2328   -0.7897   -3.2822 H   0  0  0  0  0  0  0  0  0  0  0  0
    3.6981   -3.8621   -7.4306 C   0  0  0  0  0  0  0  0  0  0  0  0
    4.6170   -3.0831   -7.5954 O   0  0  0  0  0  0  0  0  0  0  0  0
    3.3405   -4.8195   -8.4980 C   0  0  0  0  0  0  0  0  0  0  0  0
    2.0810   -5.4229   -8.5060 C   0  0  0  0  0  0  0  0  0  0  0  0
    1.7539   -6.3156   -9.5053 C   0  0  0  0  0  0  0  0  0  0  0  0
    2.6704   -6.6138  -10.4983 C   0  0  0  0  0  0  0  0  0  0  0  0
    3.9203   -6.0199  -10.4962 C   0  0  0  0  0  0  0  0  0  0  0  0
    4.2585   -5.1206   -9.5065 C   0  0  0  0  0  0  0  0  0  0  0  0
    1.7266    1.9219    0.1336 H   0  0  0  0  0  0  0  0  0  0  0  0
    0.2595    2.2537   -0.8181 H   0  0  0  0  0  0  0  0  0  0  0  0
    0.1680    2.1674    0.9574 H   0  0  0  0  0  0  0  0  0  0  0  0
    1.0817   -5.9039   -4.2298 H   0  0  0  0  0  0  0  0  0  0  0  0
    2.3380   -5.9115   -6.3234 H   0  0  0  0  0  0  0  0  0  0  0  0
    3.3779   -1.7887   -5.7305 H   0  0  0  0  0  0  0  0  0  0  0  0
    1.3649   -5.1913   -7.7314 H   0  0  0  0  0  0  0  0  0  0  0  0
    0.7804   -6.7832   -9.5125 H   0  0  0  0  0  0  0  0  0  0  0  0
    2.4091   -7.3135  -11.2784 H   0  0  0  0  0  0  0  0  0  0  0  0
    4.6310   -6.2573  -11.2741 H   0  0  0  0  0  0  0  0  0  0  0  0
    5.2324   -4.6539   -9.5090 H   0  0  0  0  0  0  0  0  0  0  0  0
  1  2  1  0  0  0  0
  1 25  1  0  0  0  0
  1 26  1  0  0  0  0
  1 27  1  0  0  0  0
  2  3  1  0  0  0  0
  3  4  2  0  0  0  0
  3  5  1  0  0  0  0
  5  6  2  0  0  0  0
  6 15  1  0  0  0  0
  6  7  1  0  0  0  0
  7  8  1  0  0  0  0
  7  9  1  0  0  0  0
  9 14  2  0  0  0  0
  9 10  1  0  0  0  0
 10 11  2  0  0  0  0
 10 28  1  0  0  0  0
 11 12  1  0  0  0  0
 11 29  1  0  0  0  0
 12 13  2  0  0  0  0
 12 17  1  0  0  0  0
 13 14  1  0  0  0  0
 13 30  1  0  0  0  0
 14 15  1  0  0  0  0
 15 16  1  0  0  0  0
 17 18  2  0  0  0  0
 17 19  1  0  0  0  0
 19 24  2  0  0  0  0
 19 20  1  0  0  0  0
 20 21  2  0  0  0  0
 20 31  1  0  0  0  0
 21 22  1  0  0  0  0
 21 32  1  0  0  0  0
 22 23  2  0  0  0  0
 22 33  1  0  0  0  0
 23 24  1  0  0  0  0
 23 34  1  0  0  0  0
 24 35  1  0  0  0  0
M  END
$$$$
