ZINC03830394
 OpenBabel08292219463D

 48 51  0  0  1  0  0  0  0  0999 V2000
   -0.1533    1.4364    0.0190 C   0  0  0  0  0  0  0  0  0  0  0  0
   -0.0855   -0.0270    0.0064 N   0  0  0  0  0  0  0  0  0  0  0  0
   -0.0452   -0.8388   -1.0765 C   0  0  0  0  0  0  0  0  0  0  0  0
    0.0109   -2.0752   -0.6311 N   0  0  0  0  0  0  0  0  0  0  0  0
    0.0084   -2.0912    0.6530 N   0  0  0  0  0  0  0  0  0  0  0  0
   -0.0422   -0.8892    1.1160 N   0  0  0  0  0  0  0  0  0  0  0  0
   -0.0648   -0.3341   -2.7646 S   0  0  0  0  0  0  0  0  0  0  0  0
    0.0099   -1.8927   -3.6896 C   0  0  0  0  0  0  0  0  0  0  0  0
   -0.0003   -1.6006   -5.1679 C   0  0  0  0  0  0  0  0  0  0  0  0
    1.1711   -1.6774   -5.7824 C   0  0  0  0  0  0  0  0  0  0  0  0
    1.2689   -1.4708   -7.1692 N   0  0  0  0  0  0  0  0  0  0  0  0
    0.2580   -0.8334   -8.0525 C   0  0  1  0  0  0  0  0  0  0  0  0
    0.2908    0.2551   -8.0985 H   0  0  0  0  0  0  0  0  0  0  0  0
    0.9493   -1.5480   -9.1938 C   0  0  1  0  0  0  0  0  0  0  0  0
    1.2172   -0.8987  -10.0274 H   0  0  0  0  0  0  0  0  0  0  0  0
    2.0565   -1.7538   -8.1965 C   0  0  0  0  0  0  0  0  0  0  0  0
    3.2256   -2.0616   -8.2951 O   0  0  0  0  0  0  0  0  0  0  0  0
    0.2837   -2.7830   -9.6158 N   0  0  0  0  0  0  0  0  0  0  0  0
    0.4513   -3.2437  -10.8712 C   0  0  0  0  0  0  0  0  0  0  0  0
    1.1531   -2.6359  -11.6516 O   0  0  0  0  0  0  0  0  0  0  0  0
   -0.2334   -4.5141  -11.3053 C   0  0  1  0  0  0  0  0  0  0  0  0
    0.0299   -5.3207  -10.6211 H   0  0  0  0  0  0  0  0  0  0  0  0
   -1.7264   -4.3102  -11.2908 C   0  0  0  0  0  0  0  0  0  0  0  0
   -2.3592   -3.7572  -12.3883 C   0  0  0  0  0  0  0  0  0  0  0  0
   -3.7288   -3.5702  -12.3750 C   0  0  0  0  0  0  0  0  0  0  0  0
   -4.4657   -3.9367  -11.2643 C   0  0  0  0  0  0  0  0  0  0  0  0
   -3.8330   -4.4906  -10.1672 C   0  0  0  0  0  0  0  0  0  0  0  0
   -2.4640   -4.6816  -10.1821 C   0  0  0  0  0  0  0  0  0  0  0  0
    0.1881   -4.8545  -12.6276 O   0  0  0  0  0  0  0  0  0  0  0  0
   -1.3592   -1.5139   -7.5485 S   0  0  0  0  0  0  0  0  0  0  0  0
   -1.3314   -1.2658   -5.7594 C   0  0  0  0  0  0  0  0  0  0  0  0
    2.3828   -1.9819   -5.0043 C   0  0  0  0  0  0  0  0  0  0  0  0
    2.7811   -3.1356   -4.9188 O   0  0  0  0  0  0  0  0  0  0  0  0
    2.9918   -1.0814   -4.4431 O   0  0  0  0  0  1  0  0  0  0  0  0
    0.8564    1.8469    0.0195 H   0  0  0  0  0  0  0  0  0  0  0  0
   -0.6861    1.7831   -0.8665 H   0  0  0  0  0  0  0  0  0  0  0  0
   -0.6808    1.7679    0.9134 H   0  0  0  0  0  0  0  0  0  0  0  0
    0.9251   -2.4253   -3.4308 H   0  0  0  0  0  0  0  0  0  0  0  0
   -0.8529   -2.5081   -3.4349 H   0  0  0  0  0  0  0  0  0  0  0  0
   -0.2776   -3.2691   -8.9917 H   0  0  0  0  0  0  0  0  0  0  0  0
   -1.7835   -3.4708  -13.2561 H   0  0  0  0  0  0  0  0  0  0  0  0
   -4.2231   -3.1374  -13.2322 H   0  0  0  0  0  0  0  0  0  0  0  0
   -5.5356   -3.7900  -11.2537 H   0  0  0  0  0  0  0  0  0  0  0  0
   -4.4086   -4.7767   -9.2993 H   0  0  0  0  0  0  0  0  0  0  0  0
   -1.9702   -5.1178   -9.3264 H   0  0  0  0  0  0  0  0  0  0  0  0
   -0.0143   -4.1803  -13.2907 H   0  0  0  0  0  0  0  0  0  0  0  0
   -2.0933   -1.8937   -5.2975 H   0  0  0  0  0  0  0  0  0  0  0  0
   -1.5601   -0.2207   -5.5510 H   0  0  0  0  0  0  0  0  0  0  0  0
  1  2  1  0  0  0  0
  1 35  1  0  0  0  0
  1 36  1  0  0  0  0
  1 37  1  0  0  0  0
  2  6  1  0  0  0  0
  2  3  1  0  0  0  0
  3  4  2  0  0  0  0
  3  7  1  0  0  0  0
  4  5  1  0  0  0  0
  5  6  2  0  0  0  0
  7  8  1  0  0  0  0
  8  9  1  0  0  0  0
  8 38  1  0  0  0  0
  8 39  1  0  0  0  0
  9 31  1  0  0  0  0
  9 10  2  0  0  0  0
 10 11  1  0  0  0  0
 10 32  1  0  0  0  0
 11 16  1  0  0  0  0
 11 12  1  0  0  0  0
 12 13  1  6  0  0  0
 12 14  1  0  0  0  0
 12 30  1  0  0  0  0
 14 15  1  6  0  0  0
 14 16  1  0  0  0  0
 14 18  1  0  0  0  0
 16 17  2  0  0  0  0
 18 19  1  0  0  0  0
 18 40  1  0  0  0  0
 19 20  2  0  0  0  0
 19 21  1  0  0  0  0
 21 22  1  1  0  0  0
 21 23  1  0  0  0  0
 21 29  1  0  0  0  0
 23 28  2  0  0  0  0
 23 24  1  0  0  0  0
 24 25  2  0  0  0  0
 24 41  1  0  0  0  0
 25 26  1  0  0  0  0
 25 42  1  0  0  0  0
 26 27  2  0  0  0  0
 26 43  1  0  0  0  0
 27 28  1  0  0  0  0
 27 44  1  0  0  0  0
 28 45  1  0  0  0  0
 29 46  1  0  0  0  0
 30 31  1  0  0  0  0
 31 47  1  0  0  0  0
 31 48  1  0  0  0  0
 32 33  2  0  0  0  0
 32 34  1  0  0  0  0
M  END
$$$$
