ZINC03875392
 OpenBabel08292219463D

 51 53  0  0  1  0  0  0  0  0999 V2000
    0.7663   -0.3656   -1.1344 C   0  0  0  0  0  0  0  0  0  0  0  0
   -0.0229   -0.0054    0.1259 C   0  0  0  0  0  0  0  0  0  0  0  0
   -0.0728    1.5161    0.2789 C   0  0  0  0  0  0  0  0  0  0  0  0
   -1.4467   -0.5533    0.0101 C   0  0  0  0  0  0  0  0  0  0  0  0
   -1.4056   -2.0828    0.0034 C   0  0  2  0  0  0  0  0  0  0  0  0
   -0.7426   -2.4294   -0.7894 H   0  0  0  0  0  0  0  0  0  0  0  0
   -2.8167   -2.6372   -0.2231 C   0  0  0  0  0  0  0  0  0  0  0  0
   -3.6702   -2.2815    0.9182 N   0  3  1  0  0  0  0  0  0  0  0  0
   -5.0587   -2.6650    0.6257 C   0  0  0  0  0  0  0  0  0  0  0  0
   -5.9764   -2.0174    1.6630 C   0  0  0  0  0  0  0  0  0  0  0  0
   -5.4707   -2.3234    3.0500 C   0  0  0  0  0  0  0  0  0  0  0  0
   -6.3300   -2.1471    4.1238 C   0  0  0  0  0  0  0  0  0  0  0  0
   -5.9025   -2.4151    5.4121 C   0  0  0  0  0  0  0  0  0  0  0  0
   -4.6025   -2.8641    5.6271 C   0  0  0  0  0  0  0  0  0  0  0  0
   -3.7502   -3.0389    4.5520 C   0  0  0  0  0  0  0  0  0  0  0  0
   -4.1831   -2.7689    3.2612 C   0  0  0  0  0  0  0  0  0  0  0  0
   -3.2181   -2.9771    2.1244 C   0  0  2  0  0  0  0  0  0  0  0  0
   -3.1348   -4.0435    1.9144 H   0  0  0  0  0  0  0  0  0  0  0  0
   -1.8365   -2.4498    2.5325 C   0  0  0  0  0  0  0  0  0  0  0  0
   -0.9081   -2.5866    1.3424 C   0  0  0  0  0  0  0  0  0  0  0  0
    0.1881   -3.0802    1.4566 O   0  0  0  0  0  0  0  0  0  0  0  0
   -4.1721   -3.1294    6.8895 O   0  0  0  0  0  0  0  0  0  0  0  0
   -2.8259   -3.5866    7.0333 C   0  0  0  0  0  0  0  0  0  0  0  0
   -6.7478   -2.2402    6.4630 O   0  0  0  0  0  0  0  0  0  0  0  0
   -8.0661   -1.7765    6.1649 C   0  0  0  0  0  0  0  0  0  0  0  0
    1.7807    0.0248   -1.0518 H   0  0  0  0  0  0  0  0  0  0  0  0
    0.8019   -1.4496   -1.2433 H   0  0  0  0  0  0  0  0  0  0  0  0
    0.2786    0.0713   -2.0058 H   0  0  0  0  0  0  0  0  0  0  0  0
    0.4648   -0.4423    0.9973 H   0  0  0  0  0  0  0  0  0  0  0  0
   -0.7081    1.7755    1.1258 H   0  0  0  0  0  0  0  0  0  0  0  0
    0.9339    1.8974    0.4496 H   0  0  0  0  0  0  0  0  0  0  0  0
   -0.4800    1.9595   -0.6299 H   0  0  0  0  0  0  0  0  0  0  0  0
   -2.0385   -0.2095    0.8584 H   0  0  0  0  0  0  0  0  0  0  0  0
   -1.8985   -0.1980   -0.9160 H   0  0  0  0  0  0  0  0  0  0  0  0
   -3.2330   -2.2099   -1.1354 H   0  0  0  0  0  0  0  0  0  0  0  0
   -2.7701   -3.7220   -0.3181 H   0  0  0  0  0  0  0  0  0  0  0  0
   -5.3314   -2.3180   -0.3710 H   0  0  0  0  0  0  0  0  0  0  0  0
   -5.1569   -3.7493    0.6770 H   0  0  0  0  0  0  0  0  0  0  0  0
   -5.9899   -0.9380    1.5118 H   0  0  0  0  0  0  0  0  0  0  0  0
   -6.9864   -2.4114    1.5501 H   0  0  0  0  0  0  0  0  0  0  0  0
   -7.3380   -1.7986    3.9537 H   0  0  0  0  0  0  0  0  0  0  0  0
   -2.7415   -3.3873    4.7179 H   0  0  0  0  0  0  0  0  0  0  0  0
   -1.9131   -1.4014    2.8207 H   0  0  0  0  0  0  0  0  0  0  0  0
   -1.4516   -3.0345    3.3681 H   0  0  0  0  0  0  0  0  0  0  0  0
   -2.6966   -4.5159    6.4784 H   0  0  0  0  0  0  0  0  0  0  0  0
   -2.1424   -2.8324    6.6432 H   0  0  0  0  0  0  0  0  0  0  0  0
   -2.6118   -3.7604    8.0878 H   0  0  0  0  0  0  0  0  0  0  0  0
   -8.0072   -0.8061    5.6719 H   0  0  0  0  0  0  0  0  0  0  0  0
   -8.5617   -2.4893    5.5059 H   0  0  0  0  0  0  0  0  0  0  0  0
   -8.6352   -1.6802    7.0896 H   0  0  0  0  0  0  0  0  0  0  0  0
   -3.6276   -1.2850    1.0705 H   0  0  0  0  0  0  0  0  0  0  0  0
  1  2  1  0  0  0  0
  1 26  1  0  0  0  0
  1 27  1  0  0  0  0
  1 28  1  0  0  0  0
  2  3  1  0  0  0  0
  2  4  1  0  0  0  0
  2 29  1  0  0  0  0
  3 30  1  0  0  0  0
  3 31  1  0  0  0  0
  3 32  1  0  0  0  0
  4  5  1  0  0  0  0
  4 33  1  0  0  0  0
  4 34  1  0  0  0  0
  5  6  1  6  0  0  0
  5 20  1  0  0  0  0
  5  7  1  0  0  0  0
  7  8  1  0  0  0  0
  7 35  1  0  0  0  0
  7 36  1  0  0  0  0
  8 17  1  0  0  0  0
  8  9  1  0  0  0  0
  8 51  1  1  0  0  0
  9 10  1  0  0  0  0
  9 37  1  0  0  0  0
  9 38  1  0  0  0  0
 10 11  1  0  0  0  0
 10 39  1  0  0  0  0
 10 40  1  0  0  0  0
 11 16  2  0  0  0  0
 11 12  1  0  0  0  0
 12 13  2  0  0  0  0
 12 41  1  0  0  0  0
 13 14  1  0  0  0  0
 13 24  1  0  0  0  0
 14 15  2  0  0  0  0
 14 22  1  0  0  0  0
 15 16  1  0  0  0  0
 15 42  1  0  0  0  0
 16 17  1  0  0  0  0
 17 18  1  6  0  0  0
 17 19  1  0  0  0  0
 19 20  1  0  0  0  0
 19 43  1  0  0  0  0
 19 44  1  0  0  0  0
 20 21  2  0  0  0  0
 22 23  1  0  0  0  0
 23 45  1  0  0  0  0
 23 46  1  0  0  0  0
 23 47  1  0  0  0  0
 24 25  1  0  0  0  0
 25 48  1  0  0  0  0
 25 49  1  0  0  0  0
 25 50  1  0  0  0  0
M  CHG  1   8   1
M  END
$$$$
