ZINC19875504
 OpenBabel08292219463D

 26 27  0  0  1  0  0  0  0  0999 V2000
    0.0180   -1.1779   -0.0044 C   0  0  0  0  0  0  0  0  0  0  0  0
    0.0021   -0.0041    0.0020 C   0  0  0  0  0  0  0  0  0  0  0  0
   -0.0179    1.4678    0.0101 C   0  0  0  0  0  0  0  0  0  0  0  0
    1.3603    1.9762   -0.0003 N   0  0  0  0  0  0  0  0  0  0  0  0
    1.3795    3.4451    0.0074 C   0  0  2  0  0  0  0  0  0  0  0  0
    0.5344    3.8368   -0.5587 H   0  0  0  0  0  0  0  0  0  0  0  0
    2.7071    3.9664   -0.5827 C   0  0  0  0  0  0  0  0  0  0  0  0
    3.5882    4.1267    0.6744 C   0  0  0  0  0  0  0  0  0  0  0  0
    2.6167    4.3551    1.8125 C   0  0  0  0  0  0  0  0  0  0  0  0
    1.3448    3.9634    1.4292 C   0  0  0  0  0  0  0  0  0  0  0  0
    0.2877    4.0827    2.3152 C   0  0  0  0  0  0  0  0  0  0  0  0
    0.4968    4.5913    3.5825 C   0  0  0  0  0  0  0  0  0  0  0  0
    1.7649    4.9830    3.9679 C   0  0  0  0  0  0  0  0  0  0  0  0
    2.8265    4.8651    3.0825 C   0  0  0  0  0  0  0  0  0  0  0  0
    0.0322   -2.2278   -0.0102 H   0  0  0  0  0  0  0  0  0  0  0  0
   -0.5451    1.8289   -0.8729 H   0  0  0  0  0  0  0  0  0  0  0  0
   -0.5281    1.8193    0.9069 H   0  0  0  0  0  0  0  0  0  0  0  0
    1.8890    1.6036    0.7740 H   0  0  0  0  0  0  0  0  0  0  0  0
    3.1391    3.2373   -1.2682 H   0  0  0  0  0  0  0  0  0  0  0  0
    2.5605    4.9262   -1.0780 H   0  0  0  0  0  0  0  0  0  0  0  0
    4.1678    3.2201    0.8481 H   0  0  0  0  0  0  0  0  0  0  0  0
    4.2509    4.9851    0.5648 H   0  0  0  0  0  0  0  0  0  0  0  0
   -0.7036    3.7768    2.0148 H   0  0  0  0  0  0  0  0  0  0  0  0
   -0.3300    4.6831    4.2713 H   0  0  0  0  0  0  0  0  0  0  0  0
    1.9301    5.3811    4.9582 H   0  0  0  0  0  0  0  0  0  0  0  0
    3.8177    5.1714    3.3826 H   0  0  0  0  0  0  0  0  0  0  0  0
  1  2  3  0  0  0  0
  1 15  1  0  0  0  0
  2  3  1  0  0  0  0
  3  4  1  0  0  0  0
  3 16  1  0  0  0  0
  3 17  1  0  0  0  0
  4  5  1  0  0  0  0
  4 18  1  0  0  0  0
  5  6  1  6  0  0  0
  5 10  1  0  0  0  0
  5  7  1  0  0  0  0
  7  8  1  0  0  0  0
  7 19  1  0  0  0  0
  7 20  1  0  0  0  0
  8  9  1  0  0  0  0
  8 21  1  0  0  0  0
  8 22  1  0  0  0  0
  9 14  2  0  0  0  0
  9 10  1  0  0  0  0
 10 11  2  0  0  0  0
 11 12  1  0  0  0  0
 11 23  1  0  0  0  0
 12 13  2  0  0  0  0
 12 24  1  0  0  0  0
 13 14  1  0  0  0  0
 13 25  1  0  0  0  0
 14 26  1  0  0  0  0
M  END
$$$$
