ZINC00035804
 OpenBabel08292219463D

 31 32  0  0  0  0  0  0  0  0999 V2000
   -0.0004    1.4841    0.0187 C   0  0  0  0  0  0  0  0  0  0  0  0
    1.3526    1.8943    0.0235 C   0  0  0  0  0  0  0  0  0  0  0  0
    2.0990    0.7761   -0.0203 C   0  0  0  0  0  0  0  0  0  0  0  0
    1.2745   -0.2836   -0.0512 O   0  0  0  0  0  0  0  0  0  0  0  0
    0.0002    0.1397   -0.0277 C   0  0  0  0  0  0  0  0  0  0  0  0
    3.6050    0.7217   -0.0331 C   0  0  0  0  0  0  0  0  0  0  0  0
    4.1030    0.6567    1.3431 N   0  0  0  0  0  0  0  0  0  0  0  0
    5.4677    0.5988    1.5849 C   0  0  0  0  0  0  0  0  0  0  0  0
    6.3602    0.4840    0.5266 C   0  0  0  0  0  0  0  0  0  0  0  0
    7.7182    0.4265    0.7700 C   0  0  0  0  0  0  0  0  0  0  0  0
    8.2027    0.4826    2.0699 C   0  0  0  0  0  0  0  0  0  0  0  0
    7.3347    0.5963    3.1314 C   0  0  0  0  0  0  0  0  0  0  0  0
    5.9555    0.6617    2.9017 C   0  0  0  0  0  0  0  0  0  0  0  0
    5.0230    0.7897    4.0304 C   0  0  0  0  0  0  0  0  0  0  0  0
    5.4534    0.9534    5.1641 O   0  0  0  0  0  0  0  0  0  0  0  0
    3.8161    0.7327    3.8365 O   0  0  0  0  0  1  0  0  0  0  0  0
    9.9387    0.4073    2.3618 S   0  0  0  0  0  0  0  0  0  0  0  0
   10.5395    1.3482    1.4827 O   0  0  0  0  0  0  0  0  0  0  0  0
   10.1162    0.4597    3.7707 O   0  0  0  0  0  0  0  0  0  0  0  0
   10.4525   -1.0900    1.8754 N   0  0  0  0  0  0  0  0  0  0  0  0
    8.8269    0.2825   -0.5580 Cl  0  0  0  0  0  0  0  0  0  0  0  0
   -0.8679    2.1266    0.0509 H   0  0  0  0  0  0  0  0  0  0  0  0
    1.7169    2.9105    0.0555 H   0  0  0  0  0  0  0  0  0  0  0  0
   -0.8756   -0.4921   -0.0431 H   0  0  0  0  0  0  0  0  0  0  0  0
    3.9320   -0.1626   -0.5800 H   0  0  0  0  0  0  0  0  0  0  0  0
    3.9967    1.6151   -0.5194 H   0  0  0  0  0  0  0  0  0  0  0  0
    3.4784    0.6542    2.0853 H   0  0  0  0  0  0  0  0  0  0  0  0
    5.9915    0.4394   -0.4876 H   0  0  0  0  0  0  0  0  0  0  0  0
    7.7173    0.6394    4.1404 H   0  0  0  0  0  0  0  0  0  0  0  0
   11.3548   -1.2076    1.5395 H   0  0  0  0  0  0  0  0  0  0  0  0
    9.8511   -1.8493    1.9265 H   0  0  0  0  0  0  0  0  0  0  0  0
  1  5  2  0  0  0  0
  1  2  1  0  0  0  0
  1 22  1  0  0  0  0
  2  3  2  0  0  0  0
  2 23  1  0  0  0  0
  3  4  1  0  0  0  0
  3  6  1  0  0  0  0
  4  5  1  0  0  0  0
  5 24  1  0  0  0  0
  6  7  1  0  0  0  0
  6 25  1  0  0  0  0
  6 26  1  0  0  0  0
  7  8  1  0  0  0  0
  7 27  1  0  0  0  0
  8 13  2  0  0  0  0
  8  9  1  0  0  0  0
  9 10  2  0  0  0  0
  9 28  1  0  0  0  0
 10 11  1  0  0  0  0
 10 21  1  0  0  0  0
 11 12  2  0  0  0  0
 11 17  1  0  0  0  0
 12 13  1  0  0  0  0
 12 29  1  0  0  0  0
 13 14  1  0  0  0  0
 14 15  2  0  0  0  0
 14 16  1  0  0  0  0
 17 18  2  0  0  0  0
 17 19  2  0  0  0  0
 17 20  1  0  0  0  0
 20 30  1  0  0  0  0
 20 31  1  0  0  0  0
M  END
$$$$
