ZINC00113446
 OpenBabel08292219463D

 29 29  0  0  0  0  0  0  0  0999 V2000
   -0.0187    1.5258    0.0104 C   0  0  0  0  0  0  0  0  0  0  0  0
    0.0021   -0.0041    0.0020 C   0  0  0  0  0  0  0  0  0  0  0  0
    0.8511   -0.5891   -1.4904 S   0  0  0  0  0  0  0  0  0  0  0  0
    0.0800   -0.2126   -2.6231 O   0  0  0  0  0  0  0  0  0  0  0  0
    2.2131   -0.1903   -1.4182 O   0  0  0  0  0  0  0  0  0  0  0  0
    0.7714   -2.3929   -1.3158 C   0  0  0  0  0  0  0  0  0  0  0  0
    1.4556   -3.0521   -2.5151 C   0  0  0  0  0  0  0  0  0  0  0  0
    1.3912   -4.5089   -2.3741 N   0  0  0  0  0  0  0  0  0  0  0  0
    2.2997   -5.2952   -1.7577 C   0  0  0  0  0  0  0  0  0  0  0  0
    1.9006   -6.5353   -1.8348 N   0  0  0  0  0  0  0  0  0  0  0  0
    0.7349   -6.5845   -2.4964 C   0  0  0  0  0  0  0  0  0  0  0  0
    0.3959   -5.3265   -2.8373 C   0  0  0  0  0  0  0  0  0  0  0  0
   -0.8180   -4.9086   -3.5742 N   0  0  0  0  0  4  0  0  0  0  0  0
   -1.0031   -3.7396   -3.8207 O   0  0  0  0  0  0  0  0  0  0  0  0
   -1.6244   -5.7364   -3.9294 O   0  5  0  0  0  0  0  0  0  0  0  0
    3.5649   -4.8195   -1.0912 C   0  0  0  0  0  0  0  0  0  0  0  0
    1.0039    1.9031    0.0027 H   0  0  0  0  0  0  0  0  0  0  0  0
   -0.5459    1.8868   -0.8726 H   0  0  0  0  0  0  0  0  0  0  0  0
   -0.5289    1.8773    0.9072 H   0  0  0  0  0  0  0  0  0  0  0  0
    0.5293   -0.3651    0.8851 H   0  0  0  0  0  0  0  0  0  0  0  0
   -1.0205   -0.3814    0.0098 H   0  0  0  0  0  0  0  0  0  0  0  0
    1.2786   -2.6919   -0.3985 H   0  0  0  0  0  0  0  0  0  0  0  0
   -0.2712   -2.7081   -1.2739 H   0  0  0  0  0  0  0  0  0  0  0  0
    0.9484   -2.7531   -3.4324 H   0  0  0  0  0  0  0  0  0  0  0  0
    2.4982   -2.7369   -2.5570 H   0  0  0  0  0  0  0  0  0  0  0  0
    0.1656   -7.4762   -2.7136 H   0  0  0  0  0  0  0  0  0  0  0  0
    3.3620   -4.5965   -0.0437 H   0  0  0  0  0  0  0  0  0  0  0  0
    4.3248   -5.5982   -1.1563 H   0  0  0  0  0  0  0  0  0  0  0  0
    3.9229   -3.9197   -1.5915 H   0  0  0  0  0  0  0  0  0  0  0  0
  1  2  1  0  0  0  0
  1 17  1  0  0  0  0
  1 18  1  0  0  0  0
  1 19  1  0  0  0  0
  2  3  1  0  0  0  0
  2 20  1  0  0  0  0
  2 21  1  0  0  0  0
  3  4  2  0  0  0  0
  3  5  2  0  0  0  0
  3  6  1  0  0  0  0
  6  7  1  0  0  0  0
  6 22  1  0  0  0  0
  6 23  1  0  0  0  0
  7  8  1  0  0  0  0
  7 24  1  0  0  0  0
  7 25  1  0  0  0  0
  8 12  1  0  0  0  0
  8  9  1  0  0  0  0
  9 10  2  0  0  0  0
  9 16  1  0  0  0  0
 10 11  1  0  0  0  0
 11 12  2  0  0  0  0
 11 26  1  0  0  0  0
 12 13  1  0  0  0  0
 13 14  2  0  0  0  0
 13 15  1  0  0  0  0
 16 27  1  0  0  0  0
 16 28  1  0  0  0  0
 16 29  1  0  0  0  0
M  CHG  1  15  -1
M  END
$$$$
