ZINC14961096
 OpenBabel08292219463D

 47 49  0  0  1  0  0  0  0  0999 V2000
    0.9963   -2.0788   -0.1325 C   0  0  0  0  0  0  0  0  0  0  0  0
    1.1043   -0.6183   -0.0931 N   0  0  0  0  0  0  0  0  0  0  0  0
    2.3162   -0.0356   -0.1805 C   0  0  0  0  0  0  0  0  0  0  0  0
    3.3191   -0.7198   -0.2922 O   0  0  0  0  0  0  0  0  0  0  0  0
    2.4169    1.3640   -0.1426 C   0  0  0  0  0  0  0  0  0  0  0  0
    1.2771    2.1085   -0.0171 C   0  0  0  0  0  0  0  0  0  0  0  0
    0.0622    1.4729    0.0683 N   0  0  0  0  0  0  0  0  0  0  0  0
   -0.0073    0.1296    0.0295 C   0  0  0  0  0  0  0  0  0  0  0  0
   -1.0910   -0.4164    0.1059 O   0  0  0  0  0  0  0  0  0  0  0  0
   -1.1653    2.2623    0.1962 C   0  0  0  0  0  0  0  0  0  0  0  0
   -1.6044    2.7328   -1.1665 C   0  0  0  0  0  0  0  0  0  0  0  0
   -1.2163    3.9738   -1.6277 C   0  0  0  0  0  0  0  0  0  0  0  0
   -1.6188    4.4074   -2.8782 C   0  0  0  0  0  0  0  0  0  0  0  0
   -2.4122    3.6008   -3.6750 C   0  0  0  0  0  0  0  0  0  0  0  0
   -2.8071    2.3577   -3.2266 C   0  0  0  0  0  0  0  0  0  0  0  0
   -2.4000    1.9115   -1.9675 C   0  0  0  0  0  0  0  0  0  0  0  0
   -2.8017    0.6197   -1.4976 C   0  0  0  0  0  0  0  0  0  0  0  0
   -3.1203   -0.4050   -1.1249 N   0  0  0  0  0  0  0  0  0  0  0  0
    1.3459    3.4776    0.0222 N   0  0  0  0  0  0  0  0  0  0  0  0
    1.3160    3.9665    1.4066 C   0  0  0  0  0  0  0  0  0  0  0  0
    1.2475    5.4953    1.4077 C   0  0  0  0  0  0  0  0  0  0  0  0
    2.4690    6.0567    0.6748 C   0  0  0  0  0  0  0  0  0  0  0  0
    2.5032    5.4941   -0.7489 C   0  0  2  0  0  0  0  0  0  0  0  0
    1.6143    5.8180   -1.2903 H   0  0  0  0  0  0  0  0  0  0  0  0
    2.5353    3.9653   -0.6875 C   0  0  0  0  0  0  0  0  0  0  0  0
    0.8796   -2.4068   -1.1654 H   0  0  0  0  0  0  0  0  0  0  0  0
    1.8985   -2.5214    0.2896 H   0  0  0  0  0  0  0  0  0  0  0  0
    0.1302   -2.3949    0.4491 H   0  0  0  0  0  0  0  0  0  0  0  0
    3.3809    1.8458   -0.2118 H   0  0  0  0  0  0  0  0  0  0  0  0
   -1.9489    1.6466    0.6379 H   0  0  0  0  0  0  0  0  0  0  0  0
   -0.9775    3.1251    0.8354 H   0  0  0  0  0  0  0  0  0  0  0  0
   -0.5971    4.6084   -1.0110 H   0  0  0  0  0  0  0  0  0  0  0  0
   -1.3122    5.3798   -3.2344 H   0  0  0  0  0  0  0  0  0  0  0  0
   -2.7232    3.9457   -4.6501 H   0  0  0  0  0  0  0  0  0  0  0  0
   -3.4266    1.7293   -3.8493 H   0  0  0  0  0  0  0  0  0  0  0  0
    0.4403    3.5633    1.9153 H   0  0  0  0  0  0  0  0  0  0  0  0
    2.2182    3.6430    1.9256 H   0  0  0  0  0  0  0  0  0  0  0  0
    1.2410    5.8586    2.4354 H   0  0  0  0  0  0  0  0  0  0  0  0
    0.3384    5.8192    0.9009 H   0  0  0  0  0  0  0  0  0  0  0  0
    3.3767    5.7654    1.2034 H   0  0  0  0  0  0  0  0  0  0  0  0
    2.4024    7.1439    0.6354 H   0  0  0  0  0  0  0  0  0  0  0  0
    3.4319    3.6419   -0.1587 H   0  0  0  0  0  0  0  0  0  0  0  0
    2.5452    3.5615   -1.6999 H   0  0  0  0  0  0  0  0  0  0  0  0
    3.7056    6.9901   -1.4938 H   0  0  0  0  0  0  0  0  0  0  0  0
    4.5420    5.6425   -0.9936 H   0  0  0  0  0  0  0  0  0  0  0  0
    3.7002    5.9719   -1.4633 N   0  3  0  0  0  0  0  0  0  0  0  0
    3.6881    5.6080   -2.4233 H   0  0  0  0  0  0  0  0  0  0  0  0
  1  2  1  0  0  0  0
  1 26  1  0  0  0  0
  1 27  1  0  0  0  0
  1 28  1  0  0  0  0
  2  8  1  0  0  0  0
  2  3  1  0  0  0  0
  3  4  2  0  0  0  0
  3  5  1  0  0  0  0
  5  6  2  0  0  0  0
  5 29  1  0  0  0  0
  6  7  1  0  0  0  0
  6 19  1  0  0  0  0
  7  8  1  0  0  0  0
  7 10  1  0  0  0  0
  8  9  2  0  0  0  0
 10 11  1  0  0  0  0
 10 30  1  0  0  0  0
 10 31  1  0  0  0  0
 11 16  2  0  0  0  0
 11 12  1  0  0  0  0
 12 13  2  0  0  0  0
 12 32  1  0  0  0  0
 13 14  1  0  0  0  0
 13 33  1  0  0  0  0
 14 15  2  0  0  0  0
 14 34  1  0  0  0  0
 15 16  1  0  0  0  0
 15 35  1  0  0  0  0
 16 17  1  0  0  0  0
 17 18  3  0  0  0  0
 19 25  1  0  0  0  0
 19 20  1  0  0  0  0
 20 21  1  0  0  0  0
 20 36  1  0  0  0  0
 20 37  1  0  0  0  0
 21 22  1  0  0  0  0
 21 38  1  0  0  0  0
 21 39  1  0  0  0  0
 22 23  1  0  0  0  0
 22 40  1  0  0  0  0
 22 41  1  0  0  0  0
 23 24  1  6  0  0  0
 23 25  1  0  0  0  0
 23 46  1  0  0  0  0
 25 42  1  0  0  0  0
 25 43  1  0  0  0  0
 44 46  1  0  0  0  0
 45 46  1  0  0  0  0
 46 47  1  0  0  0  0
M  CHG  1  46   1
M  END
$$$$
