ZINC00601291
 OpenBabel08292219463D

 43 46  0  0  1  0  0  0  0  0999 V2000
   -2.2190    5.5904    3.1597 C   0  0  0  0  0  0  0  0  0  0  0  0
   -1.0090    5.8258    2.2927 C   0  0  0  0  0  0  0  0  0  0  0  0
    0.1907    6.0583    2.8534 C   0  0  0  0  0  0  0  0  0  0  0  0
    1.3212    6.2006    2.0137 C   0  0  0  0  0  0  0  0  0  0  0  0
    2.3356    6.7259    2.4346 O   0  0  0  0  0  0  0  0  0  0  0  0
    1.2655    5.7457    0.7305 N   0  0  0  0  0  0  0  0  0  0  0  0
    2.5531    5.5794    0.0647 C   0  0  0  0  0  0  0  0  0  0  0  0
    2.7523    6.5887   -1.0061 C   0  0  0  0  0  0  0  0  0  0  0  0
    3.8803    6.9976   -1.1840 O   0  0  0  0  0  0  0  0  0  0  0  0
    1.8089    7.0731   -1.7733 N   0  0  0  0  0  0  0  0  0  0  0  0
    0.5486    6.5894   -2.0720 C   0  0  0  0  0  0  0  0  0  0  0  0
    0.1036    6.9285   -3.3635 C   0  0  0  0  0  0  0  0  0  0  0  0
   -1.1436    6.5679   -3.8119 C   0  0  0  0  0  0  0  0  0  0  0  0
   -1.9629    5.8089   -2.9939 C   0  0  0  0  0  0  0  0  0  0  0  0
   -1.5280    5.4629   -1.7364 C   0  0  0  0  0  0  0  0  0  0  0  0
   -0.2733    5.8569   -1.2540 C   0  0  0  0  0  0  0  0  0  0  0  0
    0.0079    5.3833    0.1420 C   0  0  2  0  0  0  0  0  0  0  0  0
   -1.1212    5.8045    0.9559 O   0  0  0  0  0  0  0  0  0  0  0  0
   -0.0355    3.8774    0.1026 C   0  0  0  0  0  0  0  0  0  0  0  0
   -0.9037    3.1892    0.9293 C   0  0  0  0  0  0  0  0  0  0  0  0
   -0.9439    1.8079    0.8929 C   0  0  0  0  0  0  0  0  0  0  0  0
   -0.1155    1.1148    0.0301 C   0  0  0  0  0  0  0  0  0  0  0  0
    0.7569    1.8029   -0.7924 C   0  0  0  0  0  0  0  0  0  0  0  0
    0.7932    3.1844   -0.7598 C   0  0  0  0  0  0  0  0  0  0  0  0
   -3.5256    5.2980   -3.5512 Cl  0  0  0  0  0  0  0  0  0  0  0  0
    2.1452    8.3409   -2.4257 C   0  0  0  0  0  0  0  0  0  0  0  0
   -1.9302    5.6458    4.2093 H   0  0  0  0  0  0  0  0  0  0  0  0
   -2.9705    6.3513    2.9490 H   0  0  0  0  0  0  0  0  0  0  0  0
   -2.6314    4.6040    2.9478 H   0  0  0  0  0  0  0  0  0  0  0  0
    0.2901    6.1348    3.9261 H   0  0  0  0  0  0  0  0  0  0  0  0
    3.3500    5.6808    0.8015 H   0  0  0  0  0  0  0  0  0  0  0  0
    2.6001    4.5829   -0.3744 H   0  0  0  0  0  0  0  0  0  0  0  0
    0.7429    7.5189   -4.0031 H   0  0  0  0  0  0  0  0  0  0  0  0
   -1.4704    6.8497   -4.8019 H   0  0  0  0  0  0  0  0  0  0  0  0
   -2.1715    4.8705   -1.1029 H   0  0  0  0  0  0  0  0  0  0  0  0
   -1.5510    3.7306    1.6033 H   0  0  0  0  0  0  0  0  0  0  0  0
   -1.6222    1.2701    1.5387 H   0  0  0  0  0  0  0  0  0  0  0  0
   -0.1466    0.0357    0.0019 H   0  0  0  0  0  0  0  0  0  0  0  0
    1.4072    1.2613   -1.4633 H   0  0  0  0  0  0  0  0  0  0  0  0
    1.4718    3.7221   -1.4054 H   0  0  0  0  0  0  0  0  0  0  0  0
    2.6202    8.1406   -3.3861 H   0  0  0  0  0  0  0  0  0  0  0  0
    1.2358    8.9205   -2.5840 H   0  0  0  0  0  0  0  0  0  0  0  0
    2.8299    8.9050   -1.7924 H   0  0  0  0  0  0  0  0  0  0  0  0
  1  2  1  0  0  0  0
  1 27  1  0  0  0  0
  1 28  1  0  0  0  0
  1 29  1  0  0  0  0
  2 18  1  0  0  0  0
  2  3  2  0  0  0  0
  3  4  1  0  0  0  0
  3 30  1  0  0  0  0
  4  5  2  0  0  0  0
  4  6  1  0  0  0  0
  6 17  1  0  0  0  0
  6  7  1  0  0  0  0
  7  8  1  0  0  0  0
  7 31  1  0  0  0  0
  7 32  1  0  0  0  0
  8  9  2  0  0  0  0
  8 10  1  0  0  0  0
 10 11  1  0  0  0  0
 10 26  1  0  0  0  0
 11 16  2  0  0  0  0
 11 12  1  0  0  0  0
 12 13  2  0  0  0  0
 12 33  1  0  0  0  0
 13 14  1  0  0  0  0
 13 34  1  0  0  0  0
 14 15  2  0  0  0  0
 14 25  1  0  0  0  0
 15 16  1  0  0  0  0
 15 35  1  0  0  0  0
 16 17  1  0  0  0  0
 17 18  1  0  0  0  0
 17 19  1  6  0  0  0
 19 24  2  0  0  0  0
 19 20  1  0  0  0  0
 20 21  2  0  0  0  0
 20 36  1  0  0  0  0
 21 22  1  0  0  0  0
 21 37  1  0  0  0  0
 22 23  2  0  0  0  0
 22 38  1  0  0  0  0
 23 24  1  0  0  0  0
 23 39  1  0  0  0  0
 24 40  1  0  0  0  0
 26 41  1  0  0  0  0
 26 42  1  0  0  0  0
 26 43  1  0  0  0  0
M  END
$$$$
