ZINC03833821
 OpenBabel08292219463D

 54 57  0  0  1  0  0  0  0  0999 V2000
   -0.7520    1.6588   -0.1667 C   0  0  0  0  0  0  0  0  0  0  0  0
   -0.9770    0.1457   -0.1413 C   0  0  2  0  0  0  0  0  0  0  0  0
   -2.2972   -0.1663    0.5373 C   0  0  0  0  0  0  0  0  0  0  0  0
   -2.2689    0.5080    1.9180 C   0  0  1  0  0  0  0  0  0  0  0  0
   -3.1924    0.2731    2.4472 H   0  0  0  0  0  0  0  0  0  0  0  0
   -1.0827    0.0350    2.7533 C   0  0  1  0  0  0  0  0  0  0  0  0
   -1.2058   -1.0229    2.9849 H   0  0  0  0  0  0  0  0  0  0  0  0
    0.2486    0.2394    2.0127 C   0  0  2  0  0  0  0  0  0  0  0  0
    0.4066    1.3018    1.8270 H   0  0  0  0  0  0  0  0  0  0  0  0
    0.1391   -0.5386    0.6930 C   0  0  2  0  0  0  0  0  0  0  0  0
   -0.1092   -1.5841    0.8759 H   0  0  0  0  0  0  0  0  0  0  0  0
    1.3459   -0.4177   -0.2439 C   0  0  0  0  0  0  0  0  0  0  0  0
    0.7399   -0.7462   -1.6357 C   0  0  0  0  0  0  0  0  0  0  0  0
   -0.7736   -0.4308   -1.5386 C   0  0  2  0  0  0  0  0  0  0  0  0
   -1.1639    0.5826   -2.5834 C   0  0  0  0  0  0  0  0  0  0  0  0
   -0.3311    1.3258   -3.0444 O   0  0  0  0  0  0  0  0  0  0  0  0
   -2.5933    0.6686   -3.0529 C   0  0  0  0  0  0  0  0  0  0  0  0
   -2.7101    1.6977   -4.0376 O   0  0  0  0  0  0  0  0  0  0  0  0
   -1.5397   -1.6267   -1.6970 O   0  0  0  0  0  0  0  0  0  0  0  0
    1.3968   -0.3125    2.8596 C   0  0  0  0  0  0  0  0  0  0  0  0
    1.5075    0.4888    4.1606 C   0  0  0  0  0  0  0  0  0  0  0  0
    0.1584    0.4521    4.8538 C   0  0  0  0  0  0  0  0  0  0  0  0
    0.1019    0.0895    6.1279 C   0  0  0  0  0  0  0  0  0  0  0  0
   -1.1894    0.0201    6.8291 C   0  0  0  0  0  0  0  0  0  0  0  0
   -1.2417   -0.2722    8.0092 O   0  0  0  0  0  0  0  0  0  0  0  0
   -2.4174    0.3120    6.0704 C   0  0  0  0  0  0  0  0  0  0  0  0
   -2.3362    0.6803    4.8015 C   0  0  0  0  0  0  0  0  0  0  0  0
   -1.0322    0.8343    4.0586 C   0  0  2  0  0  0  0  0  0  0  0  0
   -0.8801    2.3122    3.6932 C   0  0  0  0  0  0  0  0  0  0  0  0
   -2.1793    1.9234    1.7436 O   0  0  0  0  0  0  0  0  0  0  0  0
    0.1094    1.8876   -0.7941 H   0  0  0  0  0  0  0  0  0  0  0  0
   -1.6367    2.1510   -0.5706 H   0  0  0  0  0  0  0  0  0  0  0  0
   -0.5684    2.0159    0.8467 H   0  0  0  0  0  0  0  0  0  0  0  0
   -3.1217    0.2324   -0.0537 H   0  0  0  0  0  0  0  0  0  0  0  0
   -2.4094   -1.2444    0.6529 H   0  0  0  0  0  0  0  0  0  0  0  0
    1.7470    0.5957   -0.2274 H   0  0  0  0  0  0  0  0  0  0  0  0
    2.1152   -1.1425    0.0225 H   0  0  0  0  0  0  0  0  0  0  0  0
    1.2032   -0.1244   -2.4017 H   0  0  0  0  0  0  0  0  0  0  0  0
    0.8881   -1.8006   -1.8689 H   0  0  0  0  0  0  0  0  0  0  0  0
   -2.8910   -0.2856   -3.4876 H   0  0  0  0  0  0  0  0  0  0  0  0
   -3.2403    0.9002   -2.2069 H   0  0  0  0  0  0  0  0  0  0  0  0
   -3.6054    1.8095   -4.3853 H   0  0  0  0  0  0  0  0  0  0  0  0
   -1.4500   -2.0388   -2.5672 H   0  0  0  0  0  0  0  0  0  0  0  0
    1.2044   -1.3596    3.0935 H   0  0  0  0  0  0  0  0  0  0  0  0
    2.3302   -0.2310    2.3027 H   0  0  0  0  0  0  0  0  0  0  0  0
    2.2645    0.0418    4.8049 H   0  0  0  0  0  0  0  0  0  0  0  0
    1.7776    1.5206    3.9355 H   0  0  0  0  0  0  0  0  0  0  0  0
    1.0116   -0.1573    6.6552 H   0  0  0  0  0  0  0  0  0  0  0  0
   -3.3822    0.2255    6.5481 H   0  0  0  0  0  0  0  0  0  0  0  0
   -3.2561    0.8801    4.2721 H   0  0  0  0  0  0  0  0  0  0  0  0
   -1.8492    2.7154    3.3993 H   0  0  0  0  0  0  0  0  0  0  0  0
   -0.5039    2.8628    4.5554 H   0  0  0  0  0  0  0  0  0  0  0  0
   -0.1789    2.4114    2.8646 H   0  0  0  0  0  0  0  0  0  0  0  0
   -2.9172    2.3063    1.2496 H   0  0  0  0  0  0  0  0  0  0  0  0
  1 31  1  0  0  0  0
  1 32  1  0  0  0  0
  1 33  1  0  0  0  0
  2  1  1  6  0  0  0
  2 10  1  0  0  0  0
  2 14  1  0  0  0  0
  2  3  1  0  0  0  0
  3  4  1  0  0  0  0
  3 34  1  0  0  0  0
  3 35  1  0  0  0  0
  4  5  1  1  0  0  0
  4  6  1  0  0  0  0
  4 30  1  0  0  0  0
  6  7  1  1  0  0  0
  6 28  1  0  0  0  0
  6  8  1  0  0  0  0
  8  9  1  6  0  0  0
  8 10  1  0  0  0  0
  8 20  1  0  0  0  0
 10 11  1  1  0  0  0
 10 12  1  0  0  0  0
 12 13  1  0  0  0  0
 12 36  1  0  0  0  0
 12 37  1  0  0  0  0
 13 14  1  0  0  0  0
 13 38  1  0  0  0  0
 13 39  1  0  0  0  0
 14 15  1  6  0  0  0
 14 19  1  0  0  0  0
 15 16  2  0  0  0  0
 15 17  1  0  0  0  0
 17 18  1  0  0  0  0
 17 40  1  0  0  0  0
 17 41  1  0  0  0  0
 18 42  1  0  0  0  0
 19 43  1  0  0  0  0
 20 21  1  0  0  0  0
 20 44  1  0  0  0  0
 20 45  1  0  0  0  0
 21 22  1  0  0  0  0
 21 46  1  0  0  0  0
 21 47  1  0  0  0  0
 22 28  1  0  0  0  0
 22 23  2  0  0  0  0
 23 24  1  0  0  0  0
 23 48  1  0  0  0  0
 24 25  2  0  0  0  0
 24 26  1  0  0  0  0
 26 27  2  0  0  0  0
 26 49  1  0  0  0  0
 27 28  1  0  0  0  0
 27 50  1  0  0  0  0
 28 29  1  6  0  0  0
 29 51  1  0  0  0  0
 29 52  1  0  0  0  0
 29 53  1  0  0  0  0
 30 54  1  0  0  0  0
M  END
$$$$
