ZINC00001898
 OpenBabel08292219463D

 51 52  0  0  1  0  0  0  0  0999 V2000
   -0.0187    1.5258    0.0104 C   0  0  0  0  0  0  0  0  0  0  0  0
    0.0021   -0.0041    0.0020 C   0  0  0  0  0  0  0  0  0  0  0  0
    0.7421   -0.5109    1.2415 C   0  0  0  0  0  0  0  0  0  0  0  0
   -1.4333   -0.5336    0.0129 C   0  0  0  0  0  0  0  0  0  0  0  0
    0.6897   -0.4778   -1.2066 N   0  3  0  0  0  0  0  0  0  0  0  0
    2.0678    0.0307   -1.2170 C   0  0  0  0  0  0  0  0  0  0  0  0
    2.7840   -0.4628   -2.4758 C   0  0  1  0  0  0  0  0  0  0  0  0
    2.2568   -0.1017   -3.3589 H   0  0  0  0  0  0  0  0  0  0  0  0
    4.2193    0.0668   -2.4867 C   0  0  0  0  0  0  0  0  0  0  0  0
    4.8516   -0.2959   -3.7158 O   0  0  0  0  0  0  0  0  0  0  0  0
    6.1401    0.1007   -3.8874 C   0  0  0  0  0  0  0  0  0  0  0  0
    6.7846    0.8193   -2.8906 C   0  0  0  0  0  0  0  0  0  0  0  0
    8.0943    1.2208   -3.0672 C   0  0  0  0  0  0  0  0  0  0  0  0
    8.7632    0.9072   -4.2362 C   0  0  0  0  0  0  0  0  0  0  0  0
    8.1232    0.1917   -5.2310 C   0  0  0  0  0  0  0  0  0  0  0  0
    6.8150   -0.2172   -5.0568 C   0  0  0  0  0  0  0  0  0  0  0  0
    6.1198   -1.0024   -6.1390 C   0  0  0  0  0  0  0  0  0  0  0  0
    6.9137   -2.2875   -6.4523 C   0  0  0  0  0  0  0  0  0  0  0  0
    6.7713   -2.4578   -7.9852 C   0  0  0  0  0  0  0  0  0  0  0  0
    6.8483   -0.9989   -8.4998 C   0  0  0  0  0  0  0  0  0  0  0  0
    6.0783   -0.1831   -7.4408 C   0  0  0  0  0  0  0  0  0  0  0  0
    2.8033   -1.8916   -2.4837 O   0  0  0  0  0  0  0  0  0  0  0  0
    1.0039    1.9031    0.0027 H   0  0  0  0  0  0  0  0  0  0  0  0
   -0.5459    1.8868   -0.8726 H   0  0  0  0  0  0  0  0  0  0  0  0
   -0.5289    1.8773    0.9072 H   0  0  0  0  0  0  0  0  0  0  0  0
    0.2319   -0.1594    2.1383 H   0  0  0  0  0  0  0  0  0  0  0  0
    0.7568   -1.6008    1.2356 H   0  0  0  0  0  0  0  0  0  0  0  0
    1.7647   -0.1336    1.2338 H   0  0  0  0  0  0  0  0  0  0  0  0
   -1.9605   -0.1726   -0.8702 H   0  0  0  0  0  0  0  0  0  0  0  0
   -1.4185   -1.6235    0.0069 H   0  0  0  0  0  0  0  0  0  0  0  0
   -1.9435   -0.1821    0.9097 H   0  0  0  0  0  0  0  0  0  0  0  0
    0.7033   -1.4867   -1.2121 H   0  0  0  0  0  0  0  0  0  0  0  0
    2.0530    1.1205   -1.2110 H   0  0  0  0  0  0  0  0  0  0  0  0
    2.5950   -0.3304   -0.3340 H   0  0  0  0  0  0  0  0  0  0  0  0
    4.2068    1.1525   -2.3912 H   0  0  0  0  0  0  0  0  0  0  0  0
    4.7722   -0.3649   -1.6524 H   0  0  0  0  0  0  0  0  0  0  0  0
    6.2625    1.0647   -1.9776 H   0  0  0  0  0  0  0  0  0  0  0  0
    8.5963    1.7804   -2.2918 H   0  0  0  0  0  0  0  0  0  0  0  0
    9.7873    1.2221   -4.3724 H   0  0  0  0  0  0  0  0  0  0  0  0
    8.6476   -0.0516   -6.1432 H   0  0  0  0  0  0  0  0  0  0  0  0
    5.1073   -1.2555   -5.8246 H   0  0  0  0  0  0  0  0  0  0  0  0
    7.9614   -2.1652   -6.1777 H   0  0  0  0  0  0  0  0  0  0  0  0
    6.4791   -3.1409   -5.9317 H   0  0  0  0  0  0  0  0  0  0  0  0
    7.5923   -3.0525   -8.3857 H   0  0  0  0  0  0  0  0  0  0  0  0
    5.8099   -2.9058   -8.2364 H   0  0  0  0  0  0  0  0  0  0  0  0
    7.8855   -0.6684   -8.5559 H   0  0  0  0  0  0  0  0  0  0  0  0
    6.3660   -0.9118   -9.4734 H   0  0  0  0  0  0  0  0  0  0  0  0
    5.0456   -0.0393   -7.7587 H   0  0  0  0  0  0  0  0  0  0  0  0
    6.5609    0.7825   -7.2899 H   0  0  0  0  0  0  0  0  0  0  0  0
    3.2576   -2.2830   -1.7250 H   0  0  0  0  0  0  0  0  0  0  0  0
    0.2017   -0.1436   -2.0240 H   0  0  0  0  0  0  0  0  0  0  0  0
  1  2  1  0  0  0  0
  1 23  1  0  0  0  0
  1 24  1  0  0  0  0
  1 25  1  0  0  0  0
  2  3  1  0  0  0  0
  2  4  1  0  0  0  0
  2  5  1  0  0  0  0
  3 26  1  0  0  0  0
  3 27  1  0  0  0  0
  3 28  1  0  0  0  0
  4 29  1  0  0  0  0
  4 30  1  0  0  0  0
  4 31  1  0  0  0  0
  5  6  1  0  0  0  0
  5 32  1  0  0  0  0
  5 51  1  0  0  0  0
  6  7  1  0  0  0  0
  6 33  1  0  0  0  0
  6 34  1  0  0  0  0
  7  8  1  6  0  0  0
  7  9  1  0  0  0  0
  7 22  1  0  0  0  0
  9 10  1  0  0  0  0
  9 35  1  0  0  0  0
  9 36  1  0  0  0  0
 10 11  1  0  0  0  0
 11 16  2  0  0  0  0
 11 12  1  0  0  0  0
 12 13  2  0  0  0  0
 12 37  1  0  0  0  0
 13 14  1  0  0  0  0
 13 38  1  0  0  0  0
 14 15  2  0  0  0  0
 14 39  1  0  0  0  0
 15 16  1  0  0  0  0
 15 40  1  0  0  0  0
 16 17  1  0  0  0  0
 17 21  1  0  0  0  0
 17 18  1  0  0  0  0
 17 41  1  0  0  0  0
 18 19  1  0  0  0  0
 18 42  1  0  0  0  0
 18 43  1  0  0  0  0
 19 20  1  0  0  0  0
 19 44  1  0  0  0  0
 19 45  1  0  0  0  0
 20 21  1  0  0  0  0
 20 46  1  0  0  0  0
 20 47  1  0  0  0  0
 21 48  1  0  0  0  0
 21 49  1  0  0  0  0
 22 50  1  0  0  0  0
M  CHG  1   5   1
M  END
$$$$
