ZINC03938744
 OpenBabel08292219463D

 73 76  0  0  1  0  0  0  0  0999 V2000
   -5.3164    0.2681   -2.0452 C   0  0  0  0  0  0  0  0  0  0  0  0
   -4.2598   -0.7334   -1.5749 C   0  0  0  0  0  0  0  0  0  0  0  0
   -3.3408   -1.0695   -2.7211 C   0  0  0  0  0  0  0  0  0  0  0  0
   -3.5133   -0.5601   -3.8031 O   0  0  0  0  0  0  0  0  0  0  0  0
   -2.3306   -1.9346   -2.5400 O   0  0  0  0  0  0  0  0  0  0  0  0
   -1.4991   -2.2068   -3.6698 C   0  0  0  0  0  0  0  0  0  0  0  0
   -0.4280   -3.1924   -3.2794 C   0  0  0  0  0  0  0  0  0  0  0  0
   -0.3169   -3.5388   -2.1279 O   0  0  0  0  0  0  0  0  0  0  0  0
    0.5045   -3.7456   -4.3260 C   0  0  1  0  0  0  0  0  0  0  0  0
    1.9781   -3.5074   -3.9119 C   0  0  2  0  0  0  0  0  0  0  0  0
    2.4756   -2.8745   -4.6468 H   0  0  0  0  0  0  0  0  0  0  0  0
    2.6525   -4.9058   -3.8689 C   0  0  0  0  0  0  0  0  0  0  0  0
    1.7768   -5.7383   -4.8119 C   0  0  2  0  0  0  0  0  0  0  0  0
    1.9919   -5.4863   -5.8503 H   0  0  0  0  0  0  0  0  0  0  0  0
    0.3523   -5.2603   -4.4219 C   0  0  2  0  0  0  0  0  0  0  0  0
   -0.5998   -5.7781   -5.4828 C   0  0  0  0  0  0  0  0  0  0  0  0
   -0.5851   -7.3125   -5.3957 C   0  0  1  0  0  0  0  0  0  0  0  0
   -1.2351   -7.7190   -6.1705 H   0  0  0  0  0  0  0  0  0  0  0  0
    0.8215   -7.8737   -5.5812 C   0  0  1  0  0  0  0  0  0  0  0  0
    1.8344   -7.2417   -4.6114 C   0  0  1  0  0  0  0  0  0  0  0  0
    1.5527   -7.4873   -3.5875 H   0  0  0  0  0  0  0  0  0  0  0  0
    3.2440   -7.7530   -4.9154 C   0  0  0  0  0  0  0  0  0  0  0  0
    3.3080   -9.2646   -4.6749 C   0  0  0  0  0  0  0  0  0  0  0  0
    2.2210   -9.9215   -5.5047 C   0  0  0  0  0  0  0  0  0  0  0  0
    2.5423  -10.9312   -6.3015 C   0  0  0  0  0  0  0  0  0  0  0  0
    1.5195  -11.5799   -7.1366 C   0  0  0  0  0  0  0  0  0  0  0  0
    1.8023  -12.5321   -7.8395 O   0  0  0  0  0  0  0  0  0  0  0  0
    0.1455  -11.0509   -7.1021 C   0  0  0  0  0  0  0  0  0  0  0  0
   -0.1542  -10.0463   -6.2938 C   0  0  0  0  0  0  0  0  0  0  0  0
    0.7963   -9.3884   -5.3570 C   0  0  2  0  0  0  0  0  0  0  0  0
    0.3098   -9.6400   -3.9284 C   0  0  0  0  0  0  0  0  0  0  0  0
    1.3798   -7.5321   -7.2612 Cl  0  0  0  0  0  0  0  0  0  0  0  0
   -1.0797   -7.7116   -4.1158 O   0  0  0  0  0  0  0  0  0  0  0  0
   -0.0299   -5.8306   -3.0546 C   0  0  0  0  0  0  0  0  0  0  0  0
    2.0360   -2.8524   -2.5304 C   0  0  0  0  0  0  0  0  0  0  0  0
    0.2403   -3.1403   -5.5932 O   0  0  0  0  0  0  0  0  0  0  0  0
    0.4807   -1.8242   -5.7018 C   0  0  0  0  0  0  0  0  0  0  0  0
    0.9876   -1.2248   -4.7833 O   0  0  0  0  0  0  0  0  0  0  0  0
    0.1183   -1.0941   -6.9694 C   0  0  0  0  0  0  0  0  0  0  0  0
    0.4942    0.3827   -6.8326 C   0  0  0  0  0  0  0  0  0  0  0  0
   -4.8258    1.1762   -2.3958 H   0  0  0  0  0  0  0  0  0  0  0  0
   -5.8952   -0.1694   -2.8587 H   0  0  0  0  0  0  0  0  0  0  0  0
   -5.9811    0.5112   -1.2162 H   0  0  0  0  0  0  0  0  0  0  0  0
   -3.6810   -0.2959   -0.7614 H   0  0  0  0  0  0  0  0  0  0  0  0
   -4.7504   -1.6415   -1.2243 H   0  0  0  0  0  0  0  0  0  0  0  0
   -2.1040   -2.6269   -4.4733 H   0  0  0  0  0  0  0  0  0  0  0  0
   -1.0347   -1.2814   -4.0104 H   0  0  0  0  0  0  0  0  0  0  0  0
    3.6759   -4.8519   -4.2400 H   0  0  0  0  0  0  0  0  0  0  0  0
    2.6284   -5.3146   -2.8587 H   0  0  0  0  0  0  0  0  0  0  0  0
   -1.6062   -5.4051   -5.2924 H   0  0  0  0  0  0  0  0  0  0  0  0
   -0.2651   -5.4590   -6.4698 H   0  0  0  0  0  0  0  0  0  0  0  0
    3.4902   -7.5406   -5.9558 H   0  0  0  0  0  0  0  0  0  0  0  0
    3.9599   -7.2515   -4.2643 H   0  0  0  0  0  0  0  0  0  0  0  0
    4.2833   -9.6446   -4.9790 H   0  0  0  0  0  0  0  0  0  0  0  0
    3.1431   -9.4764   -3.6185 H   0  0  0  0  0  0  0  0  0  0  0  0
    3.5636  -11.2803   -6.3380 H   0  0  0  0  0  0  0  0  0  0  0  0
   -0.6162  -11.4820   -7.7348 H   0  0  0  0  0  0  0  0  0  0  0  0
   -1.1694   -9.6778   -6.2983 H   0  0  0  0  0  0  0  0  0  0  0  0
   -0.7740   -9.5305   -3.8891 H   0  0  0  0  0  0  0  0  0  0  0  0
    0.5842  -10.6498   -3.6236 H   0  0  0  0  0  0  0  0  0  0  0  0
    0.7725   -8.9187   -3.2547 H   0  0  0  0  0  0  0  0  0  0  0  0
   -1.9840   -7.4204   -3.9353 H   0  0  0  0  0  0  0  0  0  0  0  0
   -1.0851   -5.6365   -2.8620 H   0  0  0  0  0  0  0  0  0  0  0  0
    0.1491   -6.9058   -3.0464 H   0  0  0  0  0  0  0  0  0  0  0  0
    0.5739   -5.3559   -2.2812 H   0  0  0  0  0  0  0  0  0  0  0  0
    1.5596   -3.5049   -1.7987 H   0  0  0  0  0  0  0  0  0  0  0  0
    3.0763   -2.6893   -2.2489 H   0  0  0  0  0  0  0  0  0  0  0  0
    1.5133   -1.8963   -2.5594 H   0  0  0  0  0  0  0  0  0  0  0  0
    0.6606   -1.5309   -7.8080 H   0  0  0  0  0  0  0  0  0  0  0  0
   -0.9539   -1.1813   -7.1450 H   0  0  0  0  0  0  0  0  0  0  0  0
   -0.0481    0.8195   -5.9940 H   0  0  0  0  0  0  0  0  0  0  0  0
    1.5664    0.4699   -6.6569 H   0  0  0  0  0  0  0  0  0  0  0  0
    0.2321    0.9108   -7.7494 H   0  0  0  0  0  0  0  0  0  0  0  0
  1  2  1  0  0  0  0
  1 41  1  0  0  0  0
  1 42  1  0  0  0  0
  1 43  1  0  0  0  0
  2  3  1  0  0  0  0
  2 44  1  0  0  0  0
  2 45  1  0  0  0  0
  3  4  2  0  0  0  0
  3  5  1  0  0  0  0
  5  6  1  0  0  0  0
  6  7  1  0  0  0  0
  6 46  1  0  0  0  0
  6 47  1  0  0  0  0
  7  8  2  0  0  0  0
  9  7  1  1  0  0  0
  9 15  1  0  0  0  0
  9 10  1  0  0  0  0
  9 36  1  0  0  0  0
 10 11  1  6  0  0  0
 10 12  1  0  0  0  0
 10 35  1  0  0  0  0
 12 13  1  0  0  0  0
 12 48  1  0  0  0  0
 12 49  1  0  0  0  0
 13 14  1  6  0  0  0
 13 20  1  0  0  0  0
 13 15  1  0  0  0  0
 15 16  1  0  0  0  0
 15 34  1  1  0  0  0
 16 17  1  0  0  0  0
 16 50  1  0  0  0  0
 16 51  1  0  0  0  0
 17 18  1  6  0  0  0
 17 19  1  0  0  0  0
 17 33  1  0  0  0  0
 19 30  1  0  0  0  0
 19 20  1  0  0  0  0
 19 32  1  6  0  0  0
 20 21  1  1  0  0  0
 20 22  1  0  0  0  0
 22 23  1  0  0  0  0
 22 52  1  0  0  0  0
 22 53  1  0  0  0  0
 23 24  1  0  0  0  0
 23 54  1  0  0  0  0
 23 55  1  0  0  0  0
 24 30  1  0  0  0  0
 24 25  2  0  0  0  0
 25 26  1  0  0  0  0
 25 56  1  0  0  0  0
 26 27  2  0  0  0  0
 26 28  1  0  0  0  0
 28 29  2  0  0  0  0
 28 57  1  0  0  0  0
 29 30  1  0  0  0  0
 29 58  1  0  0  0  0
 30 31  1  1  0  0  0
 31 59  1  0  0  0  0
 31 60  1  0  0  0  0
 31 61  1  0  0  0  0
 33 62  1  0  0  0  0
 34 63  1  0  0  0  0
 34 64  1  0  0  0  0
 34 65  1  0  0  0  0
 35 66  1  0  0  0  0
 35 67  1  0  0  0  0
 35 68  1  0  0  0  0
 36 37  1  0  0  0  0
 37 38  2  0  0  0  0
 37 39  1  0  0  0  0
 39 40  1  0  0  0  0
 39 69  1  0  0  0  0
 39 70  1  0  0  0  0
 40 71  1  0  0  0  0
 40 72  1  0  0  0  0
 40 73  1  0  0  0  0
M  END
$$$$
