ZINC40164432
 OpenBabel08292219463D

 98 99  0  0  1  0  0  0  0  0999 V2000
   -1.9562   -1.4966    2.1293 C   0  0  0  0  0  0  0  0  0  0  0  0
   -0.9286   -1.4525    1.0279 C   0  0  0  0  0  0  0  0  0  0  0  0
   -1.1939   -0.7252   -0.0443 C   0  0  0  0  0  0  0  0  0  0  0  0
   -0.2573   -0.5863   -1.2091 C   0  0  0  0  0  0  0  0  0  0  0  0
    0.7942   -1.6972   -1.1746 C   0  0  0  0  0  0  0  0  0  0  0  0
    1.4068   -1.7451    0.2305 C   0  0  1  0  0  0  0  0  0  0  0  0
    1.7382   -0.7477    0.5196 H   0  0  0  0  0  0  0  0  0  0  0  0
    0.3411   -2.2318    1.2123 C   0  0  0  0  0  0  0  0  0  0  0  0
    2.5194   -2.6417    0.2387 O   0  0  0  0  0  0  0  0  0  0  0  0
   -1.0521   -0.6805   -2.5130 C   0  0  0  0  0  0  0  0  0  0  0  0
    0.4395    0.7740   -1.1402 C   0  0  0  0  0  0  0  0  0  0  0  0
   -2.4329   -0.0384   -0.0968 C   0  0  0  0  0  0  0  0  0  0  0  0
   -3.5975   -0.7268    0.0338 C   0  0  0  0  0  0  0  0  0  0  0  0
   -4.8193   -0.0347    0.1010 C   0  0  0  0  0  0  0  0  0  0  0  0
   -5.9889   -0.7260    0.2321 C   0  0  0  0  0  0  0  0  0  0  0  0
   -7.2072   -0.0360    0.2991 C   0  0  0  0  0  0  0  0  0  0  0  0
   -8.3870   -0.7334    0.4313 C   0  0  0  0  0  0  0  0  0  0  0  0
   -9.6039   -0.0442    0.4982 C   0  0  0  0  0  0  0  0  0  0  0  0
  -10.7846   -0.7421    0.6306 C   0  0  0  0  0  0  0  0  0  0  0  0
  -12.0010   -0.0531    0.6975 C   0  0  0  0  0  0  0  0  0  0  0  0
  -13.1817   -0.7510    0.8298 C   0  0  0  0  0  0  0  0  0  0  0  0
  -14.3985   -0.0618    0.8967 C   0  0  0  0  0  0  0  0  0  0  0  0
  -15.5784   -0.7592    1.0290 C   0  0  0  0  0  0  0  0  0  0  0  0
  -15.5599   -2.2644    1.1017 C   0  0  0  0  0  0  0  0  0  0  0  0
  -16.7967   -0.0692    1.0960 C   0  0  0  0  0  0  0  0  0  0  0  0
  -17.9663   -0.7605    1.2271 C   0  0  0  0  0  0  0  0  0  0  0  0
  -19.1881   -0.0685    1.2943 C   0  0  0  0  0  0  0  0  0  0  0  0
  -20.3526   -0.7568    1.4248 C   0  0  0  0  0  0  0  0  0  0  0  0
  -20.3342   -2.2619    1.4976 C   0  0  0  0  0  0  0  0  0  0  0  0
  -21.5847   -0.0590    1.4925 C   0  0  0  0  0  0  0  0  0  0  0  0
  -22.7300   -0.7359    1.6209 C   0  0  0  0  0  0  0  0  0  0  0  0
  -24.0398    0.0060    1.6929 C   0  0  2  0  0  0  0  0  0  0  0  0
  -23.8523    1.0775    1.6245 H   0  0  0  0  0  0  0  0  0  0  0  0
  -24.7129   -0.2988    2.9991 C   0  0  0  0  0  0  0  0  0  0  0  0
  -25.7085   -1.1159    3.1286 C   0  0  0  0  0  0  0  0  0  0  0  0
  -26.3349   -1.8652    1.9892 C   0  0  1  0  0  0  0  0  0  0  0  0
  -27.2763   -1.3879    1.7169 H   0  0  0  0  0  0  0  0  0  0  0  0
  -25.3977   -1.8651    0.7796 C   0  0  0  0  0  0  0  0  0  0  0  0
  -24.9332   -0.4280    0.5289 C   0  0  0  0  0  0  0  0  0  0  0  0
  -26.1481    0.4977    0.4401 C   0  0  0  0  0  0  0  0  0  0  0  0
  -24.1398   -0.3691   -0.7781 C   0  0  0  0  0  0  0  0  0  0  0  0
  -26.5862   -3.2136    2.3903 O   0  0  0  0  0  0  0  0  0  0  0  0
  -24.1975    0.3887    4.2371 C   0  0  0  0  0  0  0  0  0  0  0  0
   -9.6223    1.4609    0.4255 C   0  0  0  0  0  0  0  0  0  0  0  0
   -4.8378    1.4704    0.0282 C   0  0  0  0  0  0  0  0  0  0  0  0
   -1.5549   -2.0494    2.9787 H   0  0  0  0  0  0  0  0  0  0  0  0
   -2.2000   -0.4805    2.4396 H   0  0  0  0  0  0  0  0  0  0  0  0
   -2.8569   -1.9916    1.7663 H   0  0  0  0  0  0  0  0  0  0  0  0
    0.3237   -2.6539   -1.4016 H   0  0  0  0  0  0  0  0  0  0  0  0
    1.5736   -1.4864   -1.9068 H   0  0  0  0  0  0  0  0  0  0  0  0
    0.7005   -2.1006    2.2330 H   0  0  0  0  0  0  0  0  0  0  0  0
    0.1454   -3.2890    1.0333 H   0  0  0  0  0  0  0  0  0  0  0  0
    2.9550   -2.7201    1.0985 H   0  0  0  0  0  0  0  0  0  0  0  0
   -1.7238    0.1743   -2.5917 H   0  0  0  0  0  0  0  0  0  0  0  0
   -0.3642   -0.6811   -3.3586 H   0  0  0  0  0  0  0  0  0  0  0  0
   -1.6345   -1.6019   -2.5178 H   0  0  0  0  0  0  0  0  0  0  0  0
    1.0022    0.8473   -0.2095 H   0  0  0  0  0  0  0  0  0  0  0  0
    1.1202    0.8768   -1.9853 H   0  0  0  0  0  0  0  0  0  0  0  0
   -0.3073    1.5671   -1.1766 H   0  0  0  0  0  0  0  0  0  0  0  0
   -2.4514    1.0318   -0.2405 H   0  0  0  0  0  0  0  0  0  0  0  0
   -3.5842   -1.8054    0.0859 H   0  0  0  0  0  0  0  0  0  0  0  0
   -5.9757   -1.8047    0.2842 H   0  0  0  0  0  0  0  0  0  0  0  0
   -7.2204    1.0427    0.2469 H   0  0  0  0  0  0  0  0  0  0  0  0
   -8.3738   -1.8121    0.4835 H   0  0  0  0  0  0  0  0  0  0  0  0
  -10.7714   -1.8208    0.6827 H   0  0  0  0  0  0  0  0  0  0  0  0
  -12.0142    1.0255    0.6453 H   0  0  0  0  0  0  0  0  0  0  0  0
  -13.1685   -1.8297    0.8820 H   0  0  0  0  0  0  0  0  0  0  0  0
  -14.4118    1.0168    0.8446 H   0  0  0  0  0  0  0  0  0  0  0  0
  -15.4706   -2.5768    2.1422 H   0  0  0  0  0  0  0  0  0  0  0  0
  -16.4848   -2.6598    0.6817 H   0  0  0  0  0  0  0  0  0  0  0  0
  -14.7110   -2.6452    0.5339 H   0  0  0  0  0  0  0  0  0  0  0  0
  -16.8099    1.0095    1.0438 H   0  0  0  0  0  0  0  0  0  0  0  0
  -17.9530   -1.8392    1.2792 H   0  0  0  0  0  0  0  0  0  0  0  0
  -19.2013    1.0102    1.2421 H   0  0  0  0  0  0  0  0  0  0  0  0
  -20.2449   -2.5743    2.5380 H   0  0  0  0  0  0  0  0  0  0  0  0
  -21.2590   -2.6574    1.0775 H   0  0  0  0  0  0  0  0  0  0  0  0
  -19.4853   -2.6428    0.9297 H   0  0  0  0  0  0  0  0  0  0  0  0
  -21.5980    1.0197    1.4404 H   0  0  0  0  0  0  0  0  0  0  0  0
  -22.7168   -1.8146    1.6731 H   0  0  0  0  0  0  0  0  0  0  0  0
  -26.1133   -1.2681    4.1182 H   0  0  0  0  0  0  0  0  0  0  0  0
  -24.5348   -2.4987    0.9847 H   0  0  0  0  0  0  0  0  0  0  0  0
  -25.9295   -2.2373   -0.0960 H   0  0  0  0  0  0  0  0  0  0  0  0
  -25.8133    1.5220    0.2768 H   0  0  0  0  0  0  0  0  0  0  0  0
  -26.7825    0.1861   -0.3897 H   0  0  0  0  0  0  0  0  0  0  0  0
  -26.7142    0.4443    1.3701 H   0  0  0  0  0  0  0  0  0  0  0  0
  -23.2812   -1.0374   -0.7123 H   0  0  0  0  0  0  0  0  0  0  0  0
  -24.7787   -0.6787   -1.6052 H   0  0  0  0  0  0  0  0  0  0  0  0
  -23.7944    0.6507   -0.9478 H   0  0  0  0  0  0  0  0  0  0  0  0
  -27.1818   -3.2941    3.1479 H   0  0  0  0  0  0  0  0  0  0  0  0
  -24.7293    1.3296    4.3782 H   0  0  0  0  0  0  0  0  0  0  0  0
  -24.3587   -0.2533    5.1030 H   0  0  0  0  0  0  0  0  0  0  0  0
  -23.1315    0.5871    4.1253 H   0  0  0  0  0  0  0  0  0  0  0  0
   -9.7116    1.7733   -0.6150 H   0  0  0  0  0  0  0  0  0  0  0  0
  -10.4712    1.8418    0.9933 H   0  0  0  0  0  0  0  0  0  0  0  0
   -8.6975    1.8564    0.8455 H   0  0  0  0  0  0  0  0  0  0  0  0
   -4.9270    1.7828   -1.0122 H   0  0  0  0  0  0  0  0  0  0  0  0
   -5.6867    1.8512    0.5960 H   0  0  0  0  0  0  0  0  0  0  0  0
   -3.9129    1.8658    0.4482 H   0  0  0  0  0  0  0  0  0  0  0  0
  1  2  1  0  0  0  0
  1 46  1  0  0  0  0
  1 47  1  0  0  0  0
  1 48  1  0  0  0  0
  2  8  1  0  0  0  0
  2  3  2  0  0  0  0
  3  4  1  0  0  0  0
  3 12  1  0  0  0  0
  4  5  1  0  0  0  0
  4 10  1  0  0  0  0
  4 11  1  0  0  0  0
  5  6  1  0  0  0  0
  5 49  1  0  0  0  0
  5 50  1  0  0  0  0
  6  7  1  1  0  0  0
  6  8  1  0  0  0  0
  6  9  1  0  0  0  0
  8 51  1  0  0  0  0
  8 52  1  0  0  0  0
  9 53  1  0  0  0  0
 10 54  1  0  0  0  0
 10 55  1  0  0  0  0
 10 56  1  0  0  0  0
 11 57  1  0  0  0  0
 11 58  1  0  0  0  0
 11 59  1  0  0  0  0
 12 13  2  0  0  0  0
 12 60  1  0  0  0  0
 13 14  1  0  0  0  0
 13 61  1  0  0  0  0
 14 15  2  0  0  0  0
 14 45  1  0  0  0  0
 15 16  1  0  0  0  0
 15 62  1  0  0  0  0
 16 17  2  0  0  0  0
 16 63  1  0  0  0  0
 17 18  1  0  0  0  0
 17 64  1  0  0  0  0
 18 19  2  0  0  0  0
 18 44  1  0  0  0  0
 19 20  1  0  0  0  0
 19 65  1  0  0  0  0
 20 21  2  0  0  0  0
 20 66  1  0  0  0  0
 21 22  1  0  0  0  0
 21 67  1  0  0  0  0
 22 23  2  0  0  0  0
 22 68  1  0  0  0  0
 23 24  1  0  0  0  0
 23 25  1  0  0  0  0
 24 69  1  0  0  0  0
 24 70  1  0  0  0  0
 24 71  1  0  0  0  0
 25 26  2  0  0  0  0
 25 72  1  0  0  0  0
 26 27  1  0  0  0  0
 26 73  1  0  0  0  0
 27 28  2  0  0  0  0
 27 74  1  0  0  0  0
 28 29  1  0  0  0  0
 28 30  1  0  0  0  0
 29 75  1  0  0  0  0
 29 76  1  0  0  0  0
 29 77  1  0  0  0  0
 30 31  2  0  0  0  0
 30 78  1  0  0  0  0
 31 32  1  0  0  0  0
 31 79  1  0  0  0  0
 32 33  1  6  0  0  0
 32 39  1  0  0  0  0
 32 34  1  0  0  0  0
 34 35  2  0  0  0  0
 34 43  1  0  0  0  0
 35 36  1  0  0  0  0
 35 80  1  0  0  0  0
 36 37  1  6  0  0  0
 36 38  1  0  0  0  0
 36 42  1  0  0  0  0
 38 39  1  0  0  0  0
 38 81  1  0  0  0  0
 38 82  1  0  0  0  0
 39 40  1  0  0  0  0
 39 41  1  0  0  0  0
 40 83  1  0  0  0  0
 40 84  1  0  0  0  0
 40 85  1  0  0  0  0
 41 86  1  0  0  0  0
 41 87  1  0  0  0  0
 41 88  1  0  0  0  0
 42 89  1  0  0  0  0
 43 90  1  0  0  0  0
 43 91  1  0  0  0  0
 43 92  1  0  0  0  0
 44 93  1  0  0  0  0
 44 94  1  0  0  0  0
 44 95  1  0  0  0  0
 45 96  1  0  0  0  0
 45 97  1  0  0  0  0
 45 98  1  0  0  0  0
M  END
$$$$
