ZINC00085733
 OpenBabel08292219463D

 26 26  0  0  1  0  0  0  0  0999 V2000
    0.3887    1.1565   -0.0609 C   0  0  0  0  0  0  0  0  0  0  0  0
    1.6839    1.6378   -0.0938 C   0  0  0  0  0  0  0  0  0  0  0  0
    2.7493    0.7554   -0.1109 C   0  0  0  0  0  0  0  0  0  0  0  0
    2.5175   -0.6085   -0.0949 C   0  0  0  0  0  0  0  0  0  0  0  0
    1.2219   -1.0886   -0.0620 C   0  0  0  0  0  0  0  0  0  0  0  0
    0.1577   -0.2064   -0.0450 C   0  0  0  0  0  0  0  0  0  0  0  0
   -1.2547   -0.7306   -0.0087 C   0  0  2  0  0  0  0  0  0  0  0  0
   -1.9528    0.1065    0.0008 H   0  0  0  0  0  0  0  0  0  0  0  0
   -1.4532   -1.5744    1.2520 C   0  0  0  0  0  0  0  0  0  0  0  0
   -1.3492   -0.6917    2.4690 C   0  0  0  0  0  0  0  0  0  0  0  0
   -1.2462    0.5162    2.3389 O   0  0  0  0  0  0  0  0  0  0  0  0
   -1.3679   -1.1853    3.5836 O   0  0  0  0  0  1  0  0  0  0  0  0
   -1.5104   -1.5939   -1.2457 C   0  0  0  0  0  0  0  0  0  0  0  0
   -2.9125   -2.0318   -1.2560 N   0  3  0  0  0  0  0  0  0  0  0  0
    4.3764    1.3592   -0.1528 Cl  0  0  0  0  0  0  0  0  0  0  0  0
   -0.4430    1.8453   -0.0431 H   0  0  0  0  0  0  0  0  0  0  0  0
    1.8642    2.7026   -0.1066 H   0  0  0  0  0  0  0  0  0  0  0  0
    3.3488   -1.2978   -0.1086 H   0  0  0  0  0  0  0  0  0  0  0  0
    1.0408   -2.1533   -0.0499 H   0  0  0  0  0  0  0  0  0  0  0  0
   -2.4377   -2.0417    1.2252 H   0  0  0  0  0  0  0  0  0  0  0  0
   -0.6855   -2.3469    1.2968 H   0  0  0  0  0  0  0  0  0  0  0  0
   -1.3050   -1.0115   -2.1439 H   0  0  0  0  0  0  0  0  0  0  0  0
   -0.8574   -2.4663   -1.2212 H   0  0  0  0  0  0  0  0  0  0  0  0
   -3.0771   -2.6515   -0.4769 H   0  0  0  0  0  0  0  0  0  0  0  0
   -3.5167   -1.2273   -1.1793 H   0  0  0  0  0  0  0  0  0  0  0  0
   -3.1069   -2.5174   -2.1188 H   0  0  0  0  0  0  0  0  0  0  0  0
  1  6  2  0  0  0  0
  1  2  1  0  0  0  0
  1 16  1  0  0  0  0
  2  3  2  0  0  0  0
  2 17  1  0  0  0  0
  3  4  1  0  0  0  0
  3 15  1  0  0  0  0
  4  5  2  0  0  0  0
  4 18  1  0  0  0  0
  5  6  1  0  0  0  0
  5 19  1  0  0  0  0
  6  7  1  0  0  0  0
  7  8  1  1  0  0  0
  7  9  1  0  0  0  0
  7 13  1  0  0  0  0
  9 10  1  0  0  0  0
  9 20  1  0  0  0  0
  9 21  1  0  0  0  0
 10 11  2  0  0  0  0
 10 12  1  0  0  0  0
 13 14  1  0  0  0  0
 13 22  1  0  0  0  0
 13 23  1  0  0  0  0
 14 24  1  0  0  0  0
 14 25  1  0  0  0  0
 14 26  1  0  0  0  0
M  CHG  1  14   1
M  END
$$$$
