ZINC11677837
 OpenBabel08292219463D

 59 63  0  0  0  0  0  0  0  0999 V2000
    3.9911    9.6190   -0.0270 C   0  0  0  0  0  0  0  0  0  0  0  0
    2.7303    9.6695    0.6437 O   0  0  0  0  0  0  0  0  0  0  0  0
    1.9295    8.5767    0.5353 C   0  0  0  0  0  0  0  0  0  0  0  0
    0.6915    8.5591    1.1620 C   0  0  0  0  0  0  0  0  0  0  0  0
   -0.1223    7.4497    1.0523 C   0  0  0  0  0  0  0  0  0  0  0  0
    0.2984    6.3503    0.3147 C   0  0  0  0  0  0  0  0  0  0  0  0
    1.5405    6.3661   -0.3072 C   0  0  0  0  0  0  0  0  0  0  0  0
    2.3506    7.4787   -0.2017 C   0  0  0  0  0  0  0  0  0  0  0  0
   -0.5264    5.2246    0.2030 N   0  0  0  0  0  0  0  0  0  0  0  0
   -1.8587    5.2536   -0.0265 C   0  0  0  0  0  0  0  0  0  0  0  0
   -2.2851    3.9413   -0.0824 C   0  0  0  0  0  0  0  0  0  0  0  0
   -1.1522    3.1653    0.1436 C   0  0  0  0  0  0  0  0  0  0  0  0
   -0.1317    3.9989    0.3025 N   0  0  0  0  0  0  0  0  0  0  0  0
   -1.0951    1.6902    0.1913 C   0  0  0  0  0  0  0  0  0  0  0  0
   -2.1076    1.0371    0.0288 O   0  0  0  0  0  0  0  0  0  0  0  0
    0.0794    1.0682    0.4151 N   0  0  0  0  0  0  0  0  0  0  0  0
   -3.7185    3.5812   -0.3503 C   0  0  0  0  0  0  0  0  0  0  0  0
   -4.6134    4.7185    0.1487 C   0  0  0  0  0  0  0  0  0  0  0  0
   -4.1236    6.0319   -0.2517 N   0  0  0  0  0  0  0  0  0  0  0  0
   -2.8112    6.3561   -0.2247 C   0  0  0  0  0  0  0  0  0  0  0  0
   -2.4361    7.5041   -0.3710 O   0  0  0  0  0  0  0  0  0  0  0  0
   -5.0482    6.9954   -0.6717 C   0  0  0  0  0  0  0  0  0  0  0  0
   -5.9601    7.5237    0.2330 C   0  0  0  0  0  0  0  0  0  0  0  0
   -6.8680    8.4780   -0.1800 C   0  0  0  0  0  0  0  0  0  0  0  0
   -6.8772    8.9014   -1.5026 C   0  0  0  0  0  0  0  0  0  0  0  0
   -5.9693    8.3690   -2.4085 C   0  0  0  0  0  0  0  0  0  0  0  0
   -5.0575    7.4189   -1.9945 C   0  0  0  0  0  0  0  0  0  0  0  0
   -7.8027    9.8652   -1.9230 N   0  0  0  0  0  0  0  0  0  0  0  0
   -7.6589   11.2209   -1.4075 C   0  0  0  0  0  0  0  0  0  0  0  0
   -8.4106   12.2130   -2.2990 C   0  0  0  0  0  0  0  0  0  0  0  0
   -9.8431   11.7025   -2.4960 C   0  0  0  0  0  0  0  0  0  0  0  0
   -9.7896   10.4218   -3.3327 C   0  0  0  0  0  0  0  0  0  0  0  0
   -8.7634    9.4835   -2.7655 C   0  0  0  0  0  0  0  0  0  0  0  0
   -8.8105    8.3162   -3.0915 O   0  0  0  0  0  0  0  0  0  0  0  0
    4.5292   10.5520    0.1403 H   0  0  0  0  0  0  0  0  0  0  0  0
    4.5771    8.7867    0.3630 H   0  0  0  0  0  0  0  0  0  0  0  0
    3.8288    9.4798   -1.0958 H   0  0  0  0  0  0  0  0  0  0  0  0
    0.3645    9.4139    1.7354 H   0  0  0  0  0  0  0  0  0  0  0  0
   -1.0858    7.4362    1.5401 H   0  0  0  0  0  0  0  0  0  0  0  0
    1.8703    5.5099   -0.8768 H   0  0  0  0  0  0  0  0  0  0  0  0
    3.3144    7.4930   -0.6889 H   0  0  0  0  0  0  0  0  0  0  0  0
    0.1169    0.0994    0.4465 H   0  0  0  0  0  0  0  0  0  0  0  0
    0.8879    1.5892    0.5408 H   0  0  0  0  0  0  0  0  0  0  0  0
   -3.8665    3.4428   -1.4213 H   0  0  0  0  0  0  0  0  0  0  0  0
   -3.9689    2.6608    0.1773 H   0  0  0  0  0  0  0  0  0  0  0  0
   -5.6172    4.5792   -0.2527 H   0  0  0  0  0  0  0  0  0  0  0  0
   -4.6621    4.6771    1.2368 H   0  0  0  0  0  0  0  0  0  0  0  0
   -5.9561    7.1909    1.2604 H   0  0  0  0  0  0  0  0  0  0  0  0
   -7.5742    8.8921    0.5245 H   0  0  0  0  0  0  0  0  0  0  0  0
   -5.9763    8.6986   -3.4370 H   0  0  0  0  0  0  0  0  0  0  0  0
   -4.3516    7.0046   -2.6991 H   0  0  0  0  0  0  0  0  0  0  0  0
   -8.0596   11.2658   -0.3949 H   0  0  0  0  0  0  0  0  0  0  0  0
   -6.6023   11.4878   -1.3857 H   0  0  0  0  0  0  0  0  0  0  0  0
   -7.9137   12.2904   -3.2661 H   0  0  0  0  0  0  0  0  0  0  0  0
   -8.4337   13.1920   -1.8204 H   0  0  0  0  0  0  0  0  0  0  0  0
  -10.4330   12.4567   -3.0169 H   0  0  0  0  0  0  0  0  0  0  0  0
  -10.2937   11.4891   -1.5268 H   0  0  0  0  0  0  0  0  0  0  0  0
   -9.5237   10.6712   -4.3599 H   0  0  0  0  0  0  0  0  0  0  0  0
  -10.7672    9.9399   -3.3198 H   0  0  0  0  0  0  0  0  0  0  0  0
  1  2  1  0  0  0  0
  1 35  1  0  0  0  0
  1 36  1  0  0  0  0
  1 37  1  0  0  0  0
  2  3  1  0  0  0  0
  3  8  2  0  0  0  0
  3  4  1  0  0  0  0
  4  5  2  0  0  0  0
  4 38  1  0  0  0  0
  5  6  1  0  0  0  0
  5 39  1  0  0  0  0
  6  7  2  0  0  0  0
  6  9  1  0  0  0  0
  7  8  1  0  0  0  0
  7 40  1  0  0  0  0
  8 41  1  0  0  0  0
  9 13  1  0  0  0  0
  9 10  1  0  0  0  0
 10 20  1  0  0  0  0
 10 11  2  0  0  0  0
 11 12  1  0  0  0  0
 11 17  1  0  0  0  0
 12 13  2  0  0  0  0
 12 14  1  0  0  0  0
 14 15  2  0  0  0  0
 14 16  1  0  0  0  0
 16 42  1  0  0  0  0
 16 43  1  0  0  0  0
 17 18  1  0  0  0  0
 17 44  1  0  0  0  0
 17 45  1  0  0  0  0
 18 19  1  0  0  0  0
 18 46  1  0  0  0  0
 18 47  1  0  0  0  0
 19 20  1  0  0  0  0
 19 22  1  0  0  0  0
 20 21  2  0  0  0  0
 22 27  2  0  0  0  0
 22 23  1  0  0  0  0
 23 24  2  0  0  0  0
 23 48  1  0  0  0  0
 24 25  1  0  0  0  0
 24 49  1  0  0  0  0
 25 26  2  0  0  0  0
 25 28  1  0  0  0  0
 26 27  1  0  0  0  0
 26 50  1  0  0  0  0
 27 51  1  0  0  0  0
 28 33  1  0  0  0  0
 28 29  1  0  0  0  0
 29 30  1  0  0  0  0
 29 52  1  0  0  0  0
 29 53  1  0  0  0  0
 30 31  1  0  0  0  0
 30 54  1  0  0  0  0
 30 55  1  0  0  0  0
 31 32  1  0  0  0  0
 31 56  1  0  0  0  0
 31 57  1  0  0  0  0
 32 33  1  0  0  0  0
 32 58  1  0  0  0  0
 32 59  1  0  0  0  0
 33 34  2  0  0  0  0
M  END
$$$$
