ZINC00491073
 OpenBabel08292219463D

 43 46  0  0  1  0  0  0  0  0999 V2000
   -0.0178    1.4648    0.0101 C   0  0  0  0  0  0  0  0  0  0  0  0
    0.0021   -0.0041    0.0020 N   0  3  2  0  0  0  0  0  0  0  0  0
   -1.3487   -0.4766   -0.1051 C   0  0  0  0  0  0  0  0  0  0  0  0
   -1.4957   -1.8208   -0.7552 C   0  0  0  0  0  0  0  0  0  0  0  0
   -1.1986   -2.9607    0.1979 C   0  0  1  0  0  0  0  0  0  0  0  0
   -2.0769   -2.9074    1.4042 C   0  0  0  0  0  0  0  0  0  0  0  0
   -2.9213   -3.8188    1.7532 C   0  0  0  0  0  0  0  0  0  0  0  0
   -3.1380   -5.0863    0.9901 C   0  0  1  0  0  0  0  0  0  0  0  0
   -4.2051   -5.3069    0.9636 H   0  0  0  0  0  0  0  0  0  0  0  0
   -2.6198   -4.9844   -0.4299 C   0  0  0  0  0  0  0  0  0  0  0  0
   -1.2869   -4.2969   -0.5425 C   0  0  2  0  0  0  0  0  0  0  0  0
   -1.0674   -4.1273   -1.5966 H   0  0  0  0  0  0  0  0  0  0  0  0
   -0.2232   -5.0787    0.0155 O   0  0  0  0  0  0  0  0  0  0  0  0
    0.7233   -4.2458    0.5013 C   0  0  0  0  0  0  0  0  0  0  0  0
    0.2527   -2.9329    0.6428 C   0  0  0  0  0  0  0  0  0  0  0  0
    1.0216   -1.9269    1.1409 C   0  0  0  0  0  0  0  0  0  0  0  0
    2.3121   -2.2785    1.5668 C   0  0  0  0  0  0  0  0  0  0  0  0
    2.7995   -3.5564    1.4290 C   0  0  0  0  0  0  0  0  0  0  0  0
    2.0296   -4.5760    0.8827 C   0  0  0  0  0  0  0  0  0  0  0  0
    2.5209   -5.8345    0.7267 O   0  0  0  0  0  0  0  0  0  0  0  0
    3.8668   -6.0626    1.1493 C   0  0  0  0  0  0  0  0  0  0  0  0
    0.7068   -0.4603    1.1832 C   0  0  0  0  0  0  0  0  0  0  0  0
   -2.4591   -6.1527    1.6564 O   0  0  0  0  0  0  0  0  0  0  0  0
    1.0047    1.8421    0.0024 H   0  0  0  0  0  0  0  0  0  0  0  0
   -0.5450    1.8259   -0.8730 H   0  0  0  0  0  0  0  0  0  0  0  0
   -0.5280    1.8163    0.9069 H   0  0  0  0  0  0  0  0  0  0  0  0
   -1.7753   -0.5300    0.8966 H   0  0  0  0  0  0  0  0  0  0  0  0
   -1.9228    0.2491   -0.6812 H   0  0  0  0  0  0  0  0  0  0  0  0
   -2.5166   -1.9252   -1.1226 H   0  0  0  0  0  0  0  0  0  0  0  0
   -0.8106   -1.8805   -1.6009 H   0  0  0  0  0  0  0  0  0  0  0  0
   -1.9990   -2.0352    2.0363 H   0  0  0  0  0  0  0  0  0  0  0  0
   -3.5045   -3.6570    2.6477 H   0  0  0  0  0  0  0  0  0  0  0  0
   -2.5282   -5.9902   -0.8398 H   0  0  0  0  0  0  0  0  0  0  0  0
   -3.3468   -4.4337   -1.0268 H   0  0  0  0  0  0  0  0  0  0  0  0
    2.9401   -1.5233    2.0159 H   0  0  0  0  0  0  0  0  0  0  0  0
    3.8066   -3.7734    1.7533 H   0  0  0  0  0  0  0  0  0  0  0  0
    4.5389   -5.4141    0.5873 H   0  0  0  0  0  0  0  0  0  0  0  0
    3.9556   -5.8433    2.2133 H   0  0  0  0  0  0  0  0  0  0  0  0
    4.1324   -7.1043    0.9696 H   0  0  0  0  0  0  0  0  0  0  0  0
    1.6391    0.0971    1.2738 H   0  0  0  0  0  0  0  0  0  0  0  0
    0.0917   -0.2576    2.0600 H   0  0  0  0  0  0  0  0  0  0  0  0
   -2.7602   -6.3053    2.5625 H   0  0  0  0  0  0  0  0  0  0  0  0
    0.5116   -0.3113   -0.8129 H   0  0  0  0  0  0  0  0  0  0  0  0
  1  2  1  0  0  0  0
  1 24  1  0  0  0  0
  1 25  1  0  0  0  0
  1 26  1  0  0  0  0
  2 22  1  0  0  0  0
  2  3  1  0  0  0  0
  2 43  1  6  0  0  0
  3  4  1  0  0  0  0
  3 27  1  0  0  0  0
  3 28  1  0  0  0  0
  4  5  1  0  0  0  0
  4 29  1  0  0  0  0
  4 30  1  0  0  0  0
  5 11  1  0  0  0  0
  5 15  1  1  0  0  0
  5  6  1  0  0  0  0
  6  7  2  0  0  0  0
  6 31  1  0  0  0  0
  7  8  1  0  0  0  0
  7 32  1  0  0  0  0
  8  9  1  6  0  0  0
  8 10  1  0  0  0  0
  8 23  1  0  0  0  0
 10 11  1  0  0  0  0
 10 33  1  0  0  0  0
 10 34  1  0  0  0  0
 11 12  1  6  0  0  0
 11 13  1  0  0  0  0
 13 14  1  0  0  0  0
 14 19  2  0  0  0  0
 14 15  1  0  0  0  0
 15 16  2  0  0  0  0
 16 17  1  0  0  0  0
 16 22  1  0  0  0  0
 17 18  2  0  0  0  0
 17 35  1  0  0  0  0
 18 19  1  0  0  0  0
 18 36  1  0  0  0  0
 19 20  1  0  0  0  0
 20 21  1  0  0  0  0
 21 37  1  0  0  0  0
 21 38  1  0  0  0  0
 21 39  1  0  0  0  0
 22 40  1  0  0  0  0
 22 41  1  0  0  0  0
 23 42  1  0  0  0  0
M  CHG  1   2   1
M  END
$$$$
