ZINC33956090
 OpenBabel08292219463D

 73 75  0  0  1  0  0  0  0  0999 V2000
   -0.0179    1.4678    0.0101 C   0  0  0  0  0  0  0  0  0  0  0  0
    0.0021   -0.0041    0.0020 C   0  0  0  0  0  0  0  0  0  0  0  0
    0.0180   -1.1779   -0.0044 C   0  0  0  0  0  0  0  0  0  0  0  0
    0.0380   -2.6498   -0.0125 C   0  0  0  0  0  0  0  0  0  0  0  0
   -1.3974   -3.1794   -0.0017 C   0  0  2  0  0  0  0  0  0  0  0  0
   -1.9503   -2.7476   -0.8359 H   0  0  0  0  0  0  0  0  0  0  0  0
   -2.0744   -2.7910    1.3143 C   0  0  0  0  0  0  0  0  0  0  0  0
   -1.3798   -4.7034   -0.1358 C   0  0  2  0  0  0  0  0  0  0  0  0
   -0.8200   -4.9831   -1.0282 H   0  0  0  0  0  0  0  0  0  0  0  0
   -2.7931   -5.2141   -0.2485 C   0  0  0  0  0  0  0  0  0  0  0  0
   -3.1656   -5.8809   -1.3128 C   0  0  0  0  0  0  0  0  0  0  0  0
   -4.5789   -6.3917   -1.4256 C   0  0  2  0  0  0  0  0  0  0  0  0
   -5.1504   -6.1311   -0.5348 H   0  0  0  0  0  0  0  0  0  0  0  0
   -4.5861   -7.9353   -1.6474 C   0  0  1  0  0  0  0  0  0  0  0  0
   -5.2532   -8.4149   -0.9311 H   0  0  0  0  0  0  0  0  0  0  0  0
   -5.1108   -8.1544   -3.1031 C   0  0  0  0  0  0  0  0  0  0  0  0
   -4.7418   -6.8425   -3.7689 C   0  0  2  0  0  0  0  0  0  0  0  0
   -3.6648   -6.7691   -3.9194 H   0  0  0  0  0  0  0  0  0  0  0  0
   -5.2399   -5.8415   -2.6531 C   0  0  2  0  0  0  0  0  0  0  0  0
   -6.3178   -5.9683   -2.5524 H   0  0  0  0  0  0  0  0  0  0  0  0
   -4.9926   -4.5118   -3.2990 C   0  0  0  0  0  0  0  0  0  0  0  0
   -5.2728   -4.7559   -4.7891 C   0  0  0  0  0  0  0  0  0  0  0  0
   -5.3033   -3.8537   -5.7384 C   0  0  0  0  0  0  0  0  0  0  0  0
   -5.0464   -2.4055   -5.4102 C   0  0  0  0  0  0  0  0  0  0  0  0
   -3.9083   -1.8781   -6.2863 C   0  0  0  0  0  0  0  0  0  0  0  0
   -3.6475   -0.4078   -5.9531 C   0  0  0  0  0  0  0  0  0  0  0  0
   -2.5265    0.1116   -6.8160 C   0  0  0  0  0  0  0  0  0  0  0  0
   -1.9911   -0.6192   -7.6154 O   0  0  0  0  0  0  0  0  0  0  0  0
   -2.1228    1.3861   -6.6964 O   0  0  0  0  0  0  0  0  0  0  0  0
   -1.0551    1.8109   -7.5460 C   0  0  0  0  0  0  0  0  0  0  0  0
   -0.7411    3.2592   -7.2722 C   0  0  0  0  0  0  0  0  0  0  0  0
   -1.3696    3.8675   -6.4325 O   0  0  0  0  0  0  0  0  0  0  0  0
    0.3284    3.9351   -8.0240 C   0  0  0  0  0  0  0  0  0  0  0  0
    1.0516    3.2384   -8.9974 C   0  0  0  0  0  0  0  0  0  0  0  0
    2.0518    3.8789   -9.6979 C   0  0  0  0  0  0  0  0  0  0  0  0
    2.3407    5.2076   -9.4398 C   0  0  0  0  0  0  0  0  0  0  0  0
    1.6298    5.9037   -8.4778 C   0  0  0  0  0  0  0  0  0  0  0  0
    0.6228    5.2790   -7.7729 C   0  0  0  0  0  0  0  0  0  0  0  0
   -5.4978   -6.2837   -4.9588 C   0  0  0  0  0  0  0  0  0  0  0  0
   -3.2630   -8.4584   -1.5148 O   0  0  0  0  0  0  0  0  0  0  0  0
   -0.7569   -5.2757    1.0160 O   0  0  0  0  0  0  0  0  0  0  0  0
    1.0047    1.8451    0.0024 H   0  0  0  0  0  0  0  0  0  0  0  0
   -0.5451    1.8289   -0.8729 H   0  0  0  0  0  0  0  0  0  0  0  0
   -0.5281    1.8193    0.9069 H   0  0  0  0  0  0  0  0  0  0  0  0
    0.5481   -3.0013   -0.9093 H   0  0  0  0  0  0  0  0  0  0  0  0
    0.5651   -3.0109    0.8705 H   0  0  0  0  0  0  0  0  0  0  0  0
   -1.5215   -3.2227    2.1486 H   0  0  0  0  0  0  0  0  0  0  0  0
   -2.0870   -1.7052    1.4098 H   0  0  0  0  0  0  0  0  0  0  0  0
   -3.0970   -3.1683    1.3220 H   0  0  0  0  0  0  0  0  0  0  0  0
   -3.4988   -5.0305    0.5481 H   0  0  0  0  0  0  0  0  0  0  0  0
   -2.4599   -6.0646   -2.1094 H   0  0  0  0  0  0  0  0  0  0  0  0
   -4.5994   -8.9907   -3.5799 H   0  0  0  0  0  0  0  0  0  0  0  0
   -6.1903   -8.3047   -3.1098 H   0  0  0  0  0  0  0  0  0  0  0  0
   -5.6757   -3.7616   -2.9006 H   0  0  0  0  0  0  0  0  0  0  0  0
   -3.9577   -4.2030   -3.1514 H   0  0  0  0  0  0  0  0  0  0  0  0
   -5.5126   -4.1478   -6.7563 H   0  0  0  0  0  0  0  0  0  0  0  0
   -5.9492   -1.8245   -5.5988 H   0  0  0  0  0  0  0  0  0  0  0  0
   -4.7687   -2.3147   -4.3602 H   0  0  0  0  0  0  0  0  0  0  0  0
   -3.0055   -2.4591   -6.0977 H   0  0  0  0  0  0  0  0  0  0  0  0
   -4.1861   -1.9690   -7.3364 H   0  0  0  0  0  0  0  0  0  0  0  0
   -4.5503    0.1731   -6.1417 H   0  0  0  0  0  0  0  0  0  0  0  0
   -3.3697   -0.3170   -4.9030 H   0  0  0  0  0  0  0  0  0  0  0  0
   -0.1712    1.2041   -7.3496 H   0  0  0  0  0  0  0  0  0  0  0  0
   -1.3517    1.6942   -8.5883 H   0  0  0  0  0  0  0  0  0  0  0  0
    0.8276    2.2014   -9.1996 H   0  0  0  0  0  0  0  0  0  0  0  0
    2.6115    3.3422  -10.4496 H   0  0  0  0  0  0  0  0  0  0  0  0
    3.1253    5.7037   -9.9918 H   0  0  0  0  0  0  0  0  0  0  0  0
    1.8614    6.9403   -8.2819 H   0  0  0  0  0  0  0  0  0  0  0  0
    0.0659    5.8248   -7.0256 H   0  0  0  0  0  0  0  0  0  0  0  0
   -5.0727   -6.6471   -5.8944 H   0  0  0  0  0  0  0  0  0  0  0  0
   -6.5586   -6.5253   -4.8932 H   0  0  0  0  0  0  0  0  0  0  0  0
   -3.2037   -9.4152   -1.6422 H   0  0  0  0  0  0  0  0  0  0  0  0
   -1.2028   -5.0677    1.8485 H   0  0  0  0  0  0  0  0  0  0  0  0
  1  2  1  0  0  0  0
  1 42  1  0  0  0  0
  1 43  1  0  0  0  0
  1 44  1  0  0  0  0
  2  3  3  0  0  0  0
  3  4  1  0  0  0  0
  4  5  1  0  0  0  0
  4 45  1  0  0  0  0
  4 46  1  0  0  0  0
  5  6  1  6  0  0  0
  5  7  1  0  0  0  0
  5  8  1  0  0  0  0
  7 47  1  0  0  0  0
  7 48  1  0  0  0  0
  7 49  1  0  0  0  0
  8  9  1  6  0  0  0
  8 10  1  0  0  0  0
  8 41  1  0  0  0  0
 10 11  2  0  0  0  0
 10 50  1  0  0  0  0
 11 12  1  0  0  0  0
 11 51  1  0  0  0  0
 12 13  1  1  0  0  0
 12 19  1  0  0  0  0
 12 14  1  0  0  0  0
 14 15  1  1  0  0  0
 14 16  1  0  0  0  0
 14 40  1  0  0  0  0
 16 17  1  0  0  0  0
 16 52  1  0  0  0  0
 16 53  1  0  0  0  0
 17 18  1  6  0  0  0
 17 39  1  0  0  0  0
 17 19  1  0  0  0  0
 19 20  1  1  0  0  0
 19 21  1  0  0  0  0
 21 22  1  0  0  0  0
 21 54  1  0  0  0  0
 21 55  1  0  0  0  0
 22 23  2  0  0  0  0
 22 39  1  0  0  0  0
 23 24  1  0  0  0  0
 23 56  1  0  0  0  0
 24 25  1  0  0  0  0
 24 57  1  0  0  0  0
 24 58  1  0  0  0  0
 25 26  1  0  0  0  0
 25 59  1  0  0  0  0
 25 60  1  0  0  0  0
 26 27  1  0  0  0  0
 26 61  1  0  0  0  0
 26 62  1  0  0  0  0
 27 28  2  0  0  0  0
 27 29  1  0  0  0  0
 29 30  1  0  0  0  0
 30 31  1  0  0  0  0
 30 63  1  0  0  0  0
 30 64  1  0  0  0  0
 31 32  2  0  0  0  0
 31 33  1  0  0  0  0
 33 38  2  0  0  0  0
 33 34  1  0  0  0  0
 34 35  2  0  0  0  0
 34 65  1  0  0  0  0
 35 36  1  0  0  0  0
 35 66  1  0  0  0  0
 36 37  2  0  0  0  0
 36 67  1  0  0  0  0
 37 38  1  0  0  0  0
 37 68  1  0  0  0  0
 38 69  1  0  0  0  0
 39 70  1  0  0  0  0
 39 71  1  0  0  0  0
 40 72  1  0  0  0  0
 41 73  1  0  0  0  0
M  END
$$$$
