ZINC00000242
 OpenBabel08292219463D

 43 44  0  0  1  0  0  0  0  0999 V2000
    0.8093    1.1643   -0.5922 C   0  0  0  0  0  0  0  0  0  0  0  0
    0.0225   -0.0141   -0.0149 C   0  0  2  0  0  0  0  0  0  0  0  0
    0.6378   -0.4358    1.2945 C   0  0  0  0  0  0  0  0  0  0  0  0
    1.9414   -0.8944    1.3297 C   0  0  0  0  0  0  0  0  0  0  0  0
    2.5059   -1.2812    2.5308 C   0  0  0  0  0  0  0  0  0  0  0  0
    1.7669   -1.2089    3.6968 C   0  0  0  0  0  0  0  0  0  0  0  0
    0.4636   -0.7495    3.6617 C   0  0  0  0  0  0  0  0  0  0  0  0
   -0.0994   -0.3586    2.4613 C   0  0  0  0  0  0  0  0  0  0  0  0
    0.0629   -1.1678   -0.9836 C   0  0  0  0  0  0  0  0  0  0  0  0
   -0.6244   -2.3306   -0.6901 C   0  0  0  0  0  0  0  0  0  0  0  0
   -0.5807   -3.3860   -1.5879 C   0  0  0  0  0  0  0  0  0  0  0  0
    0.1560   -3.2317   -2.7526 C   0  0  0  0  0  0  0  0  0  0  0  0
    0.8174   -2.0396   -2.9780 C   0  0  0  0  0  0  0  0  0  0  0  0
    0.7491   -1.0544   -2.1038 N   0  0  0  0  0  0  0  0  0  0  0  0
   -1.3343    0.3792    0.2011 O   0  0  0  0  0  0  0  0  0  0  0  0
   -1.9968    0.8507   -0.9739 C   0  0  0  0  0  0  0  0  0  0  0  0
   -3.4697    1.1169   -0.6568 C   0  0  0  0  0  0  0  0  0  0  0  0
   -3.5709    2.2152    0.3136 N   0  3  0  0  0  0  0  0  0  0  0  0
   -3.0745    3.4555   -0.2972 C   0  0  0  0  0  0  0  0  0  0  0  0
   -4.9747    2.3916    0.7088 C   0  0  0  0  0  0  0  0  0  0  0  0
    1.8442    0.8643   -0.7569 H   0  0  0  0  0  0  0  0  0  0  0  0
    0.3642    1.4693   -1.5393 H   0  0  0  0  0  0  0  0  0  0  0  0
    0.7801    1.9988    0.1085 H   0  0  0  0  0  0  0  0  0  0  0  0
    2.5188   -0.9508    0.4187 H   0  0  0  0  0  0  0  0  0  0  0  0
    3.5241   -1.6401    2.5581 H   0  0  0  0  0  0  0  0  0  0  0  0
    2.2076   -1.5118    4.6351 H   0  0  0  0  0  0  0  0  0  0  0  0
   -0.1139   -0.6933    4.5727 H   0  0  0  0  0  0  0  0  0  0  0  0
   -1.1164    0.0039    2.4344 H   0  0  0  0  0  0  0  0  0  0  0  0
   -1.1880   -2.4160    0.2272 H   0  0  0  0  0  0  0  0  0  0  0  0
   -1.1076   -4.3067   -1.3849 H   0  0  0  0  0  0  0  0  0  0  0  0
    0.2124   -4.0333   -3.4742 H   0  0  0  0  0  0  0  0  0  0  0  0
    1.3933   -1.9115   -3.8826 H   0  0  0  0  0  0  0  0  0  0  0  0
   -1.5252    1.7736   -1.3114 H   0  0  0  0  0  0  0  0  0  0  0  0
   -1.9245    0.0977   -1.7587 H   0  0  0  0  0  0  0  0  0  0  0  0
   -3.9946    1.3911   -1.5719 H   0  0  0  0  0  0  0  0  0  0  0  0
   -3.9191    0.2175   -0.2357 H   0  0  0  0  0  0  0  0  0  0  0  0
   -3.1496    4.2704    0.4228 H   0  0  0  0  0  0  0  0  0  0  0  0
   -2.0329    3.3246   -0.5904 H   0  0  0  0  0  0  0  0  0  0  0  0
   -3.6727    3.6919   -1.1771 H   0  0  0  0  0  0  0  0  0  0  0  0
   -5.3430    1.4713    1.1620 H   0  0  0  0  0  0  0  0  0  0  0  0
   -5.0498    3.2065    1.4288 H   0  0  0  0  0  0  0  0  0  0  0  0
   -5.5729    2.6281   -0.1712 H   0  0  0  0  0  0  0  0  0  0  0  0
   -3.0171    1.9963    1.1282 H   0  0  0  0  0  0  0  0  0  0  0  0
  1  2  1  0  0  0  0
  1 21  1  0  0  0  0
  1 22  1  0  0  0  0
  1 23  1  0  0  0  0
  2  3  1  0  0  0  0
  2  9  1  0  0  0  0
  2 15  1  1  0  0  0
  3  8  2  0  0  0  0
  3  4  1  0  0  0  0
  4  5  2  0  0  0  0
  4 24  1  0  0  0  0
  5  6  1  0  0  0  0
  5 25  1  0  0  0  0
  6  7  2  0  0  0  0
  6 26  1  0  0  0  0
  7  8  1  0  0  0  0
  7 27  1  0  0  0  0
  8 28  1  0  0  0  0
  9 14  2  0  0  0  0
  9 10  1  0  0  0  0
 10 11  2  0  0  0  0
 10 29  1  0  0  0  0
 11 12  1  0  0  0  0
 11 30  1  0  0  0  0
 12 13  2  0  0  0  0
 12 31  1  0  0  0  0
 13 14  1  0  0  0  0
 13 32  1  0  0  0  0
 15 16  1  0  0  0  0
 16 17  1  0  0  0  0
 16 33  1  0  0  0  0
 16 34  1  0  0  0  0
 17 18  1  0  0  0  0
 17 35  1  0  0  0  0
 17 36  1  0  0  0  0
 18 19  1  0  0  0  0
 18 20  1  0  0  0  0
 18 43  1  0  0  0  0
 19 37  1  0  0  0  0
 19 38  1  0  0  0  0
 19 39  1  0  0  0  0
 20 40  1  0  0  0  0
 20 41  1  0  0  0  0
 20 42  1  0  0  0  0
M  CHG  1  18   1
M  END
$$$$
