ZINC03873366
 OpenBabel08292219463D

 56 60  0  0  1  0  0  0  0  0999 V2000
   -0.0186    1.5229    0.0104 C   0  0  0  0  0  0  0  0  0  0  0  0
    0.0021   -0.0041    0.0020 C   0  0  2  0  0  0  0  0  0  0  0  0
   -1.4039   -0.5522    0.0396 C   0  0  0  0  0  0  0  0  0  0  0  0
   -2.0179   -0.2561    1.4239 C   0  0  0  0  0  0  0  0  0  0  0  0
   -1.1888   -0.8979    2.5220 C   0  0  1  0  0  0  0  0  0  0  0  0
   -1.1424   -1.9768    2.3053 H   0  0  0  0  0  0  0  0  0  0  0  0
    0.2576   -0.3801    2.5111 C   0  0  1  0  0  0  0  0  0  0  0  0
    0.8334   -0.9877    3.2429 H   0  0  0  0  0  0  0  0  0  0  0  0
    0.8328   -0.6098    1.1498 C   0  0  2  0  0  0  0  0  0  0  0  0
    0.8717   -1.7182    0.9873 H   0  0  0  0  0  0  0  0  0  0  0  0
    2.2355   -0.0800    0.8335 C   0  0  0  0  0  0  0  0  0  0  0  0
    2.3161   -0.2742   -0.7090 C   0  0  0  0  0  0  0  0  0  0  0  0
    0.8557   -0.4272   -1.2093 C   0  0  2  0  0  0  0  0  0  0  0  0
    0.5910    0.5107   -2.3849 C   0  0  0  0  0  0  0  0  0  0  0  0
    0.5793   -1.7784   -1.5599 O   0  0  0  0  0  0  0  0  0  0  0  0
    0.2661    1.0618    2.9938 C   0  0  0  0  0  0  0  0  0  0  0  0
   -0.1440    1.0945    4.4669 C   0  0  0  0  0  0  0  0  0  0  0  0
   -0.7566   -0.2353    4.9084 C   0  0  2  0  0  0  0  0  0  0  0  0
    0.0412   -0.9813    5.0079 H   0  0  0  0  0  0  0  0  0  0  0  0
   -1.7960   -0.7476    3.9156 C   0  0  2  0  0  0  0  0  0  0  0  0
   -2.2424   -2.1690    4.3260 C   0  0  0  0  0  0  0  0  0  0  0  0
   -2.5848   -2.1929    5.7888 C   0  0  0  0  0  0  0  0  0  0  0  0
   -3.2853   -3.1211    6.4694 C   0  0  0  0  0  0  0  0  0  0  0  0
   -3.3443   -2.7253    7.7609 N   0  0  0  0  0  0  0  0  0  0  0  0
   -3.7899   -3.1963    8.4817 H   0  0  0  0  0  0  0  0  0  0  0  0
   -2.6459   -1.5134    7.8741 N   0  0  0  0  0  0  0  0  0  0  0  0
   -2.1908   -1.1971    6.6967 C   0  0  0  0  0  0  0  0  0  0  0  0
   -1.3784    0.0036    6.2947 C   0  0  0  0  0  0  0  0  0  0  0  0
   -3.0151    0.1715    3.8936 C   0  0  0  0  0  0  0  0  0  0  0  0
    1.0034    1.8999    0.0476 H   0  0  0  0  0  0  0  0  0  0  0  0
   -0.5066    1.8846   -0.8946 H   0  0  0  0  0  0  0  0  0  0  0  0
   -0.5675    1.8740    0.8843 H   0  0  0  0  0  0  0  0  0  0  0  0
   -2.0127   -0.0753   -0.7319 H   0  0  0  0  0  0  0  0  0  0  0  0
   -1.3941   -1.6314   -0.1248 H   0  0  0  0  0  0  0  0  0  0  0  0
   -2.0757    0.8192    1.5621 H   0  0  0  0  0  0  0  0  0  0  0  0
   -3.0268   -0.6786    1.4300 H   0  0  0  0  0  0  0  0  0  0  0  0
    2.3514    0.9618    1.1086 H   0  0  0  0  0  0  0  0  0  0  0  0
    2.9936   -0.6924    1.3293 H   0  0  0  0  0  0  0  0  0  0  0  0
    2.7847    0.5921   -1.1719 H   0  0  0  0  0  0  0  0  0  0  0  0
    2.8828   -1.1774   -0.9379 H   0  0  0  0  0  0  0  0  0  0  0  0
    0.8501    1.5308   -2.1013 H   0  0  0  0  0  0  0  0  0  0  0  0
    1.1979    0.2053   -3.2372 H   0  0  0  0  0  0  0  0  0  0  0  0
   -0.4640    0.4656   -2.6553 H   0  0  0  0  0  0  0  0  0  0  0  0
    1.0881   -2.1004   -2.3166 H   0  0  0  0  0  0  0  0  0  0  0  0
    1.2579    1.4939    2.8874 H   0  0  0  0  0  0  0  0  0  0  0  0
   -0.4647    1.6590    2.4489 H   0  0  0  0  0  0  0  0  0  0  0  0
    0.7431    1.2971    5.0710 H   0  0  0  0  0  0  0  0  0  0  0  0
   -0.8612    1.8995    4.6181 H   0  0  0  0  0  0  0  0  0  0  0  0
   -3.1133   -2.4550    3.7375 H   0  0  0  0  0  0  0  0  0  0  0  0
   -1.4263   -2.8671    4.1308 H   0  0  0  0  0  0  0  0  0  0  0  0
   -3.7183   -4.0200    6.0571 H   0  0  0  0  0  0  0  0  0  0  0  0
   -0.5753    0.1514    7.0240 H   0  0  0  0  0  0  0  0  0  0  0  0
   -2.0040    0.8936    6.2834 H   0  0  0  0  0  0  0  0  0  0  0  0
   -3.7719   -0.2448    3.2287 H   0  0  0  0  0  0  0  0  0  0  0  0
   -3.4236    0.2574    4.9005 H   0  0  0  0  0  0  0  0  0  0  0  0
   -2.7200    1.1579    3.5358 H   0  0  0  0  0  0  0  0  0  0  0  0
  1 30  1  0  0  0  0
  1 31  1  0  0  0  0
  1 32  1  0  0  0  0
  2  1  1  1  0  0  0
  2  9  1  0  0  0  0
  2 13  1  0  0  0  0
  2  3  1  0  0  0  0
  3  4  1  0  0  0  0
  3 33  1  0  0  0  0
  3 34  1  0  0  0  0
  4  5  1  0  0  0  0
  4 35  1  0  0  0  0
  4 36  1  0  0  0  0
  5  6  1  6  0  0  0
  5 20  1  0  0  0  0
  5  7  1  0  0  0  0
  7  8  1  1  0  0  0
  7  9  1  0  0  0  0
  7 16  1  0  0  0  0
  9 10  1  6  0  0  0
  9 11  1  0  0  0  0
 11 12  1  0  0  0  0
 11 37  1  0  0  0  0
 11 38  1  0  0  0  0
 12 13  1  0  0  0  0
 12 39  1  0  0  0  0
 12 40  1  0  0  0  0
 13 14  1  0  0  0  0
 13 15  1  6  0  0  0
 14 41  1  0  0  0  0
 14 42  1  0  0  0  0
 14 43  1  0  0  0  0
 15 44  1  0  0  0  0
 16 17  1  0  0  0  0
 16 45  1  0  0  0  0
 16 46  1  0  0  0  0
 17 18  1  0  0  0  0
 17 47  1  0  0  0  0
 17 48  1  0  0  0  0
 18 19  1  1  0  0  0
 18 28  1  0  0  0  0
 18 20  1  0  0  0  0
 20 21  1  0  0  0  0
 20 29  1  6  0  0  0
 21 22  1  0  0  0  0
 21 49  1  0  0  0  0
 21 50  1  0  0  0  0
 22 27  1  0  0  0  0
 22 23  2  0  0  0  0
 23 24  1  0  0  0  0
 23 51  1  0  0  0  0
 24 25  1  0  0  0  0
 24 26  1  0  0  0  0
 26 27  2  0  0  0  0
 27 28  1  0  0  0  0
 28 52  1  0  0  0  0
 28 53  1  0  0  0  0
 29 54  1  0  0  0  0
 29 55  1  0  0  0  0
 29 56  1  0  0  0  0
M  END
$$$$
