ZINC03944422
 OpenBabel08292219463D

 98101  0  0  1  0  0  0  0  0999 V2000
  -10.9943   -7.8243    6.3636 C   0  0  0  0  0  0  0  0  0  0  0  0
  -10.5201   -8.9008    5.3853 C   0  0  0  0  0  0  0  0  0  0  0  0
  -11.0331  -10.2676    5.8431 C   0  0  0  0  0  0  0  0  0  0  0  0
  -11.0540   -8.5990    4.0088 C   0  0  0  0  0  0  0  0  0  0  0  0
  -10.3912   -8.3780    2.8972 N   0  0  0  0  0  0  0  0  0  0  0  0
  -11.0137   -8.1215    1.7657 C   0  0  0  0  0  0  0  0  0  0  0  0
  -12.3709   -8.1006    1.7664 C   0  0  0  0  0  0  0  0  0  0  0  0
  -12.7039   -8.4617    3.4846 S   0  0  0  0  0  0  0  0  0  0  0  0
  -10.2384   -7.8635    0.4995 C   0  0  0  0  0  0  0  0  0  0  0  0
   -9.8626   -6.4489    0.4366 N   0  0  0  0  0  0  0  0  0  0  0  0
  -10.7566   -5.4812   -0.2042 C   0  0  0  0  0  0  0  0  0  0  0  0
   -8.6944   -6.0377    0.9683 C   0  0  0  0  0  0  0  0  0  0  0  0
   -7.9524   -6.8408    1.5002 O   0  0  0  0  0  0  0  0  0  0  0  0
   -8.3487   -4.7363    0.9105 N   0  0  0  0  0  0  0  0  0  0  0  0
   -7.0789   -4.2893    1.4885 C   0  0  1  0  0  0  0  0  0  0  0  0
   -6.8966   -4.8892    2.3923 H   0  0  0  0  0  0  0  0  0  0  0  0
   -5.9573   -4.4814    0.4656 C   0  0  0  0  0  0  0  0  0  0  0  0
   -4.6097   -4.1775    1.1233 C   0  0  0  0  0  0  0  0  0  0  0  0
   -5.9659   -5.9271   -0.0352 C   0  0  0  0  0  0  0  0  0  0  0  0
   -7.1796   -2.8312    1.8556 C   0  0  0  0  0  0  0  0  0  0  0  0
   -8.1382   -2.1804    1.4969 O   0  0  0  0  0  0  0  0  0  0  0  0
   -6.2046   -2.2504    2.5825 N   0  0  0  0  0  0  0  0  0  0  0  0
   -6.3501   -0.8618    3.0262 C   0  0  1  0  0  0  0  0  0  0  0  0
   -7.1509   -0.4105    2.4220 H   0  0  0  0  0  0  0  0  0  0  0  0
   -6.7165   -0.8367    4.5114 C   0  0  0  0  0  0  0  0  0  0  0  0
   -8.0744   -1.4612    4.7044 C   0  0  0  0  0  0  0  0  0  0  0  0
   -9.2103   -0.6751    4.6538 C   0  0  0  0  0  0  0  0  0  0  0  0
  -10.4561   -1.2488    4.8260 C   0  0  0  0  0  0  0  0  0  0  0  0
  -10.5654   -2.6069    5.0593 C   0  0  0  0  0  0  0  0  0  0  0  0
   -9.4291   -3.3922    5.1152 C   0  0  0  0  0  0  0  0  0  0  0  0
   -8.1836   -2.8194    4.9377 C   0  0  0  0  0  0  0  0  0  0  0  0
   -5.0302   -0.1176    2.8139 C   0  0  0  0  0  0  0  0  0  0  0  0
   -4.7517    0.0094    1.3148 C   0  0  1  0  0  0  0  0  0  0  0  0
   -5.5898    0.4945    0.7931 H   0  0  0  0  0  0  0  0  0  0  0  0
   -3.4462    0.7783    1.1019 C   0  0  2  0  0  0  0  0  0  0  0  0
   -3.5006    1.7717    1.5712 H   0  0  0  0  0  0  0  0  0  0  0  0
   -3.1677    0.9052   -0.3971 C   0  0  0  0  0  0  0  0  0  0  0  0
   -1.9495    1.7663   -0.6106 C   0  0  0  0  0  0  0  0  0  0  0  0
   -0.6949    1.1884   -0.6616 C   0  0  0  0  0  0  0  0  0  0  0  0
    0.4220    1.9776   -0.8631 C   0  0  0  0  0  0  0  0  0  0  0  0
    0.2847    3.3454   -1.0083 C   0  0  0  0  0  0  0  0  0  0  0  0
   -0.9695    3.9240   -0.9520 C   0  0  0  0  0  0  0  0  0  0  0  0
   -2.0863    3.1348   -0.7505 C   0  0  0  0  0  0  0  0  0  0  0  0
   -2.3445    0.0571    1.7440 N   0  0  0  0  0  0  0  0  0  0  0  0
   -1.2410    0.7237    2.1368 C   0  0  0  0  0  0  0  0  0  0  0  0
   -1.1599    1.9229    1.9584 O   0  0  0  0  0  0  0  0  0  0  0  0
   -0.2284    0.0609    2.7268 O   0  0  0  0  0  0  0  0  0  0  0  0
    0.9287    0.8430    3.1238 C   0  0  0  0  0  0  0  0  0  0  0  0
    1.9514   -0.0614    3.7620 C   0  0  0  0  0  0  0  0  0  0  0  0
    2.9743   -0.7502    3.1947 C   0  0  0  0  0  0  0  0  0  0  0  0
    3.7427   -1.4832    3.9729 N   0  0  0  0  0  0  0  0  0  0  0  0
    3.5363   -1.5555    5.2676 C   0  0  0  0  0  0  0  0  0  0  0  0
    2.1590   -0.5187    5.4771 S   0  0  0  0  0  0  0  0  0  0  0  0
   -4.6363   -1.2937    0.7397 O   0  0  0  0  0  0  0  0  0  0  0  0
  -10.6255   -6.8416    6.0345 H   0  0  0  0  0  0  0  0  0  0  0  0
  -10.6044   -8.0446    7.3683 H   0  0  0  0  0  0  0  0  0  0  0  0
  -12.0939   -7.8128    6.3913 H   0  0  0  0  0  0  0  0  0  0  0  0
   -9.4210   -8.9091    5.3422 H   0  0  0  0  0  0  0  0  0  0  0  0
  -10.6922  -11.0416    5.1397 H   0  0  0  0  0  0  0  0  0  0  0  0
  -12.1327  -10.2560    5.8708 H   0  0  0  0  0  0  0  0  0  0  0  0
  -10.6432  -10.4878    6.8479 H   0  0  0  0  0  0  0  0  0  0  0  0
  -13.0586   -7.9168    0.9542 H   0  0  0  0  0  0  0  0  0  0  0  0
   -9.3306   -8.4847    0.4924 H   0  0  0  0  0  0  0  0  0  0  0  0
  -10.8624   -8.1161   -0.3705 H   0  0  0  0  0  0  0  0  0  0  0  0
  -10.3077   -4.4782   -0.1541 H   0  0  0  0  0  0  0  0  0  0  0  0
  -11.7253   -5.4759    0.3170 H   0  0  0  0  0  0  0  0  0  0  0  0
  -10.9080   -5.7630   -1.2567 H   0  0  0  0  0  0  0  0  0  0  0  0
   -9.0200   -4.0098    0.4293 H   0  0  0  0  0  0  0  0  0  0  0  0
   -6.1136   -3.7986   -0.3826 H   0  0  0  0  0  0  0  0  0  0  0  0
   -3.8034   -4.3156    0.3879 H   0  0  0  0  0  0  0  0  0  0  0  0
   -4.4534   -4.8603    1.9714 H   0  0  0  0  0  0  0  0  0  0  0  0
   -4.6035   -3.1381    1.4834 H   0  0  0  0  0  0  0  0  0  0  0  0
   -5.1596   -6.0652   -0.7706 H   0  0  0  0  0  0  0  0  0  0  0  0
   -6.9348   -6.1456   -0.5080 H   0  0  0  0  0  0  0  0  0  0  0  0
   -5.8095   -6.6099    0.8130 H   0  0  0  0  0  0  0  0  0  0  0  0
   -5.2996   -2.8190    2.8426 H   0  0  0  0  0  0  0  0  0  0  0  0
   -5.9674   -1.4038    5.0835 H   0  0  0  0  0  0  0  0  0  0  0  0
   -6.7378    0.2043    4.8663 H   0  0  0  0  0  0  0  0  0  0  0  0
   -9.1246    0.3867    4.4759 H   0  0  0  0  0  0  0  0  0  0  0  0
  -11.3438   -0.6352    4.7827 H   0  0  0  0  0  0  0  0  0  0  0  0
  -11.5384   -3.0544    5.1983 H   0  0  0  0  0  0  0  0  0  0  0  0
   -9.5145   -4.4532    5.2978 H   0  0  0  0  0  0  0  0  0  0  0  0
   -7.2959   -3.4329    4.9817 H   0  0  0  0  0  0  0  0  0  0  0  0
   -5.0989    0.8854    3.2603 H   0  0  0  0  0  0  0  0  0  0  0  0
   -4.2128   -0.6768    3.2926 H   0  0  0  0  0  0  0  0  0  0  0  0
   -2.9900   -0.0934   -0.8228 H   0  0  0  0  0  0  0  0  0  0  0  0
   -4.0343    1.3665   -0.8933 H   0  0  0  0  0  0  0  0  0  0  0  0
   -0.5876    0.1197   -0.5485 H   0  0  0  0  0  0  0  0  0  0  0  0
    1.4018    1.5255   -0.9074 H   0  0  0  0  0  0  0  0  0  0  0  0
    1.1573    3.9620   -1.1660 H   0  0  0  0  0  0  0  0  0  0  0  0
   -1.0768    4.9926   -1.0658 H   0  0  0  0  0  0  0  0  0  0  0  0
   -3.0662    3.5868   -0.7069 H   0  0  0  0  0  0  0  0  0  0  0  0
   -2.4179   -1.0285    1.9055 H   0  0  0  0  0  0  0  0  0  0  0  0
    1.3674    1.3246    2.2374 H   0  0  0  0  0  0  0  0  0  0  0  0
    0.6202    1.6141    3.8451 H   0  0  0  0  0  0  0  0  0  0  0  0
    3.1532   -0.6984    2.1309 H   0  0  0  0  0  0  0  0  0  0  0  0
    4.0855   -2.1127    6.0120 H   0  0  0  0  0  0  0  0  0  0  0  0
   -4.4352   -1.4043   -0.3361 H   0  0  0  0  0  0  0  0  0  0  0  0
  1  2  1  0  0  0  0
  1 55  1  0  0  0  0
  1 56  1  0  0  0  0
  1 57  1  0  0  0  0
  2  3  1  0  0  0  0
  2  4  1  0  0  0  0
  2 58  1  0  0  0  0
  3 59  1  0  0  0  0
  3 60  1  0  0  0  0
  3 61  1  0  0  0  0
  4  8  1  0  0  0  0
  4  5  2  0  0  0  0
  5  6  1  0  0  0  0
  6  7  2  0  0  0  0
  6  9  1  0  0  0  0
  7  8  1  0  0  0  0
  7 62  1  0  0  0  0
  9 10  1  0  0  0  0
  9 63  1  0  0  0  0
  9 64  1  0  0  0  0
 10 11  1  0  0  0  0
 10 12  1  0  0  0  0
 11 65  1  0  0  0  0
 11 66  1  0  0  0  0
 11 67  1  0  0  0  0
 12 13  2  0  0  0  0
 12 14  1  0  0  0  0
 14 15  1  0  0  0  0
 14 68  1  0  0  0  0
 15 16  1  1  0  0  0
 15 17  1  0  0  0  0
 15 20  1  0  0  0  0
 17 18  1  0  0  0  0
 17 19  1  0  0  0  0
 17 69  1  0  0  0  0
 18 70  1  0  0  0  0
 18 71  1  0  0  0  0
 18 72  1  0  0  0  0
 19 73  1  0  0  0  0
 19 74  1  0  0  0  0
 19 75  1  0  0  0  0
 20 21  2  0  0  0  0
 20 22  1  0  0  0  0
 22 23  1  0  0  0  0
 22 76  1  0  0  0  0
 23 24  1  6  0  0  0
 23 25  1  0  0  0  0
 23 32  1  0  0  0  0
 25 26  1  0  0  0  0
 25 77  1  0  0  0  0
 25 78  1  0  0  0  0
 26 31  2  0  0  0  0
 26 27  1  0  0  0  0
 27 28  2  0  0  0  0
 27 79  1  0  0  0  0
 28 29  1  0  0  0  0
 28 80  1  0  0  0  0
 29 30  2  0  0  0  0
 29 81  1  0  0  0  0
 30 31  1  0  0  0  0
 30 82  1  0  0  0  0
 31 83  1  0  0  0  0
 32 33  1  0  0  0  0
 32 84  1  0  0  0  0
 32 85  1  0  0  0  0
 33 34  1  6  0  0  0
 33 35  1  0  0  0  0
 33 54  1  0  0  0  0
 35 36  1  1  0  0  0
 35 37  1  0  0  0  0
 35 44  1  0  0  0  0
 37 38  1  0  0  0  0
 37 86  1  0  0  0  0
 37 87  1  0  0  0  0
 38 43  2  0  0  0  0
 38 39  1  0  0  0  0
 39 40  2  0  0  0  0
 39 88  1  0  0  0  0
 40 41  1  0  0  0  0
 40 89  1  0  0  0  0
 41 42  2  0  0  0  0
 41 90  1  0  0  0  0
 42 43  1  0  0  0  0
 42 91  1  0  0  0  0
 43 92  1  0  0  0  0
 44 45  1  0  0  0  0
 44 93  1  0  0  0  0
 45 46  2  0  0  0  0
 45 47  1  0  0  0  0
 47 48  1  0  0  0  0
 48 49  1  0  0  0  0
 48 94  1  0  0  0  0
 48 95  1  0  0  0  0
 49 53  1  0  0  0  0
 49 50  2  0  0  0  0
 50 51  1  0  0  0  0
 50 96  1  0  0  0  0
 51 52  2  0  0  0  0
 52 53  1  0  0  0  0
 52 97  1  0  0  0  0
 54 98  1  0  0  0  0
M  END
$$$$
