ZINC00002282
 OpenBabel08292219463D

 29 30  0  0  1  0  0  0  0  0999 V2000
   -0.2088    3.1766    2.2656 C   0  0  0  0  0  0  0  0  0  0  0  0
   -0.3680    1.8007    1.6156 C   0  0  2  0  0  0  0  0  0  0  0  0
   -1.4163    1.5034    1.6465 H   0  0  0  0  0  0  0  0  0  0  0  0
    0.4626    0.7916    2.3658 C   0  0  0  0  0  0  0  0  0  0  0  0
    0.0389   -0.3329    2.9969 C   0  0  0  0  0  0  0  0  0  0  0  0
    0.9598   -1.1309    3.6293 C   0  0  0  0  0  0  0  0  0  0  0  0
    2.2787   -0.6991    3.5619 C   0  0  0  0  0  0  0  0  0  0  0  0
    2.1253    0.7978    2.6059 S   0  0  0  0  0  0  0  0  0  0  0  0
    3.4812   -1.3151    4.1250 C   0  0  0  0  0  0  0  0  0  0  0  0
    3.3837   -2.2845    4.8548 O   0  0  0  0  0  0  0  0  0  0  0  0
    4.8147   -0.7599    3.8071 C   0  0  0  0  0  0  0  0  0  0  0  0
    4.9925    0.0292    2.6693 C   0  0  0  0  0  0  0  0  0  0  0  0
    6.2388    0.5440    2.3786 C   0  0  0  0  0  0  0  0  0  0  0  0
    7.3115    0.2794    3.2117 C   0  0  0  0  0  0  0  0  0  0  0  0
    7.1422   -0.5024    4.3409 C   0  0  0  0  0  0  0  0  0  0  0  0
    5.8998   -1.0178    4.6467 C   0  0  0  0  0  0  0  0  0  0  0  0
    0.0937    1.8656    0.1826 C   0  0  0  0  0  0  0  0  0  0  0  0
    0.5115    2.9151   -0.2764 O   0  0  0  0  0  0  0  0  0  0  0  0
    0.0496    0.8686   -0.5179 O   0  0  0  0  0  1  0  0  0  0  0  0
    0.8395    3.4739    2.2347 H   0  0  0  0  0  0  0  0  0  0  0  0
   -0.8096    3.9065    1.7229 H   0  0  0  0  0  0  0  0  0  0  0  0
   -0.5428    3.1297    3.3021 H   0  0  0  0  0  0  0  0  0  0  0  0
   -1.0085   -0.5963    3.0017 H   0  0  0  0  0  0  0  0  0  0  0  0
    0.6772   -2.0359    4.1464 H   0  0  0  0  0  0  0  0  0  0  0  0
    4.1562    0.2359    2.0179 H   0  0  0  0  0  0  0  0  0  0  0  0
    6.3778    1.1545    1.4987 H   0  0  0  0  0  0  0  0  0  0  0  0
    8.2853    0.6845    2.9794 H   0  0  0  0  0  0  0  0  0  0  0  0
    7.9837   -0.7054    4.9868 H   0  0  0  0  0  0  0  0  0  0  0  0
    5.7679   -1.6238    5.5309 H   0  0  0  0  0  0  0  0  0  0  0  0
  1  2  1  0  0  0  0
  1 20  1  0  0  0  0
  1 21  1  0  0  0  0
  1 22  1  0  0  0  0
  2  3  1  1  0  0  0
  2  4  1  0  0  0  0
  2 17  1  0  0  0  0
  4  8  1  0  0  0  0
  4  5  2  0  0  0  0
  5  6  1  0  0  0  0
  5 23  1  0  0  0  0
  6  7  2  0  0  0  0
  6 24  1  0  0  0  0
  7  8  1  0  0  0  0
  7  9  1  0  0  0  0
  9 10  2  0  0  0  0
  9 11  1  0  0  0  0
 11 16  2  0  0  0  0
 11 12  1  0  0  0  0
 12 13  2  0  0  0  0
 12 25  1  0  0  0  0
 13 14  1  0  0  0  0
 13 26  1  0  0  0  0
 14 15  2  0  0  0  0
 14 27  1  0  0  0  0
 15 16  1  0  0  0  0
 15 28  1  0  0  0  0
 16 29  1  0  0  0  0
 17 18  2  0  0  0  0
 17 19  1  0  0  0  0
M  END
$$$$
