ZINC01850377
 OpenBabel08292219463D

 46 48  0  0  1  0  0  0  0  0999 V2000
   -0.0049    1.1768   -0.1786 C   0  0  0  0  0  0  0  0  0  0  0  0
    0.0197   -0.3513   -0.1052 C   0  0  0  0  0  0  0  0  0  0  0  0
   -0.8096   -1.0192    0.9935 C   0  0  1  0  0  0  0  0  0  0  0  0
   -1.2796   -1.9742    0.7590 H   0  0  0  0  0  0  0  0  0  0  0  0
    0.7165   -0.9896    1.0980 C   0  0  2  0  0  0  0  0  0  0  0  0
    1.2505   -1.9253    0.9323 H   0  0  0  0  0  0  0  0  0  0  0  0
    1.3262   -0.0652    2.1202 C   0  0  0  0  0  0  0  0  0  0  0  0
    1.2537    1.1317    1.9717 O   0  0  0  0  0  0  0  0  0  0  0  0
    1.9498   -0.5715    3.1956 O   0  0  0  0  0  0  0  0  0  0  0  0
    2.5045    0.3629    4.1236 C   0  0  0  0  0  0  0  0  0  0  0  0
    3.1593   -0.3835    5.2573 C   0  0  0  0  0  0  0  0  0  0  0  0
    2.4242   -0.7182    6.3799 C   0  0  0  0  0  0  0  0  0  0  0  0
    3.0218   -1.4032    7.4215 C   0  0  0  0  0  0  0  0  0  0  0  0
    4.3556   -1.7549    7.3435 C   0  0  0  0  0  0  0  0  0  0  0  0
    5.0953   -1.4204    6.2184 C   0  0  0  0  0  0  0  0  0  0  0  0
    4.4915   -0.7376    5.1718 C   0  0  0  0  0  0  0  0  0  0  0  0
    6.4073   -1.7650    6.1392 O   0  0  0  0  0  0  0  0  0  0  0  0
    7.3308   -0.7684    6.1566 C   0  0  0  0  0  0  0  0  0  0  0  0
    6.9353    0.5418    6.3853 C   0  0  0  0  0  0  0  0  0  0  0  0
    7.8762    1.5530    6.4024 C   0  0  0  0  0  0  0  0  0  0  0  0
    9.2110    1.2607    6.1914 C   0  0  0  0  0  0  0  0  0  0  0  0
    9.6078   -0.0440    5.9628 C   0  0  0  0  0  0  0  0  0  0  0  0
    8.6718   -1.0599    5.9513 C   0  0  0  0  0  0  0  0  0  0  0  0
   -1.5885   -0.1216    1.9202 C   0  0  0  0  0  0  0  0  0  0  0  0
   -2.8954   -0.2287    1.9933 C   0  0  0  0  0  0  0  0  0  0  0  0
   -3.7257   -1.4042    1.0225 Cl  0  0  0  0  0  0  0  0  0  0  0  0
   -3.7926    0.8052    3.0609 Cl  0  0  0  0  0  0  0  0  0  0  0  0
    0.1262   -1.0748   -1.4491 C   0  0  0  0  0  0  0  0  0  0  0  0
    1.0168    1.5558   -0.2030 H   0  0  0  0  0  0  0  0  0  0  0  0
   -0.5298    1.4888   -1.0815 H   0  0  0  0  0  0  0  0  0  0  0  0
   -0.5191    1.5743    0.6964 H   0  0  0  0  0  0  0  0  0  0  0  0
    3.2472    0.9799    3.6179 H   0  0  0  0  0  0  0  0  0  0  0  0
    1.7113    0.9985    4.5173 H   0  0  0  0  0  0  0  0  0  0  0  0
    1.3816   -0.4436    6.4431 H   0  0  0  0  0  0  0  0  0  0  0  0
    2.4455   -1.6634    8.2970 H   0  0  0  0  0  0  0  0  0  0  0  0
    4.8221   -2.2895    8.1577 H   0  0  0  0  0  0  0  0  0  0  0  0
    5.0640   -0.4797    4.2931 H   0  0  0  0  0  0  0  0  0  0  0  0
    5.8927    0.7707    6.5495 H   0  0  0  0  0  0  0  0  0  0  0  0
    7.5688    2.5730    6.5804 H   0  0  0  0  0  0  0  0  0  0  0  0
    9.9450    2.0528    6.2048 H   0  0  0  0  0  0  0  0  0  0  0  0
   10.6510   -0.2697    5.7979 H   0  0  0  0  0  0  0  0  0  0  0  0
    8.9828   -2.0794    5.7774 H   0  0  0  0  0  0  0  0  0  0  0  0
   -1.0720    0.6097    2.5242 H   0  0  0  0  0  0  0  0  0  0  0  0
    1.1747   -1.1572   -1.7353 H   0  0  0  0  0  0  0  0  0  0  0  0
   -0.3055   -2.0717   -1.3602 H   0  0  0  0  0  0  0  0  0  0  0  0
   -0.4147   -0.5111   -2.2091 H   0  0  0  0  0  0  0  0  0  0  0  0
  1  2  1  0  0  0  0
  1 29  1  0  0  0  0
  1 30  1  0  0  0  0
  1 31  1  0  0  0  0
  2  5  1  0  0  0  0
  2  3  1  0  0  0  0
  2 28  1  0  0  0  0
  3  4  1  6  0  0  0
  3  5  1  0  0  0  0
  3 24  1  0  0  0  0
  5  6  1  6  0  0  0
  5  7  1  0  0  0  0
  7  8  2  0  0  0  0
  7  9  1  0  0  0  0
  9 10  1  0  0  0  0
 10 11  1  0  0  0  0
 10 32  1  0  0  0  0
 10 33  1  0  0  0  0
 11 16  2  0  0  0  0
 11 12  1  0  0  0  0
 12 13  2  0  0  0  0
 12 34  1  0  0  0  0
 13 14  1  0  0  0  0
 13 35  1  0  0  0  0
 14 15  2  0  0  0  0
 14 36  1  0  0  0  0
 15 16  1  0  0  0  0
 15 17  1  0  0  0  0
 16 37  1  0  0  0  0
 17 18  1  0  0  0  0
 18 23  2  0  0  0  0
 18 19  1  0  0  0  0
 19 20  2  0  0  0  0
 19 38  1  0  0  0  0
 20 21  1  0  0  0  0
 20 39  1  0  0  0  0
 21 22  2  0  0  0  0
 21 40  1  0  0  0  0
 22 23  1  0  0  0  0
 22 41  1  0  0  0  0
 23 42  1  0  0  0  0
 24 25  2  0  0  0  0
 24 43  1  0  0  0  0
 25 26  1  0  0  0  0
 25 27  1  0  0  0  0
 28 44  1  0  0  0  0
 28 45  1  0  0  0  0
 28 46  1  0  0  0  0
M  END
$$$$
