ZINC00004076
 OpenBabel08292219463D

 49 51  0  0  1  0  0  0  0  0999 V2000
   -0.0178    1.4608    0.0101 C   0  0  0  0  0  0  0  0  0  0  0  0
    0.0021   -0.0041    0.0020 N   0  0  0  0  0  0  0  0  0  0  0  0
    0.7184   -0.8155   -1.2513 S   0  0  0  0  0  0  0  0  0  0  0  0
    0.5323   -2.1909   -0.9462 O   0  0  0  0  0  0  0  0  0  0  0  0
    0.1475   -0.2497   -2.4231 O   0  0  0  0  0  0  0  0  0  0  0  0
    2.4769   -0.3837   -1.1417 C   0  0  0  0  0  0  0  0  0  0  0  0
    3.2451   -1.0851   -2.2637 C   0  0  0  0  0  0  0  0  0  0  0  0
    4.7059   -0.7263   -2.1728 C   0  0  0  0  0  0  0  0  0  0  0  0
    5.1845    0.3886   -2.8476 C   0  0  0  0  0  0  0  0  0  0  0  0
    6.5162    0.7338   -2.7781 C   0  0  0  0  0  0  0  0  0  0  0  0
    7.3924   -0.0406   -2.0244 C   0  0  0  0  0  0  0  0  0  0  0  0
    6.9024   -1.1689   -1.3421 C   0  0  0  0  0  0  0  0  0  0  0  0
    5.5477   -1.4976   -1.4223 C   0  0  0  0  0  0  0  0  0  0  0  0
    8.0540   -1.7580   -0.6546 C   0  0  0  0  0  0  0  0  0  0  0  0
    9.1180   -0.9927   -0.9451 C   0  0  0  0  0  0  0  0  0  0  0  0
    8.7418    0.0382   -1.7624 N   0  0  0  0  0  0  0  0  0  0  0  0
    9.3371    0.7228   -2.1057 H   0  0  0  0  0  0  0  0  0  0  0  0
    8.0458   -2.9892    0.2143 C   0  0  2  0  0  0  0  0  0  0  0  0
    8.5253   -2.6254    1.6225 C   0  0  0  0  0  0  0  0  0  0  0  0
    8.5904   -3.8933    2.4767 C   0  0  0  0  0  0  0  0  0  0  0  0
    9.5262   -4.8482    1.8709 N   0  3  2  0  0  0  0  0  0  0  0  0
    9.0353   -5.2566    0.5493 C   0  0  0  0  0  0  0  0  0  0  0  0
    8.9873   -4.0411   -0.3791 C   0  0  0  0  0  0  0  0  0  0  0  0
    9.6443   -6.0307    2.7346 C   0  0  0  0  0  0  0  0  0  0  0  0
    1.0048    1.8381    0.0023 H   0  0  0  0  0  0  0  0  0  0  0  0
   -0.5450    1.8219   -0.8730 H   0  0  0  0  0  0  0  0  0  0  0  0
   -0.5280    1.8123    0.9069 H   0  0  0  0  0  0  0  0  0  0  0  0
   -0.4044   -0.4986    0.7308 H   0  0  0  0  0  0  0  0  0  0  0  0
    2.5929    0.6955   -1.2415 H   0  0  0  0  0  0  0  0  0  0  0  0
    2.8702   -0.7038   -0.1769 H   0  0  0  0  0  0  0  0  0  0  0  0
    3.1291   -2.1643   -2.1640 H   0  0  0  0  0  0  0  0  0  0  0  0
    2.8517   -0.7650   -3.2286 H   0  0  0  0  0  0  0  0  0  0  0  0
    4.5060    0.9910   -3.4333 H   0  0  0  0  0  0  0  0  0  0  0  0
    6.8790    1.6026   -3.3073 H   0  0  0  0  0  0  0  0  0  0  0  0
    5.1674   -2.3607   -0.8962 H   0  0  0  0  0  0  0  0  0  0  0  0
   10.1221   -1.1654   -0.5870 H   0  0  0  0  0  0  0  0  0  0  0  0
    7.0344   -3.3926    0.2653 H   0  0  0  0  0  0  0  0  0  0  0  0
    9.5160   -2.1744    1.5644 H   0  0  0  0  0  0  0  0  0  0  0  0
    7.8287   -1.9184    2.0729 H   0  0  0  0  0  0  0  0  0  0  0  0
    8.9313   -3.6378    3.4800 H   0  0  0  0  0  0  0  0  0  0  0  0
    7.5993   -4.3433    2.5343 H   0  0  0  0  0  0  0  0  0  0  0  0
    9.7046   -6.0075    0.1296 H   0  0  0  0  0  0  0  0  0  0  0  0
    8.0347   -5.6775    0.6480 H   0  0  0  0  0  0  0  0  0  0  0  0
    8.6209   -4.3460   -1.3593 H   0  0  0  0  0  0  0  0  0  0  0  0
    9.9876   -3.6195   -0.4787 H   0  0  0  0  0  0  0  0  0  0  0  0
    8.6664   -6.4994    2.8445 H   0  0  0  0  0  0  0  0  0  0  0  0
   10.3391   -6.7405    2.2856 H   0  0  0  0  0  0  0  0  0  0  0  0
   10.0151   -5.7295    3.7143 H   0  0  0  0  0  0  0  0  0  0  0  0
   10.4317   -4.4141    1.7729 H   0  0  0  0  0  0  0  0  0  0  0  0
  1  2  1  0  0  0  0
  1 25  1  0  0  0  0
  1 26  1  0  0  0  0
  1 27  1  0  0  0  0
  2  3  1  0  0  0  0
  2 28  1  0  0  0  0
  3  4  2  0  0  0  0
  3  5  2  0  0  0  0
  3  6  1  0  0  0  0
  6  7  1  0  0  0  0
  6 29  1  0  0  0  0
  6 30  1  0  0  0  0
  7  8  1  0  0  0  0
  7 31  1  0  0  0  0
  7 32  1  0  0  0  0
  8 13  2  0  0  0  0
  8  9  1  0  0  0  0
  9 10  2  0  0  0  0
  9 33  1  0  0  0  0
 10 11  1  0  0  0  0
 10 34  1  0  0  0  0
 11 16  1  0  0  0  0
 11 12  2  0  0  0  0
 12 13  1  0  0  0  0
 12 14  1  0  0  0  0
 13 35  1  0  0  0  0
 14 15  2  0  0  0  0
 14 18  1  0  0  0  0
 15 16  1  0  0  0  0
 15 36  1  0  0  0  0
 16 17  1  0  0  0  0
 18 23  1  0  0  0  0
 18 19  1  0  0  0  0
 18 37  1  1  0  0  0
 19 20  1  0  0  0  0
 19 38  1  0  0  0  0
 19 39  1  0  0  0  0
 20 21  1  0  0  0  0
 20 40  1  0  0  0  0
 20 41  1  0  0  0  0
 21 22  1  0  0  0  0
 21 24  1  0  0  0  0
 21 49  1  6  0  0  0
 22 23  1  0  0  0  0
 22 42  1  0  0  0  0
 22 43  1  0  0  0  0
 23 44  1  0  0  0  0
 23 45  1  0  0  0  0
 24 46  1  0  0  0  0
 24 47  1  0  0  0  0
 24 48  1  0  0  0  0
M  CHG  1  21   1
M  END
$$$$
