ZINC03876023
 OpenBabel08292219463D

 60 63  0  0  1  0  0  0  0  0999 V2000
   -0.0086    1.5061   -0.0208 C   0  0  0  0  0  0  0  0  0  0  0  0
    0.0106   -0.0008   -0.0248 C   0  0  0  0  0  0  0  0  0  0  0  0
    1.0645   -0.5915   -0.0370 O   0  0  0  0  0  0  0  0  0  0  0  0
   -1.1432   -0.6867   -0.0148 O   0  0  0  0  0  0  0  0  0  0  0  0
   -1.0503   -2.1126   -0.0193 C   0  0  1  0  0  0  0  0  0  0  0  0
   -0.1337   -2.4200    0.4842 H   0  0  0  0  0  0  0  0  0  0  0  0
   -2.2594   -2.7074    0.7093 C   0  0  0  0  0  0  0  0  0  0  0  0
   -2.1909   -4.2300    0.5937 C   0  0  0  0  0  0  0  0  0  0  0  0
   -2.2948   -4.6632   -0.8585 C   0  0  2  0  0  0  0  0  0  0  0  0
   -3.3488   -4.6751   -1.1364 H   0  0  0  0  0  0  0  0  0  0  0  0
   -1.7412   -6.0823   -1.0223 C   0  0  1  0  0  0  0  0  0  0  0  0
   -0.6960   -6.0968   -0.7133 H   0  0  0  0  0  0  0  0  0  0  0  0
   -2.5382   -7.0390   -0.1405 C   0  0  0  0  0  0  0  0  0  0  0  0
   -2.1114   -8.4996   -0.3562 C   0  0  0  0  0  0  0  0  0  0  0  0
   -2.3001   -8.8088   -1.8291 C   0  0  1  0  0  0  0  0  0  0  0  0
   -1.3091   -7.9095   -2.6160 C   0  0  2  0  0  0  0  0  0  0  0  0
   -0.3039   -8.0001   -2.2044 H   0  0  0  0  0  0  0  0  0  0  0  0
   -1.8367   -6.4919   -2.5002 C   0  0  2  0  0  0  0  0  0  0  0  0
   -2.8743   -6.4415   -2.8303 H   0  0  0  0  0  0  0  0  0  0  0  0
   -0.9585   -5.5633   -3.3418 C   0  0  0  0  0  0  0  0  0  0  0  0
   -1.5020   -4.1342   -3.2626 C   0  0  0  0  0  0  0  0  0  0  0  0
   -1.5721   -3.7431   -1.7975 C   0  0  0  0  0  0  0  0  0  0  0  0
   -1.0366   -2.6108   -1.4360 C   0  0  0  0  0  0  0  0  0  0  0  0
   -1.3702   -8.5308   -4.0157 C   0  0  0  0  0  0  0  0  0  0  0  0
   -1.3781  -10.0554   -3.7192 C   0  0  0  0  0  0  0  0  0  0  0  0
   -1.9291  -10.2177   -2.2806 C   0  0  1  0  0  0  0  0  0  0  0  0
   -0.8935  -10.7798   -1.3983 C   0  0  0  0  0  0  0  0  0  0  0  0
   -0.0675  -11.2282   -0.6947 C   0  0  0  0  0  0  0  0  0  0  0  0
   -3.0857  -11.0569   -2.2851 O   0  0  0  0  0  0  0  0  0  0  0  0
   -2.9113  -12.3330   -2.6630 C   0  0  0  0  0  0  0  0  0  0  0  0
   -1.8130  -12.7246   -2.9795 O   0  0  0  0  0  0  0  0  0  0  0  0
   -4.0854  -13.2773   -2.6926 C   0  0  0  0  0  0  0  0  0  0  0  0
   -3.7380   -8.4925   -2.2452 C   0  0  0  0  0  0  0  0  0  0  0  0
    1.0143    1.8825   -0.0303 H   0  0  0  0  0  0  0  0  0  0  0  0
   -0.5361    1.8651   -0.9046 H   0  0  0  0  0  0  0  0  0  0  0  0
   -0.5179    1.8606    0.8753 H   0  0  0  0  0  0  0  0  0  0  0  0
   -2.2342   -2.4174    1.7597 H   0  0  0  0  0  0  0  0  0  0  0  0
   -3.1793   -2.3454    0.2500 H   0  0  0  0  0  0  0  0  0  0  0  0
   -1.2441   -4.5791    1.0057 H   0  0  0  0  0  0  0  0  0  0  0  0
   -3.0120   -4.6704    1.1594 H   0  0  0  0  0  0  0  0  0  0  0  0
   -2.3810   -6.7734    0.9048 H   0  0  0  0  0  0  0  0  0  0  0  0
   -3.5979   -6.9399   -0.3757 H   0  0  0  0  0  0  0  0  0  0  0  0
   -1.0639   -8.6247   -0.0819 H   0  0  0  0  0  0  0  0  0  0  0  0
   -2.7351   -9.1612    0.2449 H   0  0  0  0  0  0  0  0  0  0  0  0
    0.0626   -5.5851   -2.9609 H   0  0  0  0  0  0  0  0  0  0  0  0
   -0.9661   -5.8977   -4.3792 H   0  0  0  0  0  0  0  0  0  0  0  0
   -0.8313   -3.4564   -3.7908 H   0  0  0  0  0  0  0  0  0  0  0  0
   -2.4944   -4.0933   -3.7115 H   0  0  0  0  0  0  0  0  0  0  0  0
   -0.5505   -2.0076   -2.1885 H   0  0  0  0  0  0  0  0  0  0  0  0
   -2.2839   -8.2332   -4.5303 H   0  0  0  0  0  0  0  0  0  0  0  0
   -0.4911   -8.2558   -4.5985 H   0  0  0  0  0  0  0  0  0  0  0  0
   -2.0258  -10.5711   -4.4282 H   0  0  0  0  0  0  0  0  0  0  0  0
   -0.3652  -10.4534   -3.7790 H   0  0  0  0  0  0  0  0  0  0  0  0
    0.6712  -11.6291   -0.0653 H   0  0  0  0  0  0  0  0  0  0  0  0
   -4.5557  -13.2416   -3.6754 H   0  0  0  0  0  0  0  0  0  0  0  0
   -3.7411  -14.2916   -2.4912 H   0  0  0  0  0  0  0  0  0  0  0  0
   -4.8088  -12.9815   -1.9328 H   0  0  0  0  0  0  0  0  0  0  0  0
   -3.9729   -7.4604   -1.9850 H   0  0  0  0  0  0  0  0  0  0  0  0
   -3.8431   -8.6288   -3.3216 H   0  0  0  0  0  0  0  0  0  0  0  0
   -4.4225   -9.1630   -1.7256 H   0  0  0  0  0  0  0  0  0  0  0  0
  1  2  1  0  0  0  0
  1 34  1  0  0  0  0
  1 35  1  0  0  0  0
  1 36  1  0  0  0  0
  2  3  2  0  0  0  0
  2  4  1  0  0  0  0
  4  5  1  0  0  0  0
  5  6  1  1  0  0  0
  5 23  1  0  0  0  0
  5  7  1  0  0  0  0
  7  8  1  0  0  0  0
  7 37  1  0  0  0  0
  7 38  1  0  0  0  0
  8  9  1  0  0  0  0
  8 39  1  0  0  0  0
  8 40  1  0  0  0  0
  9 10  1  6  0  0  0
  9 22  1  0  0  0  0
  9 11  1  0  0  0  0
 11 12  1  1  0  0  0
 11 18  1  0  0  0  0
 11 13  1  0  0  0  0
 13 14  1  0  0  0  0
 13 41  1  0  0  0  0
 13 42  1  0  0  0  0
 14 15  1  0  0  0  0
 14 43  1  0  0  0  0
 14 44  1  0  0  0  0
 15 26  1  0  0  0  0
 15 16  1  0  0  0  0
 15 33  1  6  0  0  0
 16 17  1  1  0  0  0
 16 18  1  0  0  0  0
 16 24  1  0  0  0  0
 18 19  1  6  0  0  0
 18 20  1  0  0  0  0
 20 21  1  0  0  0  0
 20 45  1  0  0  0  0
 20 46  1  0  0  0  0
 21 22  1  0  0  0  0
 21 47  1  0  0  0  0
 21 48  1  0  0  0  0
 22 23  2  0  0  0  0
 23 49  1  0  0  0  0
 24 25  1  0  0  0  0
 24 50  1  0  0  0  0
 24 51  1  0  0  0  0
 25 26  1  0  0  0  0
 25 52  1  0  0  0  0
 25 53  1  0  0  0  0
 26 27  1  1  0  0  0
 26 29  1  0  0  0  0
 27 28  3  0  0  0  0
 28 54  1  0  0  0  0
 29 30  1  0  0  0  0
 30 31  2  0  0  0  0
 30 32  1  0  0  0  0
 32 55  1  0  0  0  0
 32 56  1  0  0  0  0
 32 57  1  0  0  0  0
 33 58  1  0  0  0  0
 33 59  1  0  0  0  0
 33 60  1  0  0  0  0
M  END
$$$$
