ZINC02007682
 OpenBabel08292219463D

 58 59  0  0  1  0  0  0  0  0999 V2000
    5.0561    3.6702   -0.8896 C   0  0  0  0  0  0  0  0  0  0  0  0
    3.7278    2.9162   -0.9789 C   0  0  0  0  0  0  0  0  0  0  0  0
    3.5798    1.9981    0.2361 C   0  0  2  0  0  0  0  0  0  0  0  0
    4.4361    1.3259    0.2899 H   0  0  0  0  0  0  0  0  0  0  0  0
    2.2952    1.1780    0.1021 C   0  0  0  0  0  0  0  0  0  0  0  0
    2.3173    0.4079   -1.2198 C   0  0  0  0  0  0  0  0  0  0  0  0
    3.5980   -0.4250   -1.3035 C   0  0  2  0  0  0  0  0  0  0  0  0
    4.4611    0.2172   -1.1282 H   0  0  0  0  0  0  0  0  0  0  0  0
    3.7059   -1.0564   -2.6929 C   0  0  0  0  0  0  0  0  0  0  0  0
    2.4945   -2.4527   -0.5731 C   0  0  0  0  0  0  0  0  0  0  0  0
    4.8639   -2.1529   -0.1745 C   0  0  0  0  0  0  0  0  0  0  0  0
    1.1047    2.1017    0.1254 C   0  0  0  0  0  0  0  0  0  0  0  0
   -0.1600    1.6058   -0.1302 C   0  0  0  0  0  0  0  0  0  0  0  0
   -1.2514    2.4542   -0.1140 C   0  0  0  0  0  0  0  0  0  0  0  0
   -1.0792    3.7966    0.1674 C   0  0  0  0  0  0  0  0  0  0  0  0
    0.1855    4.2923    0.4239 C   0  0  0  0  0  0  0  0  0  0  0  0
    1.2774    3.4449    0.4030 C   0  0  0  0  0  0  0  0  0  0  0  0
    2.1985    0.2049    1.2488 C   0  0  0  0  0  0  0  0  0  0  0  0
    1.1110   -0.6428    1.3461 C   0  0  0  0  0  0  0  0  0  0  0  0
    1.0247   -1.5387    2.3953 C   0  0  0  0  0  0  0  0  0  0  0  0
    2.0208   -1.5796    3.3529 C   0  0  0  0  0  0  0  0  0  0  0  0
    3.1058   -0.7283    3.2584 C   0  0  0  0  0  0  0  0  0  0  0  0
    3.1946    0.1640    2.2063 C   0  0  0  0  0  0  0  0  0  0  0  0
    3.5178    2.8007    1.4445 O   0  0  0  0  0  0  0  0  0  0  0  0
    4.6821    3.0784    2.0520 C   0  0  0  0  0  0  0  0  0  0  0  0
    5.7187    2.6646    1.5893 O   0  0  0  0  0  0  0  0  0  0  0  0
    4.6964    3.9064    3.3111 C   0  0  0  0  0  0  0  0  0  0  0  0
    5.8790    2.9556   -0.8718 H   0  0  0  0  0  0  0  0  0  0  0  0
    5.1615    4.3243   -1.7551 H   0  0  0  0  0  0  0  0  0  0  0  0
    5.0741    4.2679    0.0218 H   0  0  0  0  0  0  0  0  0  0  0  0
    3.7098    2.3186   -1.8903 H   0  0  0  0  0  0  0  0  0  0  0  0
    2.9049    3.6308   -0.9967 H   0  0  0  0  0  0  0  0  0  0  0  0
    1.4510   -0.2517   -1.2706 H   0  0  0  0  0  0  0  0  0  0  0  0
    2.2870    1.1122   -2.0512 H   0  0  0  0  0  0  0  0  0  0  0  0
    2.8428   -1.6986   -2.8682 H   0  0  0  0  0  0  0  0  0  0  0  0
    3.7335   -0.2707   -3.4479 H   0  0  0  0  0  0  0  0  0  0  0  0
    4.6183   -1.6498   -2.7525 H   0  0  0  0  0  0  0  0  0  0  0  0
    2.6713   -2.9096   -1.5467 H   0  0  0  0  0  0  0  0  0  0  0  0
    2.4892   -3.2256    0.1955 H   0  0  0  0  0  0  0  0  0  0  0  0
    1.5318   -1.9416   -0.5810 H   0  0  0  0  0  0  0  0  0  0  0  0
    5.6236   -1.4239    0.1074 H   0  0  0  0  0  0  0  0  0  0  0  0
    4.8084   -2.9322    0.5856 H   0  0  0  0  0  0  0  0  0  0  0  0
    5.1265   -2.5990   -1.1337 H   0  0  0  0  0  0  0  0  0  0  0  0
   -0.2950    0.5565   -0.3470 H   0  0  0  0  0  0  0  0  0  0  0  0
   -2.2389    2.0676   -0.3181 H   0  0  0  0  0  0  0  0  0  0  0  0
   -1.9322    4.4587    0.1834 H   0  0  0  0  0  0  0  0  0  0  0  0
    0.3205    5.3417    0.6404 H   0  0  0  0  0  0  0  0  0  0  0  0
    2.2655    3.8322    0.6031 H   0  0  0  0  0  0  0  0  0  0  0  0
    0.3306   -0.6078    0.6003 H   0  0  0  0  0  0  0  0  0  0  0  0
    0.1769   -2.2036    2.4693 H   0  0  0  0  0  0  0  0  0  0  0  0
    1.9512   -2.2765    4.1750 H   0  0  0  0  0  0  0  0  0  0  0  0
    3.8838   -0.7600    4.0067 H   0  0  0  0  0  0  0  0  0  0  0  0
    4.0421    0.8294    2.1327 H   0  0  0  0  0  0  0  0  0  0  0  0
    4.6099    3.2511    4.1778 H   0  0  0  0  0  0  0  0  0  0  0  0
    5.6313    4.4638    3.3689 H   0  0  0  0  0  0  0  0  0  0  0  0
    3.8582    4.6031    3.2973 H   0  0  0  0  0  0  0  0  0  0  0  0
    3.5550   -1.4716   -0.2607 N   0  3  0  0  0  0  0  0  0  0  0  0
    3.3473   -1.0327    0.6440 H   0  0  0  0  0  0  0  0  0  0  0  0
  1  2  1  0  0  0  0
  1 28  1  0  0  0  0
  1 29  1  0  0  0  0
  1 30  1  0  0  0  0
  2  3  1  0  0  0  0
  2 31  1  0  0  0  0
  2 32  1  0  0  0  0
  3  4  1  1  0  0  0
  3  5  1  0  0  0  0
  3 24  1  0  0  0  0
  5  6  1  0  0  0  0
  5 12  1  0  0  0  0
  5 18  1  0  0  0  0
  6  7  1  0  0  0  0
  6 33  1  0  0  0  0
  6 34  1  0  0  0  0
  7  8  1  1  0  0  0
  7  9  1  0  0  0  0
  7 57  1  0  0  0  0
  9 35  1  0  0  0  0
  9 36  1  0  0  0  0
  9 37  1  0  0  0  0
 10 38  1  0  0  0  0
 10 39  1  0  0  0  0
 10 40  1  0  0  0  0
 10 57  1  0  0  0  0
 11 41  1  0  0  0  0
 11 42  1  0  0  0  0
 11 43  1  0  0  0  0
 11 57  1  0  0  0  0
 12 17  2  0  0  0  0
 12 13  1  0  0  0  0
 13 14  2  0  0  0  0
 13 44  1  0  0  0  0
 14 15  1  0  0  0  0
 14 45  1  0  0  0  0
 15 16  2  0  0  0  0
 15 46  1  0  0  0  0
 16 17  1  0  0  0  0
 16 47  1  0  0  0  0
 17 48  1  0  0  0  0
 18 23  2  0  0  0  0
 18 19  1  0  0  0  0
 19 20  2  0  0  0  0
 19 49  1  0  0  0  0
 20 21  1  0  0  0  0
 20 50  1  0  0  0  0
 21 22  2  0  0  0  0
 21 51  1  0  0  0  0
 22 23  1  0  0  0  0
 22 52  1  0  0  0  0
 23 53  1  0  0  0  0
 24 25  1  0  0  0  0
 25 26  2  0  0  0  0
 25 27  1  0  0  0  0
 27 54  1  0  0  0  0
 27 55  1  0  0  0  0
 27 56  1  0  0  0  0
 57 58  1  0  0  0  0
M  CHG  1  57   1
M  END
$$$$
