ZINC00004893
 OpenBabel08292219463D

 37 40  0  0  1  0  0  0  0  0999 V2000
   -0.0127    1.0858    0.0080 C   0  0  0  0  0  0  0  0  0  0  0  0
   -0.0073    1.0850    2.4451 C   0  0  0  0  0  0  0  0  0  0  0  0
   -0.1864    2.2424    3.4405 C   0  0  1  0  0  0  0  0  0  0  0  0
   -1.2029    2.2082    3.8325 H   0  0  0  0  0  0  0  0  0  0  0  0
    0.7488    2.2562    4.5832 C   0  0  0  0  0  0  0  0  0  0  0  0
    1.7711    1.3363    4.7136 C   0  0  0  0  0  0  0  0  0  0  0  0
    2.6484    1.4237    5.7787 C   0  0  0  0  0  0  0  0  0  0  0  0
    2.5093    2.4315    6.7155 C   0  0  0  0  0  0  0  0  0  0  0  0
    1.4766    3.3431    6.6013 C   0  0  0  0  0  0  0  0  0  0  0  0
    0.5851    3.2429    5.5467 C   0  0  0  0  0  0  0  0  0  0  0  0
   -0.4665    4.0777    5.4224 O   0  0  0  0  0  0  0  0  0  0  0  0
   -0.6069    5.0100    4.4599 C   0  0  0  0  0  0  0  0  0  0  0  0
   -0.9564    6.2927    4.8899 C   0  0  0  0  0  0  0  0  0  0  0  0
   -1.0869    7.3313    3.9969 C   0  0  0  0  0  0  0  0  0  0  0  0
   -0.8697    7.1004    2.6496 C   0  0  0  0  0  0  0  0  0  0  0  0
   -0.5345    5.8368    2.2177 C   0  0  0  0  0  0  0  0  0  0  0  0
   -0.4043    4.7727    3.1106 C   0  0  0  0  0  0  0  0  0  0  0  0
   -0.0578    3.4559    2.5444 C   0  0  2  0  0  0  0  0  0  0  0  0
    0.9984    3.5107    2.2805 H   0  0  0  0  0  0  0  0  0  0  0  0
   -0.7552    3.0434    1.2507 C   0  0  0  0  0  0  0  0  0  0  0  0
   -1.0200    8.3997    1.5080 Cl  0  0  0  0  0  0  0  0  0  0  0  0
    0.0021   -0.0041    0.0020 H   0  0  0  0  0  0  0  0  0  0  0  0
    1.0099    1.4631    0.0003 H   0  0  0  0  0  0  0  0  0  0  0  0
   -0.5399    1.4469   -0.8751 H   0  0  0  0  0  0  0  0  0  0  0  0
   -0.4787    0.1782    2.8241 H   0  0  0  0  0  0  0  0  0  0  0  0
    1.0498    0.9102    2.2447 H   0  0  0  0  0  0  0  0  0  0  0  0
    1.8850    0.5485    3.9837 H   0  0  0  0  0  0  0  0  0  0  0  0
    3.4453    0.7017    5.8797 H   0  0  0  0  0  0  0  0  0  0  0  0
    3.2073    2.5061    7.5363 H   0  0  0  0  0  0  0  0  0  0  0  0
    1.3652    4.1304    7.3321 H   0  0  0  0  0  0  0  0  0  0  0  0
   -1.1266    6.4721    5.9413 H   0  0  0  0  0  0  0  0  0  0  0  0
   -1.3561    8.3179    4.3442 H   0  0  0  0  0  0  0  0  0  0  0  0
   -0.3683    5.6656    1.1643 H   0  0  0  0  0  0  0  0  0  0  0  0
   -0.2295    3.4590    0.3910 H   0  0  0  0  0  0  0  0  0  0  0  0
   -1.7915    3.3813    1.2579 H   0  0  0  0  0  0  0  0  0  0  0  0
   -0.7165    1.5660    1.2307 N   0  3  1  0  0  0  0  0  0  0  0  0
   -1.6764    1.2016    1.2308 H   0  0  0  0  0  0  0  0  0  0  0  0
  1 22  1  0  0  0  0
  1 23  1  0  0  0  0
  1 24  1  0  0  0  0
  1 36  1  0  0  0  0
  2  3  1  0  0  0  0
  2 25  1  0  0  0  0
  2 26  1  0  0  0  0
  2 36  1  0  0  0  0
  3  4  1  1  0  0  0
  3 18  1  0  0  0  0
  3  5  1  0  0  0  0
  5 10  2  0  0  0  0
  5  6  1  0  0  0  0
  6  7  2  0  0  0  0
  6 27  1  0  0  0  0
  7  8  1  0  0  0  0
  7 28  1  0  0  0  0
  8  9  2  0  0  0  0
  8 29  1  0  0  0  0
  9 10  1  0  0  0  0
  9 30  1  0  0  0  0
 10 11  1  0  0  0  0
 11 12  1  0  0  0  0
 12 17  2  0  0  0  0
 12 13  1  0  0  0  0
 13 14  2  0  0  0  0
 13 31  1  0  0  0  0
 14 15  1  0  0  0  0
 14 32  1  0  0  0  0
 15 16  2  0  0  0  0
 15 21  1  0  0  0  0
 16 17  1  0  0  0  0
 16 33  1  0  0  0  0
 17 18  1  0  0  0  0
 18 19  1  6  0  0  0
 18 20  1  0  0  0  0
 20 34  1  0  0  0  0
 20 35  1  0  0  0  0
 20 36  1  0  0  0  0
 36 37  1  1  0  0  0
M  CHG  1  36   1
M  END
$$$$
