ZINC00002042
 OpenBabel08292219463D

 35 37  0  0  0  0  0  0  0  0999 V2000
   -0.0127    1.0858    0.0080 C   0  0  0  0  0  0  0  0  0  0  0  0
   -0.7288    1.5792    1.2668 C   0  0  0  0  0  0  0  0  0  0  0  0
   -2.1032    1.0722    1.2772 N   0  0  0  0  0  0  0  0  0  0  0  0
   -3.0781    1.8527    0.7938 C   0  0  0  0  0  0  0  0  0  0  0  0
   -4.3979    1.4494    0.7672 C   0  0  0  0  0  0  0  0  0  0  0  0
   -4.7456    0.1174    1.2880 C   0  0  0  0  0  0  0  0  0  0  0  0
   -5.8961   -0.2842    1.2869 O   0  0  0  0  0  0  0  0  0  0  0  0
   -3.6433   -0.7105    1.8117 C   0  0  0  0  0  0  0  0  0  0  0  0
   -2.3370   -0.1904    1.7792 C   0  0  0  0  0  0  0  0  0  0  0  0
   -1.2886   -0.9571    2.2754 C   0  0  0  0  0  0  0  0  0  0  0  0
   -1.5422   -2.2252    2.7835 C   0  0  0  0  0  0  0  0  0  0  0  0
   -2.8448   -2.7324    2.8044 C   0  0  0  0  0  0  0  0  0  0  0  0
   -3.8826   -1.9860    2.3252 C   0  0  0  0  0  0  0  0  0  0  0  0
   -0.4234   -3.0462    3.3077 C   0  0  0  0  0  0  0  0  0  0  0  0
    0.8888   -2.5647    3.2929 C   0  0  0  0  0  0  0  0  0  0  0  0
    1.8992   -3.3598    3.7944 C   0  0  0  0  0  0  0  0  0  0  0  0
    1.6407   -4.5613    4.2735 N   0  0  0  0  0  0  0  0  0  0  0  0
    0.4178   -5.0548    4.3016 C   0  0  0  0  0  0  0  0  0  0  0  0
   -0.6518   -4.3247    3.8246 C   0  0  0  0  0  0  0  0  0  0  0  0
   -5.4389    2.3354    0.2274 C   0  0  0  0  0  0  0  0  0  0  0  0
   -6.5982    1.9702    0.2088 O   0  0  0  0  0  0  0  0  0  0  0  0
    0.0021   -0.0041    0.0020 H   0  0  0  0  0  0  0  0  0  0  0  0
    1.0099    1.4631    0.0003 H   0  0  0  0  0  0  0  0  0  0  0  0
   -0.5399    1.4469   -0.8751 H   0  0  0  0  0  0  0  0  0  0  0  0
   -0.2017    1.2182    2.1499 H   0  0  0  0  0  0  0  0  0  0  0  0
   -0.7436    2.6691    1.2728 H   0  0  0  0  0  0  0  0  0  0  0  0
   -2.8232    2.8301    0.4116 H   0  0  0  0  0  0  0  0  0  0  0  0
   -0.2803   -0.5704    2.2614 H   0  0  0  0  0  0  0  0  0  0  0  0
   -3.0310   -3.7195    3.2012 H   0  0  0  0  0  0  0  0  0  0  0  0
   -4.8872   -2.3821    2.3430 H   0  0  0  0  0  0  0  0  0  0  0  0
    1.1082   -1.5838    2.8979 H   0  0  0  0  0  0  0  0  0  0  0  0
    2.9156   -2.9949    3.7910 H   0  0  0  0  0  0  0  0  0  0  0  0
    0.2513   -6.0435    4.7028 H   0  0  0  0  0  0  0  0  0  0  0  0
   -1.6505   -4.7349    3.8506 H   0  0  0  0  0  0  0  0  0  0  0  0
   -5.1081    3.5530   -0.2472 O   0  0  0  0  0  1  0  0  0  0  0  0
  1  2  1  0  0  0  0
  1 22  1  0  0  0  0
  1 23  1  0  0  0  0
  1 24  1  0  0  0  0
  2  3  1  0  0  0  0
  2 25  1  0  0  0  0
  2 26  1  0  0  0  0
  3  9  1  0  0  0  0
  3  4  1  0  0  0  0
  4  5  2  0  0  0  0
  4 27  1  0  0  0  0
  5  6  1  0  0  0  0
  5 20  1  0  0  0  0
  6  7  2  0  0  0  0
  6  8  1  0  0  0  0
  8 13  2  0  0  0  0
  8  9  1  0  0  0  0
  9 10  2  0  0  0  0
 10 11  1  0  0  0  0
 10 28  1  0  0  0  0
 11 12  2  0  0  0  0
 11 14  1  0  0  0  0
 12 13  1  0  0  0  0
 12 29  1  0  0  0  0
 13 30  1  0  0  0  0
 14 19  2  0  0  0  0
 14 15  1  0  0  0  0
 15 16  2  0  0  0  0
 15 31  1  0  0  0  0
 16 17  1  0  0  0  0
 16 32  1  0  0  0  0
 17 18  2  0  0  0  0
 18 19  1  0  0  0  0
 18 33  1  0  0  0  0
 19 34  1  0  0  0  0
 20 21  2  0  0  0  0
 20 35  1  0  0  0  0
M  END
$$$$
