ZINC00002055
 OpenBabel08292219463D

 17 17  0  0  0  0  0  0  0  0999 V2000
   -0.0166    1.3736    0.0096 C   0  0  0  0  0  0  0  0  0  0  0  0
    1.1700    2.0889    0.0021 C   0  0  0  0  0  0  0  0  0  0  0  0
    2.3828    1.4295   -0.0135 C   0  0  0  0  0  0  0  0  0  0  0  0
    2.4204    0.0430   -0.0213 C   0  0  0  0  0  0  0  0  0  0  0  0
    1.2224   -0.6841   -0.0133 C   0  0  0  0  0  0  0  0  0  0  0  0
    0.0021   -0.0041    0.0020 C   0  0  0  0  0  0  0  0  0  0  0  0
    1.2497   -2.1592   -0.0220 C   0  0  0  0  0  0  0  0  0  0  0  0
    2.3137   -2.7475   -0.0362 O   0  0  0  0  0  0  0  0  0  0  0  0
    0.0952   -2.8546   -0.0143 N   0  0  0  0  0  0  0  0  0  0  0  0
    3.6113   -0.6062   -0.0371 O   0  0  0  0  0  0  0  0  0  0  0  0
   -0.9604    1.8983    0.0260 H   0  0  0  0  0  0  0  0  0  0  0  0
    1.1460    3.1686    0.0082 H   0  0  0  0  0  0  0  0  0  0  0  0
    3.3035    1.9940   -0.0200 H   0  0  0  0  0  0  0  0  0  0  0  0
   -0.9253   -0.5575    0.0083 H   0  0  0  0  0  0  0  0  0  0  0  0
   -0.7536   -2.3853   -0.0030 H   0  0  0  0  0  0  0  0  0  0  0  0
    0.1132   -3.8244   -0.0200 H   0  0  0  0  0  0  0  0  0  0  0  0
    3.9658   -0.7992    0.8417 H   0  0  0  0  0  0  0  0  0  0  0  0
  1  6  2  0  0  0  0
  1  2  1  0  0  0  0
  1 11  1  0  0  0  0
  2  3  2  0  0  0  0
  2 12  1  0  0  0  0
  3  4  1  0  0  0  0
  3 13  1  0  0  0  0
  4  5  2  0  0  0  0
  4 10  1  0  0  0  0
  5  6  1  0  0  0  0
  5  7  1  0  0  0  0
  6 14  1  0  0  0  0
  7  8  2  0  0  0  0
  7  9  1  0  0  0  0
  9 15  1  0  0  0  0
  9 16  1  0  0  0  0
 10 17  1  0  0  0  0
M  END
$$$$
