ZINC00537752
 OpenBabel08292219463D

 51 53  0  0  0  0  0  0  0  0999 V2000
   -1.2588    1.0379    0.6844 C   0  0  0  0  0  0  0  0  0  0  0  0
   -1.5206   -0.3900    1.1676 C   0  0  0  0  0  0  0  0  0  0  0  0
   -0.8005   -1.3380    0.3069 N   0  3  0  0  0  0  0  0  0  0  0  0
    0.6465   -1.1355    0.4589 C   0  0  0  0  0  0  0  0  0  0  0  0
    1.3927   -2.0124   -0.5486 C   0  0  0  0  0  0  0  0  0  0  0  0
   -1.1462   -2.7119    0.6953 C   0  0  0  0  0  0  0  0  0  0  0  0
   -2.6297   -2.9625    0.4176 C   0  0  0  0  0  0  0  0  0  0  0  0
   -2.9447   -4.3692    0.6788 N   0  0  0  0  0  0  0  0  0  0  0  0
   -2.9359   -5.2374   -0.4024 C   0  0  0  0  0  0  0  0  0  0  0  0
   -1.9195   -5.0755   -1.3463 C   0  0  0  0  0  0  0  0  0  0  0  0
   -1.8459   -5.8988   -2.4479 C   0  0  0  0  0  0  0  0  0  0  0  0
   -2.7863   -6.9006   -2.6311 C   0  0  0  0  0  0  0  0  0  0  0  0
   -3.7948   -7.0748   -1.7106 C   0  0  0  0  0  0  0  0  0  0  0  0
   -3.8816   -6.2444   -0.5827 C   0  0  0  0  0  0  0  0  0  0  0  0
   -4.9826   -6.4902    0.3621 C   0  0  0  0  0  0  0  0  0  0  0  0
   -4.8777   -6.4404    1.6431 N   0  0  0  0  0  0  0  0  0  0  0  0
   -3.6129   -6.1177    2.3023 C   0  0  0  0  0  0  0  0  0  0  0  0
   -3.2116   -4.7148    1.9362 C   0  0  0  0  0  0  0  0  0  0  0  0
   -3.1338   -3.8758    2.8086 O   0  0  0  0  0  0  0  0  0  0  0  0
   -6.3104   -6.8190   -0.2042 C   0  0  0  0  0  0  0  0  0  0  0  0
   -6.8715   -8.0782    0.0104 C   0  0  0  0  0  0  0  0  0  0  0  0
   -8.1090   -8.3785   -0.5192 C   0  0  0  0  0  0  0  0  0  0  0  0
   -8.7958   -7.4344   -1.2629 C   0  0  0  0  0  0  0  0  0  0  0  0
   -8.2474   -6.1845   -1.4811 C   0  0  0  0  0  0  0  0  0  0  0  0
   -7.0098   -5.8678   -0.9510 C   0  0  0  0  0  0  0  0  0  0  0  0
   -6.4764   -4.6442   -1.1596 F   0  0  0  0  0  0  0  0  0  0  0  0
   -2.6918   -7.9360   -4.0213 Cl  0  0  0  0  0  0  0  0  0  0  0  0
   -1.7931    1.7413    1.3230 H   0  0  0  0  0  0  0  0  0  0  0  0
   -0.1898    1.2463    0.7290 H   0  0  0  0  0  0  0  0  0  0  0  0
   -1.6069    1.1433   -0.3432 H   0  0  0  0  0  0  0  0  0  0  0  0
   -1.1726   -0.4954    2.1951 H   0  0  0  0  0  0  0  0  0  0  0  0
   -2.5896   -0.5984    1.1229 H   0  0  0  0  0  0  0  0  0  0  0  0
    0.8878   -0.0881    0.2777 H   0  0  0  0  0  0  0  0  0  0  0  0
    0.9472   -1.4080    1.4705 H   0  0  0  0  0  0  0  0  0  0  0  0
    1.1395   -1.6984   -1.5613 H   0  0  0  0  0  0  0  0  0  0  0  0
    2.4668   -1.9097   -0.3943 H   0  0  0  0  0  0  0  0  0  0  0  0
    1.1034   -3.0539   -0.4082 H   0  0  0  0  0  0  0  0  0  0  0  0
   -0.5448   -3.4147    0.1186 H   0  0  0  0  0  0  0  0  0  0  0  0
   -0.9471   -2.8501    1.7580 H   0  0  0  0  0  0  0  0  0  0  0  0
   -3.2332   -2.3284    1.0672 H   0  0  0  0  0  0  0  0  0  0  0  0
   -2.8490   -2.7285   -0.6242 H   0  0  0  0  0  0  0  0  0  0  0  0
   -1.1834   -4.2969   -1.2109 H   0  0  0  0  0  0  0  0  0  0  0  0
   -1.0545   -5.7636   -3.1703 H   0  0  0  0  0  0  0  0  0  0  0  0
   -4.5251   -7.8568   -1.8576 H   0  0  0  0  0  0  0  0  0  0  0  0
   -3.7350   -6.1917    3.3829 H   0  0  0  0  0  0  0  0  0  0  0  0
   -2.8412   -6.8130    1.9718 H   0  0  0  0  0  0  0  0  0  0  0  0
   -6.3376   -8.8166    0.5901 H   0  0  0  0  0  0  0  0  0  0  0  0
   -8.5434   -9.3533   -0.3534 H   0  0  0  0  0  0  0  0  0  0  0  0
   -9.7645   -7.6757   -1.6750 H   0  0  0  0  0  0  0  0  0  0  0  0
   -8.7880   -5.4526   -2.0628 H   0  0  0  0  0  0  0  0  0  0  0  0
   -1.0624   -1.1845   -0.6553 H   0  0  0  0  0  0  0  0  0  0  0  0
  1  2  1  0  0  0  0
  1 28  1  0  0  0  0
  1 29  1  0  0  0  0
  1 30  1  0  0  0  0
  2  3  1  0  0  0  0
  2 31  1  0  0  0  0
  2 32  1  0  0  0  0
  3  4  1  0  0  0  0
  3  6  1  0  0  0  0
  3 51  1  0  0  0  0
  4  5  1  0  0  0  0
  4 33  1  0  0  0  0
  4 34  1  0  0  0  0
  5 35  1  0  0  0  0
  5 36  1  0  0  0  0
  5 37  1  0  0  0  0
  6  7  1  0  0  0  0
  6 38  1  0  0  0  0
  6 39  1  0  0  0  0
  7  8  1  0  0  0  0
  7 40  1  0  0  0  0
  7 41  1  0  0  0  0
  8 18  1  0  0  0  0
  8  9  1  0  0  0  0
  9 14  2  0  0  0  0
  9 10  1  0  0  0  0
 10 11  2  0  0  0  0
 10 42  1  0  0  0  0
 11 12  1  0  0  0  0
 11 43  1  0  0  0  0
 12 13  2  0  0  0  0
 12 27  1  0  0  0  0
 13 14  1  0  0  0  0
 13 44  1  0  0  0  0
 14 15  1  0  0  0  0
 15 16  2  0  0  0  0
 15 20  1  0  0  0  0
 16 17  1  0  0  0  0
 17 18  1  0  0  0  0
 17 45  1  0  0  0  0
 17 46  1  0  0  0  0
 18 19  2  0  0  0  0
 20 25  2  0  0  0  0
 20 21  1  0  0  0  0
 21 22  2  0  0  0  0
 21 47  1  0  0  0  0
 22 23  1  0  0  0  0
 22 48  1  0  0  0  0
 23 24  2  0  0  0  0
 23 49  1  0  0  0  0
 24 25  1  0  0  0  0
 24 50  1  0  0  0  0
 25 26  1  0  0  0  0
M  CHG  1   3   1
M  END
$$$$
