ZINC96006016
 OpenBabel08292219463D

135137  0  0  1  0  0  0  0  0999 V2000
    0.3050    3.7913    0.5766 C   0  0  0  0  0  0  0  0  0  0  0  0
    0.3257    2.2631    0.6462 C   0  0  0  0  0  0  0  0  0  0  0  0
    1.1278    1.7097   -0.5328 C   0  0  2  0  0  0  0  0  0  0  0  0
    0.7175    2.0963   -1.4643 H   0  0  0  0  0  0  0  0  0  0  0  0
    1.0313    0.1774   -0.5309 C   0  0  1  0  0  0  0  0  0  0  0  0
    0.7914   -0.3046   -1.9579 C   0  0  1  0  0  0  0  0  0  0  0  0
    1.5898    0.0642   -2.6028 H   0  0  0  0  0  0  0  0  0  0  0  0
    0.7245   -1.8276   -2.0512 C   0  0  2  0  0  0  0  0  0  0  0  0
    1.1489   -2.3054   -1.1767 H   0  0  0  0  0  0  0  0  0  0  0  0
    1.4228   -2.2865   -3.3070 C   0  0  0  0  0  0  0  0  0  0  0  0
    0.7314   -2.4529   -4.3780 N   0  0  0  0  0  0  0  0  0  0  0  0
    1.3515   -2.9460   -5.5516 O   0  0  0  0  0  0  0  0  0  0  0  0
    0.4926   -2.9783   -6.6931 C   0  0  0  0  0  0  0  0  0  0  0  0
    1.2130   -3.4881   -7.8171 O   0  0  0  0  0  0  0  0  0  0  0  0
    1.4547   -4.8954   -7.7629 C   0  0  0  0  0  0  0  0  0  0  0  0
    2.3170   -5.3112   -8.9564 C   0  0  0  0  0  0  0  0  0  0  0  0
    3.6178   -4.7338   -8.8283 O   0  0  0  0  0  0  0  0  0  0  0  0
    4.5071   -5.0616   -9.8977 C   0  0  0  0  0  0  0  0  0  0  0  0
    2.9030   -2.5564   -3.3407 C   0  0  1  0  0  0  0  0  0  0  0  0
    3.1258   -3.1365   -4.2425 H   0  0  0  0  0  0  0  0  0  0  0  0
    3.6767   -1.2418   -3.3656 C   0  0  0  0  0  0  0  0  0  0  0  0
    4.7025   -1.2298   -4.4989 C   0  0  1  0  0  0  0  0  0  0  0  0
    5.2179    0.1965   -4.7111 C   0  0  1  0  0  0  0  0  0  0  0  0
    4.4137    0.8014   -5.1353 H   0  0  0  0  0  0  0  0  0  0  0  0
    5.6622    0.8131   -3.3853 C   0  0  2  0  0  0  0  0  0  0  0  0
    5.4627    0.1329   -2.5626 H   0  0  0  0  0  0  0  0  0  0  0  0
    4.8994    2.1232   -3.1638 C   0  0  1  0  0  0  0  0  0  0  0  0
    3.9671    2.0972   -3.7274 H   0  0  0  0  0  0  0  0  0  0  0  0
    4.5989    2.3096   -1.6769 C   0  0  2  0  0  0  0  0  0  0  0  0
    4.8870    1.4151   -1.1273 H   0  0  0  0  0  0  0  0  0  0  0  0
    3.1229    2.5605   -1.4905 C   0  0  0  0  0  0  0  0  0  0  0  0
    2.5141    3.1970   -2.3166 O   0  0  0  0  0  0  0  0  0  0  0  0
    2.4965    2.0934   -0.4005 O   0  0  0  0  0  0  0  0  0  0  0  0
    5.3836    3.5127   -1.1471 C   0  0  0  0  0  0  0  0  0  0  0  0
    5.7023    3.2139   -3.6241 O   0  0  0  0  0  0  0  0  0  0  0  0
    4.9459    4.3310   -4.1076 C   0  0  1  0  0  0  0  0  0  0  0  0
    4.2542    4.6473   -3.3317 H   0  0  0  0  0  0  0  0  0  0  0  0
    5.9073    5.4677   -4.4604 C   0  0  0  0  0  0  0  0  0  0  0  0
    5.1237    6.6588   -5.0092 C   0  0  1  0  0  0  0  0  0  0  0  0
    4.2091    6.2415   -6.1532 C   0  0  2  0  0  0  0  0  0  0  0  0
    3.4745    7.0459   -6.3221 H   0  0  0  0  0  0  0  0  0  0  0  0
    3.4585    4.9427   -5.9148 C   0  0  1  0  0  0  0  0  0  0  0  0
    3.1655    4.5436   -6.9097 H   0  0  0  0  0  0  0  0  0  0  0  0
    4.2414    3.9449   -5.2828 O   0  0  0  0  0  0  0  0  0  0  0  0
    2.1608    5.1857   -5.1427 C   0  0  0  0  0  0  0  0  0  0  0  0
    4.9886    6.1208   -7.3539 O   0  0  0  0  0  0  0  0  0  0  0  0
    4.3332    7.3365   -3.8893 C   0  0  0  0  0  0  0  0  0  0  0  0
    6.0727    7.6173   -5.5192 O   0  0  0  0  0  0  0  0  0  0  0  0
    6.9900    8.1055   -4.5383 C   0  0  0  0  0  0  0  0  0  0  0  0
    7.1641    1.1129   -3.4473 C   0  0  0  0  0  0  0  0  0  0  0  0
    6.3172    0.1769   -5.6235 O   0  0  0  0  0  0  0  0  0  0  0  0
    6.0159    0.7250   -6.9083 C   0  0  1  0  0  0  0  0  0  0  0  0
    5.5280    1.6920   -6.7857 H   0  0  0  0  0  0  0  0  0  0  0  0
    7.3117    0.9041   -7.7036 C   0  0  1  0  0  0  0  0  0  0  0  0
    7.8207   -0.0557   -7.7917 H   0  0  0  0  0  0  0  0  0  0  0  0
    6.9751    1.4351   -9.1004 C   0  0  2  0  0  0  0  0  0  0  0  0
    6.5108    2.4176   -9.0149 H   0  0  0  0  0  0  0  0  0  0  0  0
    6.0037    0.4668   -9.7823 C   0  0  0  0  0  0  0  0  0  0  0  0
    4.7584    0.3046   -8.9068 C   0  0  2  0  0  0  0  0  0  0  0  0
    4.2540    1.2660   -8.8105 H   0  0  0  0  0  0  0  0  0  0  0  0
    5.1448   -0.1623   -7.6126 O   0  0  0  0  0  0  0  0  0  0  0  0
    3.8092   -0.7072   -9.5520 C   0  0  0  0  0  0  0  0  0  0  0  0
    8.2057    1.5408   -9.8957 N   0  3  0  0  0  0  0  0  0  0  0  0
    8.7772    0.2021  -10.0937 C   0  0  0  0  0  0  0  0  0  0  0  0
    7.8953    2.1387  -11.2011 C   0  0  0  0  0  0  0  0  0  0  0  0
    8.1610    1.8348   -7.0294 O   0  0  0  0  0  0  0  0  0  0  0  0
    5.8765   -2.1493   -4.1616 C   0  0  0  0  0  0  0  0  0  0  0  0
    4.0852   -1.6762   -5.7101 O   0  0  0  0  0  0  0  0  0  0  0  0
    3.3142   -3.3882   -2.1246 C   0  0  0  0  0  0  0  0  0  0  0  0
   -0.7517   -2.2524   -2.1448 C   0  0  0  0  0  0  0  0  0  0  0  0
   -0.4517    0.2379   -2.4291 O   0  0  0  0  0  0  0  0  0  0  0  0
    2.3431   -0.3830    0.0208 C   0  0  0  0  0  0  0  0  0  0  0  0
   -0.0479   -0.2205    0.3161 O   0  0  0  0  0  0  0  0  0  0  0  0
    1.3258    4.1709    0.6215 H   0  0  0  0  0  0  0  0  0  0  0  0
   -0.1589    4.1062   -0.3582 H   0  0  0  0  0  0  0  0  0  0  0  0
   -0.2666    4.1857    1.4167 H   0  0  0  0  0  0  0  0  0  0  0  0
    0.7896    1.9482    1.5810 H   0  0  0  0  0  0  0  0  0  0  0  0
   -0.6951    1.8835    0.6013 H   0  0  0  0  0  0  0  0  0  0  0  0
   -0.3620   -3.6227   -6.4867 H   0  0  0  0  0  0  0  0  0  0  0  0
    0.1424   -1.9698   -6.9131 H   0  0  0  0  0  0  0  0  0  0  0  0
    1.9747   -5.1394   -6.8365 H   0  0  0  0  0  0  0  0  0  0  0  0
    0.5048   -5.4288   -7.7976 H   0  0  0  0  0  0  0  0  0  0  0  0
    2.4025   -6.3975   -8.9819 H   0  0  0  0  0  0  0  0  0  0  0  0
    1.8534   -4.9614   -9.8788 H   0  0  0  0  0  0  0  0  0  0  0  0
    4.6382   -6.1428   -9.9428 H   0  0  0  0  0  0  0  0  0  0  0  0
    4.0890   -4.7067  -10.8397 H   0  0  0  0  0  0  0  0  0  0  0  0
    5.4726   -4.5855   -9.7264 H   0  0  0  0  0  0  0  0  0  0  0  0
    2.9808   -0.4123   -3.5275 H   0  0  0  0  0  0  0  0  0  0  0  0
    4.1851   -1.1076   -2.4111 H   0  0  0  0  0  0  0  0  0  0  0  0
    5.0881    4.4084   -1.6935 H   0  0  0  0  0  0  0  0  0  0  0  0
    5.1705    3.6472   -0.0867 H   0  0  0  0  0  0  0  0  0  0  0  0
    6.4510    3.3392   -1.2840 H   0  0  0  0  0  0  0  0  0  0  0  0
    6.4528    5.7709   -3.5644 H   0  0  0  0  0  0  0  0  0  0  0  0
    6.6199    5.1205   -5.2105 H   0  0  0  0  0  0  0  0  0  0  0  0
    1.5193    5.8577   -5.7128 H   0  0  0  0  0  0  0  0  0  0  0  0
    1.6470    4.2369   -4.9881 H   0  0  0  0  0  0  0  0  0  0  0  0
    2.3914    5.6356   -4.1770 H   0  0  0  0  0  0  0  0  0  0  0  0
    4.4763    5.8573   -8.1306 H   0  0  0  0  0  0  0  0  0  0  0  0
    5.0210    7.6875   -3.1200 H   0  0  0  0  0  0  0  0  0  0  0  0
    3.7802    8.1832   -4.2959 H   0  0  0  0  0  0  0  0  0  0  0  0
    3.6349    6.6219   -3.4537 H   0  0  0  0  0  0  0  0  0  0  0  0
    6.4377    8.5952   -3.7363 H   0  0  0  0  0  0  0  0  0  0  0  0
    7.5622    7.2726   -4.1295 H   0  0  0  0  0  0  0  0  0  0  0  0
    7.6699    8.8210   -5.0008 H   0  0  0  0  0  0  0  0  0  0  0  0
    7.3619    1.8116   -4.2602 H   0  0  0  0  0  0  0  0  0  0  0  0
    7.4859    1.5531   -2.5035 H   0  0  0  0  0  0  0  0  0  0  0  0
    7.7124    0.1873   -3.6222 H   0  0  0  0  0  0  0  0  0  0  0  0
    5.7156    0.8648  -10.7553 H   0  0  0  0  0  0  0  0  0  0  0  0
    6.4862   -0.5019   -9.9124 H   0  0  0  0  0  0  0  0  0  0  0  0
    4.2814   -1.6894   -9.5680 H   0  0  0  0  0  0  0  0  0  0  0  0
    2.8854   -0.7575   -8.9758 H   0  0  0  0  0  0  0  0  0  0  0  0
    3.5847   -0.3954  -10.5721 H   0  0  0  0  0  0  0  0  0  0  0  0
    9.0075   -0.2416   -9.1251 H   0  0  0  0  0  0  0  0  0  0  0  0
    8.0578   -0.4260  -10.6192 H   0  0  0  0  0  0  0  0  0  0  0  0
    9.6903    0.2804  -10.6838 H   0  0  0  0  0  0  0  0  0  0  0  0
    7.3784    3.0868  -11.0528 H   0  0  0  0  0  0  0  0  0  0  0  0
    8.8205    2.3114  -11.7509 H   0  0  0  0  0  0  0  0  0  0  0  0
    7.2566    1.4615  -11.7682 H   0  0  0  0  0  0  0  0  0  0  0  0
    8.4106    1.5634   -6.1355 H   0  0  0  0  0  0  0  0  0  0  0  0
    5.5123   -3.1672   -4.0221 H   0  0  0  0  0  0  0  0  0  0  0  0
    6.5988   -2.1306   -4.9777 H   0  0  0  0  0  0  0  0  0  0  0  0
    6.3553   -1.8058   -3.2447 H   0  0  0  0  0  0  0  0  0  0  0  0
    3.3833   -1.0939   -6.0316 H   0  0  0  0  0  0  0  0  0  0  0  0
    2.7775   -4.3369   -2.1350 H   0  0  0  0  0  0  0  0  0  0  0  0
    4.3871   -3.5773   -2.1596 H   0  0  0  0  0  0  0  0  0  0  0  0
    3.0709   -2.8432   -1.2125 H   0  0  0  0  0  0  0  0  0  0  0  0
   -1.2023   -1.8072   -3.0319 H   0  0  0  0  0  0  0  0  0  0  0  0
   -0.8137   -3.3385   -2.2120 H   0  0  0  0  0  0  0  0  0  0  0  0
   -1.2847   -1.9122   -1.2569 H   0  0  0  0  0  0  0  0  0  0  0  0
   -0.6773   -0.0228   -3.3326 H   0  0  0  0  0  0  0  0  0  0  0  0
    2.4967   -0.0160    1.0356 H   0  0  0  0  0  0  0  0  0  0  0  0
    2.2971   -1.4720    0.0315 H   0  0  0  0  0  0  0  0  0  0  0  0
    3.1704   -0.0605   -0.6113 H   0  0  0  0  0  0  0  0  0  0  0  0
    0.0479    0.0644    1.2352 H   0  0  0  0  0  0  0  0  0  0  0  0
    8.8717    2.1222   -9.4093 H   0  0  0  0  0  0  0  0  0  0  0  0
  1  2  1  0  0  0  0
  1 74  1  0  0  0  0
  1 75  1  0  0  0  0
  1 76  1  0  0  0  0
  2  3  1  0  0  0  0
  2 77  1  0  0  0  0
  2 78  1  0  0  0  0
  3  4  1  6  0  0  0
  3 33  1  0  0  0  0
  3  5  1  0  0  0  0
  5  6  1  0  0  0  0
  5 72  1  0  0  0  0
  5 73  1  1  0  0  0
  6  7  1  6  0  0  0
  6  8  1  0  0  0  0
  6 71  1  0  0  0  0
  8  9  1  1  0  0  0
  8 10  1  0  0  0  0
  8 70  1  0  0  0  0
 10 11  2  0  0  0  0
 10 19  1  0  0  0  0
 11 12  1  0  0  0  0
 12 13  1  0  0  0  0
 13 14  1  0  0  0  0
 13 79  1  0  0  0  0
 13 80  1  0  0  0  0
 14 15  1  0  0  0  0
 15 16  1  0  0  0  0
 15 81  1  0  0  0  0
 15 82  1  0  0  0  0
 16 17  1  0  0  0  0
 16 83  1  0  0  0  0
 16 84  1  0  0  0  0
 17 18  1  0  0  0  0
 18 85  1  0  0  0  0
 18 86  1  0  0  0  0
 18 87  1  0  0  0  0
 19 20  1  6  0  0  0
 19 21  1  0  0  0  0
 19 69  1  0  0  0  0
 21 22  1  0  0  0  0
 21 88  1  0  0  0  0
 21 89  1  0  0  0  0
 22 23  1  0  0  0  0
 22 67  1  0  0  0  0
 22 68  1  6  0  0  0
 23 24  1  6  0  0  0
 23 25  1  0  0  0  0
 23 51  1  0  0  0  0
 25 26  1  1  0  0  0
 25 27  1  0  0  0  0
 25 50  1  0  0  0  0
 27 28  1  6  0  0  0
 27 29  1  0  0  0  0
 27 35  1  0  0  0  0
 29 30  1  1  0  0  0
 29 31  1  0  0  0  0
 29 34  1  0  0  0  0
 31 32  2  0  0  0  0
 31 33  1  0  0  0  0
 34 90  1  0  0  0  0
 34 91  1  0  0  0  0
 34 92  1  0  0  0  0
 35 36  1  0  0  0  0
 36 37  1  1  0  0  0
 36 44  1  0  0  0  0
 36 38  1  0  0  0  0
 38 39  1  0  0  0  0
 38 93  1  0  0  0  0
 38 94  1  0  0  0  0
 39 40  1  0  0  0  0
 39 47  1  0  0  0  0
 39 48  1  6  0  0  0
 40 41  1  6  0  0  0
 40 42  1  0  0  0  0
 40 46  1  0  0  0  0
 42 43  1  6  0  0  0
 42 44  1  0  0  0  0
 42 45  1  0  0  0  0
 45 95  1  0  0  0  0
 45 96  1  0  0  0  0
 45 97  1  0  0  0  0
 46 98  1  0  0  0  0
 47 99  1  0  0  0  0
 47100  1  0  0  0  0
 47101  1  0  0  0  0
 48 49  1  0  0  0  0
 49102  1  0  0  0  0
 49103  1  0  0  0  0
 49104  1  0  0  0  0
 50105  1  0  0  0  0
 50106  1  0  0  0  0
 50107  1  0  0  0  0
 51 52  1  0  0  0  0
 52 53  1  1  0  0  0
 52 61  1  0  0  0  0
 52 54  1  0  0  0  0
 54 55  1  6  0  0  0
 54 56  1  0  0  0  0
 54 66  1  0  0  0  0
 56 57  1  1  0  0  0
 56 58  1  0  0  0  0
 56 63  1  0  0  0  0
 58 59  1  0  0  0  0
 58108  1  0  0  0  0
 58109  1  0  0  0  0
 59 60  1  1  0  0  0
 59 61  1  0  0  0  0
 59 62  1  0  0  0  0
 62110  1  0  0  0  0
 62111  1  0  0  0  0
 62112  1  0  0  0  0
 63 64  1  0  0  0  0
 63 65  1  0  0  0  0
 63135  1  0  0  0  0
 64113  1  0  0  0  0
 64114  1  0  0  0  0
 64115  1  0  0  0  0
 65116  1  0  0  0  0
 65117  1  0  0  0  0
 65118  1  0  0  0  0
 66119  1  0  0  0  0
 67120  1  0  0  0  0
 67121  1  0  0  0  0
 67122  1  0  0  0  0
 68123  1  0  0  0  0
 69124  1  0  0  0  0
 69125  1  0  0  0  0
 69126  1  0  0  0  0
 70127  1  0  0  0  0
 70128  1  0  0  0  0
 70129  1  0  0  0  0
 71130  1  0  0  0  0
 72131  1  0  0  0  0
 72132  1  0  0  0  0
 72133  1  0  0  0  0
 73134  1  0  0  0  0
M  CHG  1  63   1
M  END
$$$$
