ZINC03993855
 OpenBabel08292219463D

 48 53  0  0  1  0  0  0  0  0999 V2000
    0.1971    1.4693   -0.0381 C   0  0  0  0  0  0  0  0  0  0  0  0
    0.1624    0.0047   -0.0349 N   0  0  0  0  0  0  0  0  0  0  0  0
    0.1593   -0.6830   -1.3153 C   0  0  0  0  0  0  0  0  0  0  0  0
    0.1968   -2.1680   -1.1556 C   0  0  0  0  0  0  0  0  0  0  0  0
    0.2214   -2.8446   -2.1619 O   0  0  0  0  0  0  0  0  0  0  0  0
    0.2055   -2.8003    0.0198 N   0  0  0  0  0  0  0  0  0  0  0  0
    0.0958   -2.1051    1.3015 C   0  0  1  0  0  0  0  0  0  0  0  0
    0.9317   -2.4015    1.9352 H   0  0  0  0  0  0  0  0  0  0  0  0
    0.1408   -0.6198    1.1410 C   0  0  0  0  0  0  0  0  0  0  0  0
    0.1544    0.0599    2.1454 O   0  0  0  0  0  0  0  0  0  0  0  0
   -1.2150   -2.5155    1.9871 C   0  0  0  0  0  0  0  0  0  0  0  0
   -1.3632   -4.0127    1.8945 C   0  0  0  0  0  0  0  0  0  0  0  0
   -2.2230   -4.8804    2.6736 C   0  0  0  0  0  0  0  0  0  0  0  0
   -3.1375   -4.6335    3.7021 C   0  0  0  0  0  0  0  0  0  0  0  0
   -3.7920   -5.7215    4.2248 C   0  0  0  0  0  0  0  0  0  0  0  0
   -3.5654   -7.0080    3.7636 C   0  0  0  0  0  0  0  0  0  0  0  0
   -2.6672   -7.2807    2.7464 C   0  0  0  0  0  0  0  0  0  0  0  0
   -1.9885   -6.1954    2.1961 C   0  0  0  0  0  0  0  0  0  0  0  0
   -1.0557   -6.1068    1.2031 N   0  0  0  0  0  0  0  0  0  0  0  0
   -0.7080   -6.8568    0.6956 H   0  0  0  0  0  0  0  0  0  0  0  0
   -0.6852   -4.7995    1.0312 C   0  0  0  0  0  0  0  0  0  0  0  0
    0.3293   -4.2733    0.0414 C   0  0  1  0  0  0  0  0  0  0  0  0
    1.3341   -4.5559    0.3556 H   0  0  0  0  0  0  0  0  0  0  0  0
    0.0443   -4.8312   -1.3292 C   0  0  0  0  0  0  0  0  0  0  0  0
    1.0570   -5.4325   -2.0534 C   0  0  0  0  0  0  0  0  0  0  0  0
    0.8004   -5.9461   -3.3108 C   0  0  0  0  0  0  0  0  0  0  0  0
   -0.4734   -5.8589   -3.8488 C   0  0  0  0  0  0  0  0  0  0  0  0
   -1.4934   -5.2531   -3.1194 C   0  0  0  0  0  0  0  0  0  0  0  0
   -1.2303   -4.7456   -1.8573 C   0  0  0  0  0  0  0  0  0  0  0  0
   -2.6405   -5.2919   -3.8582 O   0  0  0  0  0  0  0  0  0  0  0  0
   -2.2190   -5.5599   -5.2087 C   0  0  0  0  0  0  0  0  0  0  0  0
   -0.9814   -6.2773   -5.0447 O   0  0  0  0  0  0  0  0  0  0  0  0
    1.2331    1.8082   -0.0330 H   0  0  0  0  0  0  0  0  0  0  0  0
   -0.3029    1.8426   -0.9318 H   0  0  0  0  0  0  0  0  0  0  0  0
   -0.3130    1.8468    0.8482 H   0  0  0  0  0  0  0  0  0  0  0  0
   -0.7424   -0.4084   -1.8626 H   0  0  0  0  0  0  0  0  0  0  0  0
    1.0302   -0.3665   -1.8893 H   0  0  0  0  0  0  0  0  0  0  0  0
   -1.1892   -2.2151    3.0345 H   0  0  0  0  0  0  0  0  0  0  0  0
   -2.0552   -2.0336    1.4872 H   0  0  0  0  0  0  0  0  0  0  0  0
   -3.3202   -3.6340    4.0684 H   0  0  0  0  0  0  0  0  0  0  0  0
   -4.5058   -5.5696    5.0209 H   0  0  0  0  0  0  0  0  0  0  0  0
   -4.1079   -7.8263    4.2135 H   0  0  0  0  0  0  0  0  0  0  0  0
   -2.5005   -8.2883    2.3951 H   0  0  0  0  0  0  0  0  0  0  0  0
    2.0507   -5.5007   -1.6359 H   0  0  0  0  0  0  0  0  0  0  0  0
    1.5933   -6.4154   -3.8743 H   0  0  0  0  0  0  0  0  0  0  0  0
   -2.0205   -4.2793   -1.2875 H   0  0  0  0  0  0  0  0  0  0  0  0
   -2.9544   -6.1777   -5.7240 H   0  0  0  0  0  0  0  0  0  0  0  0
   -2.0530   -4.6285   -5.7501 H   0  0  0  0  0  0  0  0  0  0  0  0
  1  2  1  0  0  0  0
  1 33  1  0  0  0  0
  1 34  1  0  0  0  0
  1 35  1  0  0  0  0
  2  9  1  0  0  0  0
  2  3  1  0  0  0  0
  3  4  1  0  0  0  0
  3 36  1  0  0  0  0
  3 37  1  0  0  0  0
  4  5  2  0  0  0  0
  4  6  1  0  0  0  0
  6 22  1  0  0  0  0
  6  7  1  0  0  0  0
  7  8  1  1  0  0  0
  7  9  1  0  0  0  0
  7 11  1  0  0  0  0
  9 10  2  0  0  0  0
 11 12  1  0  0  0  0
 11 38  1  0  0  0  0
 11 39  1  0  0  0  0
 12 21  2  0  0  0  0
 12 13  1  0  0  0  0
 13 18  2  0  0  0  0
 13 14  1  0  0  0  0
 14 15  2  0  0  0  0
 14 40  1  0  0  0  0
 15 16  1  0  0  0  0
 15 41  1  0  0  0  0
 16 17  2  0  0  0  0
 16 42  1  0  0  0  0
 17 18  1  0  0  0  0
 17 43  1  0  0  0  0
 18 19  1  0  0  0  0
 19 20  1  0  0  0  0
 19 21  1  0  0  0  0
 21 22  1  0  0  0  0
 22 23  1  1  0  0  0
 22 24  1  0  0  0  0
 24 29  2  0  0  0  0
 24 25  1  0  0  0  0
 25 26  2  0  0  0  0
 25 44  1  0  0  0  0
 26 27  1  0  0  0  0
 26 45  1  0  0  0  0
 27 32  1  0  0  0  0
 27 28  2  0  0  0  0
 28 29  1  0  0  0  0
 28 30  1  0  0  0  0
 29 46  1  0  0  0  0
 30 31  1  0  0  0  0
 31 32  1  0  0  0  0
 31 47  1  0  0  0  0
 31 48  1  0  0  0  0
M  END
$$$$
